data_PCOD9164357
_publ_section_title
;
Structure prediction by ZEFSAII (Michael W. Deem and Ramdas Pophale) SiO2 
 PCOD9164357
Probable space group: P 21/M
;
_chemical_formula_sum "Si O2"
_cell_formula_units_Z 30
_cell_length_a 11.125272
_cell_length_b 14.285529
_cell_length_c 9.327443
_cell_angle_alpha 90.000000
_cell_angle_beta 74.110119
_cell_angle_gamma 90.000000
_cell_volume 1425.770684
_symmetry_space_group_name_H-M "P 21/M"
_symmetry_group_IT_number 11
_symmetry_cell_setting 'monoclinic'
loop_
_space_group_symop_operation_xyz
x,y,z
-x,1/2+y,-z
-x,-y,-z
x,1/2-y,z
loop_
_atom_site_type_symbol
_atom_site_label
_atom_site_fract_x
_atom_site_fract_y
_atom_site_fract_z
Si Si1 0.494052 0.565365 0.641979
Si Si2 0.759374 0.986530 0.674928
Si Si3 0.877700 0.964491 0.331351
Si Si4 0.139940 0.639154 0.191927
Si Si5 0.349521 0.399984 0.771501
Si Si6 0.502167 0.250000 0.537597
Si Si7 0.181023 0.354110 0.087254
Si Si8 0.898888 0.141914 0.119526
O O1 0.500000 0.500000 0.500000
O O2 0.627565 0.558010 0.675034
O O3 0.397290 0.506798 0.769184
O O4 0.463974 0.667256 0.592608
O O5 0.844476 0.984087 0.506458
O O6 0.815831 0.926127 0.784971
O O7 0.757013 0.091043 0.740287
O O8 0.766532 0.901573 0.301962
O O9 0.008374 0.910820 0.272603
O O10 0.873614 0.062095 0.244458
O O11 0.131400 0.750000 0.217332
O O12 0.161775 0.622779 0.015273
O O13 0.451596 0.331506 0.668761
O O14 0.293214 0.367977 0.940297
O O15 0.185488 0.250000 0.147300
O O16 0.049405 0.363367 0.047487
O O17 0.871132 0.250000 0.172149
#
# Coordination Sequence:
#
# PCOD9164357 Si02
#       8
#     4   4   4   4   4   2   4   4
#     4  10  23  45  67  97 129 168 220 276 327 393
#     4  12  25  41  63  95 137 167 215 279 328 383
#     4  12  22  40  66  96 130 173 218 271 327 385
#     4  11  24  40  62  93 134 174 215 262 332 394
#     4  11  22  42  71  97 123 177 227 266 323 396
#     4  10  20  42  72  96 122 170 228 272 326 388
#     4  11  23  39  67  99 130 170 221 272 322 391
#     4  10  22  42  64  94 133 177 220 262 324 405
#
# _framework density 21.041252
#
# number of rings (size 3 to 8) (size 9 to 14) (size 15 to 20)
#    0.000    1.067    6.000    1.600    1.867    1.600 
#    6.000    0.000    1.467    0.000    0.000    0.000 
#    0.000    0.000    0.000    0.000    0.000    0.000 
#
# Total GULP energy -167040.978198 kJ/mol
# GULP energy per Si atom -5568.032607 kJ/mol
# Density = 2.099336 g / cm^3
# Si number density = 21.041252 Si / 1000 Ang^3
#
#
#
# Elastic Constant Matrix: (Units=GPa)
#
#
# Indices 1 2 3 4 5 6 
#
# 1 15.2204 -5.1300 -6.5456 0.0000 -5.0019 0.0000
# 2 -5.1300 133.9115 45.3821 0.0000 -10.2982 0.0000
# 3 -6.5456 45.3821 83.4830 0.0000 1.6770 0.0000
# 4 0.0000 0.0000 0.0000 51.8377 0.0000 -4.2940
# 5 -5.0019 -10.2982 1.6770 0.0000 18.9085 0.0000
# 6 0.0000 0.0000 0.0000 -4.2940 0.0000 10.7589
#
#
#
# Elastic Compliance Matrix: (Units=1/GPa)
#
#
# Indices 1 2 3 4 5 6 
#
# 1 0.075437 0.003283 0.003700 0.000000 0.021415 0.000000
# 2 0.003283 0.009891 -0.005254 0.000000 0.006721 0.000000
# 3 0.003700 -0.005254 0.015190 0.000000 -0.003230 0.000000
# 4 0.000000 0.000000 0.000000 0.019951 0.000000 0.007963
# 5 0.021415 0.006721 -0.003230 0.000000 0.062499 0.000000
# 6 0.000000 0.000000 0.000000 0.007963 0.000000 0.096124
#
#
# Mechanical properties :
#
#
# Convention : Reuss Voigt Hill
#
# Bulk Modulus (GPa) = 9.61773 33.33643 21.47708
# Shear Modulus (GPa) = 16.11383 29.56158 22.83770
#
# Velocity S-wave (km/s) = 2.77035 3.75231 3.29808
# Velocity P-wave (km/s) = 3.84889 5.88650 4.97317
#
# Compressibility (1/GPa) = 0.10397459
#
# Stress axis : x y z
#
# Youngs Moduli (GPa) = 13.25610 101.10200 65.83343
#
# Poissons Ratio (x) = -0.33191 -0.24358
# Poissons Ratio (y) = -0.04352 0.34592
# Poissons Ratio (z) = -0.04905 0.53124
#
# Static dielectric constant tensor:
#      x y z
#    x 1.779180 0.000000 0.001850 
#    y 0.000000 1.795840 0.000000 
#    z 0.001850 0.000000 1.736900 
# 
# From -- ./inp_files/17773.got.cif
#   From: 2010.05.17/outbox.cif.g08.bks.cpg/sg11_9_cif.got.tgz:17773.got - 2010.06.03 12:22:45.
