data_PCOD9164604
_publ_section_title
;
Structure prediction by ZEFSAII (Michael W. Deem and Ramdas Pophale) SiO2 
 PCOD9164604
Probable space group: P 21/M
;
_chemical_formula_sum "Si O2"
_cell_formula_units_Z 32
_cell_length_a 14.625106
_cell_length_b 7.495413
_cell_length_c 19.509243
_cell_angle_alpha 90.000000
_cell_angle_beta 145.859239
_cell_angle_gamma 90.000000
_cell_volume 1200.257136
_symmetry_space_group_name_H-M "P 21/M"
_symmetry_group_IT_number 11
_symmetry_cell_setting 'monoclinic'
loop_
_space_group_symop_operation_xyz
x,y,z
-x,1/2+y,-z
-x,-y,-z
x,1/2-y,z
loop_
_atom_site_type_symbol
_atom_site_label
_atom_site_fract_x
_atom_site_fract_y
_atom_site_fract_z
Si Si1 0.268309 0.536636 0.050777
Si Si2 0.311624 0.964241 0.869372
Si Si3 0.615210 0.036205 0.229835
Si Si4 0.361651 0.034673 0.469976
Si Si5 0.116740 0.962820 0.506531
Si Si6 0.402142 0.956119 0.276092
Si Si7 0.019076 0.044783 0.291299
Si Si8 0.066905 0.038355 0.118641
O O1 0.248555 0.750000 0.044998
O O2 0.425436 0.509302 0.101799
O O3 0.338311 0.460857 0.166253
O O4 0.083106 0.472383 0.927465
O O5 0.293784 0.750000 0.859329
O O6 0.289203 0.029991 0.777537
O O7 0.162996 0.034971 0.822973
O O8 0.500000 0.000000 0.000000
O O9 0.625486 0.250000 0.236801
O O10 0.706308 0.973507 0.354820
O O11 0.348857 0.250000 0.466604
O O12 0.443799 0.963359 0.590709
O O13 0.176813 0.967480 0.350620
O O14 0.500000 0.000000 0.500000
O O15 0.119867 0.750000 0.497995
O O16 0.066520 0.044839 0.402313
O O17 0.000000 0.000000 0.500000
O O18 0.437445 0.750000 0.283352
O O19 0.246662 0.959305 0.230873
O O20 0.003791 0.250000 0.257714
O O21 0.089447 0.250000 0.141723
O O22 0.000000 0.000000 0.000000
#
# Coordination Sequence:
#
# PCOD9164604 Si02
#       8
#     4   4   4   4   4   4   4   4
#     4   9  18  32  52  81 112 145 188 229 277 347
#     4  10  22  42  62  83 116 156 200 244 288 349
#     4  10  21  36  54  83 120 150 184 235 290 345
#     4  10  22  40  62  85 115 155 198 249 301 352
#     4  11  21  35  59  92 125 155 192 243 302 367
#     4   9  18  34  54  79 111 146 187 235 289 343
#     4  10  21  42  66  88 121 161 199 249 309 360
#     4   9  17  30  49  74 105 143 183 223 271 331
#
# _framework density 26.660954
#
# number of rings (size 3 to 8) (size 9 to 14) (size 15 to 20)
#    0.000    2.250    1.250    2.250    0.000    6.500 
#    2.250    0.000    0.000    0.000    0.000    0.000 
#    0.000    0.000    0.000    0.000    0.000    0.000 
#
# Total GULP energy -178823.053398 kJ/mol
# GULP energy per Si atom -5588.220419 kJ/mol
# Density = 2.660027 g / cm^3
# Si number density = 26.660954 Si / 1000 Ang^3
#
#
#
# Elastic Constant Matrix: (Units=GPa)
#
#
# Indices 1 2 3 4 5 6 
#
# 1 143.4279 -7.9113 45.7792 0.0000 36.5073 0.0000
# 2 -7.9113 95.1094 -4.9404 0.0000 0.4094 0.0000
# 3 45.7792 -4.9404 178.5998 0.0000 35.5748 0.0000
# 4 0.0000 0.0000 0.0000 17.8215 0.0000 7.7743
# 5 36.5073 0.4094 35.5748 0.0000 56.2380 0.0000
# 6 0.0000 0.0000 0.0000 7.7743 0.0000 19.3576
#
#
#
# Elastic Compliance Matrix: (Units=1/GPa)
#
#
# Indices 1 2 3 4 5 6 
#
# 1 0.008632 0.000675 -0.001232 0.000000 -0.004829 0.000000
# 2 0.000675 0.010586 0.000255 0.000000 -0.000676 0.000000
# 3 -0.001232 0.000255 0.006594 0.000000 -0.003373 0.000000
# 4 0.000000 0.000000 0.000000 0.068031 0.000000 -0.027322
# 5 -0.004829 -0.000676 -0.003373 0.000000 0.023055 0.000000
# 6 0.000000 0.000000 0.000000 -0.027322 0.000000 0.062632
#
#
# Mechanical properties :
#
#
# Convention : Reuss Voigt Hill
#
# Bulk Modulus (GPa) = 39.67192 53.66581 46.66887
# Shear Modulus (GPa) = 26.51992 44.29740 35.40866
#
# Velocity S-wave (km/s) = 3.15732 4.08058 3.64828
# Velocity P-wave (km/s) = 5.31075 6.50955 5.94047
#
# Compressibility (1/GPa) = 0.02520675
#
# Stress axis : x y z
#
# Youngs Moduli (GPa) = 115.85186 94.46022 151.65682
#
# Poissons Ratio (x) = -0.06374 0.18684
# Poissons Ratio (y) = -0.07818 -0.03861
# Poissons Ratio (z) = 0.14273 -0.02405
#
# Static dielectric constant tensor:
#      x y z
#    x 2.201100 0.000000 0.001930 
#    y 0.000000 2.024930 0.000000 
#    z 0.001930 0.000000 2.130370 
# 
# From -- ./inp_files/69121.got.cif
#   From: 2010.05.17/outbox.cif.g08.bks.cpg/sg11_35_cif.got.tgz:69121.got - 2010.06.03 12:22:45.
