data_PCOD9164091
_publ_section_title
;
Structure prediction by ZEFSAII (Michael W. Deem and Ramdas Pophale) SiO2 
 PCOD9164091
Probable space group: P 21/M
;
_chemical_formula_sum "Si O2"
_cell_formula_units_Z 20
_cell_length_a 15.252941
_cell_length_b 10.787348
_cell_length_c 5.164196
_cell_angle_alpha 90.000000
_cell_angle_beta 103.781115
_cell_angle_gamma 90.000000
_cell_volume 825.249778
_symmetry_space_group_name_H-M "P 21/M"
_symmetry_group_IT_number 11
_symmetry_cell_setting 'monoclinic'
loop_
_space_group_symop_operation_xyz
x,y,z
-x,1/2+y,-z
-x,-y,-z
x,1/2-y,z
loop_
_atom_site_type_symbol
_atom_site_label
_atom_site_fract_x
_atom_site_fract_y
_atom_site_fract_z
Si Si1 0.507494 0.615192 0.195798
Si Si2 0.349023 0.532532 0.449426
Si Si3 0.269277 0.750000 0.703444
Si Si4 0.930854 0.612100 0.488843
Si Si5 0.156677 0.021192 0.066138
Si Si6 0.151223 0.750000 0.119334
O O1 0.507671 0.750000 0.070454
O O2 0.423406 0.603414 0.330855
O O3 0.600173 0.589204 0.414316
O O4 0.500000 0.500000 0.000000
O O5 0.321719 0.625527 0.662631
O O6 0.259411 0.501514 0.226054
O O7 0.186267 0.750000 0.438815
O O8 0.233593 0.750000 0.968520
O O9 0.968320 0.750000 0.469919
O O10 0.889466 0.601347 0.743934
O O11 0.000000 0.500000 0.500000
O O12 0.854705 0.582757 0.219685
O O13 0.108708 0.884237 0.037593
#
# Coordination Sequence:
#
# PCOD9164091 Si02
#       6
#     4   4   2   4   4   2
#     4  11  26  42  65 101 146 196 246 309 367 433
#     4  10  24  43  68 100 146 193 252 303 370 427
#     4  10  20  38  70 102 144 181 248 305 358 428
#     4  12  29  51  78 111 153 193 239 303 371 445
#     4  11  25  46  78 110 146 194 251 302 366 442
#     4  10  22  38  74 114 136 181 240 307 356 434
#
# _framework density 24.235087
#
# number of rings (size 3 to 8) (size 9 to 14) (size 15 to 20)
#    0.000    1.200    1.000    3.600   12.600    2.400 
#    0.000    0.000    0.000    0.000    0.000    0.000 
#    0.000    0.000    0.000    0.000    0.000    0.000 
#
# Total GULP energy -112039.245247 kJ/mol
# GULP energy per Si atom -5601.962262 kJ/mol
# Density = 2.417993 g / cm^3
# Si number density = 24.235087 Si / 1000 Ang^3
#
#
#
# Elastic Constant Matrix: (Units=GPa)
#
#
# Indices 1 2 3 4 5 6 
#
# 1 87.0071 31.4476 32.0029 0.0000 16.4028 0.0000
# 2 31.4476 189.7207 32.1425 0.0000 8.8083 0.0000
# 3 32.0029 32.1425 69.4435 0.0000 7.2738 0.0000
# 4 0.0000 0.0000 0.0000 41.1976 0.0000 -0.1124
# 5 16.4028 8.8083 7.2738 0.0000 32.8976 0.0000
# 6 0.0000 0.0000 0.0000 -0.1124 0.0000 20.5171
#
#
#
# Elastic Compliance Matrix: (Units=1/GPa)
#
#
# Indices 1 2 3 4 5 6 
#
# 1 0.015206 -0.001261 -0.005800 0.000000 -0.005962 0.000000
# 2 -0.001261 0.005854 -0.002078 0.000000 -0.000479 0.000000
# 3 -0.005800 -0.002078 0.018093 0.000000 -0.000552 0.000000
# 4 0.000000 0.000000 0.000000 0.024274 0.000000 0.000133
# 5 -0.005962 -0.000479 -0.000552 0.000000 0.033620 0.000000
# 6 0.000000 0.000000 0.000000 0.000133 0.000000 0.048741
#
#
# Mechanical properties :
#
#
# Convention : Reuss Voigt Hill
#
# Bulk Modulus (GPa) = 47.90378 59.70637 53.80508
# Shear Modulus (GPa) = 29.23560 35.62768 32.43164
#
# Velocity S-wave (km/s) = 3.47700 3.83833 3.66212
# Velocity P-wave (km/s) = 5.99404 6.65834 6.33491
#
# Compressibility (1/GPa) = 0.02087518
#
# Stress axis : x y z
#
# Youngs Moduli (GPa) = 65.76219 170.81428 55.27085
#
# Poissons Ratio (x) = 0.21543 0.32055
# Poissons Ratio (y) = 0.08294 0.11487
# Poissons Ratio (z) = 0.38139 0.35500
#
# Static dielectric constant tensor:
#      x y z
#    x 1.917890 0.000000 0.047920 
#    y 0.000000 1.961210 0.000000 
#    z 0.047920 0.000000 1.943490 
# 
# From -- ./inp_files/6096.got.cif
#   From: 2010.05.17/outbox.cif.g08.bks.cpg/sg11_4_cif.got.tgz:6096.got - 2010.06.03 12:22:45.
