data_PCOD9164955
_publ_section_title
;
Structure prediction by ZEFSAII (Michael W. Deem and Ramdas Pophale) SiO2 
 PCOD9164955
Probable space group: P 21/M
;
_chemical_formula_sum "Si O2"
_cell_formula_units_Z 32
_cell_length_a 28.860676
_cell_length_b 9.073266
_cell_length_c 11.979163
_cell_angle_alpha 90.000000
_cell_angle_beta 32.266561
_cell_angle_gamma 90.000000
_cell_volume 1674.646483
_symmetry_space_group_name_H-M "P 21/M"
_symmetry_group_IT_number 11
_symmetry_cell_setting 'monoclinic'
loop_
_space_group_symop_operation_xyz
x,y,z
-x,1/2+y,-z
-x,-y,-z
x,1/2-y,z
loop_
_atom_site_type_symbol
_atom_site_label
_atom_site_fract_x
_atom_site_fract_y
_atom_site_fract_z
Si Si1 0.060054 0.577469 0.041023
Si Si2 0.075140 0.571685 0.271687
Si Si3 0.871421 0.578921 0.313239
Si Si4 0.298533 0.574367 0.299930
Si Si5 0.271377 0.927562 0.927216
Si Si6 0.583039 0.921602 0.777619
Si Si7 0.607932 0.429280 0.115649
Si Si8 0.415684 0.077371 0.491454
O O1 0.086474 0.750000 0.978512
O O2 0.067137 0.533169 0.156152
O O3 0.961130 0.566948 0.198733
O O4 0.113379 0.482045 0.842964
O O5 0.068157 0.750000 0.293579
O O6 0.000000 0.500000 0.500000
O O7 0.171356 0.526718 0.117621
O O8 0.845980 0.750000 0.361371
O O9 0.798198 0.482312 0.521170
O O10 0.301323 0.750000 0.302388
O O11 0.333835 0.500721 0.339991
O O12 0.360360 0.527316 0.071873
O O13 0.272115 0.750000 0.921906
O O14 0.319824 0.974837 0.942257
O O15 0.334035 0.989742 0.704117
O O16 0.582568 0.750000 0.809286
O O17 0.580816 0.931755 0.649229
O O18 0.500000 0.000000 0.000000
O O19 0.604285 0.250000 0.123407
O O20 0.509986 0.479790 0.340378
O O21 0.407139 0.250000 0.540049
#
# Coordination Sequence:
#
# PCOD9164955 Si02
#       8
#     4   4   4   4   4   4   4   4
#     4   9  20  40  60  83 119 155 192 241 298 355
#     4  10  23  41  61  87 118 153 194 243 293 350
#     4  10  21  37  59  88 117 150 196 245 291 353
#     4  11  22  37  59  85 119 158 193 240 296 350
#     4  10  22  39  61  88 115 151 200 241 286 349
#     4  11  22  38  58  85 120 156 196 238 289 347
#     4   9  19  38  59  83 118 156 196 241 288 342
#     4  10  21  39  60  84 118 154 192 241 292 343
#
# _framework density 19.108511
#
# number of rings (size 3 to 8) (size 9 to 14) (size 15 to 20)
#    0.000    2.000    1.250    1.500    3.500    2.500 
#    0.000    1.250    0.000    0.000    0.000    0.000 
#    0.000    0.000    0.000    0.000    0.000    0.000 
#
# Total GULP energy -178636.010738 kJ/mol
# GULP energy per Si atom -5582.375336 kJ/mol
# Density = 1.906502 g / cm^3
# Si number density = 19.108511 Si / 1000 Ang^3
#
#
#
# Elastic Constant Matrix: (Units=GPa)
#
#
# Indices 1 2 3 4 5 6 
#
# 1 85.5240 34.8086 43.4359 0.0000 -6.2387 0.0000
# 2 34.8086 48.3391 33.4250 0.0000 -4.9831 0.0000
# 3 43.4359 33.4250 111.9855 0.0000 -16.1016 0.0000
# 4 0.0000 0.0000 0.0000 34.8422 0.0000 -0.6204
# 5 -6.2387 -4.9831 -16.1016 0.0000 21.7857 0.0000
# 6 0.0000 0.0000 0.0000 -0.6204 0.0000 22.8665
#
#
#
# Elastic Compliance Matrix: (Units=1/GPa)
#
#
# Indices 1 2 3 4 5 6 
#
# 1 0.017782 -0.010126 -0.003889 0.000000 -0.000098 0.000000
# 2 -0.010126 0.031834 -0.005532 0.000000 0.000293 0.000000
# 3 -0.003889 -0.005532 0.013144 0.000000 0.007336 0.000000
# 4 0.000000 0.000000 0.000000 0.028715 0.000000 0.000779
# 5 -0.000098 0.000293 0.007336 0.000000 0.051362 0.000000
# 6 0.000000 0.000000 0.000000 0.000779 0.000000 0.043753
#
#
# Mechanical properties :
#
#
# Convention : Reuss Voigt Hill
#
# Bulk Modulus (GPa) = 42.25358 52.13194 47.19276
# Shear Modulus (GPa) = 21.40667 24.84415 23.12541
#
# Velocity S-wave (km/s) = 3.35067 3.60969 3.48259
# Velocity P-wave (km/s) = 6.09342 6.68688 6.39704
#
# Compressibility (1/GPa) = 0.02366664
#
# Stress axis : x y z
#
# Youngs Moduli (GPa) = 56.23766 31.41290 76.07992
#
# Poissons Ratio (x) = 0.31807 0.29587
# Poissons Ratio (y) = 0.56944 0.42089
# Poissons Ratio (z) = 0.21870 0.17378
#
# Static dielectric constant tensor:
#      x y z
#    x 1.697640 0.000000 -0.030110 
#    y 0.000000 1.643790 0.000000 
#    z -0.030110 0.000000 1.662790 
# 
# From -- ./inp_files/45215.got.cif
#   From: 2010.05.17/outbox.cif.g08.bks.cpg/sg11_23_cif.got.tgz:45215.got - 2010.06.03 12:22:45.
