data_PCOD9164334
_publ_section_title
;
Structure prediction by ZEFSAII (Michael W. Deem and Ramdas Pophale) SiO2 
 PCOD9164334
Probable space group: P 21/M
;
_chemical_formula_sum "Si O2"
_cell_formula_units_Z 20
_cell_length_a 7.457492
_cell_length_b 22.984677
_cell_length_c 5.580110
_cell_angle_alpha 90.000000
_cell_angle_beta 121.473724
_cell_angle_gamma 90.000000
_cell_volume 815.758741
_symmetry_space_group_name_H-M "P 21/M"
_symmetry_group_IT_number 11
_symmetry_cell_setting 'monoclinic'
loop_
_space_group_symop_operation_xyz
x,y,z
-x,1/2+y,-z
-x,-y,-z
x,1/2-y,z
loop_
_atom_site_type_symbol
_atom_site_label
_atom_site_fract_x
_atom_site_fract_y
_atom_site_fract_z
Si Si1 0.823203 0.750000 0.616254
Si Si2 0.769097 0.135579 0.368654
Si Si3 0.087092 0.939410 0.146750
Si Si4 0.179022 0.370912 0.349121
Si Si5 0.083496 0.750000 0.300154
Si Si6 0.502032 0.935383 0.114668
O O1 0.698980 0.810360 0.562138
O O2 0.913133 0.750000 0.403385
O O3 0.981429 0.750000 0.962548
O O4 0.845146 0.074930 0.540351
O O5 0.784755 0.190678 0.556076
O O6 0.952601 0.146166 0.304398
O O7 0.546485 0.117323 0.104421
O O8 0.301412 0.931496 0.149453
O O9 0.894984 0.895881 0.954623
O O10 0.000000 0.000000 0.000000
O O11 0.296206 0.419358 0.586385
O O12 0.500000 0.000000 0.000000
#
# Coordination Sequence:
#
# PCOD9164334 Si02
#       6
#     2   4   4   4   2   4
#     4  10  20  41  69  98 125 176 216 274 330 397
#     4  10  22  40  63  89 124 169 211 268 328 390
#     4  11  22  38  63  89 122 172 213 267 329 388
#     4  10  22  40  63  88 129 163 217 265 331 388
#     4  10  20  41  71  94 131 170 224 268 332 397
#     4  11  24  40  60  94 130 166 220 272 324 394
#
# _framework density 24.517053000000001
#
# number of rings (size 3 to 8) (size 9 to 14) (size 15 to 20)
#    0.000    1.600    2.000    2.400    0.000    8.800 
#    0.000    2.000    0.000    0.000    0.000    0.000 
#    0.000    0.000    0.000    0.000    0.000    0.000 
#
# Total GULP energy -111553.582752 kJ/mol
# GULP energy per Si atom -5577.679138 kJ/mol
# Density = 2.446125 g / cm^3
# Si number density = 24.517053 Si / 1000 Ang^3
#
#
#
# Elastic Constant Matrix: (Units=GPa)
#
#
# Indices 1 2 3 4 5 6 
#
# 1 79.4638 -0.5589 12.7477 0.0000 8.6337 0.0000
# 2 -0.5589 90.9856 0.1141 0.0000 7.5821 0.0000
# 3 12.7477 0.1141 100.2549 0.0000 4.5983 0.0000
# 4 0.0000 0.0000 0.0000 46.5077 0.0000 -0.5886
# 5 8.6337 7.5821 4.5983 0.0000 22.9711 0.0000
# 6 0.0000 0.0000 0.0000 -0.5886 0.0000 16.0096
#
#
#
# Elastic Compliance Matrix: (Units=1/GPa)
#
#
# Indices 1 2 3 4 5 6 
#
# 1 0.013355 0.000491 -0.001475 0.000000 -0.004886 0.000000
# 2 0.000491 0.011322 0.000106 0.000000 -0.003943 0.000000
# 3 -0.001475 0.000106 0.010232 0.000000 -0.001529 0.000000
# 4 0.000000 0.000000 0.000000 0.021512 0.000000 0.000791
# 5 -0.004886 -0.003943 -0.001529 0.000000 0.046977 0.000000
# 6 0.000000 0.000000 0.000000 0.000791 0.000000 0.062492
#
#
# Mechanical properties :
#
#
# Convention : Reuss Voigt Hill
#
# Bulk Modulus (GPa) = 30.16267 32.81223 31.48745
# Shear Modulus (GPa) = 27.98031 34.32444 31.15238
#
# Velocity S-wave (km/s) = 3.38192 3.74575 3.56847
# Velocity P-wave (km/s) = 5.25160 5.66745 5.46348
#
# Compressibility (1/GPa) = 0.03315357
#
# Stress axis : x y z
#
# Youngs Moduli (GPa) = 74.87680 88.32206 97.73189
#
# Poissons Ratio (x) = -0.04337 0.14411
# Poissons Ratio (y) = -0.03677 -0.01031
# Poissons Ratio (z) = 0.11041 -0.00932
#
# Static dielectric constant tensor:
#      x y z
#    x 1.977870 0.000000 -0.038500 
#    y 0.000000 1.866450 0.000000 
#    z -0.038500 0.000000 1.930710 
# 
# From -- ./inp_files/822.got.cif
#   From: 2010.05.17/outbox.cif.g08.bks.cpg/sg11_1_cif.got.tgz:822.got - 2010.06.03 12:22:45.
