data_PCOD9164731
_publ_section_title
;
Structure prediction by ZEFSAII (Michael W. Deem and Ramdas Pophale) SiO2 
 PCOD9164731
Probable space group: P 21/M
;
_chemical_formula_sum "Si O2"
_cell_formula_units_Z 32
_cell_length_a 12.875299
_cell_length_b 18.149838
_cell_length_c 14.643930
_cell_angle_alpha 90.000000
_cell_angle_beta 151.246127
_cell_angle_gamma 90.000000
_cell_volume 1646.175609
_symmetry_space_group_name_H-M "P 21/M"
_symmetry_group_IT_number 11
_symmetry_cell_setting 'monoclinic'
loop_
_space_group_symop_operation_xyz
x,y,z
-x,1/2+y,-z
-x,-y,-z
x,1/2-y,z
loop_
_atom_site_type_symbol
_atom_site_label
_atom_site_fract_x
_atom_site_fract_y
_atom_site_fract_z
Si Si1 0.507072 0.663618 0.886910
Si Si2 0.713559 0.080419 0.121280
Si Si3 0.133363 0.336157 0.377755
Si Si4 0.055446 0.663196 0.955720
Si Si5 0.508258 0.091338 0.778484
Si Si6 0.600394 0.429374 0.367379
Si Si7 0.862331 0.563578 0.942994
Si Si8 0.097470 0.430322 0.808705
O O1 0.466557 0.750000 0.871185
O O2 0.371170 0.609578 0.848131
O O3 0.446279 0.637446 0.737960
O O4 0.758320 0.642259 0.095705
O O5 0.930930 0.123413 0.265378
O O6 0.783254 0.995631 0.156687
O O7 0.538090 0.103079 0.909215
O O8 0.103394 0.250000 0.364537
O O9 0.341467 0.360791 0.592877
O O10 0.121997 0.352218 0.260465
O O11 0.110458 0.750000 0.994936
O O12 0.966009 0.638379 0.984122
O O13 0.260360 0.613271 0.086041
O O14 0.429440 0.007702 0.706234
O O15 0.394216 0.433528 0.276604
O O16 0.844453 0.425275 0.591143
O O17 0.883473 0.553672 0.068135
O O18 0.000000 0.500000 0.000000
#
# Coordination Sequence:
#
# PCOD9164731 Si02
#       8
#     4   4   4   4   4   4   4   4
#     4  11  26  45  64  92 130 168 212 262 316 379
#     4  11  21  41  68  93 123 163 211 259 320 377
#     4  10  21  36  59  94 133 164 203 263 321 375
#     4  10  22  39  60  89 130 170 207 259 321 375
#     4  11  20  38  64  95 127 161 209 262 317 374
#     4  11  24  41  66  93 125 167 207 264 314 375
#     4  11  21  39  62  95 125 163 213 260 312 373
#     4  11  24  42  66  95 124 166 211 264 315 373
#
# _framework density 19.438994999999998
#
# number of rings (size 3 to 8) (size 9 to 14) (size 15 to 20)
#    0.000    1.250    5.000    1.875    0.000    7.000 
#    0.000    0.000    0.000    0.000    0.000    0.000 
#    0.000    0.000    0.000    0.000    0.000    0.000 
#
# Total GULP energy -178440.930846 kJ/mol
# GULP energy per Si atom -5576.279089 kJ/mol
# Density = 1.939475 g / cm^3
# Si number density = 19.438995 Si / 1000 Ang^3
#
#
#
# Elastic Constant Matrix: (Units=GPa)
#
#
# Indices 1 2 3 4 5 6 
#
# 1 64.8690 20.9661 16.6066 0.0000 12.7683 0.0000
# 2 20.9661 80.0522 30.1001 0.0000 4.0096 0.0000
# 3 16.6066 30.1001 148.1293 0.0000 -1.0545 0.0000
# 4 0.0000 0.0000 0.0000 26.6892 0.0000 -4.5723
# 5 12.7683 4.0096 -1.0545 0.0000 12.9770 0.0000
# 6 0.0000 0.0000 0.0000 -4.5723 0.0000 14.7868
#
#
#
# Elastic Compliance Matrix: (Units=1/GPa)
#
#
# Indices 1 2 3 4 5 6 
#
# 1 0.020951 -0.003868 -0.001702 0.000000 -0.019557 0.000000
# 2 -0.003868 0.014496 -0.002518 0.000000 -0.000878 0.000000
# 3 -0.001702 -0.002518 0.007475 0.000000 0.003060 0.000000
# 4 0.000000 0.000000 0.000000 0.039564 0.000000 0.012234
# 5 -0.019557 -0.000878 0.003060 0.000000 0.096822 0.000000
# 6 0.000000 0.000000 0.000000 0.012234 0.000000 0.071411
#
#
# Mechanical properties :
#
#
# Convention : Reuss Voigt Hill
#
# Bulk Modulus (GPa) = 37.38881 47.59957 42.49419
# Shear Modulus (GPa) = 18.12842 25.91578 22.02210
#
# Velocity S-wave (km/s) = 3.05713 3.65524 3.36948
# Velocity P-wave (km/s) = 5.63357 6.50801 6.08651
#
# Compressibility (1/GPa) = 0.02674597
#
# Stress axis : x y z
#
# Youngs Moduli (GPa) = 47.73051 68.98628 133.77627
#
# Poissons Ratio (x) = 0.26681 0.22770
# Poissons Ratio (y) = 0.18460 0.33687
# Poissons Ratio (z) = 0.08124 0.17372
#
# Static dielectric constant tensor:
#      x y z
#    x 1.699130 0.000000 -0.022020 
#    y 0.000000 1.689990 0.000000 
#    z -0.022020 0.000000 1.611130 
# 
# From -- ./inp_files/50739.got.cif
#   From: 2010.05.17/outbox.cif.g08.bks.cpg/sg11_26_cif.got.tgz:50739.got - 2010.06.03 12:22:45.
