data_PCOD9164257
_publ_section_title
;
Structure prediction by ZEFSAII (Michael W. Deem and Ramdas Pophale) SiO2 
 PCOD9164257
Probable space group: P 21/M
;
_chemical_formula_sum "Si O2"
_cell_formula_units_Z 28
_cell_length_a 14.637586
_cell_length_b 11.695384
_cell_length_c 9.442455
_cell_angle_alpha 90.000000
_cell_angle_beta 118.480487
_cell_angle_gamma 90.000000
_cell_volume 1420.848091
_symmetry_space_group_name_H-M "P 21/M"
_symmetry_group_IT_number 11
_symmetry_cell_setting 'monoclinic'
loop_
_space_group_symop_operation_xyz
x,y,z
-x,1/2+y,-z
-x,-y,-z
x,1/2-y,z
loop_
_atom_site_type_symbol
_atom_site_label
_atom_site_fract_x
_atom_site_fract_y
_atom_site_fract_z
Si Si1 0.725954 0.119368 0.938267
Si Si2 0.277447 0.381393 0.599570
Si Si3 0.499355 0.977441 0.166203
Si Si4 0.035317 0.624922 0.349262
Si Si5 0.142039 0.958128 0.703739
Si Si6 0.538764 0.119590 0.451184
Si Si7 0.231584 0.543801 0.323934
O O1 0.735882 0.250000 0.897541
O O2 0.605873 0.087768 0.871931
O O3 0.769499 0.039258 0.845705
O O4 0.787153 0.103717 0.129407
O O5 0.252850 0.250000 0.598888
O O6 0.398839 0.405942 0.715358
O O7 0.213473 0.456208 0.664874
O O8 0.246823 0.426287 0.421098
O O9 0.506884 0.093057 0.265554
O O10 0.500000 0.000000 0.000000
O O11 0.990392 0.750000 0.291726
O O12 0.086274 0.618398 0.543791
O O13 0.128191 0.600564 0.309043
O O14 0.947544 0.528817 0.283142
O O15 0.505286 0.250000 0.469070
O O16 0.663524 0.113474 0.558678
O O17 0.500000 0.000000 0.500000
#
# Coordination Sequence:
#
# PCOD9164257 Si02
#       7
#     4   4   4   4   4   4   4
#     4  12  23  40  62  90 127 163 203 258 314 367
#     4  10  21  40  62  88 127 167 206 255 306 363
#     4  11  23  41  58  91 127 164 208 254 307 369
#     4  10  20  40  64  85 117 159 201 254 308 365
#     4  10  22  38  62  93 118 153 210 253 308 373
#     4  11  23  40  64  93 128 169 212 252 306 375
#     4  10  23  40  61  91 123 162 212 246 303 373
#
# _framework density 19.706541000000001
#
# number of rings (size 3 to 8) (size 9 to 14) (size 15 to 20)
#    0.000    1.429    2.857    2.571    0.000    4.000 
#    0.000    2.143    0.000    0.000    0.000    0.000 
#    0.000    0.000    0.000    0.000    0.000    0.000 
#
# Total GULP energy -156300.201876 kJ/mol
# GULP energy per Si atom -5582.150067 kJ/mol
# Density = 1.966169 g / cm^3
# Si number density = 19.706541 Si / 1000 Ang^3
#
#
#
# Elastic Constant Matrix: (Units=GPa)
#
#
# Indices 1 2 3 4 5 6 
#
# 1 99.6066 20.9835 4.4450 0.0000 -4.8711 0.0000
# 2 20.9835 87.4722 11.5048 0.0000 -5.1295 0.0000
# 3 4.4450 11.5048 67.2501 0.0000 -11.7836 0.0000
# 4 0.0000 0.0000 0.0000 10.5637 0.0000 -5.3515
# 5 -4.8711 -5.1295 -11.7836 0.0000 34.6839 0.0000
# 6 0.0000 0.0000 0.0000 -5.3515 0.0000 -18.4244
#
#
#
# Elastic Compliance Matrix: (Units=1/GPa)
#
#
# Indices 1 2 3 4 5 6 
#
# 1 0.010618 -0.002471 -0.000087 0.000000 0.001096 0.000000
# 2 -0.002471 0.012311 -0.001791 0.000000 0.000865 0.000000
# 3 -0.000087 -0.001791 0.016091 0.000000 0.005190 0.000000
# 4 0.000000 0.000000 0.000000 0.082522 0.000000 -0.023969
# 5 0.001096 0.000865 0.005190 0.000000 0.030877 0.000000
# 6 0.000000 0.000000 0.000000 -0.023969 0.000000 -0.047314
#
#
# Mechanical properties :
#
#
# Convention : Reuss Voigt Hill
#
# Bulk Modulus (GPa) = 32.98002 36.46617 34.72309
# Shear Modulus (GPa) = 40.35153 19.85767 30.10460
#
# Velocity S-wave (km/s) = 4.52997 3.17782 3.91275
# Velocity P-wave (km/s) = 6.64325 5.65770 6.17018
#
# Compressibility (1/GPa) = 0.03032139
#
# Stress axis : x y z
#
# Youngs Moduli (GPa) = 94.18324 81.22572 62.14495
#
# Poissons Ratio (x) = 0.20073 0.00540
# Poissons Ratio (y) = 0.23276 0.11132
# Poissons Ratio (z) = 0.00819 0.14549
#
# Static dielectric constant tensor:
#      x y z
#    x 1.695140 0.000000 -0.021710 
#    y 0.000000 1.677100 0.000000 
#    z -0.021710 0.000000 1.689370 
# 
# From -- ./inp_files/21430.got.cif
#   From: 2010.05.17/outbox.cif.g08.bks.cpg/sg11_11_cif.got.tgz:21430.got - 2010.06.03 12:22:45.
