data_PCOD9164411
_publ_section_title
;
Structure prediction by ZEFSAII (Michael W. Deem and Ramdas Pophale) SiO2 
 PCOD9164411
Probable space group: P 21/M
;
_chemical_formula_sum "Si O2"
_cell_formula_units_Z 28
_cell_length_a 36.081459
_cell_length_b 7.434583
_cell_length_c 34.869819
_cell_angle_alpha 90.000000
_cell_angle_beta 8.429452
_cell_angle_gamma 90.000000
_cell_volume 1371.195165
_symmetry_space_group_name_H-M "P 21/M"
_symmetry_group_IT_number 11
_symmetry_cell_setting 'monoclinic'
loop_
_space_group_symop_operation_xyz
x,y,z
-x,1/2+y,-z
-x,-y,-z
x,1/2-y,z
loop_
_atom_site_type_symbol
_atom_site_label
_atom_site_fract_x
_atom_site_fract_y
_atom_site_fract_z
Si Si1 0.545842 0.034336 0.908444
Si Si2 0.658672 0.750000 0.182753
Si Si3 0.954573 0.963656 0.091120
Si Si4 0.721882 0.967908 0.556037
Si Si5 0.824437 0.034248 0.851361
Si Si6 0.590249 0.030962 0.319259
Si Si7 0.085102 0.461372 0.329939
Si Si8 0.210053 0.750000 0.580002
O O1 0.551509 0.250000 0.897136
O O2 0.815271 0.961948 0.618610
O O3 0.317363 0.961946 0.116488
O O4 0.500000 0.000000 0.000000
O O5 0.630886 0.574698 0.238250
O O6 0.434317 0.750000 0.381432
O O7 0.934452 0.750000 0.881315
O O8 0.950070 0.750000 0.100150
O O9 0.680759 0.025636 0.385866
O O10 0.186762 0.025626 0.879806
O O11 0.000000 0.000000 0.000000
O O12 0.727113 0.750000 0.545632
O O13 0.946129 0.020711 0.355769
O O14 0.762114 0.075455 0.475695
O O15 0.449537 0.020664 0.852322
O O16 0.824656 0.250000 0.850980
O O17 0.868794 0.976560 0.762427
O O18 0.594797 0.250000 0.310169
O O19 0.075449 0.250000 0.349286
#
# Coordination Sequence:
#
# PCOD9164411 Si02
#       8
#     4   2   4   4   4   4   4   2
#     4  10  21  36  51  75 108 147 192 238 281 331
#     4  12  26  42  66  90 122 164 212 252 292 372
#     4  10  21  36  60  90 122 163 204 251 310 361
#     4  10  23  41  62  91 125 150 193 247 298 362
#     4  10  21  38  60  88 119 152 184 237 300 358
#     4  10  23  41  59  88 125 162 204 253 308 349
#     4  10  21  34  54  82 109 143 191 232 287 348
#     4  12  26  42  66  96 114 164 210 236 316 364
#
# _framework density 20.420141000000001
#
# number of rings (size 3 to 8) (size 9 to 14) (size 15 to 20)
#    0.000    1.714    0.000    3.429    4.000    2.286 
#    0.000    0.000    0.000    0.000    0.000    0.000 
#    0.000    0.000    0.000    0.000    0.000    0.000 
#
# Total GULP energy -156514.345184 kJ/mol
# GULP energy per Si atom -5589.798042 kJ/mol
# Density = 2.037366 g / cm^3
# Si number density = 20.420141 Si / 1000 Ang^3
#
#
#
# Elastic Constant Matrix: (Units=GPa)
#
#
# Indices 1 2 3 4 5 6 
#
# 1 187.9547 32.6633 135.7263 0.0000 -12.5233 0.0000
# 2 32.6633 77.6566 42.2771 0.0000 -2.1411 0.0000
# 3 135.7263 42.2771 261.6703 0.0000 -4.0667 0.0000
# 4 0.0000 0.0000 0.0000 -6.9767 0.0000 10.7764
# 5 -12.5233 -2.1411 -4.0667 0.0000 52.1539 0.0000
# 6 0.0000 0.0000 0.0000 10.7764 0.0000 41.0957
#
#
#
# Elastic Compliance Matrix: (Units=1/GPa)
#
#
# Indices 1 2 3 4 5 6 
#
# 1 0.008777 -0.001294 -0.004317 0.000000 0.001718 0.000000
# 2 -0.001294 0.014318 -0.001640 0.000000 0.000149 0.000000
# 3 -0.004317 -0.001640 0.006316 0.000000 -0.000611 0.000000
# 4 0.000000 0.000000 0.000000 -0.102015 0.000000 0.026751
# 5 0.001718 0.000149 -0.000611 0.000000 0.019545 0.000000
# 6 0.000000 0.000000 0.000000 0.026751 0.000000 0.017319
#
#
# Mechanical properties :
#
#
# Convention : Reuss Voigt Hill
#
# Bulk Modulus (GPa) = 67.06911 105.40169 86.23540
# Shear Modulus (GPa) = -307.35505 38.36224 -134.49641
#
# Velocity S-wave (km/s) = -12.28179 4.33904 -8.12450
# Velocity P-wave (km/s) = 12.96948 8.76536 6.75928
#
# Compressibility (1/GPa) = 0.01490999
#
# Stress axis : x y z
#
# Youngs Moduli (GPa) = 113.93345 69.84030 158.32539
#
# Poissons Ratio (x) = 0.09039 0.68346
# Poissons Ratio (y) = 0.14746 0.25961
# Poissons Ratio (z) = 0.49183 0.11452
#
# Static dielectric constant tensor:
#      x y z
#    x 1.677530 0.000000 -0.018480 
#    y 0.000000 1.732980 0.000000 
#    z -0.018480 0.000000 1.759970 
# 
# From -- ./inp_files/73872.got.cif
#   From: 2010.05.17/outbox.cif.g08.bks.cpg/sg11_37_cif.got.tgz:73872.got - 2010.06.03 12:22:45.
