data_PCOD9164826
_publ_section_title
;
Structure prediction by ZEFSAII (Michael W. Deem and Ramdas Pophale) SiO2 
 PCOD9164826
Probable space group: P 21/M
;
_chemical_formula_sum "Si O2"
_cell_formula_units_Z 32
_cell_length_a 7.759704
_cell_length_b 24.781021
_cell_length_c 11.174177
_cell_angle_alpha 90.000000
_cell_angle_beta 59.852111
_cell_angle_gamma 90.000000
_cell_volume 1858.067129
_symmetry_space_group_name_H-M "P 21/M"
_symmetry_group_IT_number 11
_symmetry_cell_setting 'monoclinic'
loop_
_space_group_symop_operation_xyz
x,y,z
-x,1/2+y,-z
-x,-y,-z
x,1/2-y,z
loop_
_atom_site_type_symbol
_atom_site_label
_atom_site_fract_x
_atom_site_fract_y
_atom_site_fract_z
Si Si1 0.690903 0.538368 0.442638
Si Si2 0.024908 0.463555 0.214202
Si Si3 0.299691 0.098476 0.797370
Si Si4 0.450029 0.686560 0.859651
Si Si5 0.621622 0.687199 0.056868
Si Si6 0.644171 0.916341 0.721566
Si Si7 0.036265 0.635817 0.928690
Si Si8 0.351236 0.993926 0.940437
O O1 0.500000 0.500000 0.500000
O O2 0.675485 0.585708 0.349455
O O3 0.699636 0.562019 0.572146
O O4 0.875113 0.500534 0.340165
O O5 0.189412 0.436984 0.243673
O O6 0.930184 0.413561 0.174522
O O7 0.136449 0.501068 0.077208
O O8 0.419202 0.147916 0.816596
O O9 0.071879 0.111827 0.914848
O O10 0.362555 0.044793 0.847653
O O11 0.483328 0.750000 0.828650
O O12 0.606752 0.647345 0.739755
O O13 0.230309 0.669532 0.893017
O O14 0.484999 0.675750 0.989358
O O15 0.607609 0.750000 0.092094
O O16 0.851289 0.671936 0.943205
O O17 0.435200 0.942848 0.840090
O O18 0.500000 0.000000 0.000000
#
# Coordination Sequence:
#
# PCOD9164826 Si02
#       8
#     4   4   4   4   4   4   4   4
#     4  12  23  36  54  84 125 163 198 236 289 371
#     4  10  21  37  56  87 120 160 197 243 301 353
#     4   9  20  36  51  84 117 156 188 236 300 347
#     4  11  21  36  62  90 114 151 201 254 302 351
#     4   9  18  36  58  85 115 146 197 252 294 341
#     4  11  21  38  56  86 123 160 197 246 296 364
#     4   9  19  35  57  87 118 142 194 243 299 341
#     4   9  17  32  57  80 111 146 190 238 298 348
#
# _framework density 17.222199
#
# number of rings (size 3 to 8) (size 9 to 14) (size 15 to 20)
#    0.750    1.250    2.500    2.250    1.750    1.000 
#    0.000    0.625    0.000    0.000    0.000    0.000 
#    0.000    0.000    0.000    0.000    0.000    0.000 
#
# Total GULP energy -178282.830419 kJ/mol
# GULP energy per Si atom -5571.338451 kJ/mol
# Density = 1.718300 g / cm^3
# Si number density = 17.222199 Si / 1000 Ang^3
#
#
#
# Elastic Constant Matrix: (Units=GPa)
#
#
# Indices 1 2 3 4 5 6 
#
# 1 100.7163 40.5859 37.0673 0.0000 8.6405 0.0000
# 2 40.5859 102.9645 48.0168 0.0000 4.9209 0.0000
# 3 37.0673 48.0168 90.8278 0.0000 16.4454 0.0000
# 4 0.0000 0.0000 0.0000 11.7392 0.0000 1.2585
# 5 8.6405 4.9209 16.4454 0.0000 21.1084 0.0000
# 6 0.0000 0.0000 0.0000 1.2585 0.0000 31.2768
#
#
#
# Elastic Compliance Matrix: (Units=1/GPa)
#
#
# Indices 1 2 3 4 5 6 
#
# 1 0.012590 -0.003507 -0.002909 0.000000 -0.002069 0.000000
# 2 -0.003507 0.013999 -0.006564 0.000000 0.003286 0.000000
# 3 -0.002909 -0.006564 0.017667 0.000000 -0.011043 0.000000
# 4 0.000000 0.000000 0.000000 0.085554 0.000000 -0.003443
# 5 -0.002069 0.003286 -0.011043 0.000000 0.056059 0.000000
# 6 0.000000 0.000000 0.000000 -0.003443 0.000000 0.032111
#
#
# Mechanical properties :
#
#
# Convention : Reuss Voigt Hill
#
# Bulk Modulus (GPa) = 54.66175 60.64984 57.65580
# Shear Modulus (GPa) = 19.99681 24.08077 22.03879
#
# Velocity S-wave (km/s) = 3.41120 3.74336 3.58113
# Velocity P-wave (km/s) = 6.87918 7.34685 7.11686
#
# Compressibility (1/GPa) = 0.01829433
#
# Stress axis : x y z
#
# Youngs Moduli (GPa) = 79.42504 71.43550 56.60297
#
# Poissons Ratio (x) = 0.25053 0.16469
# Poissons Ratio (y) = 0.27855 0.37156
# Poissons Ratio (z) = 0.23109 0.46892
#
# Static dielectric constant tensor:
#      x y z
#    x 1.618600 0.000000 -0.001900 
#    y 0.000000 1.595580 0.000000 
#    z -0.001900 0.000000 1.573650 
# 
# From -- ./inp_files/32993.got.cif
#   From: 2010.05.17/outbox.cif.g08.bks.cpg/sg11_17_cif.got.tgz:32993.got - 2010.06.03 12:22:45.
