data_PCOD9164083
_publ_section_title
;
Structure prediction by ZEFSAII (Michael W. Deem and Ramdas Pophale) SiO2 
 PCOD9164083
Probable space group: P 21/M
;
_chemical_formula_sum "Si O2"
_cell_formula_units_Z 30
_cell_length_a 14.901918
_cell_length_b 19.558482
_cell_length_c 11.610974
_cell_angle_alpha 90.000000
_cell_angle_beta 151.975702
_cell_angle_gamma 90.000000
_cell_volume 1590.015890
_symmetry_space_group_name_H-M "P 21/M"
_symmetry_group_IT_number 11
_symmetry_cell_setting 'monoclinic'
loop_
_space_group_symop_operation_xyz
x,y,z
-x,1/2+y,-z
-x,-y,-z
x,1/2-y,z
loop_
_atom_site_type_symbol
_atom_site_label
_atom_site_fract_x
_atom_site_fract_y
_atom_site_fract_z
Si Si1 0.124050 0.407391 0.317741
Si Si2 0.418625 0.931186 0.851855
Si Si3 0.156709 0.471015 0.956168
Si Si4 0.093689 0.750000 0.324884
Si Si5 0.014958 0.872860 0.419539
Si Si6 0.597828 0.026319 0.433700
Si Si7 0.918801 0.377809 0.862225
Si Si8 0.263462 0.169717 0.698459
O O1 0.288349 0.455453 0.449048
O O2 0.214900 0.361811 0.519753
O O3 0.967241 0.460095 0.192068
O O4 0.017526 0.366455 0.096487
O O5 0.402655 0.942170 0.696625
O O6 0.209168 0.914005 0.661492
O O7 0.557437 0.869523 0.042889
O O8 0.500000 0.000000 0.000000
O O9 0.124460 0.424961 0.806147
O O10 0.060123 0.427594 0.949531
O O11 0.380844 0.481952 0.227302
O O12 0.113314 0.810218 0.247830
O O13 0.062886 0.810297 0.388656
O O14 0.913693 0.845641 0.418149
O O15 0.723478 0.078718 0.651173
O O16 0.300124 0.250000 0.733993
#
# Coordination Sequence:
#
# PCOD9164083 Si02
#       8
#     4   4   4   2   4   4   4   4
#     4  11  24  41  59  92 129 166 203 253 315 380
#     4  12  23  40  64  95 127 162 210 264 321 373
#     4  10  20  38  67  93 119 155 208 267 307 359
#     4  10  20  42  62  86 116 166 210 258 296 364
#     4  11  22  40  64  92 125 161 210 264 314 366
#     4  11  20  38  66  95 120 154 210 262 309 360
#     4  10  23  40  62  90 126 164 210 254 310 364
#     4  12  27  39  61  94 131 170 208 255 320 388
#
# _framework density 18.867733999999999
#
# number of rings (size 3 to 8) (size 9 to 14) (size 15 to 20)
#    0.000    1.067    7.333    1.600    3.733    3.200 
#    0.000    2.667    0.000    0.000    0.000    0.000 
#    0.000    0.000    0.000    0.000    0.000    0.000 
#
# Total GULP energy -167142.835294 kJ/mol
# GULP energy per Si atom -5571.427843 kJ/mol
# Density = 1.882479 g / cm^3
# Si number density = 18.867734 Si / 1000 Ang^3
#
#
#
# Elastic Constant Matrix: (Units=GPa)
#
#
# Indices 1 2 3 4 5 6 
#
# 1 19.0488 17.2802 14.7313 0.0000 3.5005 0.0000
# 2 17.2802 90.2966 25.7515 0.0000 12.0006 0.0000
# 3 14.7313 25.7515 91.3621 0.0000 18.8087 0.0000
# 4 0.0000 0.0000 0.0000 10.3916 0.0000 4.1030
# 5 3.5005 12.0006 18.8087 0.0000 43.0730 0.0000
# 6 0.0000 0.0000 0.0000 4.1030 0.0000 12.6494
#
#
#
# Elastic Compliance Matrix: (Units=1/GPa)
#
#
# Indices 1 2 3 4 5 6 
#
# 1 0.068545 -0.010921 -0.008190 0.000000 0.001048 0.000000
# 2 -0.010921 0.013951 -0.001707 0.000000 -0.002254 0.000000
# 3 -0.008190 -0.001707 0.013748 0.000000 -0.004862 0.000000
# 4 0.000000 0.000000 0.000000 0.110367 0.000000 -0.035799
# 5 0.001048 -0.002254 -0.004862 0.000000 0.025882 0.000000
# 6 0.000000 0.000000 0.000000 -0.035799 0.000000 0.090667
#
#
# Mechanical properties :
#
#
# Convention : Reuss Voigt Hill
#
# Bulk Modulus (GPa) = 18.31250 35.13705 26.72478
# Shear Modulus (GPa) = 13.05482 22.75241 17.90362
#
# Velocity S-wave (km/s) = 2.63328 3.47636 3.08377
# Velocity P-wave (km/s) = 4.35572 5.89718 5.18406
#
# Compressibility (1/GPa) = 0.05460751
#
# Stress axis : x y z
#
# Youngs Moduli (GPa) = 14.58892 71.67898 72.73677
#
# Poissons Ratio (x) = 0.78283 0.59570
# Poissons Ratio (y) = 0.15933 0.12418
# Poissons Ratio (z) = 0.11948 0.12238
#
# Static dielectric constant tensor:
#      x y z
#    x 1.664030 0.000000 -0.010150 
#    y 0.000000 1.622800 0.000000 
#    z -0.010150 0.000000 1.665450 
# 
# From -- ./inp_files/39923.got.cif
#   From: 2010.05.17/outbox.cif.g08.bks.cpg/sg11_20_cif.got.tgz:39923.got - 2010.06.03 12:22:45.
