data_PCOD9164819
_publ_section_title
;
Structure prediction by ZEFSAII (Michael W. Deem and Ramdas Pophale) SiO2 
 PCOD9164819
Probable space group: P 21/M
;
_chemical_formula_sum "Si O2"
_cell_formula_units_Z 28
_cell_length_a 12.600371
_cell_length_b 9.119487
_cell_length_c 13.917030
_cell_angle_alpha 90.000000
_cell_angle_beta 64.785460
_cell_angle_gamma 90.000000
_cell_volume 1446.818331
_symmetry_space_group_name_H-M "P 21/M"
_symmetry_group_IT_number 11
_symmetry_cell_setting 'monoclinic'
loop_
_space_group_symop_operation_xyz
x,y,z
-x,1/2+y,-z
-x,-y,-z
x,1/2-y,z
loop_
_atom_site_type_symbol
_atom_site_label
_atom_site_fract_x
_atom_site_fract_y
_atom_site_fract_z
Si Si1 0.615139 0.090222 0.438288
Si Si2 0.453866 0.423877 0.158608
Si Si3 0.888330 0.922810 0.501258
Si Si4 0.861484 0.074404 0.308481
Si Si5 0.671066 0.413998 0.641108
Si Si6 0.695764 0.425783 0.951840
Si Si7 0.059753 0.426562 0.070936
O O1 0.581788 0.250000 0.413884
O O2 0.726090 0.037318 0.333196
O O3 0.659446 0.100174 0.531175
O O4 0.500000 0.000000 0.500000
O O5 0.432307 0.250000 0.174785
O O6 0.436734 0.508351 0.265242
O O7 0.357766 0.496635 0.123190
O O8 0.585493 0.443725 0.067460
O O9 0.894340 0.750000 0.502114
O O10 0.882463 0.978348 0.394244
O O11 0.781187 0.979758 0.607423
O O12 0.000000 0.000000 0.500000
O O13 0.860218 0.250000 0.331763
O O14 0.962277 0.051615 0.192008
O O15 0.689450 0.250000 0.672812
O O16 0.713184 0.250000 0.930651
O O17 0.816062 0.499572 0.944773
O O18 0.075501 0.250000 0.051637
O O19 0.000000 0.500000 0.000000
#
# Coordination Sequence:
#
# PCOD9164819 Si02
#       7
#     4   4   4   4   4   4   4
#     4   9  19  36  57  81 112 149 190 235 290 347
#     4  10  21  38  61  89 119 156 200 250 307 366
#     4  11  22  36  57  85 117 152 190 234 289 357
#     4   9  21  41  59  81 116 155 195 244 294 349
#     4  10  21  37  56  83 117 151 191 239 289 351
#     4  10  22  40  61  86 120 158 201 253 309 366
#     4  11  24  42  64  88 120 161 210 259 308 367
#
# _framework density 19.352810000000002
#
# number of rings (size 3 to 8) (size 9 to 14) (size 15 to 20)
#    0.000    2.000    0.000    3.857    2.000    6.857 
#    0.000    4.286    0.000    0.000    0.000    0.000 
#    0.000    0.000    0.000    0.000    0.000    0.000 
#
# Total GULP energy -156010.255618 kJ/mol
# GULP energy per Si atom -5571.794844 kJ/mol
# Density = 1.930876 g / cm^3
# Si number density = 19.352810 Si / 1000 Ang^3
#
#
#
# Elastic Constant Matrix: (Units=GPa)
#
#
# Indices 1 2 3 4 5 6 
#
# 1 106.3253 61.8061 28.4977 0.0000 -34.6755 0.0000
# 2 61.8061 140.2281 59.9944 0.0000 -22.3588 0.0000
# 3 28.4977 59.9944 94.2605 0.0000 -23.8713 0.0000
# 4 0.0000 0.0000 0.0000 33.9980 0.0000 -3.5325
# 5 -34.6755 -22.3588 -23.8713 0.0000 21.6728 0.0000
# 6 0.0000 0.0000 0.0000 -3.5325 0.0000 34.4201
#
#
#
# Elastic Compliance Matrix: (Units=1/GPa)
#
#
# Indices 1 2 3 4 5 6 
#
# 1 0.025200 -0.007930 0.007721 0.000000 0.040641 0.000000
# 2 -0.007930 0.012621 -0.007699 0.000000 -0.008147 0.000000
# 3 0.007721 -0.007699 0.019820 0.000000 0.026242 0.000000
# 4 0.000000 0.000000 0.000000 0.029731 0.000000 0.003051
# 5 0.040641 -0.008147 0.026242 0.000000 0.131664 0.000000
# 6 0.000000 0.000000 0.000000 0.003051 0.000000 0.029366
#
#
# Mechanical properties :
#
#
# Convention : Reuss Voigt Hill
#
# Bulk Modulus (GPa) = 23.90875 71.26783 47.58829
# Shear Modulus (GPa) = 17.97531 30.71922 24.34726
#
# Velocity S-wave (km/s) = 3.05096 3.98845 3.55078
# Velocity P-wave (km/s) = 4.97917 7.62337 6.43848
#
# Compressibility (1/GPa) = 0.04182570
#
# Stress axis : x y z
#
# Youngs Moduli (GPa) = 39.68318 79.23109 50.45306
#
# Poissons Ratio (x) = 0.62831 -0.38955
# Poissons Ratio (y) = 0.31469 0.38843
# Poissons Ratio (z) = -0.30640 0.60998
#
# Static dielectric constant tensor:
#      x y z
#    x 1.706940 0.000000 -0.020230 
#    y 0.000000 1.676330 0.000000 
#    z -0.020230 0.000000 1.777260 
# 
# From -- ./inp_files/37503.got.cif
#   From: 2010.05.17/outbox.cif.g08.bks.cpg/sg11_19_cif.got.tgz:37503.got - 2010.06.03 12:22:45.
