data_PCOD9164166
_publ_section_title
;
Structure prediction by ZEFSAII (Michael W. Deem and Ramdas Pophale) SiO2 
 PCOD9164166
Probable space group: P 21/M
;
_chemical_formula_sum "Si O2"
_cell_formula_units_Z 28
_cell_length_a 25.752562
_cell_length_b 8.467589
_cell_length_c 9.759721
_cell_angle_alpha 90.000000
_cell_angle_beta 139.301749
_cell_angle_gamma 90.000000
_cell_volume 1387.763108
_symmetry_space_group_name_H-M "P 21/M"
_symmetry_group_IT_number 11
_symmetry_cell_setting 'monoclinic'
loop_
_space_group_symop_operation_xyz
x,y,z
-x,1/2+y,-z
-x,-y,-z
x,1/2-y,z
loop_
_atom_site_type_symbol
_atom_site_label
_atom_site_fract_x
_atom_site_fract_y
_atom_site_fract_z
Si Si1 0.822174 0.436580 0.440181
Si Si2 0.914132 0.938132 0.374191
Si Si3 0.085687 0.062163 0.129424
Si Si4 0.347967 0.441526 0.538083
Si Si5 0.184286 0.059757 0.070695
Si Si6 0.646395 0.058770 0.138130
Si Si7 0.498715 0.059239 0.653760
O O1 0.824894 0.250000 0.422990
O O2 0.886206 0.515039 0.468809
O O3 0.849183 0.477834 0.646849
O O4 0.731321 0.493096 0.245205
O O5 0.916989 0.750000 0.368814
O O6 0.843964 0.999958 0.132941
O O7 0.000000 0.000000 0.500000
O O8 0.089929 0.250000 0.159467
O O9 0.109975 0.029706 0.022427
O O10 0.000000 0.000000 0.000000
O O11 0.345829 0.250000 0.541086
O O12 0.265308 0.498242 0.303228
O O13 0.359517 0.501326 0.716486
O O14 0.420120 0.488070 0.581949
O O15 0.194021 0.250000 0.080458
O O16 0.646184 0.250000 0.141564
O O17 0.574548 0.006518 0.896241
O O18 0.499933 0.250000 0.651569
O O19 0.500000 0.000000 0.500000
#
# Coordination Sequence:
#
# PCOD9164166 Si02
#       7
#     4   4   4   4   4   4   4
#     4  11  23  39  58  85 123 162 201 245 295 356
#     4  11  23  40  61  86 119 159 204 252 307 361
#     4  11  21  37  61  88 119 154 198 249 302 354
#     4  10  20  39  64  89 117 155 201 245 296 358
#     4   9  20  37  58  85 116 149 195 250 293 346
#     4  10  22  40  60  89 125 158 196 248 300 349
#     4  10  23  40  62  92 125 158 195 242 296 356
#
# _framework density 20.176354
#
# number of rings (size 3 to 8) (size 9 to 14) (size 15 to 20)
#    0.000    1.714    1.429    2.571    2.000    2.857 
#    0.000    3.571    0.000    0.000    0.000    0.000 
#    0.000    0.000    0.000    0.000    0.000    0.000 
#
# Total GULP energy -156357.851572 kJ/mol
# GULP energy per Si atom -5584.208985 kJ/mol
# Density = 2.013043 g / cm^3
# Si number density = 20.176354 Si / 1000 Ang^3
#
#
#
# Elastic Constant Matrix: (Units=GPa)
#
#
# Indices 1 2 3 4 5 6 
#
# 1 99.4965 20.8488 22.2084 0.0000 7.8719 0.0000
# 2 20.8488 21.1938 14.1470 0.0000 5.9633 0.0000
# 3 22.2084 14.1470 83.1432 0.0000 -0.2010 0.0000
# 4 0.0000 0.0000 0.0000 26.3081 0.0000 -5.1796
# 5 7.8719 5.9633 -0.2010 0.0000 37.1613 0.0000
# 6 0.0000 0.0000 0.0000 -5.1796 0.0000 22.6741
#
#
#
# Elastic Compliance Matrix: (Units=1/GPa)
#
#
# Indices 1 2 3 4 5 6 
#
# 1 0.012840 -0.011379 -0.001496 0.000000 -0.000902 0.000000
# 2 -0.011379 0.066205 -0.008245 0.000000 -0.008258 0.000000
# 3 -0.001496 -0.008245 0.013834 0.000000 0.001715 0.000000
# 4 0.000000 0.000000 0.000000 0.039801 0.000000 0.009092
# 5 -0.000902 -0.008258 0.001715 0.000000 0.028435 0.000000
# 6 0.000000 0.000000 0.000000 0.009092 0.000000 0.046180
#
#
# Mechanical properties :
#
#
# Convention : Reuss Voigt Hill
#
# Bulk Modulus (GPa) = 19.74772 35.36021 27.55397
# Shear Modulus (GPa) = 18.76768 27.00397 22.88583
#
# Velocity S-wave (km/s) = 3.05320 3.66238 3.37158
# Velocity P-wave (km/s) = 4.71573 5.95379 5.37056
#
# Compressibility (1/GPa) = 0.05063875
#
# Stress axis : x y z
#
# Youngs Moduli (GPa) = 77.88032 15.10468 72.28515
#
# Poissons Ratio (x) = 0.17187 0.10812
# Poissons Ratio (y) = 0.88619 0.59602
# Poissons Ratio (z) = 0.11649 0.12454
#
# Static dielectric constant tensor:
#      x y z
#    x 1.673890 0.000000 0.024980 
#    y 0.000000 1.708530 0.000000 
#    z 0.024980 0.000000 1.719130 
# 
# From -- ./inp_files/28561.got.cif
#   From: 2010.05.17/outbox.cif.g08.bks.cpg/sg11_15_cif.got.tgz:28561.got - 2010.06.03 12:22:45.
