data_PCOD9164203
_publ_section_title
;
Structure prediction by ZEFSAII (Michael W. Deem and Ramdas Pophale) SiO2 
 PCOD9164203
Probable space group: P 21/M
;
_chemical_formula_sum "Si O2"
_cell_formula_units_Z 28
_cell_length_a 16.682154
_cell_length_b 15.409512
_cell_length_c 10.209874
_cell_angle_alpha 90.000000
_cell_angle_beta 154.153973
_cell_angle_gamma 90.000000
_cell_volume 1144.200848
_symmetry_space_group_name_H-M "P 21/M"
_symmetry_group_IT_number 11
_symmetry_cell_setting 'monoclinic'
loop_
_space_group_symop_operation_xyz
x,y,z
-x,1/2+y,-z
-x,-y,-z
x,1/2-y,z
loop_
_atom_site_type_symbol
_atom_site_label
_atom_site_fract_x
_atom_site_fract_y
_atom_site_fract_z
Si Si1 0.262337 0.845900 0.716040
Si Si2 0.549103 0.968072 0.246927
Si Si3 0.976363 0.875498 0.071041
Si Si4 0.551195 0.648700 0.796269
Si Si5 0.033355 0.428915 0.212462
Si Si6 0.442970 0.344954 0.501009
Si Si7 0.036208 0.349273 0.494994
O O1 0.352685 0.750000 0.858010
O O2 0.401276 0.925919 0.931685
O O3 0.120933 0.857351 0.628304
O O4 0.134274 0.846460 0.400483
O O5 0.544133 0.070041 0.268152
O O6 0.748518 0.937993 0.492094
O O7 0.504276 0.918628 0.318420
O O8 0.028957 0.864873 0.995785
O O9 0.778100 0.837849 0.812343
O O10 0.948218 0.978015 0.056121
O O11 0.509732 0.750000 0.769525
O O12 0.513782 0.637574 0.586724
O O13 0.767537 0.634192 0.147527
O O14 0.001356 0.405000 0.314763
O O15 0.522748 0.250000 0.653377
O O16 0.042435 0.250000 0.457797
#
# Coordination Sequence:
#
# PCOD9164203 Si02
#       7
#     4   4   4   4   4   4   4
#     4  11  23  40  67 101 129 169 230 276 317 384
#     4  11  24  40  65  96 134 175 209 271 334 390
#     4  10  21  40  67  89 127 172 223 266 312 392
#     4  10  21  39  64  94 126 169 221 271 325 385
#     4  10  24  42  62  96 133 173 221 263 337 401
#     4  10  20  39  65  95 126 167 218 268 324 387
#     4  10  22  40  64  95 131 172 222 275 323 382
#
# _framework density 24.471229000000001
#
# number of rings (size 3 to 8) (size 9 to 14) (size 15 to 20)
#    0.000    1.714    1.429    2.143    2.000    6.857 
#    2.571    2.857    0.000    0.000    0.000    0.000 
#    0.000    0.000    0.000    0.000    0.000    0.000 
#
# Total GULP energy -156835.958853 kJ/mol
# GULP energy per Si atom -5601.284245 kJ/mol
# Density = 2.441553 g / cm^3
# Si number density = 24.471229 Si / 1000 Ang^3
#
#
#
# Elastic Constant Matrix: (Units=GPa)
#
#
# Indices 1 2 3 4 5 6 
#
# 1 92.8945 45.2613 22.3587 0.0000 -30.7541 0.0000
# 2 45.2613 101.1306 27.1518 0.0000 -16.8033 0.0000
# 3 22.3587 27.1518 94.2892 0.0000 -25.6202 0.0000
# 4 0.0000 0.0000 0.0000 64.6055 0.0000 -29.6566
# 5 -30.7541 -16.8033 -25.6202 0.0000 39.0543 0.0000
# 6 0.0000 0.0000 0.0000 -29.6566 0.0000 48.5880
#
#
#
# Elastic Compliance Matrix: (Units=1/GPa)
#
#
# Indices 1 2 3 4 5 6 
#
# 1 0.017360 -0.006054 0.000771 0.000000 0.011571 0.000000
# 2 -0.006054 0.013155 -0.002568 0.000000 -0.000791 0.000000
# 3 0.000771 -0.002568 0.013419 0.000000 0.008305 0.000000
# 4 0.000000 0.000000 0.000000 0.021504 0.000000 0.013125
# 5 0.011571 -0.000791 0.008305 0.000000 0.039825 0.000000
# 6 0.000000 0.000000 0.000000 0.013125 0.000000 0.028592
#
#
# Mechanical properties :
#
#
# Convention : Reuss Voigt Hill
#
# Bulk Modulus (GPa) = 35.41959 53.09532 44.25745
# Shear Modulus (GPa) = 31.45290 43.35239 37.40265
#
# Velocity S-wave (km/s) = 3.58900 4.21356 3.91376
# Velocity P-wave (km/s) = 5.62849 6.73916 6.20871
#
# Compressibility (1/GPa) = 0.02823296
#
# Stress axis : x y z
#
# Youngs Moduli (GPa) = 57.60428 76.01388 74.52113
#
# Poissons Ratio (x) = 0.46017 -0.05745
# Poissons Ratio (y) = 0.34872 0.19136
# Poissons Ratio (z) = -0.04441 0.19519
#
# Static dielectric constant tensor:
#      x y z
#    x 1.910110 0.000000 -0.015480 
#    y 0.000000 1.943050 0.000000 
#    z -0.015480 0.000000 1.953070 
# 
# From -- ./inp_files/22767.got.cif
#   From: 2010.05.17/outbox.cif.g08.bks.cpg/sg11_12_cif.got.tgz:22767.got - 2010.06.03 12:22:45.
