data_PCOD9164901
_publ_section_title
;
Structure prediction by ZEFSAII (Michael W. Deem and Ramdas Pophale) SiO2 
 PCOD9164901
Probable space group: P 21/M
;
_chemical_formula_sum "Si O2"
_cell_formula_units_Z 28
_cell_length_a 16.101763
_cell_length_b 8.630169
_cell_length_c 21.391657
_cell_angle_alpha 90.000000
_cell_angle_beta 151.084737
_cell_angle_gamma 90.000000
_cell_volume 1437.300677
_symmetry_space_group_name_H-M "P 21/M"
_symmetry_group_IT_number 11
_symmetry_cell_setting 'monoclinic'
loop_
_space_group_symop_operation_xyz
x,y,z
-x,1/2+y,-z
-x,-y,-z
x,1/2-y,z
loop_
_atom_site_type_symbol
_atom_site_label
_atom_site_fract_x
_atom_site_fract_y
_atom_site_fract_z
Si Si1 0.422442 0.929939 0.545007
Si Si2 0.067414 0.066597 0.609723
Si Si3 0.241592 0.932284 0.293139
Si Si4 0.260531 0.431225 0.557314
Si Si5 0.072990 0.935874 0.982367
Si Si6 0.448938 0.437577 0.898678
Si Si7 0.425488 0.938620 0.150698
O O1 0.421200 0.750000 0.563740
O O2 0.303150 0.945781 0.405153
O O3 0.612774 0.981403 0.650977
O O4 0.354477 0.039231 0.554281
O O5 0.079803 0.250000 0.611445
O O6 0.255078 0.010634 0.753820
O O7 0.000000 0.000000 0.500000
O O8 0.918025 0.021122 0.559156
O O9 0.238460 0.750000 0.274780
O O10 0.060817 0.008559 0.158356
O O11 0.226698 0.250000 0.545523
O O12 0.395263 0.485988 0.698966
O O13 0.075893 0.750000 0.988584
O O14 0.262428 0.989576 0.084716
O O15 0.000000 0.000000 0.000000
O O16 0.451342 0.250000 0.902688
O O17 0.568228 0.485146 0.918103
O O18 0.500000 0.500000 0.000000
O O19 0.423395 0.750000 0.150643
#
# Coordination Sequence:
#
# PCOD9164901 Si02
#       7
#     4   4   4   4   4   4   4
#     4  10  21  37  58  86 117 152 199 251 300 356
#     4  11  22  39  63  89 121 156 199 252 303 363
#     4  10  21  38  57  80 118 158 196 246 303 359
#     4  11  21  37  62  89 119 155 199 248 304 362
#     4  11  22  37  60  86 117 157 202 249 302 364
#     4  10  22  42  63  88 123 160 203 254 310 369
#     4   9  20  39  59  82 116 157 197 245 301 361
#
# _framework density 19.480962000000002
#
# number of rings (size 3 to 8) (size 9 to 14) (size 15 to 20)
#    0.000    1.714    1.429    3.000    0.000    5.143 
#    0.000    6.429    0.000    0.000    0.000    0.000 
#    0.000    0.000    0.000    0.000    0.000    0.000 
#
# Total GULP energy -156362.298075 kJ/mol
# GULP energy per Si atom -5584.367788 kJ/mol
# Density = 1.943662 g / cm^3
# Si number density = 19.480962 Si / 1000 Ang^3
#
#
#
# Elastic Constant Matrix: (Units=GPa)
#
#
# Indices 1 2 3 4 5 6 
#
# 1 96.0687 12.0939 44.7826 0.0000 6.6524 0.0000
# 2 12.0939 36.5372 25.0288 0.0000 -2.4894 0.0000
# 3 44.7826 25.0288 103.9823 0.0000 12.1477 0.0000
# 4 0.0000 0.0000 0.0000 27.1178 0.0000 -2.4490
# 5 6.6524 -2.4894 12.1477 0.0000 16.9660 0.0000
# 6 0.0000 0.0000 0.0000 -2.4490 0.0000 33.8678
#
#
#
# Elastic Compliance Matrix: (Units=1/GPa)
#
#
# Indices 1 2 3 4 5 6 
#
# 1 0.013065 -0.000826 -0.005255 0.000000 -0.001482 0.000000
# 2 -0.000826 0.034983 -0.009497 0.000000 0.012256 0.000000
# 3 -0.005255 -0.009497 0.015374 0.000000 -0.010341 0.000000
# 4 0.000000 0.000000 0.000000 0.037119 0.000000 0.002684
# 5 -0.001482 0.012256 -0.010341 0.000000 0.068725 0.000000
# 6 0.000000 0.000000 0.000000 0.002684 0.000000 0.029721
#
#
# Mechanical properties :
#
#
# Convention : Reuss Voigt Hill
#
# Bulk Modulus (GPa) = 30.99082 44.48876 37.73979
# Shear Modulus (GPa) = 20.75565 25.90250 23.32907
#
# Velocity S-wave (km/s) = 3.26764 3.65037 3.46429
# Velocity P-wave (km/s) = 5.49358 6.37601 5.95117
#
# Compressibility (1/GPa) = 0.03226762
#
# Stress axis : x y z
#
# Youngs Moduli (GPa) = 76.53774 28.58510 65.04392
#
# Poissons Ratio (x) = 0.02360 0.34181
# Poissons Ratio (y) = 0.06320 0.61771
# Poissons Ratio (z) = 0.40222 0.27147
#
# Static dielectric constant tensor:
#      x y z
#    x 1.706830 0.000000 0.007090 
#    y 0.000000 1.677040 0.000000 
#    z 0.007090 0.000000 1.674590 
# 
# From -- ./inp_files/65464.got.cif
#   From: 2010.05.17/outbox.cif.g08.bks.cpg/sg11_33_cif.got.tgz:65464.got - 2010.06.03 12:22:45.
