data_PCOD9164741
_publ_section_title
;
Structure prediction by ZEFSAII (Michael W. Deem and Ramdas Pophale) SiO2 
 PCOD9164741
Probable space group: P 21/M
;
_chemical_formula_sum "Si O2"
_cell_formula_units_Z 16
_cell_length_a 24.459352
_cell_length_b 7.507394
_cell_length_c 5.234296
_cell_angle_alpha 90.000000
_cell_angle_beta 122.269645
_cell_angle_gamma 90.000000
_cell_volume 812.697761
_symmetry_space_group_name_H-M "P 21/M"
_symmetry_group_IT_number 11
_symmetry_cell_setting 'monoclinic'
loop_
_space_group_symop_operation_xyz
x,y,z
-x,1/2+y,-z
-x,-y,-z
x,1/2-y,z
loop_
_atom_site_type_symbol
_atom_site_label
_atom_site_fract_x
_atom_site_fract_y
_atom_site_fract_z
Si Si1 0.151416 0.533042 0.926748
Si Si2 0.738367 0.750000 0.879071
Si Si3 0.925155 0.461742 0.763786
Si Si4 0.652242 0.750000 0.163892
Si Si5 0.457440 0.957543 0.143961
O O1 0.160093 0.750000 0.946106
O O2 0.101957 0.479950 0.576945
O O3 0.216707 0.424293 0.042899
O O4 0.119583 0.475691 0.115072
O O5 0.685273 0.750000 0.522957
O O6 0.705160 0.750000 0.072420
O O7 0.918924 0.250000 0.748913
O O8 0.000000 0.500000 0.000000
O O9 0.605617 0.580110 0.017094
O O10 0.440613 0.750000 0.102264
O O11 0.500000 0.000000 0.500000
O O12 0.500000 0.000000 0.000000
#
# Coordination Sequence:
#
# PCOD9164741 Si02
#       5
#     4   2   4   2   4
#     4  10  23  41  59  85 124 165 206 262 318 371
#     4  12  26  42  66  88 132 178 213 254 309 398
#     4  10  21  36  60  90 118 153 207 266 324 383
#     4  12  26  42  66 104 126 172 227 248 317 398
#     4  12  23  43  71 100 139 172 210 276 330 375
#
# _framework density 19.687514
#
# number of rings (size 3 to 8) (size 9 to 14) (size 15 to 20)
#    0.000    1.000    2.500    3.750    3.500    2.000 
#    0.000    0.000    0.000    0.000    0.000    0.000 
#    0.000    0.000    0.000    0.000    0.000    0.000 
#
# Total GULP energy -89480.677173 kJ/mol
# GULP energy per Si atom -5592.542323 kJ/mol
# Density = 1.964270 g / cm^3
# Si number density = 19.687514 Si / 1000 Ang^3
#
#
#
# Elastic Constant Matrix: (Units=GPa)
#
#
# Indices 1 2 3 4 5 6 
#
# 1 65.9387 8.3142 -36.2463 0.0000 -4.7156 0.0000
# 2 8.3142 118.3175 7.1218 0.0000 12.4362 0.0000
# 3 -36.2463 7.1218 76.0822 0.0000 -2.3355 0.0000
# 4 0.0000 0.0000 0.0000 25.6102 0.0000 19.7006
# 5 -4.7156 12.4362 -2.3355 0.0000 40.3940 0.0000
# 6 0.0000 0.0000 0.0000 19.7006 0.0000 40.4208
#
#
#
# Elastic Compliance Matrix: (Units=1/GPa)
#
#
# Indices 1 2 3 4 5 6 
#
# 1 0.021637 -0.002576 0.010670 0.000000 0.003936 0.000000
# 2 -0.002576 0.009103 -0.002179 0.000000 -0.003229 0.000000
# 3 0.010670 -0.002179 0.018523 0.000000 0.002987 0.000000
# 4 0.000000 0.000000 0.000000 0.062467 0.000000 -0.030446
# 5 0.003936 -0.003229 0.002987 0.000000 0.026383 0.000000
# 6 0.000000 0.000000 0.000000 -0.030446 0.000000 0.039579
#
#
# Mechanical properties :
#
#
# Convention : Reuss Voigt Hill
#
# Bulk Modulus (GPa) = 16.36829 24.30196 20.33513
# Shear Modulus (GPa) = 26.84902 40.02827 33.43864
#
# Velocity S-wave (km/s) = 3.69692 4.51397 4.12572
# Velocity P-wave (km/s) = 5.15316 6.28797 5.74863
#
# Compressibility (1/GPa) = 0.06109374
#
# Stress axis : x y z
#
# Youngs Moduli (GPa) = 46.21635 109.84826 53.98774
#
# Poissons Ratio (x) = 0.28302 -0.57606
# Poissons Ratio (y) = 0.11907 0.11762
# Poissons Ratio (z) = -0.49314 0.23933
#
# Static dielectric constant tensor:
#      x y z
#    x 1.667310 0.000000 -0.009190 
#    y 0.000000 1.689450 0.000000 
#    z -0.009190 0.000000 1.686740 
# 
# From -- ./inp_files/7427.got.cif
#   From: 2010.05.17/outbox.cif.g08.bks.cpg/sg11_4_cif.got.tgz:7427.got - 2010.06.03 12:22:45.
