data_PCOD9164194
_publ_section_title
;
Structure prediction by ZEFSAII (Michael W. Deem and Ramdas Pophale) SiO2 
 PCOD9164194
Probable space group: P 21/M
;
_chemical_formula_sum "Si O2"
_cell_formula_units_Z 28
_cell_length_a 20.226049
_cell_length_b 8.223977
_cell_length_c 23.320216
_cell_angle_alpha 90.000000
_cell_angle_beta 159.817421
_cell_angle_gamma 90.000000
_cell_volume 1338.322431
_symmetry_space_group_name_H-M "P 21/M"
_symmetry_group_IT_number 11
_symmetry_cell_setting 'monoclinic'
loop_
_space_group_symop_operation_xyz
x,y,z
-x,1/2+y,-z
-x,-y,-z
x,1/2-y,z
loop_
_atom_site_type_symbol
_atom_site_label
_atom_site_fract_x
_atom_site_fract_y
_atom_site_fract_z
Si Si1 0.559802 0.051656 0.403079
Si Si2 0.009699 0.061209 0.442965
Si Si3 0.662352 0.937867 0.089039
Si Si4 0.880668 0.553380 0.957900
Si Si5 0.721488 0.438149 0.011688
Si Si6 0.922149 0.446507 0.763293
Si Si7 0.644047 0.060851 0.344570
O O1 0.554140 0.250000 0.398599
O O2 0.706291 0.999937 0.572177
O O3 0.649013 0.004083 0.414282
O O4 0.339855 0.995411 0.226486
O O5 0.954150 0.250000 0.395701
O O6 0.862387 0.960476 0.284525
O O7 0.000000 0.000000 0.500000
O O8 0.218833 0.037249 0.586090
O O9 0.627200 0.750000 0.046400
O O10 0.672070 0.035159 0.037809
O O11 0.500000 0.000000 0.000000
O O12 0.875601 0.750000 0.956026
O O13 0.987055 0.496681 0.102635
O O14 0.000000 0.500000 0.000000
O O15 0.698782 0.250000 0.978061
O O16 0.934489 0.495212 0.169734
O O17 0.573375 0.542002 0.853599
O O18 0.922796 0.250000 0.764320
O O19 0.700270 0.250000 0.387815
#
# Coordination Sequence:
#
# PCOD9164194 Si02
#       7
#     4   4   4   4   4   4   4
#     4   9  19  37  63  91 120 159 210 257 309 377
#     4  12  25  42  61  89 124 162 209 263 320 382
#     4  12  25  43  63  87 120 163 211 263 322 383
#     4  10  21  39  61  91 127 166 208 258 316 383
#     4  12  24  39  61  92 126 161 205 263 322 380
#     4  10  20  39  65  90 121 165 213 260 315 383
#     4  11  21  39  64  90 121 164 210 258 317 382
#
# _framework density 20.921714999999999
#
# number of rings (size 3 to 8) (size 9 to 14) (size 15 to 20)
#    0.000    1.143    1.429    6.000    0.000    2.286 
#    0.000    1.429    0.000    0.000    0.000    0.000 
#    0.000    0.000    0.000    0.000    0.000    0.000 
#
# Total GULP energy -156598.974955 kJ/mol
# GULP energy per Si atom -5592.820534 kJ/mol
# Density = 2.087410 g / cm^3
# Si number density = 20.921715 Si / 1000 Ang^3
#
#
#
# Elastic Constant Matrix: (Units=GPa)
#
#
# Indices 1 2 3 4 5 6 
#
# 1 116.4571 8.0106 56.6100 0.0000 4.7064 0.0000
# 2 8.0106 40.3160 2.5177 0.0000 2.0320 0.0000
# 3 56.6100 2.5177 139.9112 0.0000 -3.6972 0.0000
# 4 0.0000 0.0000 0.0000 20.3891 0.0000 7.2346
# 5 4.7064 2.0320 -3.6972 0.0000 26.3001 0.0000
# 6 0.0000 0.0000 0.0000 7.2346 0.0000 28.4285
#
#
#
# Elastic Compliance Matrix: (Units=1/GPa)
#
#
# Indices 1 2 3 4 5 6 
#
# 1 0.010985 -0.001779 -0.004478 0.000000 -0.002458 0.000000
# 2 -0.001779 0.025224 0.000224 0.000000 -0.001599 0.000000
# 3 -0.004478 0.000224 0.009009 0.000000 0.002050 0.000000
# 4 0.000000 0.000000 0.000000 0.053914 0.000000 -0.013720
# 5 -0.002458 -0.001599 0.002050 0.000000 0.038874 0.000000
# 6 0.000000 0.000000 0.000000 -0.013720 0.000000 0.038668
#
#
# Mechanical properties :
#
#
# Convention : Reuss Voigt Hill
#
# Bulk Modulus (GPa) = 30.16380 47.88455 39.02418
# Shear Modulus (GPa) = 25.02606 30.32662 27.67634
#
# Velocity S-wave (km/s) = 3.46233 3.81140 3.64105
# Velocity P-wave (km/s) = 5.51656 6.50432 6.03070
#
# Compressibility (1/GPa) = 0.03315232
#
# Stress axis : x y z
#
# Youngs Moduli (GPa) = 91.03179 39.64449 110.99661
#
# Poissons Ratio (x) = 0.07054 0.49701
# Poissons Ratio (y) = 0.16196 -0.02483
# Poissons Ratio (z) = 0.40761 -0.00887
#
# Static dielectric constant tensor:
#      x y z
#    x 1.737340 0.000000 0.013020 
#    y 0.000000 1.716600 0.000000 
#    z 0.013020 0.000000 1.778830 
# 
# From -- ./inp_files/69842.got.cif
#   From: 2010.05.17/outbox.cif.g08.bks.cpg/sg11_35_cif.got.tgz:69842.got - 2010.06.03 12:22:45.
