data_PCOD9164641
_publ_section_title
;
Structure prediction by ZEFSAII (Michael W. Deem and Ramdas Pophale) SiO2 
 PCOD9164641
Probable space group: P 21/M
;
_chemical_formula_sum "Si O2"
_cell_formula_units_Z 30
_cell_length_a 14.216670
_cell_length_b 9.403269
_cell_length_c 12.175388
_cell_angle_alpha 90.000000
_cell_angle_beta 92.347461
_cell_angle_gamma 90.000000
_cell_volume 1626.278587
_symmetry_space_group_name_H-M "P 21/M"
_symmetry_group_IT_number 11
_symmetry_cell_setting 'monoclinic'
loop_
_space_group_symop_operation_xyz
x,y,z
-x,1/2+y,-z
-x,-y,-z
x,1/2-y,z
loop_
_atom_site_type_symbol
_atom_site_label
_atom_site_fract_x
_atom_site_fract_y
_atom_site_fract_z
Si Si1 0.726188 0.914130 0.735721
Si Si2 0.959348 0.250000 0.012687
Si Si3 0.571017 0.417469 0.852001
Si Si4 0.115498 0.039835 0.073726
Si Si5 0.619140 0.418169 0.109573
Si Si6 0.073339 0.582277 0.657508
Si Si7 0.131700 0.417346 0.445859
Si Si8 0.806350 0.587699 0.164488
O O1 0.693428 0.750000 0.735152
O O2 0.776061 0.944330 0.622125
O O3 0.642901 0.017577 0.767985
O O4 0.808765 0.928126 0.829906
O O5 0.905777 0.374767 0.940451
O O6 0.019664 0.127307 0.082678
O O7 0.553799 0.250000 0.834622
O O8 0.474134 0.505364 0.849944
O O9 0.615535 0.434309 0.976579
O O10 0.156166 0.090931 0.958244
O O11 0.620018 0.250000 0.133555
O O12 0.711347 0.495849 0.159025
O O13 0.092351 0.750000 0.674079
O O14 0.120293 0.520954 0.548323
O O15 0.117367 0.489867 0.756514
O O16 0.961641 0.562979 0.633628
O O17 0.131013 0.250000 0.479749
O O18 0.790588 0.750000 0.199804
#
# Coordination Sequence:
#
# PCOD9164641 Si02
#       8
#     4   2   4   4   4   4   4   4
#     4  11  21  35  57  82 115 151 190 230 281 342
#     4  10  24  36  48  72 120 158 188 226 276 338
#     4  10  21  36  56  83 115 149 187 235 283 340
#     4  11  23  36  51  80 115 154 189 228 278 338
#     4  10  21  37  57  81 114 152 188 233 284 340
#     4  10  22  39  59  81 111 152 197 242 284 330
#     4   9  21  39  58  81 111 151 195 240 282 329
#     4  12  23  35  57  84 116 150 191 233 280 341
#
# _framework density 18.447023999999999
#
# number of rings (size 3 to 8) (size 9 to 14) (size 15 to 20)
#    0.000    1.600    2.667    1.600    6.533    2.133 
#    0.000    0.000    0.000    0.800    0.000    0.000 
#    0.000    0.000    0.000    0.000    0.000    0.000 
#
# Total GULP energy -167104.046541 kJ/mol
# GULP energy per Si atom -5570.134885 kJ/mol
# Density = 1.840504 g / cm^3
# Si number density = 18.447024 Si / 1000 Ang^3
#
#
#
# Elastic Constant Matrix: (Units=GPa)
#
#
# Indices 1 2 3 4 5 6 
#
# 1 59.0547 48.4456 17.7100 0.0000 -17.7442 0.0000
# 2 48.4456 157.1164 22.1260 0.0000 -14.2847 0.0000
# 3 17.7100 22.1260 43.6495 0.0000 -10.3792 0.0000
# 4 0.0000 0.0000 0.0000 169.3822 0.0000 -271.8229
# 5 -17.7442 -14.2847 -10.3792 0.0000 23.6903 0.0000
# 6 0.0000 0.0000 0.0000 -271.8229 0.0000 545.1681
#
#
#
# Elastic Compliance Matrix: (Units=1/GPa)
#
#
# Indices 1 2 3 4 5 6 
#
# 1 0.028378 -0.006735 -0.004478 0.000000 0.015233 0.000000
# 2 -0.006735 0.008637 -0.001794 0.000000 -0.000622 0.000000
# 3 -0.004478 -0.001794 0.027440 0.000000 0.007586 0.000000
# 4 0.000000 0.000000 0.000000 0.029542 0.000000 0.014730
# 5 0.015233 -0.000622 0.007586 0.000000 0.056569 0.000000
# 6 0.000000 0.000000 0.000000 0.014730 0.000000 0.009179
#
#
# Mechanical properties :
#
#
# Convention : Reuss Voigt Hill
#
# Bulk Modulus (GPa) = 26.01286 48.48709 37.24997
# Shear Modulus (GPa) = 25.17978 159.08404 92.13191
#
# Velocity S-wave (km/s) = 3.69857 9.29653 7.07478
# Velocity P-wave (km/s) = 5.68957 11.89856 9.32595
#
# Compressibility (1/GPa) = 0.03844253
#
# Stress axis : x y z
#
# Youngs Moduli (GPa) = 35.23839 115.77662 36.44340
#
# Poissons Ratio (x) = 0.77971 0.16319
# Poissons Ratio (y) = 0.23732 0.06537
# Poissons Ratio (z) = 0.15780 0.20767
#
# Static dielectric constant tensor:
#      x y z
#    x 1.636970 0.000000 -0.024770 
#    y 0.000000 1.631400 0.000000 
#    z -0.024770 0.000000 1.650780 
# 
# From -- ./inp_files/37571.got.cif
#   From: 2010.05.17/outbox.cif.g08.bks.cpg/sg11_19_cif.got.tgz:37571.got - 2010.06.03 12:22:45.
