data_PCOD9164418
_publ_section_title
;
Structure prediction by ZEFSAII (Michael W. Deem and Ramdas Pophale) SiO2 
 PCOD9164418
Probable space group: P 21/M
;
_chemical_formula_sum "Si O2"
_cell_formula_units_Z 24
_cell_length_a 7.679419
_cell_length_b 22.822536
_cell_length_c 7.018135
_cell_angle_alpha 90.000000
_cell_angle_beta 64.204888
_cell_angle_gamma 90.000000
_cell_volume 1107.460377
_symmetry_space_group_name_H-M "P 21/M"
_symmetry_group_IT_number 11
_symmetry_cell_setting 'monoclinic'
loop_
_space_group_symop_operation_xyz
x,y,z
-x,1/2+y,-z
-x,-y,-z
x,1/2-y,z
loop_
_atom_site_type_symbol
_atom_site_label
_atom_site_fract_x
_atom_site_fract_y
_atom_site_fract_z
Si Si1 0.814017 0.023305 0.691869
Si Si2 0.524076 0.183793 0.987362
Si Si3 0.938808 0.361336 0.866268
Si Si4 0.672627 0.817934 0.531229
Si Si5 0.499754 0.093336 0.649866
Si Si6 0.859471 0.948024 0.007853
O O1 0.666321 0.046885 0.605171
O O2 0.870402 0.080622 0.786030
O O3 0.757035 0.970639 0.863243
O O4 0.000000 0.000000 0.500000
O O5 0.507764 0.250000 0.920134
O O6 0.360549 0.175960 0.226994
O O7 0.498102 0.136720 0.833569
O O8 0.742268 0.176217 0.968718
O O9 0.116889 0.332833 0.661273
O O10 0.023411 0.386827 0.026297
O O11 0.630085 0.750000 0.505685
O O12 0.517033 0.863282 0.518164
O O13 0.302015 0.057751 0.754742
O O14 0.000000 0.000000 0.000000
#
# Coordination Sequence:
#
# PCOD9164418 Si02
#       6
#     4   4   4   4   4   4
#     4  10  21  34  55  84 112 148 191 232 282 337
#     4  10  21  37  60  85 113 150 189 236 291 340
#     4   9  20  38  56  81 117 148 186 239 282 338
#     4  10  21  38  60  86 113 148 192 234 287 345
#     4  10  21  38  59  81 117 150 186 241 283 338
#     4   9  19  37  54  79 111 148 186 227 282 331
#
# _framework density 21.671205
#
# number of rings (size 3 to 8) (size 9 to 14) (size 15 to 20)
#    0.000    2.333    0.000    1.500    4.667    0.000 
#    0.000    2.500    0.000   10.000    0.000    0.000 
#    0.000    0.000    0.000    0.000    0.000    0.000 
#
# Total GULP energy -133769.137151 kJ/mol
# GULP energy per Si atom -5573.714048 kJ/mol
# Density = 2.162188 g / cm^3
# Si number density = 21.671205 Si / 1000 Ang^3
#
#
#
# Elastic Constant Matrix: (Units=GPa)
#
#
# Indices 1 2 3 4 5 6 
#
# 1 55.7275 11.1259 -7.8782 0.0000 -13.0739 0.0000
# 2 11.1259 75.7725 24.4598 0.0000 -4.2810 0.0000
# 3 -7.8782 24.4598 49.4131 0.0000 -4.6007 0.0000
# 4 0.0000 0.0000 0.0000 139.3003 0.0000 29.5606
# 5 -13.0739 -4.2810 -4.6007 0.0000 23.3631 0.0000
# 6 0.0000 0.0000 0.0000 29.5606 0.0000 41.4611
#
#
#
# Elastic Compliance Matrix: (Units=1/GPa)
#
#
# Indices 1 2 3 4 5 6 
#
# 1 0.023174 -0.005044 0.007450 0.000000 0.013511 0.000000
# 2 -0.005044 0.016849 -0.009290 0.000000 -0.001565 0.000000
# 3 0.007450 -0.009290 0.026744 0.000000 0.007733 0.000000
# 4 0.000000 0.000000 0.000000 0.008458 0.000000 -0.006031
# 5 0.013511 -0.001565 0.007733 0.000000 0.051599 0.000000
# 6 0.000000 0.000000 0.000000 -0.006031 0.000000 0.028419
#
#
# Mechanical properties :
#
#
# Convention : Reuss Voigt Hill
#
# Bulk Modulus (GPa) = 18.86871 26.25870 22.56370
# Shear Modulus (GPa) = 26.78400 51.03860 38.91130
#
# Velocity S-wave (km/s) = 3.51939 4.85824 4.24197
# Velocity P-wave (km/s) = 5.02399 6.60402 5.86744
#
# Compressibility (1/GPa) = 0.05299780
#
# Stress axis : x y z
#
# Youngs Moduli (GPa) = 43.15098 59.35227 37.39161
#
# Poissons Ratio (x) = 0.29939 -0.27856
# Poissons Ratio (y) = 0.21767 0.34737
# Poissons Ratio (z) = -0.32146 0.55139
#
# Static dielectric constant tensor:
#      x y z
#    x 1.938790 0.000000 0.075440 
#    y 0.000000 1.854200 0.000000 
#    z 0.075440 0.000000 1.881040 
# 
# From -- ./inp_files/13920.got.cif
#   From: 2010.05.17/outbox.cif.g08.bks.cpg/sg11_7_cif.got.tgz:13920.got - 2010.06.03 12:22:45.
