data_PCOD9164658
_publ_section_title
;
Structure prediction by ZEFSAII (Michael W. Deem and Ramdas Pophale) SiO2 
 PCOD9164658
Probable space group: P 21/M
;
_chemical_formula_sum "Si O2"
_cell_formula_units_Z 16
_cell_length_a 4.960408
_cell_length_b 8.452374
_cell_length_c 17.851508
_cell_angle_alpha 90.000000
_cell_angle_beta 105.906319
_cell_angle_gamma 90.000000
_cell_volume 719.806290
_symmetry_space_group_name_H-M "P 21/M"
_symmetry_group_IT_number 11
_symmetry_cell_setting 'monoclinic'
loop_
_space_group_symop_operation_xyz
x,y,z
-x,1/2+y,-z
-x,-y,-z
x,1/2-y,z
loop_
_atom_site_type_symbol
_atom_site_label
_atom_site_fract_x
_atom_site_fract_y
_atom_site_fract_z
Si Si1 0.283859 0.564287 0.422072
Si Si2 0.305325 0.565197 0.662294
Si Si3 0.813928 0.439659 0.917845
Si Si4 0.782262 0.558739 0.178041
O O1 0.500000 0.500000 0.500000
O O2 0.235672 0.750000 0.428548
O O3 0.986717 0.476509 0.401106
O O4 0.441145 0.532014 0.355315
O O5 0.367867 0.750000 0.658977
O O6 0.252960 0.518863 0.744177
O O7 0.828635 0.250000 0.920485
O O8 0.948461 0.491262 0.848974
O O9 0.489001 0.484144 0.892701
O O10 0.000000 0.500000 0.000000
O O11 0.787340 0.750000 0.188511
#
# Coordination Sequence:
#
# PCOD9164658 Si02
#       4
#     4   4   4   4
#     4  12  25  44  67  93 127 167 207 254 309 370
#     4  12  25  42  65  96 127 162 209 260 309 366
#     4  10  21  36  57  83 115 153 199 248 301 360
#     4  10  21  38  58  84 117 158 200 246 303 364
#
# _framework density 22.228206
#
# number of rings (size 3 to 8) (size 9 to 14) (size 15 to 20)
#    0.000    1.000    0.000    7.500    0.000    4.000 
#    0.000    0.000    0.000    0.000    0.000    0.000 
#    0.000    0.000    0.000    0.000    0.000    0.000 
#
# Total GULP energy -89609.896934 kJ/mol
# GULP energy per Si atom -5600.618558 kJ/mol
# Density = 2.217761 g / cm^3
# Si number density = 22.228206 Si / 1000 Ang^3
#
#
#
# Elastic Constant Matrix: (Units=GPa)
#
#
# Indices 1 2 3 4 5 6 
#
# 1 66.1544 -8.3370 -21.1228 0.0000 -1.3695 0.0000
# 2 -8.3370 50.5575 0.3699 0.0000 3.9070 0.0000
# 3 -21.1228 0.3699 65.5675 0.0000 0.9637 0.0000
# 4 0.0000 0.0000 0.0000 40.2108 0.0000 2.3783
# 5 -1.3695 3.9070 0.9637 0.0000 38.0464 0.0000
# 6 0.0000 0.0000 0.0000 2.3783 0.0000 22.7294
#
#
#
# Elastic Compliance Matrix: (Units=1/GPa)
#
#
# Indices 1 2 3 4 5 6 
#
# 1 0.017239 0.002787 0.005535 0.000000 0.000194 0.000000
# 2 0.002787 0.020389 0.000812 0.000000 -0.002014 0.000000
# 3 0.005535 0.000812 0.017035 0.000000 -0.000316 0.000000
# 4 0.000000 0.000000 0.000000 0.025024 0.000000 -0.002618
# 5 0.000194 -0.002014 -0.000316 0.000000 0.026505 0.000000
# 6 0.000000 0.000000 0.000000 -0.002618 0.000000 0.044270
#
#
# Mechanical properties :
#
#
# Convention : Reuss Voigt Hill
#
# Bulk Modulus (GPa) = 13.71153 13.78884 13.75018
# Shear Modulus (GPa) = 31.94838 34.28860 33.11849
#
# Velocity S-wave (km/s) = 3.79527 3.93182 3.86415
# Velocity P-wave (km/s) = 5.03859 5.17968 5.10962
#
# Compressibility (1/GPa) = 0.07293131
#
# Stress axis : x y z
#
# Youngs Moduli (GPa) = 58.00901 49.04659 58.70398
#
# Poissons Ratio (x) = -0.13670 -0.32492
# Poissons Ratio (y) = -0.16168 -0.04770
# Poissons Ratio (z) = -0.32108 -0.03985
#
# Static dielectric constant tensor:
#      x y z
#    x 1.795200 0.000000 -0.007850 
#    y 0.000000 1.743070 0.000000 
#    z -0.007850 0.000000 1.834600 
# 
# From -- ./inp_files/5962.got.cif
#   From: 2010.05.17/outbox.cif.g08.bks.cpg/sg11_3_cif.got.tgz:5962.got - 2010.06.03 12:22:45.
