data_PCOD9164240
_publ_section_title
;
Structure prediction by ZEFSAII (Michael W. Deem and Ramdas Pophale) SiO2 
 PCOD9164240
Probable space group: P 21/M
;
_chemical_formula_sum "Si O2"
_cell_formula_units_Z 32
_cell_length_a 9.405845
_cell_length_b 26.885037
_cell_length_c 6.474701
_cell_angle_alpha 90.000000
_cell_angle_beta 90.094288
_cell_angle_gamma 90.000000
_cell_volume 1637.297451
_symmetry_space_group_name_H-M "P 21/M"
_symmetry_group_IT_number 11
_symmetry_cell_setting 'monoclinic'
loop_
_space_group_symop_operation_xyz
x,y,z
-x,1/2+y,-z
-x,-y,-z
x,1/2-y,z
loop_
_atom_site_type_symbol
_atom_site_label
_atom_site_fract_x
_atom_site_fract_y
_atom_site_fract_z
Si Si1 0.027569 0.538589 0.314462
Si Si2 0.970222 0.120105 0.354093
Si Si3 0.351975 0.869942 0.760792
Si Si4 0.447987 0.305715 0.004677
Si Si5 0.465809 0.056938 0.970391
Si Si6 0.224889 0.309076 0.359331
Si Si7 0.442068 0.123597 0.614191
Si Si8 0.840182 0.955057 0.917147
O O1 0.049348 0.591429 0.426144
O O2 0.149612 0.510340 0.182544
O O3 0.000000 0.500000 0.500000
O O4 0.898516 0.541731 0.151032
O O5 0.815622 0.129770 0.260756
O O6 0.065408 0.169774 0.363195
O O7 0.056504 0.081663 0.208095
O O8 0.422557 0.819107 0.842850
O O9 0.410766 0.911335 0.920134
O O10 0.427127 0.879166 0.541580
O O11 0.454939 0.250000 0.931335
O O12 0.303367 0.312200 0.136651
O O13 0.461594 0.340845 0.810247
O O14 0.317710 0.066229 0.089284
O O15 0.432933 0.071066 0.732425
O O16 0.500000 0.000000 0.000000
O O17 0.234884 0.250000 0.420391
O O18 0.311869 0.349557 0.496585
#
# Coordination Sequence:
#
# PCOD9164240 Si02
#       8
#     4   4   4   4   4   4   4   4
#     4   9  21  35  59  84 114 156 200 238 297 347
#     4  11  22  38  60  85 123 156 193 243 303 357
#     4  10  24  38  56  91 124 159 193 246 303 355
#     4   9  19  39  65  89 115 152 198 244 300 361
#     4  11  25  38  61  87 121 162 210 250 295 354
#     4  10  21  39  65  92 114 151 202 249 299 362
#     4  10  20  40  61  86 119 153 198 250 299 349
#     4  10  21  39  59  82 116 159 204 243 291 352
#
# _framework density 19.544402999999999
#
# number of rings (size 3 to 8) (size 9 to 14) (size 15 to 20)
#    0.000    2.000    0.000    3.375    7.000    3.500 
#    0.000    0.000    0.000    0.000    0.000    0.000 
#    0.000    0.000    0.000    0.000    0.000    0.000 
#
# Total GULP energy -178389.573821 kJ/mol
# GULP energy per Si atom -5574.674182 kJ/mol
# Density = 1.949992 g / cm^3
# Si number density = 19.544403 Si / 1000 Ang^3
#
#
#
# Elastic Constant Matrix: (Units=GPa)
#
#
# Indices 1 2 3 4 5 6 
#
# 1 119.6834 7.1262 8.5298 0.0000 5.5015 0.0000
# 2 7.1262 69.4217 4.1262 0.0000 11.2411 0.0000
# 3 8.5298 4.1262 67.3427 0.0000 8.3747 0.0000
# 4 0.0000 0.0000 0.0000 23.9507 0.0000 -1.4423
# 5 5.5015 11.2411 8.3747 0.0000 11.3951 0.0000
# 6 0.0000 0.0000 0.0000 -1.4423 0.0000 24.0215
#
#
#
# Elastic Compliance Matrix: (Units=1/GPa)
#
#
# Indices 1 2 3 4 5 6 
#
# 1 0.008574 -0.000296 -0.000649 0.000000 -0.003371 0.000000
# 2 -0.000296 0.017236 0.001187 0.000000 -0.017732 0.000000
# 3 -0.000649 0.001187 0.016471 0.000000 -0.012962 0.000000
# 4 0.000000 0.000000 0.000000 0.041904 0.000000 0.002516
# 5 -0.003371 -0.017732 -0.012962 0.000000 0.116404 0.000000
# 6 0.000000 0.000000 0.000000 0.002516 0.000000 0.041780
#
#
# Mechanical properties :
#
#
# Convention : Reuss Voigt Hill
#
# Bulk Modulus (GPa) = 23.38351 32.89026 28.13688
# Shear Modulus (GPa) = 19.52057 27.65115 23.58586
#
# Velocity S-wave (km/s) = 3.16378 3.76544 3.47765
# Velocity P-wave (km/s) = 5.03351 5.98078 5.52748
#
# Compressibility (1/GPa) = 0.04276518
#
# Stress axis : x y z
#
# Youngs Moduli (GPa) = 116.62924 58.01867 60.71325
#
# Poissons Ratio (x) = 0.01716 0.03938
# Poissons Ratio (y) = 0.03449 -0.07204
# Poissons Ratio (z) = 0.07566 -0.06884
#
# Static dielectric constant tensor:
#      x y z
#    x 1.678820 0.000000 -0.001690 
#    y 0.000000 1.746560 0.000000 
#    z -0.001690 0.000000 1.709240 
# 
# From -- ./inp_files/3400.got.cif
#   From: 2010.05.17/outbox.cif.g08.bks.cpg/sg11_2_cif.got.tgz:3400.got - 2010.06.03 12:22:45.
