data_PCOD9164673
_publ_section_title
;
Structure prediction by ZEFSAII (Michael W. Deem and Ramdas Pophale) SiO2 
 PCOD9164673
Probable space group: P 21/M
;
_chemical_formula_sum "Si O2"
_cell_formula_units_Z 32
_cell_length_a 11.950143
_cell_length_b 19.243994
_cell_length_c 9.805397
_cell_angle_alpha 90.000000
_cell_angle_beta 128.951039
_cell_angle_gamma 90.000000
_cell_volume 1753.623491
_symmetry_space_group_name_H-M "P 21/M"
_symmetry_group_IT_number 11
_symmetry_cell_setting 'monoclinic'
loop_
_space_group_symop_operation_xyz
x,y,z
-x,1/2+y,-z
-x,-y,-z
x,1/2-y,z
loop_
_atom_site_type_symbol
_atom_site_label
_atom_site_fract_x
_atom_site_fract_y
_atom_site_fract_z
Si Si1 0.155465 0.411597 0.787858
Si Si2 0.943596 0.171753 0.005435
Si Si3 0.822183 0.398764 0.446646
Si Si4 0.769134 0.559750 0.451274
Si Si5 0.740084 0.832490 0.867928
Si Si6 0.545782 0.579933 0.516445
Si Si7 0.102139 0.927301 0.790389
Si Si8 0.293352 0.827602 0.392985
O O1 0.239757 0.410409 0.708564
O O2 0.150059 0.492190 0.833790
O O3 0.989046 0.394418 0.623020
O O4 0.222103 0.362264 0.953415
O O5 0.923218 0.250000 0.044882
O O6 0.879724 0.115356 0.058509
O O7 0.111516 0.161429 0.104196
O O8 0.860473 0.168022 0.798849
O O9 0.765913 0.476183 0.436652
O O10 0.822967 0.392846 0.284166
O O11 0.729084 0.347767 0.467185
O O12 0.650331 0.584944 0.466224
O O13 0.930864 0.574344 0.627951
O O14 0.701355 0.750000 0.841504
O O15 0.626718 0.882701 0.705516
O O16 0.500000 0.500000 0.500000
O O17 0.398443 0.621839 0.393683
O O18 0.349214 0.750000 0.423650
#
# Coordination Sequence:
#
# PCOD9164673 Si02
#       8
#     4   4   4   4   4   4   4   4
#     4   9  19  34  63  88 115 148 193 251 295 339
#     4  10  21  36  57  86 118 151 196 247 294 346
#     4   9  17  34  57  88 118 148 188 244 298 348
#     4   9  18  37  56  90 117 149 197 240 289 349
#     4  11  23  40  59  88 120 152 199 248 294 353
#     4  12  24  39  62  86 117 160 199 238 297 357
#     4   9  18  33  60  89 119 144 193 253 293 335
#     4  11  23  38  56  84 123 158 191 239 298 360
#
# _framework density 18.247931000000001
#
# number of rings (size 3 to 8) (size 9 to 14) (size 15 to 20)
#    0.000    2.000    3.750    1.875    1.750    1.000 
#    0.000    5.000    0.000    1.500    0.000    0.000 
#    0.000    0.000    0.000    0.000    0.000    0.000 
#
# Total GULP energy -178413.311035 kJ/mol
# GULP energy per Si atom -5575.415970 kJ/mol
# Density = 1.820640 g / cm^3
# Si number density = 18.247931 Si / 1000 Ang^3
#
#
#
# Elastic Constant Matrix: (Units=GPa)
#
#
# Indices 1 2 3 4 5 6 
#
# 1 72.1801 40.6705 14.0556 0.0000 -16.8714 0.0000
# 2 40.6705 95.4244 40.3437 0.0000 -13.6262 0.0000
# 3 14.0556 40.3437 60.1546 0.0000 -13.2670 0.0000
# 4 0.0000 0.0000 0.0000 28.4739 0.0000 -1.9566
# 5 -16.8714 -13.6262 -13.2670 0.0000 31.4576 0.0000
# 6 0.0000 0.0000 0.0000 -1.9566 0.0000 25.5666
#
#
#
# Elastic Compliance Matrix: (Units=1/GPa)
#
#
# Indices 1 2 3 4 5 6 
#
# 1 0.020065 -0.008598 0.002900 0.000000 0.008260 0.000000
# 2 -0.008598 0.018481 -0.010625 0.000000 -0.001087 0.000000
# 3 0.002900 -0.010625 0.024698 0.000000 0.007369 0.000000
# 4 0.000000 0.000000 0.000000 0.035306 0.000000 0.002702
# 5 0.008260 -0.001087 0.007369 0.000000 0.038855 0.000000
# 6 0.000000 0.000000 0.000000 0.002702 0.000000 0.039320
#
#
# Mechanical properties :
#
#
# Convention : Reuss Voigt Hill
#
# Bulk Modulus (GPa) = 32.68396 46.43318 39.55857
# Shear Modulus (GPa) = 22.77161 25.94557 24.35859
#
# Velocity S-wave (km/s) = 3.53640 3.77482 3.65755
# Velocity P-wave (km/s) = 5.88428 6.67083 6.28986
#
# Compressibility (1/GPa) = 0.03059605
#
# Stress axis : x y z
#
# Youngs Moduli (GPa) = 49.83785 54.10902 40.48988
#
# Poissons Ratio (x) = 0.46526 -0.11742
# Poissons Ratio (y) = 0.42853 0.43022
# Poissons Ratio (z) = -0.14453 0.57493
#
# Static dielectric constant tensor:
#      x y z
#    x 1.623160 0.000000 0.007790 
#    y 0.000000 1.644460 0.000000 
#    z 0.007790 0.000000 1.627710 
# 
# From -- ./inp_files/19185.got.cif
#   From: 2010.05.17/outbox.cif.g08.bks.cpg/sg11_10_cif.got.tgz:19185.got - 2010.06.03 12:22:45.
