data_PCOD9164767
_publ_section_title
;
Structure prediction by ZEFSAII (Michael W. Deem and Ramdas Pophale) SiO2 
 PCOD9164767
Probable space group: P 21/M
;
_chemical_formula_sum "Si O2"
_cell_formula_units_Z 32
_cell_length_a 31.444283
_cell_length_b 8.664018
_cell_length_c 12.088105
_cell_angle_alpha 90.000000
_cell_angle_beta 150.056733
_cell_angle_gamma 90.000000
_cell_volume 1643.779599
_symmetry_space_group_name_H-M "P 21/M"
_symmetry_group_IT_number 11
_symmetry_cell_setting 'monoclinic'
loop_
_space_group_symop_operation_xyz
x,y,z
-x,1/2+y,-z
-x,-y,-z
x,1/2-y,z
loop_
_atom_site_type_symbol
_atom_site_label
_atom_site_fract_x
_atom_site_fract_y
_atom_site_fract_z
Si Si1 0.235268 0.938017 0.349312
Si Si2 0.533878 0.063884 0.404254
Si Si3 0.930037 0.075117 0.919004
Si Si4 0.426673 0.563993 0.756534
Si Si5 0.372856 0.936659 0.160300
Si Si6 0.162213 0.431368 0.956800
Si Si7 0.003344 0.425788 0.333092
Si Si8 0.813905 0.432509 0.221993
O O1 0.228250 0.750000 0.324719
O O2 0.165355 0.991017 0.281870
O O3 0.332984 0.978697 0.589682
O O4 0.207489 0.010244 0.169955
O O5 0.533633 0.250000 0.403396
O O6 0.562483 0.011743 0.346894
O O7 0.594716 0.015006 0.643612
O O8 0.440227 0.004059 0.225712
O O9 0.920201 0.250000 0.857664
O O10 0.967276 0.073927 0.127159
O O11 0.000000 0.000000 0.000000
O O12 0.431305 0.750000 0.766543
O O13 0.500000 0.500000 0.000000
O O14 0.376361 0.750000 0.164283
O O15 0.274781 0.983026 0.922269
O O16 0.175250 0.250000 0.968851
O O17 0.195425 0.529524 0.928799
O O18 0.061552 0.467881 0.744684
O O19 0.998420 0.250000 0.364076
O O20 0.100018 0.482297 0.549093
O O21 0.824452 0.250000 0.262388
#
# Coordination Sequence:
#
# PCOD9164767 Si02
#       8
#     4   4   4   4   4   4   4   4
#     4   9  19  38  59  80 108 145 186 227 276 331
#     4   9  18  35  57  79 107 142 180 228 281 330
#     4   9  19  36  58  79 103 140 181 225 273 322
#     4  10  21  38  59  83 114 149 187 236 288 336
#     4   9  19  35  56  80 106 143 185 225 273 333
#     4  11  21  33  54  82 110 142 180 225 271 323
#     4  10  21  37  53  75 109 145 180 222 272 323
#     4  11  21  34  52  78 111 146 181 219 268 326
#
# _framework density 19.467331000000001
#
# number of rings (size 3 to 8) (size 9 to 14) (size 15 to 20)
#    0.000    2.250    0.000    3.750    0.000    6.500 
#    2.250    2.500    0.000    0.000    0.000    0.000 
#    0.000    0.000    0.000    0.000    0.000    0.000 
#
# Total GULP energy -178575.911106 kJ/mol
# GULP energy per Si atom -5580.497222 kJ/mol
# Density = 1.942302 g / cm^3
# Si number density = 19.467331 Si / 1000 Ang^3
#
#
#
# Elastic Constant Matrix: (Units=GPa)
#
#
# Indices 1 2 3 4 5 6 
#
# 1 90.0429 6.0040 35.0174 0.0000 28.9252 0.0000
# 2 6.0040 13.2551 12.1988 0.0000 2.9023 0.0000
# 3 35.0174 12.1988 106.3459 0.0000 38.1529 0.0000
# 4 0.0000 0.0000 0.0000 29.4563 0.0000 1.2538
# 5 28.9252 2.9023 38.1529 0.0000 30.4240 0.0000
# 6 0.0000 0.0000 0.0000 1.2538 0.0000 29.1802
#
#
#
# Elastic Compliance Matrix: (Units=1/GPa)
#
#
# Indices 1 2 3 4 5 6 
#
# 1 0.016257 -0.004753 0.001044 0.000000 -0.016312 0.000000
# 2 -0.004753 0.086670 -0.012783 0.000000 0.012281 0.000000
# 3 0.001044 -0.012783 0.018986 0.000000 -0.023583 0.000000
# 4 0.000000 0.000000 0.000000 0.034011 0.000000 -0.001461
# 5 -0.016312 0.012281 -0.023583 0.000000 0.076780 0.000000
# 6 0.000000 0.000000 0.000000 -0.001461 0.000000 0.034333
#
#
# Mechanical properties :
#
#
# Convention : Reuss Voigt Hill
#
# Bulk Modulus (GPa) = 11.24470 35.12047 23.18259
# Shear Modulus (GPa) = 15.16700 28.24037 21.70369
#
# Velocity S-wave (km/s) = 2.79426 3.81288 3.34260
# Velocity P-wave (km/s) = 4.02483 6.12078 5.17992
#
# Compressibility (1/GPa) = 0.08893075
#
# Stress axis : x y z
#
# Youngs Moduli (GPa) = 61.51340 11.53797 52.66913
#
# Poissons Ratio (x) = 0.05484 -0.05501
# Poissons Ratio (y) = 0.29238 0.67325
# Poissons Ratio (z) = -0.06424 0.14749
#
# Static dielectric constant tensor:
#      x y z
#    x 1.691120 0.000000 0.013650 
#    y 0.000000 1.666230 0.000000 
#    z 0.013650 0.000000 1.695290 
# 
# From -- ./inp_files/45277.got.cif
#   From: 2010.05.17/outbox.cif.g08.bks.cpg/sg11_23_cif.got.tgz:45277.got - 2010.06.03 12:22:45.
