data_PCOD9164465
_publ_section_title
;
Structure prediction by ZEFSAII (Michael W. Deem and Ramdas Pophale) SiO2 
 PCOD9164465
Probable space group: P 21/M
;
_chemical_formula_sum "Si O2"
_cell_formula_units_Z 28
_cell_length_a 12.270005
_cell_length_b 14.686848
_cell_length_c 9.575522
_cell_angle_alpha 90.000000
_cell_angle_beta 40.716827
_cell_angle_gamma 90.000000
_cell_volume 1125.633936
_symmetry_space_group_name_H-M "P 21/M"
_symmetry_group_IT_number 11
_symmetry_cell_setting 'monoclinic'
loop_
_space_group_symop_operation_xyz
x,y,z
-x,1/2+y,-z
-x,-y,-z
x,1/2-y,z
loop_
_atom_site_type_symbol
_atom_site_label
_atom_site_fract_x
_atom_site_fract_y
_atom_site_fract_z
Si Si1 0.153858 0.084028 0.572332
Si Si2 0.317929 0.048286 0.134338
Si Si3 0.808272 0.151102 0.236731
Si Si4 0.005317 0.616666 0.688787
Si Si5 0.509442 0.854109 0.245788
Si Si6 0.175458 0.652988 0.238848
Si Si7 0.311212 0.463615 0.706883
O O1 0.297097 0.078513 0.314961
O O2 0.234246 0.086586 0.647076
O O3 0.998719 0.147673 0.680267
O O4 0.068304 0.986013 0.641927
O O5 0.174988 0.112022 0.203812
O O6 0.268488 0.944817 0.138275
O O7 0.485252 0.080600 0.894121
O O8 0.789986 0.250000 0.183568
O O9 0.968809 0.153256 0.181118
O O10 0.658284 0.142628 0.497341
O O11 0.794818 0.056970 0.163668
O O12 0.121120 0.656671 0.454428
O O13 0.533215 0.750000 0.181719
O O14 0.655147 0.892956 0.203764
O O15 0.261373 0.750000 0.122002
O O16 0.500000 0.500000 0.500000
#
# Coordination Sequence:
#
# PCOD9164465 Si02
#       7
#     4   4   4   4   4   4   4
#     4   8  16  31  51  75 102 134 176 216 253 303
#     4   9  18  33  52  81 109 132 171 225 268 308
#     4   9  17  32  54  76  99 136 180 214 255 320
#     4   8  15  30  52  75 102 136 177 216 256 315
#     4  10  21  35  52  76 107 139 173 219 273 314
#     4   9  16  28  49  76 107 142 174 211 262 318
#     4   9  18  35  54  73 101 141 177 207 248 312
#
# _framework density 24.874872
#
# number of rings (size 3 to 8) (size 9 to 14) (size 15 to 20)
#    0.000    3.143    0.000    2.143    0.000    3.429 
#    0.000   18.571    0.000    0.857    0.000    0.000 
#    0.000    0.000    0.000    0.000    0.000    0.000 
#
# Total GULP energy -156228.899555 kJ/mol
# GULP energy per Si atom -5579.603556 kJ/mol
# Density = 2.481826 g / cm^3
# Si number density = 24.874872 Si / 1000 Ang^3
#
#
#
# Elastic Constant Matrix: (Units=GPa)
#
#
# Indices 1 2 3 4 5 6 
#
# 1 127.1261 7.3991 10.4151 0.0000 0.0005 0.0000
# 2 7.3991 139.8952 17.2071 0.0000 -4.7119 0.0000
# 3 10.4151 17.2071 68.6701 0.0000 8.0066 0.0000
# 4 0.0000 0.0000 0.0000 10.8305 0.0000 0.6423
# 5 0.0005 -4.7119 8.0066 0.0000 27.4560 0.0000
# 6 0.0000 0.0000 0.0000 0.6423 0.0000 -24.9750
#
#
#
# Elastic Compliance Matrix: (Units=1/GPa)
#
#
# Indices 1 2 3 4 5 6 
#
# 1 0.007978 -0.000267 -0.001178 0.000000 0.000297 0.000000
# 2 -0.000267 0.007478 -0.002053 0.000000 0.001882 0.000000
# 3 -0.001178 -0.002053 0.015835 0.000000 -0.004970 0.000000
# 4 0.000000 0.000000 0.000000 0.092191 0.000000 0.002371
# 5 0.000297 0.001882 -0.004970 0.000000 0.038194 0.000000
# 6 0.000000 0.000000 0.000000 0.002371 0.000000 -0.039979
#
#
# Mechanical properties :
#
#
# Convention : Reuss Voigt Hill
#
# Bulk Modulus (GPa) = 41.15910 45.08156 43.12033
# Shear Modulus (GPa) = 36.55198 22.70697 29.62948
#
# Velocity S-wave (km/s) = 3.83748 3.02462 3.45504
# Velocity P-wave (km/s) = 6.01809 5.51003 5.76965
#
# Compressibility (1/GPa) = 0.02429596
#
# Stress axis : x y z
#
# Youngs Moduli (GPa) = 125.34091 133.72166 63.15176
#
# Poissons Ratio (x) = 0.03571 0.07438
# Poissons Ratio (y) = 0.03348 0.12964
# Poissons Ratio (z) = 0.14763 0.27450
#
# Static dielectric constant tensor:
#      x y z
#    x 2.027870 0.000000 -0.031510 
#    y 0.000000 2.058840 0.000000 
#    z -0.031510 0.000000 2.087580 
# 
# From -- ./inp_files/39449.got.cif
#   From: 2010.05.17/outbox.cif.g08.bks.cpg/sg11_20_cif.got.tgz:39449.got - 2010.06.03 12:22:45.
