data_PCOD9164230
_publ_section_title
;
Structure prediction by ZEFSAII (Michael W. Deem and Ramdas Pophale) SiO2 
 PCOD9164230
Probable space group: P 21/M
;
_chemical_formula_sum "Si O2"
_cell_formula_units_Z 24
_cell_length_a 9.007105
_cell_length_b 25.925838
_cell_length_c 5.021625
_cell_angle_alpha 90.000000
_cell_angle_beta 57.209124
_cell_angle_gamma 90.000000
_cell_volume 985.777722
_symmetry_space_group_name_H-M "P 21/M"
_symmetry_group_IT_number 11
_symmetry_cell_setting 'monoclinic'
loop_
_space_group_symop_operation_xyz
x,y,z
-x,1/2+y,-z
-x,-y,-z
x,1/2-y,z
loop_
_atom_site_type_symbol
_atom_site_label
_atom_site_fract_x
_atom_site_fract_y
_atom_site_fract_z
Si Si1 0.357875 0.750000 0.418995
Si Si2 0.720833 0.642901 0.454809
Si Si3 0.372397 0.861640 0.502984
Si Si4 0.081355 0.598818 0.124587
Si Si5 0.570517 0.943022 0.000781
Si Si6 0.608667 0.750000 0.688125
Si Si7 0.962671 0.954287 0.747789
O O1 0.278676 0.808215 0.506982
O O2 0.499471 0.750000 0.520181
O O3 0.456497 0.750000 0.048362
O O4 0.578448 0.649670 0.361038
O O5 0.647391 0.593478 0.690529
O O6 0.714408 0.697018 0.615341
O O7 0.919556 0.633313 0.175965
O O8 0.269340 0.877896 0.869846
O O9 0.407121 0.911941 0.288354
O O10 0.060489 0.550629 0.936761
O O11 0.035094 0.591015 0.478848
O O12 0.750980 0.951048 0.995822
O O13 0.500000 0.000000 0.000000
O O14 0.000000 0.000000 0.500000
#
# Coordination Sequence:
#
# PCOD9164230 Si02
#       7
#     2   4   4   4   4   2   4
#     4  10  22  39  68  99 123 173 212 269 319 387
#     4  10  23  43  62  97 129 168 220 262 327 388
#     4  11  23  42  67  93 134 167 221 265 327 384
#     4  11  25  40  66  93 131 167 214 273 317 385
#     4  11  23  39  67  93 129 177 215 268 329 388
#     4  10  20  39  72  87 131 169 208 269 323 377
#     4  11  24  44  60  94 133 172 221 267 318 385
#
# _framework density 24.346257999999999
#
# number of rings (size 3 to 8) (size 9 to 14) (size 15 to 20)
#    0.000    1.333    3.333    1.500    4.667    2.667 
#    0.000    0.000    0.000    6.000    0.000    0.000 
#    0.000    0.000    0.000    0.000    0.000    0.000 
#
# Total GULP energy -133760.995240 kJ/mol
# GULP energy per Si atom -5573.374802 kJ/mol
# Density = 2.429084 g / cm^3
# Si number density = 24.346258 Si / 1000 Ang^3
#
#
#
# Elastic Constant Matrix: (Units=GPa)
#
#
# Indices 1 2 3 4 5 6 
#
# 1 69.1286 -4.3522 13.7098 0.0000 -16.4911 0.0000
# 2 -4.3522 165.5114 21.0410 0.0000 -7.2183 0.0000
# 3 13.7098 21.0410 139.6418 0.0000 -1.2159 0.0000
# 4 0.0000 0.0000 0.0000 27.7016 0.0000 2.0619
# 5 -16.4911 -7.2183 -1.2159 0.0000 47.5975 0.0000
# 6 0.0000 0.0000 0.0000 2.0619 0.0000 14.4071
#
#
#
# Elastic Compliance Matrix: (Units=1/GPa)
#
#
# Indices 1 2 3 4 5 6 
#
# 1 0.016216 0.000889 -0.001676 0.000000 0.005710 0.000000
# 2 0.000889 0.006248 -0.001018 0.000000 0.001229 0.000000
# 3 -0.001676 -0.001018 0.007474 0.000000 -0.000544 0.000000
# 4 0.000000 0.000000 0.000000 0.036488 0.000000 -0.005222
# 5 0.005710 0.001229 -0.000544 0.000000 0.023161 0.000000
# 6 0.000000 0.000000 0.000000 -0.005222 0.000000 0.070157
#
#
# Mechanical properties :
#
#
# Convention : Reuss Voigt Hill
#
# Bulk Modulus (GPa) = 37.98284 48.34211 43.16247
# Shear Modulus (GPa) = 29.04746 40.86679 34.95713
#
# Velocity S-wave (km/s) = 3.45787 4.10147 3.79335
# Velocity P-wave (km/s) = 5.61938 6.50605 6.07890
#
# Compressibility (1/GPa) = 0.02632768
#
# Stress axis : x y z
#
# Youngs Moduli (GPa) = 61.66587 160.04404 133.78993
#
# Poissons Ratio (x) = -0.14221 0.22427
# Poissons Ratio (y) = -0.05479 0.13620
# Poissons Ratio (z) = 0.10337 0.16293
#
# Static dielectric constant tensor:
#      x y z
#    x 2.014030 0.000000 0.070840 
#    y 0.000000 1.913230 0.000000 
#    z 0.070840 0.000000 1.911910 
# 
# From -- ./inp_files/2799.got.cif
#   From: 2010.05.17/outbox.cif.g08.bks.cpg/sg11_2_cif.got.tgz:2799.got - 2010.06.03 12:22:45.
