data_PCOD9164123
_publ_section_title
;
Structure prediction by ZEFSAII (Michael W. Deem and Ramdas Pophale) SiO2 
 PCOD9164123
Probable space group: P 21/M
;
_chemical_formula_sum "Si O2"
_cell_formula_units_Z 32
_cell_length_a 23.319533
_cell_length_b 7.728790
_cell_length_c 16.598513
_cell_angle_alpha 90.000000
_cell_angle_beta 29.253268
_cell_angle_gamma 90.000000
_cell_volume 1461.898131
_symmetry_space_group_name_H-M "P 21/M"
_symmetry_group_IT_number 11
_symmetry_cell_setting 'monoclinic'
loop_
_space_group_symop_operation_xyz
x,y,z
-x,1/2+y,-z
-x,-y,-z
x,1/2-y,z
loop_
_atom_site_type_symbol
_atom_site_label
_atom_site_fract_x
_atom_site_fract_y
_atom_site_fract_z
Si Si1 0.222910 0.547759 0.515864
Si Si2 0.348882 0.959825 0.980628
Si Si3 0.209256 0.550461 0.862807
Si Si4 0.091943 0.957734 0.318218
Si Si5 0.552263 0.956253 0.849191
Si Si6 0.415774 0.047166 0.720292
Si Si7 0.036088 0.548287 0.208639
Si Si8 0.679934 0.462500 0.431263
O O1 0.197428 0.750000 0.558126
O O2 0.319517 0.527752 0.327691
O O3 0.280946 0.481657 0.527872
O O4 0.100193 0.460781 0.645886
O O5 0.352471 0.750000 0.974385
O O6 0.225514 0.014571 0.170737
O O7 0.460351 0.021928 0.894680
O O8 0.355806 0.023766 0.880872
O O9 0.174137 0.750000 0.893013
O O10 0.334934 0.544371 0.753737
O O11 0.231137 0.476783 0.747222
O O12 0.115797 0.470307 0.039437
O O13 0.093949 0.750000 0.311416
O O14 0.056604 0.025525 0.272828
O O15 0.000000 0.000000 0.500000
O O16 0.559621 0.750000 0.833165
O O17 0.500000 0.000000 0.000000
O O18 0.419747 0.250000 0.694710
O O19 0.548377 0.981214 0.569325
O O20 0.072807 0.750000 0.168592
O O21 0.676899 0.250000 0.435196
#
# Coordination Sequence:
#
# PCOD9164123 Si02
#       8
#     4   4   4   4   4   4   4   4
#     4  11  23  41  61  85 121 158 197 246 295 351
#     4  10  21  40  63  87 117 156 195 234 289 353
#     4  10  20  39  62  83 117 159 197 242 298 355
#     4  10  22  40  60  87 117 151 194 240 293 348
#     4  11  24  41  64  92 121 156 200 243 293 351
#     4  11  20  34  58  91 124 150 191 242 293 350
#     4  10  22  40  60  84 115 155 200 245 294 354
#     4   9  20  37  59  87 118 156 195 241 299 349
#
# _framework density 21.88935
#
# number of rings (size 3 to 8) (size 9 to 14) (size 15 to 20)
#    0.000    1.750    2.500    1.500    1.750    2.500 
#    0.000    1.875    0.000    0.000    0.000    0.000 
#    0.000    0.000    0.000    0.000    0.000    0.000 
#
# Total GULP energy -178823.692996 kJ/mol
# GULP energy per Si atom -5588.240406 kJ/mol
# Density = 2.183953 g / cm^3
# Si number density = 21.889350 Si / 1000 Ang^3
#
#
#
# Elastic Constant Matrix: (Units=GPa)
#
#
# Indices 1 2 3 4 5 6 
#
# 1 45.5467 -10.0820 22.3279 0.0000 -1.8233 0.0000
# 2 -10.0820 36.9568 -3.5307 0.0000 -0.6321 0.0000
# 3 22.3279 -3.5307 139.2408 0.0000 2.9403 0.0000
# 4 0.0000 0.0000 0.0000 12.7142 0.0000 -1.0456
# 5 -1.8233 -0.6321 2.9403 0.0000 38.2135 0.0000
# 6 0.0000 0.0000 0.0000 -1.0456 0.0000 17.0530
#
#
#
# Elastic Compliance Matrix: (Units=1/GPa)
#
#
# Indices 1 2 3 4 5 6 
#
# 1 0.025410 0.006583 -0.003942 0.000000 0.001625 0.000000
# 2 0.006583 0.028836 -0.000342 0.000000 0.000817 0.000000
# 3 -0.003942 -0.000342 0.007822 0.000000 -0.000796 0.000000
# 4 0.000000 0.000000 0.000000 0.079051 0.000000 0.004847
# 5 0.001625 0.000817 -0.000796 0.000000 0.026321 0.000000
# 6 0.000000 0.000000 0.000000 0.004847 0.000000 0.058938
#
#
# Mechanical properties :
#
#
# Convention : Reuss Voigt Hill
#
# Bulk Modulus (GPa) = 14.99992 26.57498 20.78745
# Shear Modulus (GPa) = 20.49170 27.79808 24.14489
#
# Velocity S-wave (km/s) = 3.06298 3.56748 3.32481
# Velocity P-wave (km/s) = 4.40188 5.39780 4.92508
#
# Compressibility (1/GPa) = 0.06666703
#
# Stress axis : x y z
#
# Youngs Moduli (GPa) = 39.35431 34.67900 127.84356
#
# Poissons Ratio (x) = -0.22830 0.50396
# Poissons Ratio (y) = -0.25908 0.04369
# Poissons Ratio (z) = 0.15514 0.01185
#
# Static dielectric constant tensor:
#      x y z
#    x 1.775100 0.000000 0.005930 
#    y 0.000000 1.813680 0.000000 
#    z 0.005930 0.000000 1.807160 
# 
# From -- ./inp_files/55515.got.cif
#   From: 2010.05.17/outbox.cif.g08.bks.cpg/sg11_28_cif.got.tgz:55515.got - 2010.06.03 12:22:45.
