data_PCOD9164344
_publ_section_title
;
Structure prediction by ZEFSAII (Michael W. Deem and Ramdas Pophale) SiO2 
 PCOD9164344
Probable space group: P 21/M
;
_chemical_formula_sum "Si O2"
_cell_formula_units_Z 18
_cell_length_a 7.123187
_cell_length_b 18.726682
_cell_length_c 8.034827
_cell_angle_alpha 90.000000
_cell_angle_beta 120.220285
_cell_angle_gamma 90.000000
_cell_volume 926.134446
_symmetry_space_group_name_H-M "P 21/M"
_symmetry_group_IT_number 11
_symmetry_cell_setting 'monoclinic'
loop_
_space_group_symop_operation_xyz
x,y,z
-x,1/2+y,-z
-x,-y,-z
x,1/2-y,z
loop_
_atom_site_type_symbol
_atom_site_label
_atom_site_fract_x
_atom_site_fract_y
_atom_site_fract_z
Si Si1 0.641348 0.090903 0.203481
Si Si2 0.803627 0.974629 0.025313
Si Si3 0.619372 0.250000 0.560943
Si Si4 0.485860 0.750000 0.864035
Si Si5 0.736527 0.750000 0.314352
Si Si6 0.048314 0.871781 0.385987
O O1 0.637004 0.175229 0.161569
O O2 0.813734 0.080482 0.426395
O O3 0.707746 0.043451 0.076678
O O4 0.400497 0.065590 0.149428
O O5 0.906253 0.919119 0.200801
O O6 0.000000 0.000000 0.000000
O O7 0.483250 0.250000 0.324425
O O8 0.467746 0.250000 0.654258
O O9 0.777425 0.319026 0.624697
O O10 0.672692 0.750000 0.088566
O O11 0.884258 0.819293 0.409184
#
# Coordination Sequence:
#
# PCOD9164344 Si02
#       6
#     4   4   2   2   2   4
#     4  10  23  42  61  89 130 156 208 269 301 374
#     4  11  24  39  62  94 121 170 208 246 323 374
#     4   9  23  37  65  98 121 170 217 255 323 374
#     4  10  20  42  64  90 126 158 210 266 304 378
#     4  11  21  41  69  90 131 168 203 271 319 354
#     4  10  22  42  60  93 128 162 214 258 308 383
#
# _framework density 19.435621999999999
#
# number of rings (size 3 to 8) (size 9 to 14) (size 15 to 20)
#    0.000    1.778    2.222    1.333    3.111    4.444 
#    0.000    3.333    0.000    0.000    0.000    0.000 
#    0.000    0.000    0.000    0.000    0.000    0.000 
#
# Total GULP energy -100406.349142 kJ/mol
# GULP energy per Si atom -5578.130508 kJ/mol
# Density = 1.939139 g / cm^3
# Si number density = 19.435622 Si / 1000 Ang^3
#
#
#
# Elastic Constant Matrix: (Units=GPa)
#
#
# Indices 1 2 3 4 5 6 
#
# 1 97.0544 23.9973 -16.9945 0.0000 6.0316 0.0000
# 2 23.9973 85.9528 -4.4803 0.0000 -6.8124 0.0000
# 3 -16.9945 -4.4803 62.7799 0.0000 18.6407 0.0000
# 4 0.0000 0.0000 0.0000 25.6672 0.0000 11.0817
# 5 6.0316 -6.8124 18.6407 0.0000 18.9217 0.0000
# 6 0.0000 0.0000 0.0000 11.0817 0.0000 11.5619
#
#
#
# Elastic Compliance Matrix: (Units=1/GPa)
#
#
# Indices 1 2 3 4 5 6 
#
# 1 0.013452 -0.004408 0.007168 0.000000 -0.012937 0.000000
# 2 -0.004408 0.013436 -0.002951 0.000000 0.009149 0.000000
# 3 0.007168 -0.002951 0.026364 0.000000 -0.029320 0.000000
# 4 0.000000 0.000000 0.000000 0.066464 0.000000 -0.063704
# 5 -0.012937 0.009149 -0.029320 0.000000 0.089152 0.000000
# 6 0.000000 0.000000 0.000000 -0.063704 0.000000 0.147549
#
#
# Mechanical properties :
#
#
# Convention : Reuss Voigt Hill
#
# Bulk Modulus (GPa) = 18.91340 27.87023 23.39182
# Shear Modulus (GPa) = 13.35390 27.44779 20.40085
#
# Velocity S-wave (km/s) = 2.62407 3.76206 3.24336
# Velocity P-wave (km/s) = 4.35126 5.76556 5.10760
#
# Compressibility (1/GPa) = 0.05287256
#
# Stress axis : x y z
#
# Youngs Moduli (GPa) = 74.33595 74.42588 37.93012
#
# Poissons Ratio (x) = 0.32803 -0.27189
# Poissons Ratio (y) = 0.32764 0.11193
# Poissons Ratio (z) = -0.53286 0.21962
#
# Static dielectric constant tensor:
#      x y z
#    x 1.656340 0.000000 0.007290 
#    y 0.000000 1.738230 0.000000 
#    z 0.007290 0.000000 1.715700 
# 
# From -- ./inp_files/1859.got.cif
#   From: 2010.05.17/outbox.cif.g08.bks.cpg/sg11_1_cif.got.tgz:1859.got - 2010.06.03 12:22:45.
