data_PCOD9164066
_publ_section_title
;
Structure prediction by ZEFSAII (Michael W. Deem and Ramdas Pophale) SiO2 
 PCOD9164066
Probable space group: P 21/M
;
_chemical_formula_sum "Si O2"
_cell_formula_units_Z 30
_cell_length_a 8.462843
_cell_length_b 20.263175
_cell_length_c 7.428196
_cell_angle_alpha 90.000000
_cell_angle_beta 82.461274
_cell_angle_gamma 90.000000
_cell_volume 1262.806922
_symmetry_space_group_name_H-M "P 21/M"
_symmetry_group_IT_number 11
_symmetry_cell_setting 'monoclinic'
loop_
_space_group_symop_operation_xyz
x,y,z
-x,1/2+y,-z
-x,-y,-z
x,1/2-y,z
loop_
_atom_site_type_symbol
_atom_site_label
_atom_site_fract_x
_atom_site_fract_y
_atom_site_fract_z
Si Si1 0.684091 0.750000 0.853923
Si Si2 0.894886 0.175672 0.183280
Si Si3 0.310465 0.101146 0.650241
Si Si4 0.441110 0.858516 0.835944
Si Si5 0.360663 0.627788 0.256254
Si Si6 0.009544 0.824501 0.424653
Si Si7 0.343971 0.027676 0.288779
Si Si8 0.169628 0.387926 0.037387
O O1 0.579957 0.807965 0.764519
O O2 0.771812 0.811297 0.950982
O O3 0.888301 0.250000 0.112314
O O4 0.990032 0.176646 0.357099
O O5 0.981563 0.123399 0.042040
O O6 0.717233 0.153828 0.249563
O O7 0.479775 0.139655 0.646269
O O8 0.150606 0.139396 0.613805
O O9 0.331518 0.043498 0.502192
O O10 0.264528 0.080421 0.858981
O O11 0.399831 0.844147 0.051668
O O12 0.502882 0.932140 0.803709
O O13 0.186110 0.651215 0.343764
O O14 0.350161 0.548696 0.249116
O O15 0.995628 0.750000 0.361478
O O16 0.203725 0.065376 0.202146
#
# Coordination Sequence:
#
# PCOD9164066 Si02
#       8
#     2   4   4   4   4   4   4   4
#     4  10  20  38  66 102 138 176 238 290 356 418
#     4  11  22  44  68 102 147 180 229 300 356 422
#     4  12  25  45  75 102 142 189 227 299 354 413
#     4  11  23  41  72 100 137 190 235 294 356 422
#     4  12  26  47  73 104 143 189 239 296 349 424
#     4  11  28  45  69 111 141 183 240 292 361 428
#     4  11  25  49  68 102 145 186 242 285 351 431
#     4  11  23  42  70 103 138 189 234 288 360 424
#
# _framework density 23.756601
#
# number of rings (size 3 to 8) (size 9 to 14) (size 15 to 20)
#    0.000    0.800    5.333    2.400    1.867    2.133 
#    2.400    1.333    0.000    0.000    0.000    0.000 
#    0.000    0.000    0.000    0.000    0.000    0.000 
#
# Total GULP energy -167173.169909 kJ/mol
# GULP energy per Si atom -5572.438997 kJ/mol
# Density = 2.370253 g / cm^3
# Si number density = 23.756601 Si / 1000 Ang^3
#
#
#
# Elastic Constant Matrix: (Units=GPa)
#
#
# Indices 1 2 3 4 5 6 
#
# 1 82.9413 -10.6431 -9.9493 0.0000 1.0778 0.0000
# 2 -10.6431 44.1572 -5.1684 0.0000 0.4692 0.0000
# 3 -9.9493 -5.1684 71.7173 0.0000 -9.2248 0.0000
# 4 0.0000 0.0000 0.0000 42.8282 0.0000 -19.6672
# 5 1.0778 0.4692 -9.2248 0.0000 39.4013 0.0000
# 6 0.0000 0.0000 0.0000 -19.6672 0.0000 31.7078
#
#
#
# Elastic Compliance Matrix: (Units=1/GPa)
#
#
# Indices 1 2 3 4 5 6 
#
# 1 0.012721 0.003301 0.002013 0.000000 0.000084 0.000000
# 2 0.003301 0.023696 0.002183 0.000000 0.000139 0.000000
# 3 0.002013 0.002183 0.014816 0.000000 0.003388 0.000000
# 4 0.000000 0.000000 0.000000 0.032648 0.000000 0.020251
# 5 0.000084 0.000139 0.003388 0.000000 0.026169 0.000000
# 6 0.000000 0.000000 0.000000 0.020251 0.000000 0.044099
#
#
# Mechanical properties :
#
#
# Convention : Reuss Voigt Hill
#
# Bulk Modulus (GPa) = 15.09929 16.36601 15.73265
# Shear Modulus (GPa) = 31.01165 37.75924 34.38545
#
# Velocity S-wave (km/s) = 3.61694 3.99108 3.80861
# Velocity P-wave (km/s) = 4.87982 5.30493 5.09681
#
# Compressibility (1/GPa) = 0.06622826
#
# Stress axis : x y z
#
# Youngs Moduli (GPa) = 78.61191 42.20112 67.49433
#
# Poissons Ratio (x) = -0.13930 -0.13590
# Poissons Ratio (y) = -0.25948 -0.14737
# Poissons Ratio (z) = -0.15828 -0.09214
#
# Static dielectric constant tensor:
#      x y z
#    x 2.000640 0.000000 -0.013960 
#    y 0.000000 1.529130 0.000000 
#    z -0.013960 0.000000 1.966400 
# 
# From -- ./inp_files/14329.got.cif
#   From: 2010.05.17/outbox.cif.g08.bks.cpg/sg11_8_cif.got.tgz:14329.got - 2010.06.03 12:22:45.
