data_PCOD9164693
_publ_section_title
;
Structure prediction by ZEFSAII (Michael W. Deem and Ramdas Pophale) SiO2 
 PCOD9164693
Probable space group: P 21/M
;
_chemical_formula_sum "Si O2"
_cell_formula_units_Z 28
_cell_length_a 24.000446
_cell_length_b 8.095299
_cell_length_c 20.782624
_cell_angle_alpha 90.000000
_cell_angle_beta 20.281792
_cell_angle_gamma 90.000000
_cell_volume 1399.678315
_symmetry_space_group_name_H-M "P 21/M"
_symmetry_group_IT_number 11
_symmetry_cell_setting 'monoclinic'
loop_
_space_group_symop_operation_xyz
x,y,z
-x,1/2+y,-z
-x,-y,-z
x,1/2-y,z
loop_
_atom_site_type_symbol
_atom_site_label
_atom_site_fract_x
_atom_site_fract_y
_atom_site_fract_z
Si Si1 0.040610 0.552823 0.028048
Si Si2 0.390388 0.551092 0.677974
Si Si3 0.392319 0.550993 0.957221
Si Si4 0.502665 0.449050 0.295869
Si Si5 0.840375 0.436441 0.367278
Si Si6 0.038762 0.549748 0.385403
Si Si7 0.758218 0.944028 0.592868
O O1 0.042543 0.750000 0.026125
O O2 0.932434 0.499919 0.205038
O O3 0.000000 0.500000 0.000000
O O4 0.215530 0.483694 0.853119
O O5 0.500000 0.500000 0.500000
O O6 0.386047 0.750000 0.683394
O O7 0.438518 0.501891 0.697612
O O8 0.396439 0.750000 0.962026
O O9 0.386924 0.522358 0.885957
O O10 0.570715 0.491022 0.789762
O O11 0.221481 0.490939 0.170583
O O12 0.467164 0.250000 0.334898
O O13 0.343828 0.550291 0.453909
O O14 0.889613 0.250000 0.328104
O O15 0.842039 0.536340 0.432134
O O16 0.041938 0.750000 0.375745
O O17 0.889487 0.489308 0.501919
O O18 0.000000 0.500000 0.500000
O O19 0.739610 0.750000 0.626872
#
# Coordination Sequence:
#
# PCOD9164693 Si02
#       7
#     4   4   4   4   4   4   4
#     4  11  23  38  56  80 111 149 190 233 282 339
#     4  10  22  36  55  79 106 143 186 232 281 333
#     4   8  16  33  57  82 108 143 190 234 278 338
#     4   9  18  36  59  80 104 141 188 234 281 337
#     4  11  22  36  56  84 114 145 183 233 289 340
#     4  10  21  36  58  85 116 151 189 236 288 347
#     4   9  19  37  60  82 110 152 195 234 284 341
#
# _framework density 20.004598000000001
#
# number of rings (size 3 to 8) (size 9 to 14) (size 15 to 20)
#    0.000    2.286    0.000    3.429    2.000    5.143 
#    0.000    2.857    0.000    0.000    0.000    0.000 
#    0.000    0.000    0.000    0.000    0.000    0.000 
#
# Total GULP energy -155959.428860 kJ/mol
# GULP energy per Si atom -5569.979602 kJ/mol
# Density = 1.995907 g / cm^3
# Si number density = 20.004598 Si / 1000 Ang^3
#
#
#
# Elastic Constant Matrix: (Units=GPa)
#
#
# Indices 1 2 3 4 5 6 
#
# 1 171.3272 1.5275 82.9211 0.0000 -1.8166 0.0000
# 2 1.5275 9.0201 9.4845 0.0000 -2.5762 0.0000
# 3 82.9211 9.4845 151.9322 0.0000 22.7592 0.0000
# 4 0.0000 0.0000 0.0000 16.9029 0.0000 9.1062
# 5 -1.8166 -2.5762 22.7592 0.0000 25.7017 0.0000
# 6 0.0000 0.0000 0.0000 9.1062 0.0000 24.3452
#
#
#
# Elastic Compliance Matrix: (Units=1/GPa)
#
#
# Indices 1 2 3 4 5 6 
#
# 1 0.008929 0.007181 -0.006369 0.000000 0.006991 0.000000
# 2 0.007181 0.135454 -0.016700 0.000000 0.028873 0.000000
# 3 -0.006369 -0.016700 0.013165 0.000000 -0.013782 0.000000
# 4 0.000000 0.000000 0.000000 0.074092 0.000000 -0.027714
# 5 0.006991 0.028873 -0.013782 0.000000 0.054500 0.000000
# 6 0.000000 0.000000 0.000000 -0.027714 0.000000 0.051442
#
#
# Mechanical properties :
#
#
# Convention : Reuss Voigt Hill
#
# Bulk Modulus (GPa) = 7.95088 57.79397 32.87242
# Shear Modulus (GPa) = 12.15711 29.27971 20.71841
#
# Velocity S-wave (km/s) = 2.46786 3.82992 3.22169
# Velocity P-wave (km/s) = 3.47903 6.96497 5.50520
#
# Compressibility (1/GPa) = 0.12577230
#
# Stress axis : x y z
#
# Youngs Moduli (GPa) = 111.98936 7.38259 75.95933
#
# Poissons Ratio (x) = -0.05302 0.48378
# Poissons Ratio (y) = -0.80423 1.26854
# Poissons Ratio (z) = 0.71326 0.12329
#
# Static dielectric constant tensor:
#      x y z
#    x 1.439650 0.000000 -0.231620 
#    y 0.000000 1.521260 0.000000 
#    z -0.231620 0.000000 1.567280 
# 
# From -- ./inp_files/29023.got.cif
#   From: 2010.05.17/outbox.cif.g08.bks.cpg/sg11_15_cif.got.tgz:29023.got - 2010.06.03 12:22:45.
