data_PCOD9164585
_publ_section_title
;
Structure prediction by ZEFSAII (Michael W. Deem and Ramdas Pophale) SiO2 
 PCOD9164585
Probable space group: P 21/M
;
_chemical_formula_sum "Si O2"
_cell_formula_units_Z 24
_cell_length_a 11.542374
_cell_length_b 13.884814
_cell_length_c 12.810714
_cell_angle_alpha 90.000000
_cell_angle_beta 35.122269
_cell_angle_gamma 90.000000
_cell_volume 1181.191816
_symmetry_space_group_name_H-M "P 21/M"
_symmetry_group_IT_number 11
_symmetry_cell_setting 'monoclinic'
loop_
_space_group_symop_operation_xyz
x,y,z
-x,1/2+y,-z
-x,-y,-z
x,1/2-y,z
loop_
_atom_site_type_symbol
_atom_site_label
_atom_site_fract_x
_atom_site_fract_y
_atom_site_fract_z
Si Si1 0.007065 0.364571 0.269332
Si Si2 0.438759 0.866086 0.871493
Si Si3 0.124011 0.133587 0.415897
Si Si4 0.686555 0.366995 0.804308
Si Si5 0.450196 0.864496 0.322325
Si Si6 0.178066 0.015980 0.949614
O O1 0.032400 0.250000 0.229990
O O2 0.769874 0.382263 0.466585
O O3 0.120413 0.385637 0.294798
O O4 0.089763 0.426255 0.113679
O O5 0.424362 0.750000 0.874738
O O6 0.396180 0.895190 0.022864
O O7 0.279518 0.917738 0.915388
O O8 0.670197 0.896178 0.680686
O O9 0.118164 0.250000 0.427271
O O10 0.915722 0.098252 0.618545
O O11 0.690744 0.250000 0.801071
O O12 0.563653 0.391840 0.790749
O O13 0.485026 0.750000 0.302530
O O14 0.635998 0.921873 0.232752
O O15 0.000000 0.000000 0.000000
#
# Coordination Sequence:
#
# PCOD9164585 Si02
#       6
#     4   4   4   4   4   4
#     4   9  19  38  63  87 110 138 176 228 287 337
#     4  10  21  36  53  78 114 150 180 219 277 334
#     4   8  15  31  57  86 111 135 170 222 284 344
#     4   8  15  31  57  86 111 135 170 222 284 344
#     4   9  19  38  63  87 110 138 176 228 287 337
#     4  12  26  38  53  78 112 153 199 235 258 305
#
# _framework density 20.318460000000002
#
# number of rings (size 3 to 8) (size 9 to 14) (size 15 to 20)
#    0.000    2.667    0.000    3.500    0.000    8.667 
#    0.000    3.333    0.000    4.000    0.000    0.000 
#    0.000    0.000    0.000    0.000    0.000    0.000 
#
# Total GULP energy -134134.956508 kJ/mol
# GULP energy per Si atom -5588.956521 kJ/mol
# Density = 2.027221 g / cm^3
# Si number density = 20.318460 Si / 1000 Ang^3
#
#
#
# Elastic Constant Matrix: (Units=GPa)
#
#
# Indices 1 2 3 4 5 6 
#
# 1 82.2319 29.8792 51.1991 0.0000 -47.4812 0.0000
# 2 29.8792 86.8241 29.7849 0.0000 -16.2328 0.0000
# 3 51.1991 29.7849 77.9718 0.0000 -29.3740 0.0000
# 4 0.0000 0.0000 0.0000 -30.7213 0.0000 -41.8522
# 5 -47.4812 -16.2328 -29.3740 0.0000 34.3412 0.0000
# 6 0.0000 0.0000 0.0000 -41.8522 0.0000 5.2068
#
#
#
# Elastic Compliance Matrix: (Units=1/GPa)
#
#
# Indices 1 2 3 4 5 6 
#
# 1 0.070326 -0.004019 -0.012878 0.000000 0.084320 0.000000
# 2 -0.004019 0.013677 -0.003310 0.000000 -0.001923 0.000000
# 3 -0.012878 -0.003310 0.022498 0.000000 -0.000126 0.000000
# 4 0.000000 0.000000 0.000000 -0.002724 0.000000 -0.021894
# 5 0.084320 -0.001923 -0.000126 0.000000 0.144686 0.000000
# 6 0.000000 0.000000 0.000000 -0.021894 0.000000 0.016071
#
#
# Mechanical properties :
#
#
# Convention : Reuss Voigt Hill
#
# Bulk Modulus (GPa) = 15.13157 52.08380 33.60769
# Shear Modulus (GPa) = 15.29163 10.84299 13.06731
#
# Velocity S-wave (km/s) = 2.74633 2.31260 2.53874
# Velocity P-wave (km/s) = 4.18567 5.72889 5.01697
#
# Compressibility (1/GPa) = 0.06608698
#
# Stress axis : x y z
#
# Youngs Moduli (GPa) = 14.21954 73.11805 44.44824
#
# Poissons Ratio (x) = 0.29388 0.57239
# Poissons Ratio (y) = 0.05715 0.14711
# Poissons Ratio (z) = 0.18311 0.24200
#
# Static dielectric constant tensor:
#      x y z
#    x 1.667380 0.000000 -0.011050 
#    y 0.000000 1.767820 0.000000 
#    z -0.011050 0.000000 1.734980 
# 
# From -- ./inp_files/39555.got.cif
#   From: 2010.05.17/outbox.cif.g08.bks.cpg/sg11_20_cif.got.tgz:39555.got - 2010.06.03 12:22:45.
