data_PCOD9164754
_publ_section_title
;
Structure prediction by ZEFSAII (Michael W. Deem and Ramdas Pophale) SiO2 
 PCOD9164754
Probable space group: P 21/M
;
_chemical_formula_sum "Si O2"
_cell_formula_units_Z 20
_cell_length_a 5.213259
_cell_length_b 29.792070
_cell_length_c 5.106197
_cell_angle_alpha 90.000000
_cell_angle_beta 91.648291
_cell_angle_gamma 90.000000
_cell_volume 792.734594
_symmetry_space_group_name_H-M "P 21/M"
_symmetry_group_IT_number 11
_symmetry_cell_setting 'monoclinic'
loop_
_space_group_symop_operation_xyz
x,y,z
-x,1/2+y,-z
-x,-y,-z
x,1/2-y,z
loop_
_atom_site_type_symbol
_atom_site_label
_atom_site_fract_x
_atom_site_fract_y
_atom_site_fract_z
Si Si1 0.162014 0.801905 0.538731
Si Si2 0.683394 0.552062 0.386031
Si Si3 0.824289 0.472899 0.786994
Si Si4 0.964945 0.651514 0.013748
Si Si5 0.540339 0.123605 0.221508
O O1 0.205602 0.750000 0.485163
O O2 0.990819 0.809422 0.793441
O O3 0.416749 0.830070 0.617274
O O4 0.039477 0.827515 0.290437
O O5 0.750689 0.506752 0.549055
O O6 0.464685 0.543735 0.157935
O O7 0.554005 0.586121 0.582592
O O8 0.971459 0.564439 0.304690
O O9 0.000000 0.500000 0.000000
O O10 0.181449 0.617542 0.902854
O O11 0.681769 0.631918 0.994232
#
# Coordination Sequence:
#
# PCOD9164754 Si02
#       5
#     4   4   4   4   4
#     4  10  24  43  65  94 126 167 211 264 324 384
#     4  10  21  39  59  90 125 158 212 252 312 379
#     4  10  21  36  62  90 124 166 202 255 313 377
#     4  10  24  41  64  92 125 167 208 261 314 381
#     4  10  24  41  64  94 128 170 215 267 320 379
#
# _framework density 25.229122
#
# number of rings (size 3 to 8) (size 9 to 14) (size 15 to 20)
#    1.200    0.800    0.000    2.400    2.800    4.800 
#    0.000    0.000    0.000    0.000    0.000    0.000 
#    0.000    0.000    0.000    0.000    0.000    0.000 
#
# Total GULP energy -111789.305521 kJ/mol
# GULP energy per Si atom -5589.465276 kJ/mol
# Density = 2.517170 g / cm^3
# Si number density = 25.229122 Si / 1000 Ang^3
#
#
#
# Elastic Constant Matrix: (Units=GPa)
#
#
# Indices 1 2 3 4 5 6 
#
# 1 194.3978 52.3114 47.4025 0.0000 31.1321 0.0000
# 2 52.3114 91.7417 23.7182 0.0000 4.0588 0.0000
# 3 47.4025 23.7182 113.4201 0.0000 29.6249 0.0000
# 4 0.0000 0.0000 0.0000 41.9942 0.0000 -4.3644
# 5 31.1321 4.0588 29.6249 0.0000 51.6206 0.0000
# 6 0.0000 0.0000 0.0000 -4.3644 0.0000 19.7734
#
#
#
# Elastic Compliance Matrix: (Units=1/GPa)
#
#
# Indices 1 2 3 4 5 6 
#
# 1 0.006900 -0.003448 -0.001349 0.000000 -0.003116 0.000000
# 2 -0.003448 0.013260 -0.001885 0.000000 0.002119 0.000000
# 3 -0.001349 -0.001885 0.011203 0.000000 -0.005468 0.000000
# 4 0.000000 0.000000 0.000000 0.024372 0.000000 0.005379
# 5 -0.003116 0.002119 -0.005468 0.000000 0.024223 0.000000
# 6 0.000000 0.000000 0.000000 0.005379 0.000000 0.051760
#
#
# Mechanical properties :
#
#
# Convention : Reuss Voigt Hill
#
# Bulk Modulus (GPa) = 55.55946 71.82487 63.69217
# Shear Modulus (GPa) = 33.09494 41.08615 37.09055
#
# Velocity S-wave (km/s) = 3.62577 4.03987 3.83841
# Velocity P-wave (km/s) = 6.29270 7.09166 6.70409
#
# Compressibility (1/GPa) = 0.01799873
#
# Stress axis : x y z
#
# Youngs Moduli (GPa) = 144.93248 75.41625 89.26291
#
# Poissons Ratio (x) = 0.26001 0.12040
# Poissons Ratio (y) = 0.49968 0.16829
# Poissons Ratio (z) = 0.19548 0.14218
#
# Static dielectric constant tensor:
#      x y z
#    x 2.027260 0.000000 -0.067990 
#    y 0.000000 2.061350 0.000000 
#    z -0.067990 0.000000 1.999560 
# 
# From -- ./inp_files/1014.got.cif
#   From: 2010.05.17/outbox.cif.g08.bks.cpg/sg11_1_cif.got.tgz:1014.got - 2010.06.03 12:22:45.
