data_PCOD9164960
_publ_section_title
;
Structure prediction by ZEFSAII (Michael W. Deem and Ramdas Pophale) SiO2 
 PCOD9164960
Probable space group: P 21/M
;
_chemical_formula_sum "Si O2"
_cell_formula_units_Z 32
_cell_length_a 21.409002
_cell_length_b 9.245063
_cell_length_c 27.342165
_cell_angle_alpha 90.000000
_cell_angle_beta 18.404001
_cell_angle_gamma 90.000000
_cell_volume 1708.578047
_symmetry_space_group_name_H-M "P 21/M"
_symmetry_group_IT_number 11
_symmetry_cell_setting 'monoclinic'
loop_
_space_group_symop_operation_xyz
x,y,z
-x,1/2+y,-z
-x,-y,-z
x,1/2-y,z
loop_
_atom_site_type_symbol
_atom_site_label
_atom_site_fract_x
_atom_site_fract_y
_atom_site_fract_z
Si Si1 0.568415 0.416314 0.997124
Si Si2 0.982531 0.077735 0.934696
Si Si3 0.760321 0.077469 0.446963
Si Si4 0.699125 0.578218 0.219507
Si Si5 0.059941 0.076374 0.136156
Si Si6 0.515231 0.580155 0.135371
Si Si7 0.922746 0.420818 0.508759
Si Si8 0.016148 0.082531 0.635667
O O1 0.504779 0.250000 0.041965
O O2 0.806632 0.421997 0.819244
O O3 0.500000 0.500000 0.000000
O O4 0.493564 0.490668 0.101845
O O5 0.960945 0.250000 0.946257
O O6 0.176612 0.047603 0.823640
O O7 0.993151 0.004263 0.874153
O O8 0.800853 0.010736 0.100418
O O9 0.780276 0.250000 0.441137
O O10 0.532590 0.046916 0.603407
O O11 0.907287 0.040865 0.293134
O O12 0.825717 0.992425 0.446603
O O13 0.721179 0.750000 0.192750
O O14 0.053168 0.250000 0.133606
O O15 0.283355 0.038298 0.986746
O O16 0.533965 0.750000 0.108380
O O17 0.316054 0.563751 0.314447
O O18 0.969507 0.250000 0.475635
O O19 0.004730 0.496373 0.399424
O O20 0.000000 0.500000 0.500000
O O21 0.064279 0.250000 0.589840
#
# Coordination Sequence:
#
# PCOD9164960 Si02
#       8
#     4   4   4   4   4   4   4   4
#     4  11  23  38  60  86 115 151 191 236 288 342
#     4  10  21  37  59  89 122 156 192 237 288 339
#     4  10  21  39  63  86 113 155 199 238 286 345
#     4   9  20  39  61  87 119 154 197 239 282 341
#     4  10  21  38  60  86 117 154 194 239 289 344
#     4  10  22  40  60  84 114 150 195 240 285 341
#     4  11  24  41  61  86 116 153 195 241 293 347
#     4  11  24  40  58  87 121 151 190 242 293 346
#
# _framework density 18.729025
#
# number of rings (size 3 to 8) (size 9 to 14) (size 15 to 20)
#    0.000    1.750    1.250    2.250    1.750    8.000 
#    0.000    0.000    0.000    0.000    0.000    0.000 
#    0.000    0.000    0.000    0.000    0.000    0.000 
#
# Total GULP energy -178809.116983 kJ/mol
# GULP energy per Si atom -5587.784906 kJ/mol
# Density = 1.868640 g / cm^3
# Si number density = 18.729025 Si / 1000 Ang^3
#
#
#
# Elastic Constant Matrix: (Units=GPa)
#
#
# Indices 1 2 3 4 5 6 
#
# 1 88.9879 40.9075 15.2125 0.0000 5.0460 0.0000
# 2 40.9075 59.7609 24.1366 0.0000 2.7533 0.0000
# 3 15.2125 24.1366 67.8181 0.0000 -11.1694 0.0000
# 4 0.0000 0.0000 0.0000 26.4034 0.0000 3.0983
# 5 5.0460 2.7533 -11.1694 0.0000 28.7012 0.0000
# 6 0.0000 0.0000 0.0000 3.0983 0.0000 41.4196
#
#
#
# Elastic Compliance Matrix: (Units=1/GPa)
#
#
# Indices 1 2 3 4 5 6 
#
# 1 0.016492 -0.011198 -0.000015 0.000000 -0.001831 0.000000
# 2 -0.011198 0.027812 -0.008015 0.000000 -0.003818 0.000000
# 3 -0.000015 -0.008015 0.018943 0.000000 0.008143 0.000000
# 4 0.000000 0.000000 0.000000 0.038209 0.000000 -0.002858
# 5 -0.001831 -0.003818 0.008143 0.000000 0.038699 0.000000
# 6 0.000000 0.000000 0.000000 -0.002858 0.000000 0.024357
#
#
# Mechanical properties :
#
#
# Convention : Reuss Voigt Hill
#
# Bulk Modulus (GPa) = 40.34157 41.89779 41.11968
# Shear Modulus (GPa) = 23.67058 28.39220 26.03139
#
# Velocity S-wave (km/s) = 3.55892 3.89774 3.73217
# Velocity P-wave (km/s) = 6.20276 6.53266 6.36984
#
# Compressibility (1/GPa) = 0.02478833
#
# Stress axis : x y z
#
# Youngs Moduli (GPa) = 60.63609 35.95562 52.79105
#
# Poissons Ratio (x) = 0.40265 0.00081
# Poissons Ratio (y) = 0.67903 0.42314
# Poissons Ratio (z) = 0.00093 0.28819
#
# Static dielectric constant tensor:
#      x y z
#    x 1.607840 0.000000 -0.020290 
#    y 0.000000 1.621600 0.000000 
#    z -0.020290 0.000000 1.649350 
# 
# From -- ./inp_files/72009.got.cif
#   From: 2010.05.17/outbox.cif.g08.bks.cpg/sg11_37_cif.got.tgz:72009.got - 2010.06.03 12:22:45.
