data_PCOD9164529
_publ_section_title
;
Structure prediction by ZEFSAII (Michael W. Deem and Ramdas Pophale) SiO2 
 PCOD9164529
Probable space group: P 21/M
;
_chemical_formula_sum "Si O2"
_cell_formula_units_Z 20
_cell_length_a 5.949956
_cell_length_b 22.946291
_cell_length_c 8.265486
_cell_angle_alpha 90.000000
_cell_angle_beta 56.525736
_cell_angle_gamma 90.000000
_cell_volume 941.304837
_symmetry_space_group_name_H-M "P 21/M"
_symmetry_group_IT_number 11
_symmetry_cell_setting 'monoclinic'
loop_
_space_group_symop_operation_xyz
x,y,z
-x,1/2+y,-z
-x,-y,-z
x,1/2-y,z
loop_
_atom_site_type_symbol
_atom_site_label
_atom_site_fract_x
_atom_site_fract_y
_atom_site_fract_z
Si Si1 0.454226 0.607593 0.296622
Si Si2 0.421565 0.094518 0.386076
Si Si3 0.995960 0.597614 0.877495
Si Si4 0.007853 0.318116 0.430436
Si Si5 0.762247 0.001294 0.782692
O O1 0.505504 0.583629 0.456836
O O2 0.289958 0.667373 0.382768
O O3 0.245606 0.566295 0.281680
O O4 0.742592 0.607154 0.094615
O O5 0.281322 0.040418 0.354341
O O6 0.702217 0.104221 0.177402
O O7 0.237102 0.151706 0.448412
O O8 0.978976 0.532229 0.806952
O O9 0.970115 0.645034 0.744668
O O10 0.048340 0.250000 0.393269
O O11 0.500000 0.000000 0.000000
#
# Coordination Sequence:
#
# PCOD9164529 Si02
#       5
#     4   4   4   4   4
#     4  10  21  37  60  86 113 146 188 230 280 337
#     4  10  21  35  58  87 115 148 186 231 280 332
#     4   9  21  39  59  83 113 149 186 229 281 339
#     4  10  23  41  56  77 112 149 190 238 282 327
#     4   9  19  35  57  87 121 150 179 223 282 342
#
# _framework density 21.247102000000002
#
# number of rings (size 3 to 8) (size 9 to 14) (size 15 to 20)
#    0.000    2.400    0.000    0.600    0.000   20.800 
#    0.000    0.000    0.000    0.000    0.000    0.000 
#    0.000    0.000    0.000    0.000    0.000    0.000 
#
# Total GULP energy -111620.975462 kJ/mol
# GULP energy per Si atom -5581.048773 kJ/mol
# Density = 2.119874 g / cm^3
# Si number density = 21.247102 Si / 1000 Ang^3
#
#
#
# Elastic Constant Matrix: (Units=GPa)
#
#
# Indices 1 2 3 4 5 6 
#
# 1 47.4608 -5.8534 24.7612 0.0000 -20.6062 0.0000
# 2 -5.8534 77.9038 12.9085 0.0000 0.7705 0.0000
# 3 24.7612 12.9085 117.3427 0.0000 -27.9253 0.0000
# 4 0.0000 0.0000 0.0000 21.0624 0.0000 -7.0057
# 5 -20.6062 0.7705 -27.9253 0.0000 37.3735 0.0000
# 6 0.0000 0.0000 0.0000 -7.0057 0.0000 19.8127
#
#
#
# Elastic Compliance Matrix: (Units=1/GPa)
#
#
# Indices 1 2 3 4 5 6 
#
# 1 0.028907 0.002563 -0.003164 0.000000 0.013521 0.000000
# 2 0.002563 0.013384 -0.002119 0.000000 -0.000447 0.000000
# 3 -0.003164 -0.002119 0.010968 0.000000 0.006495 0.000000
# 4 0.000000 0.000000 0.000000 0.053806 0.000000 0.019026
# 5 0.013521 -0.000447 0.006495 0.000000 0.039074 0.000000
# 6 0.000000 0.000000 0.000000 0.019026 0.000000 0.057200
#
#
# Mechanical properties :
#
#
# Convention : Reuss Voigt Hill
#
# Bulk Modulus (GPa) = 20.91240 34.03777 27.47509
# Shear Modulus (GPa) = 22.24974 29.70914 25.97944
#
# Velocity S-wave (km/s) = 3.23954 3.74340 3.50055
# Velocity P-wave (km/s) = 4.88433 5.89396 5.41274
#
# Compressibility (1/GPa) = 0.04781852
#
# Stress axis : x y z
#
# Youngs Moduli (GPa) = 34.59328 74.71337 91.17034
#
# Poissons Ratio (x) = -0.19145 0.28846
# Poissons Ratio (y) = -0.08865 0.19323
# Poissons Ratio (z) = 0.10945 0.15835
#
# Static dielectric constant tensor:
#      x y z
#    x 1.818480 0.000000 -0.011450 
#    y 0.000000 1.740560 0.000000 
#    z -0.011450 0.000000 1.806820 
# 
# From -- ./inp_files/2280.got.cif
#   From: 2010.05.17/outbox.cif.g08.bks.cpg/sg11_2_cif.got.tgz:2280.got - 2010.06.03 12:22:45.
