data_PCOD9164982
_publ_section_title
;
Structure prediction by ZEFSAII (Michael W. Deem and Ramdas Pophale) SiO2 
 PCOD9164982
Probable space group: P 21/M
;
_chemical_formula_sum "Si O2"
_cell_formula_units_Z 32
_cell_length_a 20.467474
_cell_length_b 13.875190
_cell_length_c 13.612656
_cell_angle_alpha 90.000000
_cell_angle_beta 154.953776
_cell_angle_gamma 90.000000
_cell_volume 1636.608867
_symmetry_space_group_name_H-M "P 21/M"
_symmetry_group_IT_number 11
_symmetry_cell_setting 'monoclinic'
loop_
_space_group_symop_operation_xyz
x,y,z
-x,1/2+y,-z
-x,-y,-z
x,1/2-y,z
loop_
_atom_site_type_symbol
_atom_site_label
_atom_site_fract_x
_atom_site_fract_y
_atom_site_fract_z
Si Si1 0.341923 0.142610 0.029031
Si Si2 0.687503 0.860413 0.783456
Si Si3 0.938012 0.014833 0.174841
Si Si4 0.252255 0.936795 0.908404
Si Si5 0.871263 0.969676 0.745902
Si Si6 0.844566 0.141747 0.428197
Si Si7 0.325698 0.857658 0.611680
Si Si8 0.573519 0.863236 0.420437
O O1 0.276293 0.250000 0.922811
O O2 0.378360 0.135725 0.195608
O O3 0.497972 0.133065 0.180015
O O4 0.236676 0.050963 0.862689
O O5 0.747362 0.750000 0.851428
O O6 0.571749 0.877769 0.536053
O O7 0.816917 0.942713 0.956944
O O8 0.042646 0.941030 0.379961
O O9 0.039350 0.066341 0.229941
O O10 0.846828 0.080127 0.128279
O O11 0.431276 0.917823 0.176989
O O12 0.201247 0.876270 0.745746
O O13 0.739915 0.899692 0.609486
O O14 0.779000 0.064355 0.584481
O O15 0.000000 0.000000 0.000000
O O16 0.909843 0.250000 0.529092
O O17 0.700147 0.134473 0.306599
O O18 0.274271 0.750000 0.512965
O O19 0.556569 0.750000 0.377334
#
# Coordination Sequence:
#
# PCOD9164982 Si02
#       8
#     4   4   4   4   4   4   4   4
#     4   9  18  34  56  86 115 143 189 247 292 332
#     4   9  18  33  57  84 115 150 191 237 287 346
#     4  10  21  37  60  88 114 150 205 246 293 333
#     4  11  22  38  61  87 119 158 193 244 295 357
#     4  11  21  37  58  89 119 156 193 244 295 348
#     4  10  21  38  61  86 116 157 200 241 290 352
#     4   9  19  36  58  84 113 148 196 243 285 336
#     4  11  23  39  58  86 121 161 196 233 295 363
#
# _framework density 19.552626
#
# number of rings (size 3 to 8) (size 9 to 14) (size 15 to 20)
#    0.000    2.000    2.500    1.125    0.000    5.000 
#    0.000    1.250    0.000    0.000    0.000    0.000 
#    0.000    0.000    0.000    0.000    0.000    0.000 
#
# Total GULP energy -178505.757090 kJ/mol
# GULP energy per Si atom -5578.304909 kJ/mol
# Density = 1.950812 g / cm^3
# Si number density = 19.552626 Si / 1000 Ang^3
#
#
#
# Elastic Constant Matrix: (Units=GPa)
#
#
# Indices 1 2 3 4 5 6 
#
# 1 97.3100 16.5404 14.2766 0.0000 13.5292 0.0000
# 2 16.5404 40.4902 -10.3655 0.0000 -3.1806 0.0000
# 3 14.2766 -10.3655 30.4329 0.0000 -3.1498 0.0000
# 4 0.0000 0.0000 0.0000 2.0612 0.0000 -15.4320
# 5 13.5292 -3.1806 -3.1498 0.0000 28.6929 0.0000
# 6 0.0000 0.0000 0.0000 -15.4320 0.0000 8.9985
#
#
#
# Elastic Compliance Matrix: (Units=1/GPa)
#
#
# Indices 1 2 3 4 5 6 
#
# 1 0.014865 -0.009680 -0.011235 0.000000 -0.009316 0.000000
# 2 -0.009680 0.033836 0.017121 0.000000 0.010195 0.000000
# 3 -0.011235 0.017121 0.045220 0.000000 0.012159 0.000000
# 4 0.000000 0.000000 0.000000 -0.040977 0.000000 -0.070274
# 5 -0.009316 0.010195 0.012159 0.000000 0.041709 0.000000
# 6 0.000000 0.000000 0.000000 -0.070274 0.000000 -0.009386
#
#
# Mechanical properties :
#
#
# Convention : Reuss Voigt Hill
#
# Bulk Modulus (GPa) = 11.58326 23.23734 17.41030
# Shear Modulus (GPa) = 41.10755 17.80265 29.45510
#
# Velocity S-wave (km/s) = 4.59017 3.02072 3.88552
# Velocity P-wave (km/s) = 5.83352 4.90680 5.39011
#
# Compressibility (1/GPa) = 0.08633148
#
# Stress axis : x y z
#
# Youngs Moduli (GPa) = 67.27042 29.55464 22.11433
#
# Poissons Ratio (x) = 0.28610 0.24845
# Poissons Ratio (y) = 0.65121 -0.37862
# Poissons Ratio (z) = 0.75578 -0.50600
#
# Static dielectric constant tensor:
#      x y z
#    x 1.714780 0.000000 0.015330 
#    y 0.000000 1.704080 0.000000 
#    z 0.015330 0.000000 1.654170 
# 
# From -- ./inp_files/41651.got.cif
#   From: 2010.05.17/outbox.cif.g08.bks.cpg/sg11_21_cif.got.tgz:41651.got - 2010.06.03 12:22:45.
