data_PCOD9164021
_publ_section_title
;
Structure prediction by ZEFSAII (Michael W. Deem and Ramdas Pophale) SiO2 
 PCOD9164021
Probable space group: P 21/M
;
_chemical_formula_sum "Si O2"
_cell_formula_units_Z 28
_cell_length_a 8.758509
_cell_length_b 13.985506
_cell_length_c 17.508370
_cell_angle_alpha 90.000000
_cell_angle_beta 143.373181
_cell_angle_gamma 90.000000
_cell_volume 1279.492547
_symmetry_space_group_name_H-M "P 21/M"
_symmetry_group_IT_number 11
_symmetry_cell_setting 'monoclinic'
loop_
_space_group_symop_operation_xyz
x,y,z
-x,1/2+y,-z
-x,-y,-z
x,1/2-y,z
loop_
_atom_site_type_symbol
_atom_site_label
_atom_site_fract_x
_atom_site_fract_y
_atom_site_fract_z
Si Si1 0.024464 0.140457 0.082599
Si Si2 0.782059 0.969620 0.524018
Si Si3 0.525539 0.575259 0.176015
Si Si4 0.496068 0.853755 0.839085
Si Si5 0.940040 0.857689 0.448062
Si Si6 0.326090 0.095823 0.927541
Si Si7 0.812239 0.992648 0.714636
O O1 0.946022 0.250000 0.065930
O O2 0.254541 0.142072 0.114773
O O3 0.123110 0.090884 0.199575
O O4 0.779640 0.084013 0.951362
O O5 0.913460 0.889417 0.524837
O O6 0.838987 0.962019 0.636749
O O7 0.475333 0.970135 0.391168
O O8 0.882027 0.069392 0.527806
O O9 0.608957 0.462931 0.211931
O O10 0.657802 0.626517 0.299575
O O11 0.628037 0.627230 0.140604
O O12 0.368574 0.750000 0.770257
O O13 0.576540 0.849211 0.960055
O O14 0.027032 0.750000 0.473589
O O15 0.028955 0.071407 0.817096
O O16 0.500000 0.000000 0.000000
#
# Coordination Sequence:
#
# PCOD9164021 Si02
#       7
#     4   4   4   4   4   4   4
#     4  11  23  37  62  96 127 167 211 266 333 390
#     4  10  25  43  68  93 127 173 223 269 318 376
#     4  11  21  41  63  95 132 163 207 268 332 385
#     4  10  22  37  60  96 131 167 210 255 324 393
#     4  11  24  45  69  95 128 170 218 269 326 390
#     4  10  20  38  63  91 125 167 206 255 328 379
#     4  11  21  44  66  90 132 174 214 272 322 378
#
# _framework density 21.883676999999999
#
# number of rings (size 3 to 8) (size 9 to 14) (size 15 to 20)
#    0.000    1.429    4.286    1.714    2.000    2.286 
#    0.000    6.429    0.000    0.000    0.000    0.000 
#    0.000    0.000    0.000    0.000    0.000    0.000 
#
# Total GULP energy -156398.123835 kJ/mol
# GULP energy per Si atom -5585.647280 kJ/mol
# Density = 2.183387 g / cm^3
# Si number density = 21.883677 Si / 1000 Ang^3
#
#
#
# Elastic Constant Matrix: (Units=GPa)
#
#
# Indices 1 2 3 4 5 6 
#
# 1 103.7606 23.4995 14.6586 0.0000 -11.5972 0.0000
# 2 23.4995 99.4491 5.6641 0.0000 -0.6069 0.0000
# 3 14.6586 5.6641 76.2663 0.0000 7.1264 0.0000
# 4 0.0000 0.0000 0.0000 13.7400 0.0000 17.6509
# 5 -11.5972 -0.6069 7.1264 0.0000 32.2249 0.0000
# 6 0.0000 0.0000 0.0000 17.6509 0.0000 -58.6804
#
#
#
# Elastic Compliance Matrix: (Units=1/GPa)
#
#
# Indices 1 2 3 4 5 6 
#
# 1 0.011019 -0.002443 -0.002351 0.000000 0.004440 0.000000
# 2 -0.002443 0.010644 -0.000263 0.000000 -0.000621 0.000000
# 3 -0.002351 -0.000263 0.013951 0.000000 -0.003936 0.000000
# 4 0.000000 0.000000 0.000000 0.052495 0.000000 0.015790
# 5 0.004440 -0.000621 -0.003936 0.000000 0.033489 0.000000
# 6 0.000000 0.000000 0.000000 0.015790 0.000000 -0.012292
#
#
# Mechanical properties :
#
#
# Convention : Reuss Voigt Hill
#
# Bulk Modulus (GPa) = 39.21570 40.79116 40.00343
# Shear Modulus (GPa) = 39.08675 13.16714 26.12695
#
# Velocity S-wave (km/s) = 4.23083 2.45559 3.45904
# Velocity P-wave (km/s) = 6.46727 5.16918 5.85431
#
# Compressibility (1/GPa) = 0.02549999
#
# Stress axis : x y z
#
# Youngs Moduli (GPa) = 90.75062 93.95127 71.67815
#
# Poissons Ratio (x) = 0.22950 0.16854
# Poissons Ratio (y) = 0.22168 0.01885
# Poissons Ratio (z) = 0.21339 0.02471
#
# Static dielectric constant tensor:
#      x y z
#    x 1.801240 0.000000 -0.005600 
#    y 0.000000 1.822680 0.000000 
#    z -0.005600 0.000000 1.824470 
# 
# From -- ./inp_files/58144.got.cif
#   From: 2010.05.17/outbox.cif.g08.bks.cpg/sg11_30_cif.got.tgz:58144.got - 2010.06.03 12:22:45.
