data_PCOD9164128
_publ_section_title
;
Structure prediction by ZEFSAII (Michael W. Deem and Ramdas Pophale) SiO2 
 PCOD9164128
Probable space group: P 21/M
;
_chemical_formula_sum "Si O2"
_cell_formula_units_Z 28
_cell_length_a 10.752055
_cell_length_b 9.362514
_cell_length_c 14.481811
_cell_angle_alpha 90.000000
_cell_angle_beta 111.555717
_cell_angle_gamma 90.000000
_cell_volume 1355.870270
_symmetry_space_group_name_H-M "P 21/M"
_symmetry_group_IT_number 11
_symmetry_cell_setting 'monoclinic'
loop_
_space_group_symop_operation_xyz
x,y,z
-x,1/2+y,-z
-x,-y,-z
x,1/2-y,z
loop_
_atom_site_type_symbol
_atom_site_label
_atom_site_fract_x
_atom_site_fract_y
_atom_site_fract_z
Si Si1 0.203087 0.909734 0.545332
Si Si2 0.362191 0.420512 0.935241
Si Si3 0.458215 0.081641 0.580414
Si Si4 0.817136 0.088528 0.241882
Si Si5 0.292698 0.915948 0.238392
Si Si6 0.856590 0.920088 0.962307
Si Si7 0.062000 0.589151 0.320794
O O1 0.259979 0.750000 0.539783
O O2 0.170188 0.908704 0.643944
O O3 0.089079 0.928993 0.437186
O O4 0.309637 0.033195 0.561048
O O5 0.383839 0.250000 0.933888
O O6 0.302858 0.489647 0.825869
O O7 0.500000 0.500000 0.000000
O O8 0.242064 0.445255 0.976918
O O9 0.470238 0.250000 0.569820
O O10 0.558470 0.042998 0.690925
O O11 0.500000 0.000000 0.500000
O O12 0.798052 0.250000 0.202961
O O13 0.957804 0.020934 0.250114
O O14 0.290304 0.750000 0.205730
O O15 0.202345 0.921715 0.306256
O O16 0.227142 0.018704 0.146444
O O17 0.879449 0.750000 0.962743
O O18 0.000000 0.000000 0.000000
O O19 0.009192 0.750000 0.291337
#
# Coordination Sequence:
#
# PCOD9164128 Si02
#       7
#     4   4   4   4   4   4   4
#     4  10  22  40  60  87 127 166 205 254 304 362
#     4  11  26  47  68  93 127 169 215 267 327 385
#     4  11  22  38  60  89 124 164 207 252 307 368
#     4  11  24  40  63  93 124 161 207 258 310 367
#     4  10  22  39  62  91 124 163 204 251 310 368
#     4  11  25  44  68  97 127 164 212 267 325 382
#     4  10  20  39  62  88 127 167 202 247 304 368
#
# _framework density 20.650945
#
# number of rings (size 3 to 8) (size 9 to 14) (size 15 to 20)
#    0.000    1.429    1.429    3.000    2.000    9.143 
#    0.000    0.000    0.000    0.000    0.000    0.000 
#    0.000    0.000    0.000    0.000    0.000    0.000 
#
# Total GULP energy -156405.756918 kJ/mol
# GULP energy per Si atom -5585.919890 kJ/mol
# Density = 2.060394 g / cm^3
# Si number density = 20.650945 Si / 1000 Ang^3
#
#
#
# Elastic Constant Matrix: (Units=GPa)
#
#
# Indices 1 2 3 4 5 6 
#
# 1 45.6333 44.2360 8.1247 0.0000 12.2588 0.0000
# 2 44.2360 107.7221 55.6332 0.0000 16.5975 0.0000
# 3 8.1247 55.6332 84.2489 0.0000 10.0066 0.0000
# 4 0.0000 0.0000 0.0000 35.7568 0.0000 5.8913
# 5 12.2588 16.5975 10.0066 0.0000 31.1095 0.0000
# 6 0.0000 0.0000 0.0000 5.8913 0.0000 34.2052
#
#
#
# Elastic Compliance Matrix: (Units=1/GPa)
#
#
# Indices 1 2 3 4 5 6 
#
# 1 0.044692 -0.023189 0.012087 0.000000 -0.009127 0.000000
# 2 -0.023189 0.026814 -0.015446 0.000000 -0.000200 0.000000
# 3 0.012087 -0.015446 0.021305 0.000000 -0.003375 0.000000
# 4 0.000000 0.000000 0.000000 0.028784 0.000000 -0.004958
# 5 -0.009127 -0.000200 -0.003375 0.000000 0.036933 0.000000
# 6 0.000000 0.000000 0.000000 -0.004958 0.000000 0.030089
#
#
# Mechanical properties :
#
#
# Convention : Reuss Voigt Hill
#
# Bulk Modulus (GPa) = 25.18005 50.39912 37.78958
# Shear Modulus (GPa) = 19.61160 28.85498 24.23329
#
# Velocity S-wave (km/s) = 3.08502 3.74207 3.42931
# Velocity P-wave (km/s) = 4.99093 6.56726 5.83260
#
# Compressibility (1/GPa) = 0.03971398
#
# Stress axis : x y z
#
# Youngs Moduli (GPa) = 22.37513 37.29459 46.93816
#
# Poissons Ratio (x) = 0.86482 -0.56732
# Poissons Ratio (y) = 0.51885 0.72502
# Poissons Ratio (z) = -0.27044 0.57606
#
# Static dielectric constant tensor:
#      x y z
#    x 1.752890 0.000000 -0.030190 
#    y 0.000000 1.732120 0.000000 
#    z -0.030190 0.000000 1.735060 
# 
# From -- ./inp_files/37903.got.cif
#   From: 2010.05.17/outbox.cif.g08.bks.cpg/sg11_19_cif.got.tgz:37903.got - 2010.06.03 12:22:45.
