data_PCOD9164772
_publ_section_title
;
Structure prediction by ZEFSAII (Michael W. Deem and Ramdas Pophale) SiO2 
 PCOD9164772
Probable space group: P 21/M
;
_chemical_formula_sum "Si O2"
_cell_formula_units_Z 32
_cell_length_a 21.867274
_cell_length_b 8.635328
_cell_length_c 12.936963
_cell_angle_alpha 90.000000
_cell_angle_beta 125.747816
_cell_angle_gamma 90.000000
_cell_volume 1982.649084
_symmetry_space_group_name_H-M "P 21/M"
_symmetry_group_IT_number 11
_symmetry_cell_setting 'monoclinic'
loop_
_space_group_symop_operation_xyz
x,y,z
-x,1/2+y,-z
-x,-y,-z
x,1/2-y,z
loop_
_atom_site_type_symbol
_atom_site_label
_atom_site_fract_x
_atom_site_fract_y
_atom_site_fract_z
Si Si1 0.915360 0.064862 0.422724
Si Si2 0.661358 0.937930 0.282028
Si Si3 0.179118 0.063475 0.477167
Si Si4 0.502829 0.435548 0.885782
Si Si5 0.175894 0.435658 0.863269
Si Si6 0.659406 0.563781 0.038748
Si Si7 0.915448 0.064640 0.800522
Si Si8 0.918608 0.064833 0.043593
O O1 0.917518 0.250000 0.430433
O O2 0.873036 0.998143 0.481343
O O3 0.869353 0.011346 0.276272
O O4 0.000000 0.000000 0.500000
O O5 0.662822 0.750000 0.283568
O O6 0.735168 0.989513 0.415897
O O7 0.578402 0.984137 0.240440
O O8 0.667678 0.985283 0.167584
O O9 0.176953 0.250000 0.476101
O O10 0.146431 0.001511 0.337782
O O11 0.505232 0.250000 0.891157
O O12 0.500000 0.500000 0.000000
O O13 0.581244 0.497035 0.918320
O O14 0.171442 0.250000 0.847241
O O15 0.263788 0.480937 0.942345
O O16 0.137874 0.487555 0.931895
O O17 0.653442 0.750000 0.032532
O O18 0.919479 0.250000 0.795293
O O19 0.901320 0.025706 0.906903
O O20 0.996708 0.994134 0.851777
O O21 0.916454 0.250000 0.053086
#
# Coordination Sequence:
#
# PCOD9164772 Si02
#       8
#     4   4   4   4   4   4   4   4
#     4  12  24  36  49  69  99 134 170 201 245 299
#     4   8  15  29  46  67  98 131 161 195 239 288
#     4  11  20  34  53  73 100 133 167 203 248 295
#     4   9  16  27  44  67  95 130 166 198 238 286
#     4  11  21  35  53  73 101 132 166 206 251 297
#     4   9  17  31  47  68  99 132 162 198 243 291
#     4  10  21  37  54  74  99 127 165 212 255 295
#     4  10  21  37  55  74  97 127 167 211 254 298
#
# _framework density 16.140021999999998
#
# number of rings (size 3 to 8) (size 9 to 14) (size 15 to 20)
#    0.000    2.000    1.250    4.500    0.000    2.500 
#    0.000    1.875    0.000    0.000    0.000    0.875 
#    0.000    0.000    0.000    0.000    0.000    0.000 
#
# Total GULP energy -178511.376063 kJ/mol
# GULP energy per Si atom -5578.480502 kJ/mol
# Density = 1.610329 g / cm^3
# Si number density = 16.140022 Si / 1000 Ang^3
#
#
#
# Elastic Constant Matrix: (Units=GPa)
#
#
# Indices 1 2 3 4 5 6 
#
# 1 79.1857 24.9926 60.5578 0.0000 25.3215 0.0000
# 2 24.9926 44.4819 25.1388 0.0000 7.1109 0.0000
# 3 60.5578 25.1388 104.1853 0.0000 27.9347 0.0000
# 4 0.0000 0.0000 0.0000 18.8459 0.0000 6.5299
# 5 25.3215 7.1109 27.9347 0.0000 26.7691 0.0000
# 6 0.0000 0.0000 0.0000 6.5299 0.0000 22.9010
#
#
#
# Elastic Compliance Matrix: (Units=1/GPa)
#
#
# Indices 1 2 3 4 5 6 
#
# 1 0.027032 -0.007183 -0.010601 0.000000 -0.012599 0.000000
# 2 -0.007183 0.027944 -0.003331 0.000000 0.002847 0.000000
# 3 -0.010601 -0.003331 0.018936 0.000000 -0.008848 0.000000
# 4 0.000000 0.000000 0.000000 0.058879 0.000000 -0.016789
# 5 -0.012599 0.002847 -0.008848 0.000000 0.057752 0.000000
# 6 0.000000 0.000000 0.000000 -0.016789 0.000000 0.048453
#
#
# Mechanical properties :
#
#
# Convention : Reuss Voigt Hill
#
# Bulk Modulus (GPa) = 31.56308 49.91460 40.73884
# Shear Modulus (GPa) = 17.13582 21.51410 19.32496
#
# Velocity S-wave (km/s) = 3.26190 3.65494 3.46400
# Velocity P-wave (km/s) = 5.81248 6.98603 6.42610
#
# Compressibility (1/GPa) = 0.03168259
#
# Stress axis : x y z
#
# Youngs Moduli (GPa) = 36.99378 35.78569 52.80877
#
# Poissons Ratio (x) = 0.25704 0.55981
# Poissons Ratio (y) = 0.26572 0.17591
# Poissons Ratio (z) = 0.39216 0.11921
#
# Static dielectric constant tensor:
#      x y z
#    x 1.544500 0.000000 0.023730 
#    y 0.000000 1.545950 0.000000 
#    z 0.023730 0.000000 1.534970 
# 
# From -- ./inp_files/42918.got.cif
#   From: 2010.05.17/outbox.cif.g08.bks.cpg/sg11_22_cif.got.tgz:42918.got - 2010.06.03 12:22:45.
