data_PCOD9164511
_publ_section_title
;
Structure prediction by ZEFSAII (Michael W. Deem and Ramdas Pophale) SiO2 
 PCOD9164511
Probable space group: P 21/M
;
_chemical_formula_sum "Si O2"
_cell_formula_units_Z 32
_cell_length_a 17.928186
_cell_length_b 9.129428
_cell_length_c 28.367035
_cell_angle_alpha 90.000000
_cell_angle_beta 155.982203
_cell_angle_gamma 90.000000
_cell_volume 1889.774667
_symmetry_space_group_name_H-M "P 21/M"
_symmetry_group_IT_number 11
_symmetry_cell_setting 'monoclinic'
loop_
_space_group_symop_operation_xyz
x,y,z
-x,1/2+y,-z
-x,-y,-z
x,1/2-y,z
loop_
_atom_site_type_symbol
_atom_site_label
_atom_site_fract_x
_atom_site_fract_y
_atom_site_fract_z
Si Si1 0.952453 0.908834 0.737190
Si Si2 0.112283 0.075055 0.995258
Si Si3 0.434093 0.073580 0.912341
Si Si4 0.735081 0.425876 0.822682
Si Si5 0.274801 0.582591 0.998329
Si Si6 0.619534 0.080853 0.530721
Si Si7 0.057144 0.582640 0.688633
Si Si8 0.356095 0.073765 0.555275
O O1 0.852244 0.750000 0.683182
O O2 0.103566 0.912040 0.864070
O O3 0.035813 0.910864 0.733093
O O4 0.824962 0.048962 0.666621
O O5 0.128753 0.250000 0.004489
O O6 0.893854 0.039825 0.875435
O O7 0.211231 0.009092 0.006660
O O8 0.206387 0.008246 0.096171
O O9 0.446741 0.250000 0.925103
O O10 0.229163 0.022386 0.780780
O O11 0.562370 0.029719 0.942060
O O12 0.500000 0.000000 0.000000
O O13 0.742468 0.250000 0.834471
O O14 0.528270 0.463689 0.687713
O O15 0.317369 0.750000 0.037933
O O16 0.576925 0.250000 0.502082
O O17 0.500000 0.000000 0.500000
O O18 0.605755 0.002298 0.472498
O O19 0.094341 0.750000 0.694023
O O20 0.855124 0.535904 0.553194
O O21 0.355781 0.250000 0.549092
#
# Coordination Sequence:
#
# PCOD9164511 Si02
#       8
#     4   4   4   4   4   4   4   4
#     4   9  18  34  50  69 102 141 178 215 260 311
#     4  10  21  35  55  85 111 134 176 226 267 316
#     4  11  21  34  53  77 107 146 184 220 266 318
#     4   9  19  38  60  80 105 141 176 214 271 328
#     4  10  21  36  53  75 107 145 179 218 270 320
#     4  11  22  33  46  70 103 140 179 218 261 310
#     4   9  17  33  53  76 106 138 175 219 262 309
#     4   9  19  36  56  76 103 139 178 217 263 322
#
# _framework density 16.933236000000001
#
# number of rings (size 3 to 8) (size 9 to 14) (size 15 to 20)
#    0.000    2.250    1.250    2.625    1.750    4.500 
#    0.000    0.000    0.000    0.750    0.000    0.000 
#    0.000    0.000    0.000    0.000    0.000    0.000 
#
# Total GULP energy -178234.296418 kJ/mol
# GULP energy per Si atom -5569.821763 kJ/mol
# Density = 1.689469 g / cm^3
# Si number density = 16.933236 Si / 1000 Ang^3
#
#
#
# Elastic Constant Matrix: (Units=GPa)
#
#
# Indices 1 2 3 4 5 6 
#
# 1 98.3640 38.1874 48.3084 0.0000 13.8212 0.0000
# 2 38.1874 40.5995 34.2556 0.0000 4.0611 0.0000
# 3 48.3084 34.2556 109.9449 0.0000 7.5837 0.0000
# 4 0.0000 0.0000 0.0000 26.3257 0.0000 2.5747
# 5 13.8212 4.0611 7.5837 0.0000 7.5070 0.0000
# 6 0.0000 0.0000 0.0000 2.5747 0.0000 26.3107
#
#
#
# Elastic Compliance Matrix: (Units=1/GPa)
#
#
# Indices 1 2 3 4 5 6 
#
# 1 0.021265 -0.014832 -0.002768 0.000000 -0.028331 0.000000
# 2 -0.014832 0.044228 -0.008058 0.000000 0.011521 0.000000
# 3 -0.002768 -0.008058 0.013082 0.000000 -0.003760 0.000000
# 4 0.000000 0.000000 0.000000 0.038353 0.000000 -0.003753
# 5 -0.028331 0.011521 -0.003760 0.000000 0.182934 0.000000
# 6 0.000000 0.000000 0.000000 -0.003753 0.000000 0.038375
#
#
# Mechanical properties :
#
#
# Convention : Reuss Voigt Hill
#
# Bulk Modulus (GPa) = 36.68572 54.49012 45.58792
# Shear Modulus (GPa) = 12.54273 20.57249 16.55761
#
# Velocity S-wave (km/s) = 2.72456 3.48935 3.13040
# Velocity P-wave (km/s) = 5.62224 6.96300 6.32823
#
# Compressibility (1/GPa) = 0.02725856
#
# Stress axis : x y z
#
# Youngs Moduli (GPa) = 47.02648 22.61023 76.44296
#
# Poissons Ratio (x) = 0.33535 0.21160
# Poissons Ratio (y) = 0.69749 0.61597
# Poissons Ratio (z) = 0.13017 0.18219
#
# Static dielectric constant tensor:
#      x y z
#    x 1.605550 0.000000 0.072770 
#    y 0.000000 1.587290 0.000000 
#    z 0.072770 0.000000 1.630230 
# 
# From -- ./inp_files/69116.got.cif
#   From: 2010.05.17/outbox.cif.g08.bks.cpg/sg11_35_cif.got.tgz:69116.got - 2010.06.03 12:22:45.
