data_PCOD9164413
_publ_section_title
;
Structure prediction by ZEFSAII (Michael W. Deem and Ramdas Pophale) SiO2 
 PCOD9164413
Probable space group: P 21/M
;
_chemical_formula_sum "Si O2"
_cell_formula_units_Z 20
_cell_length_a 5.199009
_cell_length_b 20.424557
_cell_length_c 9.842816
_cell_angle_alpha 90.000000
_cell_angle_beta 69.593007
_cell_angle_gamma 90.000000
_cell_volume 979.587279
_symmetry_space_group_name_H-M "P 21/M"
_symmetry_group_IT_number 11
_symmetry_cell_setting 'monoclinic'
loop_
_space_group_symop_operation_xyz
x,y,z
-x,1/2+y,-z
-x,-y,-z
x,1/2-y,z
loop_
_atom_site_type_symbol
_atom_site_label
_atom_site_fract_x
_atom_site_fract_y
_atom_site_fract_z
Si Si1 0.132070 0.101408 0.693175
Si Si2 0.780367 0.906848 0.021849
Si Si3 0.756679 0.173805 0.947619
Si Si4 0.858446 0.967540 0.737868
Si Si5 0.454255 0.930882 0.585523
O O1 0.367488 0.117022 0.542368
O O2 0.939913 0.160310 0.778125
O O3 0.261750 0.075029 0.812244
O O4 0.939373 0.041340 0.680116
O O5 0.800978 0.964614 0.909397
O O6 0.533849 0.860156 0.021653
O O7 0.062829 0.865537 0.975367
O O8 0.733597 0.250000 0.980850
O O9 0.606996 0.938894 0.700330
O O10 0.129802 0.924113 0.658943
O O11 0.500000 0.000000 0.500000
#
# Coordination Sequence:
#
# PCOD9164413 Si02
#       5
#     4   4   4   4   4
#     4   9  22  34  60  83 115 144 188 223 282 332
#     4  10  22  35  59  83 109 144 186 237 272 331
#     4  10  22  37  58  80 107 147 196 236 272 320
#     4  11  21  35  56  89 119 145 175 229 291 342
#     4  10  21  34  54  83 123 148 170 213 283 347
#
# _framework density 20.416764000000001
#
# number of rings (size 3 to 8) (size 9 to 14) (size 15 to 20)
#    1.200    0.800    0.000    4.800    8.400    0.800 
#    0.000    0.000    0.000    7.200    0.000    0.000 
#    0.000    0.000    0.000    0.000    0.000    0.000 
#
# Total GULP energy -111505.116402 kJ/mol
# GULP energy per Si atom -5575.255820 kJ/mol
# Density = 2.037029 g / cm^3
# Si number density = 20.416764 Si / 1000 Ang^3
#
#
#
# Elastic Constant Matrix: (Units=GPa)
#
#
# Indices 1 2 3 4 5 6 
#
# 1 127.1682 12.8733 10.2971 0.0000 8.6108 0.0000
# 2 12.8733 26.1070 -2.3750 0.0000 -5.3802 0.0000
# 3 10.2971 -2.3750 58.3587 0.0000 12.8152 0.0000
# 4 0.0000 0.0000 0.0000 9.9003 0.0000 -0.6184
# 5 8.6108 -5.3802 12.8152 0.0000 22.0078 0.0000
# 6 0.0000 0.0000 0.0000 -0.6184 0.0000 18.3228
#
#
#
# Elastic Compliance Matrix: (Units=1/GPa)
#
#
# Indices 1 2 3 4 5 6 
#
# 1 0.008750 -0.005261 -0.000830 0.000000 -0.004226 0.000000
# 2 -0.005261 0.043518 -0.000102 0.000000 0.012756 0.000000
# 3 -0.000830 -0.000102 0.019735 0.000000 -0.011192 0.000000
# 4 0.000000 0.000000 0.000000 0.101221 0.000000 0.003416
# 5 -0.004226 0.012756 -0.011192 0.000000 0.056728 0.000000
# 6 0.000000 0.000000 0.000000 0.003416 0.000000 0.054692
#
#
# Mechanical properties :
#
#
# Convention : Reuss Voigt Hill
#
# Bulk Modulus (GPa) = 16.77363 28.13605 22.45484
# Shear Modulus (GPa) = 15.77781 22.76874 19.27327
#
# Velocity S-wave (km/s) = 2.78292 3.34308 3.07578
# Velocity P-wave (km/s) = 4.30809 5.35839 4.86169
#
# Compressibility (1/GPa) = 0.05961737
#
# Stress axis : x y z
#
# Youngs Moduli (GPa) = 114.29203 22.97921 50.67036
#
# Poissons Ratio (x) = 0.12089 0.04205
# Poissons Ratio (y) = 0.60127 0.00516
# Poissons Ratio (z) = 0.09485 0.00234
#
# Static dielectric constant tensor:
#      x y z
#    x 1.769360 0.000000 -0.020680 
#    y 0.000000 1.703530 0.000000 
#    z -0.020680 0.000000 1.819970 
# 
# From -- ./inp_files/10380.got.cif
#   From: 2010.05.17/outbox.cif.g08.bks.cpg/sg11_6_cif.got.tgz:10380.got - 2010.06.03 12:22:45.
