data_PCOD9164469
_publ_section_title
;
Structure prediction by ZEFSAII (Michael W. Deem and Ramdas Pophale) SiO2 
 PCOD9164469
Probable space group: P 21/M
;
_chemical_formula_sum "Si O2"
_cell_formula_units_Z 28
_cell_length_a 20.384632
_cell_length_b 9.312601
_cell_length_c 23.070992
_cell_angle_alpha 90.000000
_cell_angle_beta 18.982388
_cell_angle_gamma 90.000000
_cell_volume 1424.604007
_symmetry_space_group_name_H-M "P 21/M"
_symmetry_group_IT_number 11
_symmetry_cell_setting 'monoclinic'
loop_
_space_group_symop_operation_xyz
x,y,z
-x,1/2+y,-z
-x,-y,-z
x,1/2-y,z
loop_
_atom_site_type_symbol
_atom_site_label
_atom_site_fract_x
_atom_site_fract_y
_atom_site_fract_z
Si Si1 0.528219 0.419786 0.124897
Si Si2 0.860840 0.911527 0.072782
Si Si3 0.559980 0.411527 0.506398
Si Si4 0.931119 0.419786 0.721996
Si Si5 0.245078 0.415698 0.559659
Si Si6 0.669134 0.084302 0.135605
Si Si7 0.107313 0.922598 0.464233
O O1 0.468953 0.250000 0.177252
O O2 0.630120 0.454801 0.101705
O O3 0.336072 0.519040 0.275736
O O4 0.698211 0.435541 0.933933
O O5 0.937302 0.750000 0.002150
O O6 0.641962 0.905774 0.286014
O O7 0.823320 0.988213 0.042890
O O8 0.000000 0.000000 0.000000
O O9 0.500000 0.500000 0.500000
O O10 0.618952 0.250000 0.441596
O O11 0.724694 0.488216 0.409097
O O12 0.969650 0.250000 0.676553
O O13 0.065352 0.454805 0.666472
O O14 0.999334 0.519038 0.612471
O O15 0.217793 0.250000 0.600209
O O16 0.451254 0.423614 0.349583
O O17 0.736217 0.250000 0.081788
O O18 0.098913 0.750000 0.467032
O O19 0.000000 0.000000 0.500000
#
# Coordination Sequence:
#
# PCOD9164469 Si02
#       7
#     4   4   4   4   4   4   4
#     4  10  21  40  67  97 128 163 207 255 308 372
#     4  10  21  35  52  77 111 151 198 249 302 358
#     4  10  21  35  52  77 111 151 198 249 302 358
#     4  10  21  40  67  97 128 163 207 255 308 372
#     4   9  17  33  57  83 116 156 198 245 302 366
#     4   9  17  33  57  83 116 156 198 245 302 366
#     4  12  26  44  68  94 130 170 208 256 310 370
#
# _framework density 19.654584
#
# number of rings (size 3 to 8) (size 9 to 14) (size 15 to 20)
#    0.000    2.000    1.429    2.143    0.000    5.143 
#    0.000    2.857    0.000    0.000    0.000    0.000 
#    0.000    0.000    0.000    0.000    0.000    0.000 
#
# Total GULP energy -156448.561959 kJ/mol
# GULP energy per Si atom -5587.448641 kJ/mol
# Density = 1.960985 g / cm^3
# Si number density = 19.654584 Si / 1000 Ang^3
#
#
#
# Elastic Constant Matrix: (Units=GPa)
#
#
# Indices 1 2 3 4 5 6 
#
# 1 141.9272 113.1870 49.1614 0.0000 -13.9312 0.0000
# 2 113.1870 158.1728 56.7494 0.0000 -11.4889 0.0000
# 3 49.1614 56.7494 75.1009 0.0000 0.3335 0.0000
# 4 0.0000 0.0000 0.0000 18.9748 0.0000 -4.2850
# 5 -13.9312 -11.4889 0.3335 0.0000 15.0644 0.0000
# 6 0.0000 0.0000 0.0000 -4.2850 0.0000 40.0187
#
#
#
# Elastic Compliance Matrix: (Units=1/GPa)
#
#
# Indices 1 2 3 4 5 6 
#
# 1 0.017656 -0.010815 -0.003422 0.000000 0.008156 0.000000
# 2 -0.010815 0.016045 -0.005056 0.000000 0.002348 0.000000
# 3 -0.003422 -0.005056 0.019409 0.000000 -0.007450 0.000000
# 4 0.000000 0.000000 0.000000 0.054007 0.000000 0.005783
# 5 0.008156 0.002348 -0.007450 0.000000 0.075880 0.000000
# 6 0.000000 0.000000 0.000000 0.005783 0.000000 0.025607
#
#
# Mechanical properties :
#
#
# Convention : Reuss Voigt Hill
#
# Bulk Modulus (GPa) = 68.84310 90.37737 79.61024
# Shear Modulus (GPa) = 19.83863 25.21845 22.52854
#
# Velocity S-wave (km/s) = 3.18050 3.58590 3.38926
# Velocity P-wave (km/s) = 6.97065 7.95158 7.47722
#
# Compressibility (1/GPa) = 0.01452578
#
# Stress axis : x y z
#
# Youngs Moduli (GPa) = 56.63640 62.32296 51.52208
#
# Poissons Ratio (x) = 0.67399 0.17632
# Poissons Ratio (y) = 0.61250 0.26049
# Poissons Ratio (z) = 0.19383 0.31509
#
# Static dielectric constant tensor:
#      x y z
#    x 1.657730 0.000000 0.013050 
#    y 0.000000 1.674560 0.000000 
#    z 0.013050 0.000000 1.721830 
# 
# From -- ./inp_files/69791.got.cif
#   From: 2010.05.17/outbox.cif.g08.bks.cpg/sg11_35_cif.got.tgz:69791.got - 2010.06.03 12:22:45.
