data_PCOD9164159
_publ_section_title
;
Structure prediction by ZEFSAII (Michael W. Deem and Ramdas Pophale) SiO2 
 PCOD9164159
Probable space group: P 21/M
;
_chemical_formula_sum "Si O2"
_cell_formula_units_Z 20
_cell_length_a 8.176839
_cell_length_b 7.850912
_cell_length_c 25.077287
_cell_angle_alpha 90.000000
_cell_angle_beta 144.358542
_cell_angle_gamma 90.000000
_cell_volume 938.079061
_symmetry_space_group_name_H-M "P 21/M"
_symmetry_group_IT_number 11
_symmetry_cell_setting 'monoclinic'
loop_
_space_group_symop_operation_xyz
x,y,z
-x,1/2+y,-z
-x,-y,-z
x,1/2-y,z
loop_
_atom_site_type_symbol
_atom_site_label
_atom_site_fract_x
_atom_site_fract_y
_atom_site_fract_z
Si Si1 0.294967 0.458636 0.785722
Si Si2 0.755398 0.544508 0.106067
Si Si3 0.671845 0.447214 0.793343
Si Si4 0.667252 0.046358 0.597389
Si Si5 0.695960 0.445087 0.398587
O O1 0.306155 0.250000 0.788238
O O2 0.299027 0.516259 0.848061
O O3 0.544160 0.522121 0.813749
O O4 0.992032 0.506303 0.681383
O O5 0.780067 0.750000 0.116519
O O6 0.047230 0.477241 0.158383
O O7 0.500000 0.500000 0.000000
O O8 0.738208 0.250000 0.822358
O O9 0.428386 0.453363 0.684236
O O10 0.658652 0.250000 0.602490
O O11 0.500000 0.000000 0.500000
O O12 0.517025 0.966259 0.608687
O O13 0.710854 0.250000 0.385598
O O14 0.000000 0.500000 0.500000
#
# Coordination Sequence:
#
# PCOD9164159 Si02
#       5
#     4   4   4   4   4
#     4   9  19  37  61  86 117 157 199 245 304 365
#     4  10  21  39  61  88 120 159 202 251 307 366
#     4  10  20  39  64  87 118 159 202 251 308 367
#     4  11  21  37  59  88 124 163 206 252 305 368
#     4  12  24  38  58  87 123 163 206 254 307 368
#
# _framework density 21.320163999999998
#
# number of rings (size 3 to 8) (size 9 to 14) (size 15 to 20)
#    0.000    1.600    2.000    3.600    0.000    3.200 
#    0.000    2.000    0.000    0.000    0.000    0.000 
#    0.000    0.000    0.000    0.000    0.000    0.000 
#
# Total GULP energy -111778.248270 kJ/mol
# GULP energy per Si atom -5588.912414 kJ/mol
# Density = 2.127164 g / cm^3
# Si number density = 21.320164 Si / 1000 Ang^3
#
#
#
# Elastic Constant Matrix: (Units=GPa)
#
#
# Indices 1 2 3 4 5 6 
#
# 1 205.3307 -2.0247 76.1609 0.0000 -1.2485 0.0000
# 2 -2.0247 33.8671 -12.3046 0.0000 4.3611 0.0000
# 3 76.1609 -12.3046 124.9688 0.0000 -6.6945 0.0000
# 4 0.0000 0.0000 0.0000 28.5987 0.0000 -3.3678
# 5 -1.2485 4.3611 -6.6945 0.0000 30.4569 0.0000
# 6 0.0000 0.0000 0.0000 -3.3678 0.0000 12.8328
#
#
#
# Elastic Compliance Matrix: (Units=1/GPa)
#
#
# Indices 1 2 3 4 5 6 
#
# 1 0.006336 -0.001009 -0.003986 0.000000 -0.000472 0.000000
# 2 -0.001009 0.031216 0.003488 0.000000 -0.003745 0.000000
# 3 -0.003986 0.003488 0.010867 0.000000 0.001726 0.000000
# 4 0.000000 0.000000 0.000000 0.036082 0.000000 0.009469
# 5 -0.000472 -0.003745 0.001726 0.000000 0.033729 0.000000
# 6 0.000000 0.000000 0.000000 0.009469 0.000000 0.080410
#
#
# Mechanical properties :
#
#
# Convention : Reuss Voigt Hill
#
# Bulk Modulus (GPa) = 22.02381 54.20330 38.11355
# Shear Modulus (GPa) = 23.06390 34.53336 28.79863
#
# Velocity S-wave (km/s) = 3.29262 4.02898 3.67927
# Velocity P-wave (km/s) = 4.98072 6.86456 5.99708
#
# Compressibility (1/GPa) = 0.04540541
#
# Stress axis : x y z
#
# Youngs Moduli (GPa) = 157.83292 32.03466 92.02168
#
# Poissons Ratio (x) = 0.03231 0.36679
# Poissons Ratio (y) = 0.15919 -0.32094
# Poissons Ratio (z) = 0.62910 -0.11173
#
# Static dielectric constant tensor:
#      x y z
#    x 1.777860 0.000000 0.009640 
#    y 0.000000 1.773240 0.000000 
#    z 0.009640 0.000000 1.727460 
# 
# From -- ./inp_files/25999.got.cif
#   From: 2010.05.17/outbox.cif.g08.bks.cpg/sg11_13_cif.got.tgz:25999.got - 2010.06.03 12:22:45.
