data_PCOD9164286
_publ_section_title
;
Structure prediction by ZEFSAII (Michael W. Deem and Ramdas Pophale) SiO2 
 PCOD9164286
Probable space group: P 21/M
;
_chemical_formula_sum "Si O2"
_cell_formula_units_Z 32
_cell_length_a 13.358414
_cell_length_b 25.067173
_cell_length_c 8.773312
_cell_angle_alpha 90.000000
_cell_angle_beta 149.480234
_cell_angle_gamma 90.000000
_cell_volume 1491.924877
_symmetry_space_group_name_H-M "P 21/M"
_symmetry_group_IT_number 11
_symmetry_cell_setting 'monoclinic'
loop_
_space_group_symop_operation_xyz
x,y,z
-x,1/2+y,-z
-x,-y,-z
x,1/2-y,z
loop_
_atom_site_type_symbol
_atom_site_label
_atom_site_fract_x
_atom_site_fract_y
_atom_site_fract_z
Si Si1 0.326686 0.351759 0.822470
Si Si2 0.839828 0.542967 0.233311
Si Si3 0.052312 0.129838 0.860055
Si Si4 0.218010 0.870160 0.050296
Si Si5 0.515735 0.470996 0.680188
Si Si6 0.219443 0.107585 0.386946
Si Si7 0.672808 0.314703 0.501843
Si Si8 0.032148 0.806955 0.546160
O O1 0.221042 0.406996 0.740341
O O2 0.368024 0.364193 0.700382
O O3 0.159880 0.306671 0.599471
O O4 0.489139 0.333332 0.156429
O O5 0.920618 0.572172 0.185269
O O6 0.000000 0.500000 0.500000
O O7 0.639589 0.510285 0.948063
O O8 0.059842 0.170467 0.729511
O O9 0.845729 0.147934 0.660261
O O10 0.204831 0.133114 0.199202
O O11 0.352743 0.919917 0.187958
O O12 0.320937 0.832199 0.311936
O O13 0.003471 0.888729 0.837639
O O14 0.178187 0.842423 0.835664
O O15 0.500000 0.500000 0.500000
O O16 0.309262 0.451127 0.478227
O O17 0.699950 0.250000 0.525420
O O18 0.122210 0.750000 0.634119
#
# Coordination Sequence:
#
# PCOD9164286 Si02
#       8
#     4   4   4   4   4   4   4   4
#     4  10  23  41  62  96 129 166 220 272 316 396
#     4  11  23  42  64  95 131 175 215 267 331 394
#     4  10  22  41  62  93 129 167 218 270 315 400
#     4  10  24  43  65  95 131 167 218 272 323 401
#     4  12  23  41  67  94 132 174 212 266 330 384
#     4  10  23  43  61  92 131 170 213 263 318 381
#     4  11  23  42  66  94 128 169 214 277 336 382
#     4  10  20  40  67  89 121 169 215 271 338 385
#
# _framework density 21.448801
#
# number of rings (size 3 to 8) (size 9 to 14) (size 15 to 20)
#    0.000    1.500    1.250    4.125    5.250    1.000 
#    6.750    1.875    0.000    1.500    0.000    0.000 
#    0.000    0.000    0.000    0.000    0.000    0.000 
#
# Total GULP energy -178231.151121 kJ/mol
# GULP energy per Si atom -5569.723473 kJ/mol
# Density = 2.139998 g / cm^3
# Si number density = 21.448801 Si / 1000 Ang^3
#
#
#
# Elastic Constant Matrix: (Units=GPa)
#
#
# Indices 1 2 3 4 5 6 
#
# 1 57.4248 27.2527 28.3269 0.0000 -13.9888 0.0000
# 2 27.2527 116.9602 59.9756 0.0000 -11.6399 0.0000
# 3 28.3269 59.9756 134.5361 0.0000 -21.4389 0.0000
# 4 0.0000 0.0000 0.0000 28.6870 0.0000 -9.4977
# 5 -13.9888 -11.6399 -21.4389 0.0000 36.4662 0.0000
# 6 0.0000 0.0000 0.0000 -9.4977 0.0000 0.1777
#
#
#
# Elastic Compliance Matrix: (Units=1/GPa)
#
#
# Indices 1 2 3 4 5 6 
#
# 1 0.021478 -0.003344 -0.002084 0.000000 0.005946 0.000000
# 2 -0.003344 0.011620 -0.004512 0.000000 -0.000226 0.000000
# 3 -0.002084 -0.004512 0.010511 0.000000 0.003940 0.000000
# 4 0.000000 0.000000 0.000000 -0.002088 0.000000 -0.111595
# 5 0.005946 -0.000226 0.003940 0.000000 0.031948 0.000000
# 6 0.000000 0.000000 0.000000 -0.111595 0.000000 -0.337064
#
#
# Mechanical properties :
#
#
# Convention : Reuss Voigt Hill
#
# Bulk Modulus (GPa) = 42.14300 60.00351 51.07326
# Shear Modulus (GPa) = -21.20400 25.95723 2.37661
#
# Velocity S-wave (km/s) = -3.14759 3.48256 1.05378
# Velocity P-wave (km/s) = 2.54579 6.64883 5.03428
#
# Compressibility (1/GPa) = 0.02372873
#
# Stress axis : x y z
#
# Youngs Moduli (GPa) = 46.56012 86.05519 95.13741
#
# Poissons Ratio (x) = 0.28778 0.19824
# Poissons Ratio (y) = 0.15570 0.42929
# Poissons Ratio (z) = 0.09702 0.38831
#
# Static dielectric constant tensor:
#      x y z
#    x 1.928730 0.000000 0.014250 
#    y 0.000000 2.027810 0.000000 
#    z 0.014250 0.000000 1.821860 
# 
# From -- ./inp_files/23388.got.cif
#   From: 2010.05.17/outbox.cif.g08.bks.cpg/sg11_12_cif.got.tgz:23388.got - 2010.06.03 12:22:45.
