data_PCOD9164075
_publ_section_title
;
Structure prediction by ZEFSAII (Michael W. Deem and Ramdas Pophale) SiO2 
 PCOD9164075
Probable space group: P 21/M
;
_chemical_formula_sum "Si O2"
_cell_formula_units_Z 24
_cell_length_a 9.423524
_cell_length_b 20.064859
_cell_length_c 9.423524
_cell_angle_alpha 90.000000
_cell_angle_beta 132.270590
_cell_angle_gamma 90.000000
_cell_volume 1318.501705
_symmetry_space_group_name_H-M "P 21/M"
_symmetry_group_IT_number 11
_symmetry_cell_setting 'monoclinic'
loop_
_space_group_symop_operation_xyz
x,y,z
-x,1/2+y,-z
-x,-y,-z
x,1/2-y,z
loop_
_atom_site_type_symbol
_atom_site_label
_atom_site_fract_x
_atom_site_fract_y
_atom_site_fract_z
Si Si1 0.015408 0.828857 0.893728
Si Si2 0.436145 0.670780 0.063856
Si Si3 0.393728 0.171143 0.515407
Si Si4 0.561716 0.559474 0.938284
Si Si5 0.393922 0.940799 0.513364
Si Si6 0.986636 0.940799 0.106078
O O1 0.021094 0.750000 0.930753
O O2 0.828062 0.841689 0.671938
O O3 0.213743 0.845468 0.947984
O O4 0.998117 0.872895 0.022756
O O5 0.451354 0.750000 0.048646
O O6 0.552016 0.654532 0.286257
O O7 0.513375 0.627762 0.986625
O O8 0.430753 0.250000 0.521094
O O9 0.522756 0.127105 0.498117
O O10 0.448724 0.555063 0.714181
O O11 0.500000 0.500000 0.000000
O O12 0.785820 0.555063 0.051276
O O13 0.168962 0.945325 0.331038
O O14 0.500000 0.000000 0.500000
O O15 0.000000 0.000000 0.000000
#
# Coordination Sequence:
#
# PCOD9164075 Si02
#       6
#     4   4   4   4   4   4
#     4  10  20  38  66  93 120 160 206 248 297 362
#     4  10  22  40  62  92 130 161 193 249 313 364
#     4  10  20  38  66  93 120 160 206 248 297 362
#     4  12  26  40  60  92 128 161 196 257 316 360
#     4  12  23  40  65  90 119 160 211 255 297 360
#     4  12  23  40  65  90 119 160 211 255 297 360
#
# _framework density 18.202480000000001
#
# number of rings (size 3 to 8) (size 9 to 14) (size 15 to 20)
#    0.000    1.000    5.000    2.000    0.000    3.333 
#    0.000    0.000    0.000    0.000    0.000    0.000 
#    0.000    0.000    0.000    0.000    0.000    0.000 
#
# Total GULP energy -134178.004064 kJ/mol
# GULP energy per Si atom -5590.750169 kJ/mol
# Density = 1.816105 g / cm^3
# Si number density = 18.202480 Si / 1000 Ang^3
#
#
#
# Elastic Constant Matrix: (Units=GPa)
#
#
# Indices 1 2 3 4 5 6 
#
# 1 166.1770 67.3980 95.3341 0.0000 10.4038 0.0000
# 2 67.3980 60.1246 58.7645 0.0000 -5.1445 0.0000
# 3 95.3341 58.7645 197.2075 0.0000 8.0866 0.0000
# 4 0.0000 0.0000 0.0000 28.0614 0.0000 -8.1723
# 5 10.4038 -5.1445 8.0866 0.0000 42.7705 0.0000
# 6 0.0000 0.0000 0.0000 -8.1723 0.0000 41.7762
#
#
#
# Elastic Compliance Matrix: (Units=1/GPa)
#
#
# Indices 1 2 3 4 5 6 
#
# 1 0.012493 -0.012153 -0.002251 0.000000 -0.004075 0.000000
# 2 -0.012153 0.036054 -0.005208 0.000000 0.008278 0.000000
# 3 -0.002251 -0.005208 0.007774 0.000000 -0.001549 0.000000
# 4 0.000000 0.000000 0.000000 0.037789 0.000000 0.007392
# 5 -0.004075 0.008278 -0.001549 0.000000 0.025660 0.000000
# 6 0.000000 0.000000 0.000000 0.007392 0.000000 0.025383
#
#
# Mechanical properties :
#
#
# Convention : Reuss Voigt Hill
#
# Bulk Modulus (GPa) = 58.48812 96.27803 77.38308
# Shear Modulus (GPa) = 26.30514 35.98911 31.14712
#
# Velocity S-wave (km/s) = 3.80562 4.45134 4.14109
# Velocity P-wave (km/s) = 7.17719 8.91218 8.09132
#
# Compressibility (1/GPa) = 0.01709749
#
# Stress axis : x y z
#
# Youngs Moduli (GPa) = 80.04294 27.73632 128.62980
#
# Poissons Ratio (x) = 0.33709 0.28954
# Poissons Ratio (y) = 0.97279 0.66986
# Poissons Ratio (z) = 0.18017 0.14444
#
# Static dielectric constant tensor:
#      x y z
#    x 1.580030 0.000000 0.021410 
#    y 0.000000 1.637070 0.000000 
#    z 0.021410 0.000000 1.615960 
# 
# From -- ./inp_files/14235.got.cif
#   From: 2010.05.17/outbox.cif.g08.bks.cpg/sg11_8_cif.got.tgz:14235.got - 2010.06.03 12:22:45.
