data_PCOD9164460
_publ_section_title
;
Structure prediction by ZEFSAII (Michael W. Deem and Ramdas Pophale) SiO2 
 PCOD9164460
Probable space group: P 21/M
;
_chemical_formula_sum "Si O2"
_cell_formula_units_Z 28
_cell_length_a 22.519793
_cell_length_b 9.216232
_cell_length_c 24.724024
_cell_angle_alpha 90.000000
_cell_angle_beta 17.066536
_cell_angle_gamma 90.000000
_cell_volume 1505.977471
_symmetry_space_group_name_H-M "P 21/M"
_symmetry_group_IT_number 11
_symmetry_cell_setting 'monoclinic'
loop_
_space_group_symop_operation_xyz
x,y,z
-x,1/2+y,-z
-x,-y,-z
x,1/2-y,z
loop_
_atom_site_type_symbol
_atom_site_label
_atom_site_fract_x
_atom_site_fract_y
_atom_site_fract_z
Si Si1 0.878730 0.577286 0.029954
Si Si2 0.293644 0.076080 0.700346
Si Si3 0.797649 0.078635 0.881888
Si Si4 0.056915 0.913123 0.504115
Si Si5 0.378182 0.412924 0.060898
Si Si6 0.228568 0.421674 0.451381
Si Si7 0.662082 0.076281 0.119510
O O1 0.911706 0.750000 0.995938
O O2 0.751445 0.553782 0.196296
O O3 0.756263 0.512203 0.086456
O O4 0.094705 0.495642 0.846380
O O5 0.301664 0.250000 0.683394
O O6 0.500000 0.000000 0.500000
O O7 0.755450 0.250000 0.912182
O O8 0.025625 0.052218 0.662722
O O9 0.644840 0.992842 0.976147
O O10 0.772546 0.043189 0.966539
O O11 0.121613 0.750000 0.434766
O O12 0.848978 0.905500 0.718568
O O13 0.209347 0.993613 0.411748
O O14 0.000000 0.000000 0.500000
O O15 0.456966 0.250000 0.987003
O O16 0.500000 0.500000 0.000000
O O17 0.238052 0.250000 0.430758
O O18 0.427452 0.458892 0.312099
O O19 0.678871 0.250000 0.115073
#
# Coordination Sequence:
#
# PCOD9164460 Si02
#       7
#     4   4   4   4   4   4   4
#     4  10  22  39  59  90 126 159 201 245 287 344
#     4  10  21  39  64  92 125 163 201 244 292 340
#     4   9  19  36  54  75 106 142 183 232 284 339
#     4  10  21  35  52  75 102 133 174 225 283 343
#     4  10  21  35  52  75 102 134 175 226 284 344
#     4   9  19  36  54  74 105 142 182 231 283 336
#     4  10  21  36  57  83 113 152 194 235 285 345
#
# _framework density 18.592576999999999
#
# number of rings (size 3 to 8) (size 9 to 14) (size 15 to 20)
#    0.000    2.286    0.000    1.714    2.000    5.714 
#    0.000    1.429    0.000    0.000    0.000    0.000 
#    0.000    0.000    0.000    0.000    0.000    0.000 
#
# Total GULP energy -156286.018085 kJ/mol
# GULP energy per Si atom -5581.643503 kJ/mol
# Density = 1.855026 g / cm^3
# Si number density = 18.592577 Si / 1000 Ang^3
#
#
#
# Elastic Constant Matrix: (Units=GPa)
#
#
# Indices 1 2 3 4 5 6 
#
# 1 169.6957 104.1381 67.9251 0.0000 -25.6123 0.0000
# 2 104.1381 121.5159 74.5663 0.0000 -13.5191 0.0000
# 3 67.9251 74.5663 124.8242 0.0000 -7.6984 0.0000
# 4 0.0000 0.0000 0.0000 22.6299 0.0000 -5.0473
# 5 -25.6123 -13.5191 -7.6984 0.0000 24.6674 0.0000
# 6 0.0000 0.0000 0.0000 -5.0473 0.0000 39.7929
#
#
#
# Elastic Compliance Matrix: (Units=1/GPa)
#
#
# Indices 1 2 3 4 5 6 
#
# 1 0.013944 -0.010534 -0.000773 0.000000 0.008464 0.000000
# 2 -0.010534 0.021529 -0.007214 0.000000 -0.001390 0.000000
# 3 -0.000773 -0.007214 0.012693 0.000000 -0.000796 0.000000
# 4 0.000000 0.000000 0.000000 0.045476 0.000000 0.005768
# 5 0.008464 -0.001390 -0.000796 0.000000 0.048318 0.000000
# 6 0.000000 0.000000 0.000000 0.005768 0.000000 0.025862
#
#
# Mechanical properties :
#
#
# Convention : Reuss Voigt Hill
#
# Bulk Modulus (GPa) = 89.90523 101.03275 95.46899
# Shear Modulus (GPa) = 23.97243 28.71178 26.34211
#
# Velocity S-wave (km/s) = 3.59465 3.93397 3.76813
# Velocity P-wave (km/s) = 8.10488 8.66563 8.38994
#
# Compressibility (1/GPa) = 0.01112282
#
# Stress axis : x y z
#
# Youngs Moduli (GPa) = 71.71341 46.44823 78.78525
#
# Poissons Ratio (x) = 0.48929 0.06093
# Poissons Ratio (y) = 0.75543 0.56839
# Poissons Ratio (z) = 0.05546 0.33510
#
# Static dielectric constant tensor:
#      x y z
#    x 1.604640 0.000000 0.015110 
#    y 0.000000 1.643580 0.000000 
#    z 0.015110 0.000000 1.662310 
# 
# From -- ./inp_files/69789.got.cif
#   From: 2010.05.17/outbox.cif.g08.bks.cpg/sg11_35_cif.got.tgz:69789.got - 2010.06.03 12:22:45.
