data_PCOD9164451
_publ_section_title
;
Structure prediction by ZEFSAII (Michael W. Deem and Ramdas Pophale) SiO2 
 PCOD9164451
Probable space group: P 21/M
;
_chemical_formula_sum "Si O2"
_cell_formula_units_Z 32
_cell_length_a 29.160629
_cell_length_b 7.357497
_cell_length_c 12.172258
_cell_angle_alpha 90.000000
_cell_angle_beta 29.048752
_cell_angle_gamma 90.000000
_cell_volume 1268.046991
_symmetry_space_group_name_H-M "P 21/M"
_symmetry_group_IT_number 11
_symmetry_cell_setting 'monoclinic'
loop_
_space_group_symop_operation_xyz
x,y,z
-x,1/2+y,-z
-x,-y,-z
x,1/2-y,z
loop_
_atom_site_type_symbol
_atom_site_label
_atom_site_fract_x
_atom_site_fract_y
_atom_site_fract_z
Si Si1 0.530827 0.042633 0.212170
Si Si2 0.049487 0.529833 0.161956
Si Si3 0.333010 0.028207 0.528974
Si Si4 0.689090 0.026439 0.025381
Si Si5 0.804427 0.044230 0.989259
Si Si6 0.891252 0.466550 0.192252
Si Si7 0.394892 0.464611 0.171152
Si Si8 0.164206 0.535635 0.462975
O O1 0.508117 0.250000 0.287306
O O2 0.433149 0.964384 0.371550
O O3 0.586356 0.963470 0.199553
O O4 0.601515 0.043961 0.958409
O O5 0.055517 0.750000 0.150087
O O6 0.940708 0.485507 0.367647
O O7 0.096584 0.463011 0.176356
O O8 0.108581 0.460731 0.931812
O O9 0.331566 0.250000 0.531409
O O10 0.328701 0.969939 0.410007
O O11 0.255348 0.955075 0.773544
O O12 0.684288 0.250000 0.037483
O O13 0.761430 0.965400 0.779589
O O14 0.735601 0.963963 0.041515
O O15 0.824346 0.250000 0.909714
O O16 0.876584 0.250000 0.217530
O O17 0.833455 0.540210 0.417677
O O18 0.000000 0.500000 0.000000
O O19 0.382495 0.250000 0.185142
O O20 0.500000 0.500000 0.000000
O O21 0.181278 0.750000 0.437336
#
# Coordination Sequence:
#
# PCOD9164451 Si02
#       8
#     4   4   4   4   4   4   4   4
#     4   9  18  34  55  76 103 137 168 206 256 304
#     4   9  18  32  49  72 101 127 159 207 255 299
#     4   9  19  34  51  74 103 132 163 206 256 299
#     4   9  19  35  52  73 101 133 174 216 250 295
#     4  10  21  35  51  72  99 135 177 214 249 297
#     4   8  14  26  45  69  94 120 153 194 242 295
#     4   9  17  31  52  79 108 133 163 205 254 308
#     4   9  17  31  52  73  95 128 166 203 251 308
#
# _framework density 25.235658000000001
#
# number of rings (size 3 to 8) (size 9 to 14) (size 15 to 20)
#    0.000    3.000    0.000    1.125    0.000    5.000 
#    0.000    4.375    0.000    6.000    0.000    0.000 
#    0.000    0.000    0.000    0.000    0.000    0.000 
#
# Total GULP energy -178657.142568 kJ/mol
# GULP energy per Si atom -5583.035705 kJ/mol
# Density = 2.517822 g / cm^3
# Si number density = 25.235658 Si / 1000 Ang^3
#
#
#
# Elastic Constant Matrix: (Units=GPa)
#
#
# Indices 1 2 3 4 5 6 
#
# 1 181.9573 -4.0805 -0.0404 0.0000 -22.2431 0.0000
# 2 -4.0805 110.1250 -9.8742 0.0000 -3.1347 0.0000
# 3 -0.0404 -9.8742 35.6202 0.0000 -8.9640 0.0000
# 4 0.0000 0.0000 0.0000 7.8487 0.0000 -3.8256
# 5 -22.2431 -3.1347 -8.9640 0.0000 17.8382 0.0000
# 6 0.0000 0.0000 0.0000 -3.8256 0.0000 5.1956
#
#
#
# Elastic Compliance Matrix: (Units=1/GPa)
#
#
# Indices 1 2 3 4 5 6 
#
# 1 0.006721 0.000773 0.002708 0.000000 0.009877 0.000000
# 2 0.000773 0.009580 0.003804 0.000000 0.004559 0.000000
# 3 0.002708 0.003804 0.034514 0.000000 0.021389 0.000000
# 4 0.000000 0.000000 0.000000 0.198733 0.000000 0.146329
# 5 0.009877 0.004559 0.021389 0.000000 0.079925 0.000000
# 6 0.000000 0.000000 0.000000 0.146329 0.000000 0.300213
#
#
# Mechanical properties :
#
#
# Convention : Reuss Voigt Hill
#
# Bulk Modulus (GPa) = 15.29425 33.30137 24.29781
# Shear Modulus (GPa) = 7.85037 28.95633 18.40335
#
# Velocity S-wave (km/s) = 1.76567 3.39106 2.70341
# Velocity P-wave (km/s) = 3.19851 5.34389 4.40384
#
# Compressibility (1/GPa) = 0.06538406
#
# Stress axis : x y z
#
# Youngs Moduli (GPa) = 148.78365 104.38343 28.97370
#
# Poissons Ratio (x) = -0.08069 -0.07845
# Poissons Ratio (y) = -0.11501 -0.11021
# Poissons Ratio (z) = -0.40284 -0.39706
#
# Static dielectric constant tensor:
#      x y z
#    x 2.028090 0.000000 -0.008860 
#    y 0.000000 1.950300 0.000000 
#    z -0.008860 0.000000 1.975610 
# 
# From -- ./inp_files/45195.got.cif
#   From: 2010.05.17/outbox.cif.g08.bks.cpg/sg11_23_cif.got.tgz:45195.got - 2010.06.03 12:22:45.
