data_PCOD9164880
_publ_section_title
;
Structure prediction by ZEFSAII (Michael W. Deem and Ramdas Pophale) SiO2 
 PCOD9164880
Probable space group: P 21/M
;
_chemical_formula_sum "Si O2"
_cell_formula_units_Z 32
_cell_length_a 12.752535
_cell_length_b 14.101028
_cell_length_c 12.083384
_cell_angle_alpha 90.000000
_cell_angle_beta 142.689397
_cell_angle_gamma 90.000000
_cell_volume 1317.060324
_symmetry_space_group_name_H-M "P 21/M"
_symmetry_group_IT_number 11
_symmetry_cell_setting 'monoclinic'
loop_
_space_group_symop_operation_xyz
x,y,z
-x,1/2+y,-z
-x,-y,-z
x,1/2-y,z
loop_
_atom_site_type_symbol
_atom_site_label
_atom_site_fract_x
_atom_site_fract_y
_atom_site_fract_z
Si Si1 0.849741 0.858949 0.282201
Si Si2 0.786523 0.143950 0.371426
Si Si3 0.789518 0.503591 0.036720
Si Si4 0.393593 0.140344 0.551868
Si Si5 0.355684 0.363570 0.274010
Si Si6 0.591229 0.955328 0.214573
Si Si7 0.817385 0.140836 0.889146
Si Si8 0.250431 0.861287 0.399516
O O1 0.848873 0.750000 0.240864
O O2 0.673517 0.881546 0.198704
O O3 0.016330 0.869123 0.502677
O O4 0.868143 0.936527 0.201715
O O5 0.724280 0.250000 0.290589
O O6 0.807419 0.139982 0.522758
O O7 0.660540 0.058653 0.238161
O O8 0.740663 0.579346 0.900636
O O9 0.613476 0.459584 0.941069
O O10 0.882490 0.420655 0.046691
O O11 0.356744 0.250000 0.548348
O O12 0.309655 0.118685 0.362891
O O13 0.337741 0.074133 0.604948
O O14 0.604855 0.135366 0.716526
O O15 0.346948 0.250000 0.246972
O O16 0.554245 0.398411 0.433259
O O17 0.872901 0.250000 0.947602
O O18 0.854934 0.102948 0.795884
O O19 0.269357 0.750000 0.385281
#
# Coordination Sequence:
#
# PCOD9164880 Si02
#       8
#     4   4   4   4   4   4   4   4
#     4  11  25  42  54  75 112 150 179 220 275 326
#     4  10  21  37  58  81 107 142 186 224 265 314
#     4  11  21  33  57  84 111 140 179 217 277 325
#     4   8  16  29  51  84 113 139 174 226 279 315
#     4   9  16  28  50  84 116 137 170 222 273 320
#     4  11  21  36  61  81 105 137 193 229 264 309
#     4   8  16  29  49  79 114 142 174 219 272 324
#     4   8  14  28  51  79 107 138 176 219 260 310
#
# _framework density 24.296534000000001
#
# number of rings (size 3 to 8) (size 9 to 14) (size 15 to 20)
#    0.000    2.500    1.250    3.000    1.750    2.500 
#    0.000    1.250    0.000    1.500    0.000    0.000 
#    0.000    0.000    0.000    0.000    0.000    0.000 
#
# Total GULP energy -178772.608087 kJ/mol
# GULP energy per Si atom -5586.644003 kJ/mol
# Density = 2.424123 g / cm^3
# Si number density = 24.296534 Si / 1000 Ang^3
#
#
#
# Elastic Constant Matrix: (Units=GPa)
#
#
# Indices 1 2 3 4 5 6 
#
# 1 21.7963 21.7301 35.0346 0.0000 -0.0076 0.0000
# 2 21.7301 74.6361 -3.9931 0.0000 -6.4572 0.0000
# 3 35.0346 -3.9931 0.1118 0.0000 -7.1593 0.0000
# 4 0.0000 0.0000 0.0000 22.6777 0.0000 -11.0883
# 5 -0.0076 -6.4572 -7.1593 0.0000 33.1003 0.0000
# 6 0.0000 0.0000 0.0000 -11.0883 0.0000 33.0053
#
#
#
# Elastic Compliance Matrix: (Units=1/GPa)
#
#
# Indices 1 2 3 4 5 6 
#
# 1 0.001338 0.001568 0.026740 0.000000 0.006090 0.000000
# 2 0.001568 0.012522 -0.008742 0.000000 0.000552 0.000000
# 3 0.026740 -0.008742 -0.011214 0.000000 -0.004125 0.000000
# 4 0.000000 0.000000 0.000000 0.052763 0.000000 0.017726
# 5 0.006090 0.000552 -0.004125 0.000000 0.029428 0.000000
# 6 0.000000 0.000000 0.000000 0.017726 0.000000 0.036253
#
#
# Mechanical properties :
#
#
# Convention : Reuss Voigt Hill
#
# Bulk Modulus (GPa) = 23.93689 22.45416 23.19552
# Shear Modulus (GPa) = 52.14607 20.67483 36.41045
#
# Velocity S-wave (km/s) = 4.63777 2.92025 3.87536
# Velocity P-wave (km/s) = 6.20902 4.54227 5.43986
#
# Compressibility (1/GPa) = 0.04177652
#
# Stress axis : x y z
#
# Youngs Moduli (GPa) = 747.48848 79.85999 -89.17071
#
# Poissons Ratio (x) = -0.12522 2.38440
# Poissons Ratio (y) = -1.17202 -0.77954
# Poissons Ratio (z) = -19.98764 0.69814
#
# Static dielectric constant tensor:
#      x y z
#    x 1.975120 0.000000 -0.009380 
#    y 0.000000 1.942230 0.000000 
#    z -0.009380 0.000000 1.936760 
# 
# From -- ./inp_files/39682.got.cif
#   From: 2010.05.17/outbox.cif.g08.bks.cpg/sg11_20_cif.got.tgz:39682.got - 2010.06.03 12:22:45.
