data_PCOD9164725
_publ_section_title
;
Structure prediction by ZEFSAII (Michael W. Deem and Ramdas Pophale) SiO2 
 PCOD9164725
Probable space group: P 21/M
;
_chemical_formula_sum "Si O2"
_cell_formula_units_Z 20
_cell_length_a 7.774580
_cell_length_b 20.943120
_cell_length_c 5.482439
_cell_angle_alpha 90.000000
_cell_angle_beta 120.710830
_cell_angle_gamma 90.000000
_cell_volume 767.480266
_symmetry_space_group_name_H-M "P 21/M"
_symmetry_group_IT_number 11
_symmetry_cell_setting 'monoclinic'
loop_
_space_group_symop_operation_xyz
x,y,z
-x,1/2+y,-z
-x,-y,-z
x,1/2-y,z
loop_
_atom_site_type_symbol
_atom_site_label
_atom_site_fract_x
_atom_site_fract_y
_atom_site_fract_z
Si Si1 0.179654 0.001551 0.937766
Si Si2 0.875793 0.145780 0.100607
Si Si3 0.565643 0.821603 0.230328
Si Si4 0.529927 0.895353 0.695061
Si Si5 0.049309 0.883930 0.359614
O O1 0.087805 0.054033 0.687756
O O2 0.202270 0.927357 0.901052
O O3 0.377175 0.034900 0.185935
O O4 0.000000 0.000000 0.000000
O O5 0.978496 0.162030 0.430732
O O6 0.675793 0.184377 0.921010
O O7 0.000558 0.143998 0.943143
O O8 0.647481 0.750000 0.305153
O O9 0.610444 0.866210 0.498334
O O10 0.586396 0.853111 0.975817
O O11 0.287813 0.897677 0.499126
#
# Coordination Sequence:
#
# PCOD9164725 Si02
#       5
#     4   4   4   4   4
#     4  10  21  36  59  89 123 150 183 238 296 352
#     4   9  19  33  55  84 112 149 187 227 287 340
#     4  10  21  39  61  83 113 155 200 241 280 334
#     4  10  22  37  61  88 113 152 194 234 293 347
#     4   9  19  34  53  83 117 148 182 225 281 341
#
# _framework density 26.0593
#
# number of rings (size 3 to 8) (size 9 to 14) (size 15 to 20)
#    0.000    2.400    0.000    1.200    0.000   16.800 
#    0.000    0.000    0.000   45.600    0.000    0.000 
#    0.000    0.000    0.000    0.000    0.000    0.000 
#
# Total GULP energy -111690.320179 kJ/mol
# GULP energy per Si atom -5584.516009 kJ/mol
# Density = 2.599999 g / cm^3
# Si number density = 26.059300 Si / 1000 Ang^3
#
#
#
# Elastic Constant Matrix: (Units=GPa)
#
#
# Indices 1 2 3 4 5 6 
#
# 1 105.4089 30.3096 39.5775 0.0000 -3.4981 0.0000
# 2 30.3096 104.9961 28.1354 0.0000 11.6528 0.0000
# 3 39.5775 28.1354 173.7672 0.0000 -24.5984 0.0000
# 4 0.0000 0.0000 0.0000 10.7386 0.0000 14.8158
# 5 -3.4981 11.6528 -24.5984 0.0000 52.0023 0.0000
# 6 0.0000 0.0000 0.0000 14.8158 0.0000 27.5074
#
#
#
# Elastic Compliance Matrix: (Units=1/GPa)
#
#
# Indices 1 2 3 4 5 6 
#
# 1 0.011031 -0.002685 -0.002023 0.000000 0.000387 0.000000
# 2 -0.002685 0.011136 -0.001683 0.000000 -0.003472 0.000000
# 3 -0.002023 -0.001683 0.006990 0.000000 0.003548 0.000000
# 4 0.000000 0.000000 0.000000 0.362503 0.000000 -0.195248
# 5 0.000387 -0.003472 0.003548 0.000000 0.021712 0.000000
# 6 0.000000 0.000000 0.000000 -0.195248 0.000000 0.141517
#
#
# Mechanical properties :
#
#
# Convention : Reuss Voigt Hill
#
# Bulk Modulus (GPa) = 61.06902 64.46858 62.76880
# Shear Modulus (GPa) = 8.72403 37.12631 22.92517
#
# Velocity S-wave (km/s) = 1.83167 3.77860 2.96924
# Velocity P-wave (km/s) = 5.28762 6.62042 5.99119
#
# Compressibility (1/GPa) = 0.01637491
#
# Stress axis : x y z
#
# Youngs Moduli (GPa) = 90.65026 89.80182 143.05611
#
# Poissons Ratio (x) = 0.24115 0.28940
# Poissons Ratio (y) = 0.24343 0.24075
# Poissons Ratio (z) = 0.18338 0.15113
#
# Static dielectric constant tensor:
#      x y z
#    x 2.028710 0.000000 0.030290 
#    y 0.000000 2.081700 0.000000 
#    z 0.030290 0.000000 2.224830 
# 
# From -- ./inp_files/2464.got.cif
#   From: 2010.05.17/outbox.cif.g08.bks.cpg/sg11_2_cif.got.tgz:2464.got - 2010.06.03 12:22:45.
