data_PCOD9164947
_publ_section_title
;
Structure prediction by ZEFSAII (Michael W. Deem and Ramdas Pophale) SiO2 
 PCOD9164947
Probable space group: P 21/M
;
_chemical_formula_sum "Si O2"
_cell_formula_units_Z 32
_cell_length_a 31.706016
_cell_length_b 8.875592
_cell_length_c 11.453461
_cell_angle_alpha 90.000000
_cell_angle_beta 32.459348
_cell_angle_gamma 90.000000
_cell_volume 1729.849072
_symmetry_space_group_name_H-M "P 21/M"
_symmetry_group_IT_number 11
_symmetry_cell_setting 'monoclinic'
loop_
_space_group_symop_operation_xyz
x,y,z
-x,1/2+y,-z
-x,-y,-z
x,1/2-y,z
loop_
_atom_site_type_symbol
_atom_site_label
_atom_site_fract_x
_atom_site_fract_y
_atom_site_fract_z
Si Si1 0.331464 0.568908 0.128632
Si Si2 0.369960 0.070969 0.534141
Si Si3 0.199782 0.429031 0.043874
Si Si4 0.300754 0.569704 0.468975
Si Si5 0.512253 0.929456 0.343803
Si Si6 0.867123 0.430253 0.028280
Si Si7 0.172442 0.569895 0.359460
Si Si8 0.017019 0.430901 0.833861
O O1 0.343482 0.750000 0.093430
O O2 0.320349 0.529070 0.290599
O O3 0.252170 0.532952 0.243307
O O4 0.405460 0.486219 0.900300
O O5 0.383590 0.250000 0.503596
O O6 0.289626 0.039822 0.793795
O O7 0.353127 0.014294 0.442556
O O8 0.442194 0.986796 0.424624
O O9 0.191154 0.250000 0.078964
O O10 0.145740 0.486391 0.063949
O O11 0.180834 0.512397 0.207858
O O12 0.311404 0.750000 0.457353
O O13 0.209742 0.536682 0.713041
O O14 0.511139 0.750000 0.354765
O O15 0.500000 0.000000 0.500000
O O16 0.867980 0.250000 0.005721
O O17 0.945847 0.472277 0.912638
O O18 0.162592 0.750000 0.384880
O O19 0.098365 0.492867 0.593719
O O20 0.019057 0.250000 0.837369
O O21 0.000000 0.500000 0.000000
#
# Coordination Sequence:
#
# PCOD9164947 Si02
#       8
#     4   4   4   4   4   4   4   4
#     4  10  22  40  61  85 115 152 193 237 285 339
#     4  10  21  38  60  87 118 150 188 233 283 340
#     4  10  21  37  59  87 116 149 190 237 286 336
#     4   9  18  36  61  86 114 149 190 233 279 334
#     4  12  25  40  60  85 114 150 191 236 287 341
#     4   9  19  37  60  85 114 151 191 231 280 338
#     4  11  23  39  60  85 115 153 193 235 287 343
#     4  11  23  39  60  86 117 152 192 238 287 340
#
# _framework density 18.498723999999999
#
# number of rings (size 3 to 8) (size 9 to 14) (size 15 to 20)
#    0.000    1.750    0.000    4.125    0.000    9.000 
#    0.000    2.500    0.000    0.000    0.000    0.000 
#    0.000    0.000    0.000    0.000    0.000    0.000 
#
# Total GULP energy -178887.136770 kJ/mol
# GULP energy per Si atom -5590.223024 kJ/mol
# Density = 1.845662 g / cm^3
# Si number density = 18.498724 Si / 1000 Ang^3
#
#
#
# Elastic Constant Matrix: (Units=GPa)
#
#
# Indices 1 2 3 4 5 6 
#
# 1 173.6207 86.4653 116.0784 0.0000 -2.4015 0.0000
# 2 86.4653 79.6655 81.3050 0.0000 -4.7683 0.0000
# 3 116.0784 81.3050 131.1504 0.0000 1.0626 0.0000
# 4 0.0000 0.0000 0.0000 34.3600 0.0000 2.3107
# 5 -2.4015 -4.7683 1.0626 0.0000 39.9244 0.0000
# 6 0.0000 0.0000 0.0000 2.3107 0.0000 33.3958
#
#
#
# Elastic Compliance Matrix: (Units=1/GPa)
#
#
# Indices 1 2 3 4 5 6 
#
# 1 0.015703 -0.007735 -0.009106 0.000000 0.000263 0.000000
# 2 -0.007735 0.038869 -0.017288 0.000000 0.004637 0.000000
# 3 -0.009106 -0.017288 0.026428 0.000000 -0.003316 0.000000
# 4 0.000000 0.000000 0.000000 0.029240 0.000000 -0.002023
# 5 0.000263 0.004637 -0.003316 0.000000 0.025705 0.000000
# 6 0.000000 0.000000 0.000000 -0.002023 0.000000 0.030084
#
#
# Mechanical properties :
#
#
# Convention : Reuss Voigt Hill
#
# Bulk Modulus (GPa) = 78.47035 105.79267 92.13151
# Shear Modulus (GPa) = 20.96151 28.24188 24.60170
#
# Velocity S-wave (km/s) = 3.36986 3.91153 3.65075
# Velocity P-wave (km/s) = 7.59293 8.81552 8.22697
#
# Compressibility (1/GPa) = 0.01274367
#
# Stress axis : x y z
#
# Youngs Moduli (GPa) = 63.68206 25.72777 37.83845
#
# Poissons Ratio (x) = 0.19900 0.34454
# Poissons Ratio (y) = 0.49256 0.65414
# Poissons Ratio (z) = 0.57986 0.44478
#
# Static dielectric constant tensor:
#      x y z
#    x 1.606590 0.000000 -0.004580 
#    y 0.000000 1.622490 0.000000 
#    z -0.004580 0.000000 1.610550 
# 
# From -- ./inp_files/45179.got.cif
#   From: 2010.05.17/outbox.cif.g08.bks.cpg/sg11_23_cif.got.tgz:45179.got - 2010.06.03 12:22:45.
