data_PCOD9164650
_publ_section_title
;
Structure prediction by ZEFSAII (Michael W. Deem and Ramdas Pophale) SiO2 
 PCOD9164650
Probable space group: P 21/M
;
_chemical_formula_sum "Si O2"
_cell_formula_units_Z 32
_cell_length_a 15.468637
_cell_length_b 8.848223
_cell_length_c 26.582556
_cell_angle_alpha 90.000000
_cell_angle_beta 151.104643
_cell_angle_gamma 90.000000
_cell_volume 1758.093834
_symmetry_space_group_name_H-M "P 21/M"
_symmetry_group_IT_number 11
_symmetry_cell_setting 'monoclinic'
loop_
_space_group_symop_operation_xyz
x,y,z
-x,1/2+y,-z
-x,-y,-z
x,1/2-y,z
loop_
_atom_site_type_symbol
_atom_site_label
_atom_site_fract_x
_atom_site_fract_y
_atom_site_fract_z
Si Si1 0.138796 0.931636 0.934530
Si Si2 0.767059 0.930336 0.498433
Si Si3 0.346043 0.570269 0.455495
Si Si4 0.112659 0.067540 0.103608
Si Si5 0.483743 0.067973 0.823933
Si Si6 0.479264 0.568845 0.711512
Si Si7 0.942470 0.929122 0.213741
Si Si8 0.143912 0.067803 0.719625
O O1 0.136043 0.750000 0.931201
O O2 0.980011 0.980667 0.891355
O O3 0.117663 0.992138 0.867709
O O4 0.327068 0.977403 0.055315
O O5 0.766819 0.750000 0.498428
O O6 0.664725 0.993439 0.495478
O O7 0.667746 0.993881 0.399041
O O8 0.969213 0.991841 0.606549
O O9 0.500000 0.500000 0.500000
O O10 0.370798 0.750000 0.474090
O O11 0.153131 0.544869 0.331290
O O12 0.101713 0.250000 0.095045
O O13 0.320472 0.025096 0.204704
O O14 0.000000 0.000000 0.000000
O O15 0.487052 0.250000 0.817956
O O16 0.321486 0.033118 0.779003
O O17 0.459192 0.987501 0.758235
O O18 0.464331 0.750000 0.701272
O O19 0.914666 0.750000 0.194000
O O20 0.846786 0.978378 0.216902
O O21 0.116187 0.250000 0.705016
#
# Coordination Sequence:
#
# PCOD9164650 Si02
#       8
#     4   4   4   4   4   4   4   4
#     4  10  21  36  56  86 118 151 191 234 283 344
#     4  11  23  39  60  86 115 152 194 240 292 347
#     4  10  21  38  58  84 117 153 195 242 289 342
#     4  10  21  37  57  82 115 153 189 233 287 338
#     4  10  21  39  62  85 113 152 195 241 291 342
#     4  11  23  38  58  87 119 154 192 237 290 348
#     4   9  20  37  56  82 115 150 189 234 285 340
#     4   9  20  41  63  83 114 152 191 243 296 341
#
# _framework density 18.201530999999999
#
# number of rings (size 3 to 8) (size 9 to 14) (size 15 to 20)
#    0.000    2.000    1.250    2.625    1.750    5.500 
#    0.000    0.000    0.000    0.000    0.000    0.000 
#    0.000    0.000    0.000    0.000    0.000    0.000 
#
# Total GULP energy -178718.764438 kJ/mol
# GULP energy per Si atom -5584.961389 kJ/mol
# Density = 1.816010 g / cm^3
# Si number density = 18.201531 Si / 1000 Ang^3
#
#
#
# Elastic Constant Matrix: (Units=GPa)
#
#
# Indices 1 2 3 4 5 6 
#
# 1 160.4101 50.1962 72.1428 0.0000 -7.0075 0.0000
# 2 50.1962 38.0732 33.1072 0.0000 -7.9065 0.0000
# 3 72.1428 33.1072 70.9788 0.0000 -34.6620 0.0000
# 4 0.0000 0.0000 0.0000 31.4696 0.0000 -7.9285
# 5 -7.0075 -7.9065 -34.6620 0.0000 32.5719 0.0000
# 6 0.0000 0.0000 0.0000 -7.9285 0.0000 31.0187
#
#
#
# Elastic Compliance Matrix: (Units=1/GPa)
#
#
# Indices 1 2 3 4 5 6 
#
# 1 0.027760 -0.002497 -0.050862 0.000000 -0.048759 0.000000
# 2 -0.002497 0.054963 -0.035072 0.000000 -0.024518 0.000000
# 3 -0.050862 -0.035072 0.151237 0.000000 0.141486 0.000000
# 4 0.000000 0.000000 0.000000 0.033964 0.000000 0.008681
# 5 -0.048759 -0.024518 0.141486 0.000000 0.164825 0.000000
# 6 0.000000 0.000000 0.000000 0.008681 0.000000 0.034458
#
#
# Mechanical properties :
#
#
# Convention : Reuss Voigt Hill
#
# Bulk Modulus (GPa) = 17.51359 64.48384 40.99872
# Shear Modulus (GPa) = 7.54032 26.61309 17.07670
#
# Velocity S-wave (km/s) = 2.03757 3.82794 3.06633
# Velocity P-wave (km/s) = 3.89596 7.41903 5.92539
#
# Compressibility (1/GPa) = 0.05709852
#
# Stress axis : x y z
#
# Youngs Moduli (GPa) = 36.02325 18.19392 6.61213
#
# Poissons Ratio (x) = 0.04543 0.33630
# Poissons Ratio (y) = 0.08995 0.23190
# Poissons Ratio (z) = 1.83220 0.63810
#
# Static dielectric constant tensor:
#      x y z
#    x 1.618600 0.000000 0.008890 
#    y 0.000000 1.611930 0.000000 
#    z 0.008890 0.000000 1.596100 
# 
# From -- ./inp_files/69117.got.cif
#   From: 2010.05.17/outbox.cif.g08.bks.cpg/sg11_35_cif.got.tgz:69117.got - 2010.06.03 12:22:45.
