data_PCOD9164760
_publ_section_title
;
Structure prediction by ZEFSAII (Michael W. Deem and Ramdas Pophale) SiO2 
 PCOD9164760
Probable space group: P 21/M
;
_chemical_formula_sum "Si O2"
_cell_formula_units_Z 24
_cell_length_a 7.766955
_cell_length_b 21.785600
_cell_length_c 7.392827
_cell_angle_alpha 90.000000
_cell_angle_beta 58.037088
_cell_angle_gamma 90.000000
_cell_volume 1061.272423
_symmetry_space_group_name_H-M "P 21/M"
_symmetry_group_IT_number 11
_symmetry_cell_setting 'monoclinic'
loop_
_space_group_symop_operation_xyz
x,y,z
-x,1/2+y,-z
-x,-y,-z
x,1/2-y,z
loop_
_atom_site_type_symbol
_atom_site_label
_atom_site_fract_x
_atom_site_fract_y
_atom_site_fract_z
Si Si1 0.821974 0.506244 0.399754
Si Si2 0.855070 0.178175 0.976561
Si Si3 0.054541 0.362305 0.534623
Si Si4 0.525759 0.929017 0.277427
Si Si5 0.102113 0.397099 0.122971
Si Si6 0.484705 0.320178 0.442670
O O1 0.915357 0.565354 0.443402
O O2 0.675411 0.469620 0.619591
O O3 0.680781 0.531790 0.316684
O O4 0.981851 0.460027 0.223252
O O5 0.903453 0.250000 0.971213
O O6 0.868877 0.161224 0.758198
O O7 0.641475 0.166552 0.192880
O O8 0.019322 0.136389 0.990046
O O9 0.048461 0.354693 0.323933
O O10 0.256542 0.329869 0.498886
O O11 0.475188 0.868393 0.420849
O O12 0.659057 0.910660 0.030739
O O13 0.512719 0.250000 0.485251
#
# Coordination Sequence:
#
# PCOD9164760 Si02
#       6
#     4   4   4   4   4   4
#     4  10  21  39  59  96 130 161 204 252 308 373
#     4  11  24  43  65  87 122 165 210 262 308 365
#     4  11  25  39  64  94 127 163 205 258 311 372
#     4  10  21  36  66  93 122 166 206 250 305 372
#     4  12  23  39  66  95 124 165 205 255 312 369
#     4  10  21  42  63  85 122 166 207 255 310 362
#
# _framework density 22.614363999999998
#
# number of rings (size 3 to 8) (size 9 to 14) (size 15 to 20)
#    0.000    1.333    5.000    1.500    0.000    3.333 
#    0.000    0.000    0.000    0.000    0.000    0.000 
#    0.000    0.000    0.000    0.000    0.000    0.000 
#
# Total GULP energy -134314.806840 kJ/mol
# GULP energy per Si atom -5596.450285 kJ/mol
# Density = 2.256289 g / cm^3
# Si number density = 22.614364 Si / 1000 Ang^3
#
#
#
# Elastic Constant Matrix: (Units=GPa)
#
#
# Indices 1 2 3 4 5 6 
#
# 1 31.3555 3.5387 12.3879 0.0000 -4.6415 0.0000
# 2 3.5387 97.6482 52.7310 0.0000 -17.2155 0.0000
# 3 12.3879 52.7310 166.8167 0.0000 -19.6402 0.0000
# 4 0.0000 0.0000 0.0000 27.5583 0.0000 -9.5091
# 5 -4.6415 -17.2155 -19.6402 0.0000 36.3132 0.0000
# 6 0.0000 0.0000 0.0000 -9.5091 0.0000 5.1756
#
#
#
# Elastic Compliance Matrix: (Units=1/GPa)
#
#
# Indices 1 2 3 4 5 6 
#
# 1 0.033209 0.000604 -0.002268 0.000000 0.003304 0.000000
# 2 0.000604 0.012928 -0.003632 0.000000 0.004242 0.000000
# 3 -0.002268 -0.003632 0.007555 0.000000 0.002075 0.000000
# 4 0.000000 0.000000 0.000000 0.099137 0.000000 0.182146
# 5 0.003304 0.004242 0.002075 0.000000 0.031094 0.000000
# 6 0.000000 0.000000 0.000000 0.182146 0.000000 0.527873
#
#
# Mechanical properties :
#
#
# Convention : Reuss Voigt Hill
#
# Bulk Modulus (GPa) = 23.20159 48.12620 35.66390
# Shear Modulus (GPa) = 6.78651 28.95359 17.87005
#
# Velocity S-wave (km/s) = 1.73421 3.58204 2.81411
# Velocity P-wave (km/s) = 3.78047 6.19963 5.13456
#
# Compressibility (1/GPa) = 0.04310049
#
# Stress axis : x y z
#
# Youngs Moduli (GPa) = 30.11196 77.35065 132.35620
#
# Poissons Ratio (x) = -0.04670 0.30018
# Poissons Ratio (y) = -0.01818 0.48072
# Poissons Ratio (z) = 0.06829 0.28094
#
# Static dielectric constant tensor:
#      x y z
#    x 1.855240 0.000000 -0.009750 
#    y 0.000000 1.808280 0.000000 
#    z -0.009750 0.000000 1.862190 
# 
# From -- ./inp_files/14222.got.cif
#   From: 2010.05.17/outbox.cif.g08.bks.cpg/sg11_8_cif.got.tgz:14222.got - 2010.06.03 12:22:45.
