data_PCOD9164461
_publ_section_title
;
Structure prediction by ZEFSAII (Michael W. Deem and Ramdas Pophale) SiO2 
 PCOD9164461
Probable space group: P 21/M
;
_chemical_formula_sum "Si O2"
_cell_formula_units_Z 28
_cell_length_a 15.880898
_cell_length_b 7.473342
_cell_length_c 15.502979
_cell_angle_alpha 90.000000
_cell_angle_beta 46.940720
_cell_angle_gamma 90.000000
_cell_volume 1344.352286
_symmetry_space_group_name_H-M "P 21/M"
_symmetry_group_IT_number 11
_symmetry_cell_setting 'monoclinic'
loop_
_space_group_symop_operation_xyz
x,y,z
-x,1/2+y,-z
-x,-y,-z
x,1/2-y,z
loop_
_atom_site_type_symbol
_atom_site_label
_atom_site_fract_x
_atom_site_fract_y
_atom_site_fract_z
Si Si1 0.819402 0.543067 0.673271
Si Si2 0.471003 0.461014 0.379775
Si Si3 0.369114 0.035280 0.066645
Si Si4 0.719856 0.545631 0.236806
Si Si5 0.223437 0.469534 0.620396
Si Si6 0.367037 0.465896 0.875075
Si Si7 0.062026 0.467697 0.581841
O O1 0.789357 0.750000 0.677170
O O2 0.857667 0.468708 0.553913
O O3 0.934180 0.534239 0.651597
O O4 0.716149 0.462350 0.800697
O O5 0.475155 0.250000 0.393349
O O6 0.580938 0.545038 0.352171
O O7 0.345512 0.526424 0.493357
O O8 0.507633 0.490525 0.253990
O O9 0.351445 0.250000 0.075428
O O10 0.348144 0.966909 0.984142
O O11 0.500000 0.000000 0.000000
O O12 0.759443 0.750000 0.201946
O O13 0.779917 0.466339 0.278477
O O14 0.718915 0.466688 0.140774
O O15 0.225045 0.250000 0.620883
O O16 0.119362 0.522638 0.631331
O O17 0.358879 0.250000 0.881434
O O18 0.057767 0.250000 0.581848
#
# Coordination Sequence:
#
# PCOD9164461 Si02
#       7
#     4   4   4   4   4   4   4
#     4   9  19  35  52  70  97 128 158 198 244 283
#     4   9  16  25  42  67  96 126 157 191 234 281
#     4  10  21  35  52  75  99 127 163 197 237 287
#     4   8  15  28  43  62  95 128 156 190 237 287
#     4   9  16  26  45  70  92 122 161 197 235 284
#     4   8  17  31  44  63  94 128 155 184 232 286
#     4   9  18  33  52  72  94 125 164 200 237 285
#
# _framework density 20.827874999999999
#
# number of rings (size 3 to 8) (size 9 to 14) (size 15 to 20)
#    0.857    2.286    0.000    0.429    2.000    1.143 
#    0.000    2.143    0.000    0.857    0.000    0.000 
#    0.000    0.000    0.000    0.000    0.000    0.000 
#
# Total GULP energy -155867.991328 kJ/mol
# GULP energy per Si atom -5566.713976 kJ/mol
# Density = 2.078047 g / cm^3
# Si number density = 20.827875 Si / 1000 Ang^3
#
#
#
# Elastic Constant Matrix: (Units=GPa)
#
#
# Indices 1 2 3 4 5 6 
#
# 1 84.1826 -8.2564 30.6291 0.0000 13.6385 0.0000
# 2 -8.2564 65.6878 -1.9844 0.0000 3.1567 0.0000
# 3 30.6291 -1.9844 90.1011 0.0000 5.7150 0.0000
# 4 0.0000 0.0000 0.0000 3.5854 0.0000 -2.1229
# 5 13.6385 3.1567 5.7150 0.0000 14.5036 0.0000
# 6 0.0000 0.0000 0.0000 -2.1229 0.0000 13.9868
#
#
#
# Elastic Compliance Matrix: (Units=1/GPa)
#
#
# Indices 1 2 3 4 5 6 
#
# 1 0.016009 0.002541 -0.004509 0.000000 -0.013831 0.000000
# 2 0.002541 0.015816 -0.000149 0.000000 -0.005773 0.000000
# 3 -0.004509 -0.000149 0.012674 0.000000 -0.000722 0.000000
# 4 0.000000 0.000000 0.000000 0.306445 0.000000 0.046511
# 5 -0.013831 -0.005773 -0.000722 0.000000 0.083495 0.000000
# 6 0.000000 0.000000 0.000000 0.046511 0.000000 0.078555
#
#
# Mechanical properties :
#
#
# Convention : Reuss Voigt Hill
#
# Bulk Modulus (GPa) = 24.83606 31.19422 28.01514
# Shear Modulus (GPa) = 9.42240 21.05405 15.23822
#
# Velocity S-wave (km/s) = 2.12926 3.18285 2.70779
# Velocity P-wave (km/s) = 4.24209 5.34014 4.82247
#
# Compressibility (1/GPa) = 0.04026404
#
# Stress axis : x y z
#
# Youngs Moduli (GPa) = 62.46321 63.22800 78.90212
#
# Poissons Ratio (x) = -0.16064 0.35577
# Poissons Ratio (y) = -0.15870 0.01177
# Poissons Ratio (z) = 0.28165 0.00943
#
# Static dielectric constant tensor:
#      x y z
#    x 1.754070 0.000000 0.042880 
#    y 0.000000 1.827650 0.000000 
#    z 0.042880 0.000000 1.768490 
# 
# From -- ./inp_files/52113.got.cif
#   From: 2010.05.17/outbox.cif.g08.bks.cpg/sg11_27_cif.got.tgz:52113.got - 2010.06.03 12:22:45.
