data_PCOD9164199
_publ_section_title
;
Structure prediction by ZEFSAII (Michael W. Deem and Ramdas Pophale) SiO2 
 PCOD9164199
Probable space group: P 21/M
;
_chemical_formula_sum "Si O2"
_cell_formula_units_Z 22
_cell_length_a 11.859744
_cell_length_b 15.750006
_cell_length_c 4.996633
_cell_angle_alpha 90.000000
_cell_angle_beta 101.396683
_cell_angle_gamma 90.000000
_cell_volume 914.923518
_symmetry_space_group_name_H-M "P 21/M"
_symmetry_group_IT_number 11
_symmetry_cell_setting 'monoclinic'
loop_
_space_group_symop_operation_xyz
x,y,z
-x,1/2+y,-z
-x,-y,-z
x,1/2-y,z
loop_
_atom_site_type_symbol
_atom_site_label
_atom_site_fract_x
_atom_site_fract_y
_atom_site_fract_z
Si Si1 0.629877 0.503948 0.666504
Si Si2 0.479420 0.750000 0.003683
Si Si3 0.306505 0.905373 0.800493
Si Si4 0.950027 0.352883 0.304545
Si Si5 0.694033 0.843210 0.359560
Si Si6 0.089255 0.352730 0.876097
O O1 0.500000 0.500000 0.500000
O O2 0.693420 0.436032 0.505508
O O3 0.674375 0.595798 0.598797
O O4 0.643530 0.476806 0.977333
O O5 0.574115 0.822449 0.154642
O O6 0.388605 0.824248 0.869804
O O7 0.175988 0.885903 0.821298
O O8 0.945365 0.250000 0.290820
O O9 0.990462 0.376846 0.618953
O O10 0.047755 0.383616 0.143930
O O11 0.734283 0.750000 0.480373
O O12 0.790932 0.877215 0.204598
O O13 0.094012 0.250000 0.892453
#
# Coordination Sequence:
#
# PCOD9164199 Si02
#       6
#     4   2   4   4   4   4
#     4  12  25  44  65  96 140 169 212 269 332 378
#     4  10  22  44  68 100 130 168 224 260 318 400
#     4  12  25  44  66 102 131 171 214 271 325 384
#     4  10  20  39  65  92 128 169 216 264 317 383
#     4   9  21  44  67  95 127 173 220 265 320 393
#     4   9  19  38  63  92 122 168 218 265 315 375
#
# _framework density 24.045722000000001
#
# number of rings (size 3 to 8) (size 9 to 14) (size 15 to 20)
#    0.545    1.091    2.727    1.636    0.000    2.182 
#    1.636    8.182    0.000    0.000    0.000    0.000 
#    0.000    0.000    0.000    0.000    0.000    0.000 
#
# Total GULP energy -122619.237982 kJ/mol
# GULP energy per Si atom -5573.601726 kJ/mol
# Density = 2.399099 g / cm^3
# Si number density = 24.045722 Si / 1000 Ang^3
#
#
#
# Elastic Constant Matrix: (Units=GPa)
#
#
# Indices 1 2 3 4 5 6 
#
# 1 63.5938 23.1044 15.1483 0.0000 12.9901 0.0000
# 2 23.1044 70.4100 4.6409 0.0000 8.1851 0.0000
# 3 15.1483 4.6409 71.4970 0.0000 4.5218 0.0000
# 4 0.0000 0.0000 0.0000 10.2617 0.0000 -5.2646
# 5 12.9901 8.1851 4.5218 0.0000 36.6834 0.0000
# 6 0.0000 0.0000 0.0000 -5.2646 0.0000 29.6847
#
#
#
# Elastic Compliance Matrix: (Units=1/GPa)
#
#
# Indices 1 2 3 4 5 6 
#
# 1 0.019669 -0.005611 -0.003469 0.000000 -0.005286 0.000000
# 2 -0.005611 0.016221 0.000241 0.000000 -0.001662 0.000000
# 3 -0.003469 0.000241 0.014747 0.000000 -0.000643 0.000000
# 4 0.000000 0.000000 0.000000 0.107204 0.000000 0.019013
# 5 -0.005286 -0.001662 -0.000643 0.000000 0.029582 0.000000
# 6 0.000000 0.000000 0.000000 0.019013 0.000000 0.037059
#
#
# Mechanical properties :
#
#
# Convention : Reuss Voigt Hill
#
# Bulk Modulus (GPa) = 30.34074 32.36533 31.35303
# Shear Modulus (GPa) = 19.75135 26.16644 22.95890
#
# Velocity S-wave (km/s) = 2.86913 3.30236 3.09334
# Velocity P-wave (km/s) = 4.86017 5.29433 5.08189
#
# Compressibility (1/GPa) = 0.03295899
#
# Stress axis : x y z
#
# Youngs Moduli (GPa) = 50.84037 61.64794 67.81231
#
# Poissons Ratio (x) = 0.34592 0.23523
# Poissons Ratio (y) = 0.28528 -0.01635
# Poissons Ratio (z) = 0.17636 -0.01486
#
# Static dielectric constant tensor:
#      x y z
#    x 1.923940 0.000000 -0.017250 
#    y 0.000000 1.942770 0.000000 
#    z -0.017250 0.000000 1.886830 
# 
# From -- ./inp_files/4676.got.cif
#   From: 2010.05.17/outbox.cif.g08.bks.cpg/sg11_3_cif.got.tgz:4676.got - 2010.06.03 12:22:45.
