data_PCOD9164616
_publ_section_title
;
Structure prediction by ZEFSAII (Michael W. Deem and Ramdas Pophale) SiO2 
 PCOD9164616
Probable space group: P 21/M
;
_chemical_formula_sum "Si O2"
_cell_formula_units_Z 30
_cell_length_a 15.166370
_cell_length_b 9.254591
_cell_length_c 19.278819
_cell_angle_alpha 90.000000
_cell_angle_beta 141.920209
_cell_angle_gamma 90.000000
_cell_volume 1668.915267
_symmetry_space_group_name_H-M "P 21/M"
_symmetry_group_IT_number 11
_symmetry_cell_setting 'monoclinic'
loop_
_space_group_symop_operation_xyz
x,y,z
-x,1/2+y,-z
-x,-y,-z
x,1/2-y,z
loop_
_atom_site_type_symbol
_atom_site_label
_atom_site_fract_x
_atom_site_fract_y
_atom_site_fract_z
Si Si1 0.594591 0.002931 0.463058
Si Si2 0.077021 0.419284 0.148591
Si Si3 0.000288 0.419825 0.608445
Si Si4 0.506105 0.417897 0.254439
Si Si5 0.224181 0.581030 0.117441
Si Si6 0.082732 0.418141 0.312066
Si Si7 0.437750 0.750000 0.438837
Si Si8 0.226645 0.420390 0.631198
O O1 0.564341 0.067761 0.369138
O O2 0.588297 0.124964 0.517591
O O3 0.751778 0.933188 0.564272
O O4 0.483024 0.877341 0.411426
O O5 0.121715 0.250000 0.174794
O O6 0.182516 0.510681 0.165606
O O7 0.073527 0.466338 0.226257
O O8 0.919916 0.430535 0.017905
O O9 0.963554 0.250000 0.588362
O O10 0.004677 0.486758 0.687586
O O11 0.879245 0.504770 0.489984
O O12 0.145920 0.435544 0.654771
O O13 0.494611 0.250000 0.228565
O O14 0.352800 0.495358 0.161691
O O15 0.621472 0.501485 0.279193
O O16 0.257390 0.750000 0.145754
O O17 0.039886 0.250000 0.288964
O O18 0.240141 0.250000 0.623746
#
# Coordination Sequence:
#
# PCOD9164616 Si02
#       8
#     4   4   4   4   4   4   2   4
#     4  11  23  35  49  78 109 149 184 220 268 330
#     4   9  21  40  58  82 113 148 191 234 275 322
#     4  10  21  36  55  82 114 145 181 226 275 333
#     4  12  24  36  56  81 113 145 186 232 275 330
#     4  10  22  38  59  82 110 150 192 234 277 323
#     4  11  22  35  57  81 112 146 184 225 274 332
#     4  10  24  36  46  68 118 150 182 218 268 326
#     4  10  21  37  56  80 112 147 183 225 276 335
#
# _framework density 17.975746000000001
#
# number of rings (size 3 to 8) (size 9 to 14) (size 15 to 20)
#    0.000    1.600    2.667    1.600    6.533    2.667 
#    0.000    0.000    0.000    0.800    0.000    0.000 
#    0.000    0.000    0.000    0.000    0.000    0.000 
#
# Total GULP energy -167065.963494 kJ/mol
# GULP energy per Si atom -5568.865450 kJ/mol
# Density = 1.793483 g / cm^3
# Si number density = 17.975746 Si / 1000 Ang^3
#
#
#
# Elastic Constant Matrix: (Units=GPa)
#
#
# Indices 1 2 3 4 5 6 
#
# 1 -83.1838 14.2233 48.9263 0.0000 39.1689 0.0000
# 2 14.2233 121.5369 29.3610 0.0000 27.1422 0.0000
# 3 48.9263 29.3610 32.6935 0.0000 3.8308 0.0000
# 4 0.0000 0.0000 0.0000 19.5451 0.0000 -1.7169
# 5 39.1689 27.1422 3.8308 0.0000 22.4493 0.0000
# 6 0.0000 0.0000 0.0000 -1.7169 0.0000 31.8960
#
#
#
# Elastic Compliance Matrix: (Units=1/GPa)
#
#
# Indices 1 2 3 4 5 6 
#
# 1 -0.003714 -0.003506 0.007602 0.000000 0.009421 0.000000
# 2 -0.003506 0.011051 -0.003907 0.000000 -0.006578 0.000000
# 3 0.007602 -0.003907 0.024204 0.000000 -0.012670 0.000000
# 4 0.000000 0.000000 0.000000 0.051407 0.000000 0.002767
# 5 0.009421 -0.006578 -0.012670 0.000000 0.038222 0.000000
# 6 0.000000 0.000000 0.000000 0.002767 0.000000 0.031501
#
#
# Mechanical properties :
#
#
# Convention : Reuss Voigt Hill
#
# Bulk Modulus (GPa) = 31.32886 28.45198 29.89042
# Shear Modulus (GPa) = 30.68735 13.34714 22.01725
#
# Velocity S-wave (km/s) = 4.13625 2.72786 3.50355
# Velocity P-wave (km/s) = 6.34647 5.07779 5.74724
#
# Compressibility (1/GPa) = 0.03191945
#
# Stress axis : x y z
#
# Youngs Moduli (GPa) = -269.27824 90.48834 41.31516
#
# Poissons Ratio (x) = 0.31724 -0.31408
# Poissons Ratio (y) = -0.94405 0.16143
# Poissons Ratio (z) = 2.04708 0.35357
#
# Static dielectric constant tensor:
#      x y z
#    x 1.619550 0.000000 0.007330 
#    y 0.000000 1.608930 0.000000 
#    z 0.007330 0.000000 1.620030 
# 
# From -- ./inp_files/65120.got.cif
#   From: 2010.05.17/outbox.cif.g08.bks.cpg/sg11_33_cif.got.tgz:65120.got - 2010.06.03 12:22:45.
