data_PCOD9164130
_publ_section_title
;
Structure prediction by ZEFSAII (Michael W. Deem and Ramdas Pophale) SiO2 
 PCOD9164130
Probable space group: P 21/M
;
_chemical_formula_sum "Si O2"
_cell_formula_units_Z 30
_cell_length_a 14.345326
_cell_length_b 9.078995
_cell_length_c 11.967621
_cell_angle_alpha 90.000000
_cell_angle_beta 71.299071
_cell_angle_gamma 90.000000
_cell_volume 1476.386429
_symmetry_space_group_name_H-M "P 21/M"
_symmetry_group_IT_number 11
_symmetry_cell_setting 'monoclinic'
loop_
_space_group_symop_operation_xyz
x,y,z
-x,1/2+y,-z
-x,-y,-z
x,1/2-y,z
loop_
_atom_site_type_symbol
_atom_site_label
_atom_site_fract_x
_atom_site_fract_y
_atom_site_fract_z
Si Si1 0.568382 0.991603 0.816245
Si Si2 0.420891 0.926586 0.448100
Si Si3 0.544078 0.250000 0.008937
Si Si4 0.207016 0.415143 0.281060
Si Si5 0.140733 0.923136 0.858900
Si Si6 0.911057 0.578825 0.902795
Si Si7 0.229048 0.425461 0.626807
Si Si8 0.098233 0.923736 0.505836
O O1 0.486036 0.877596 0.887225
O O2 0.677787 0.922840 0.789096
O O3 0.559437 0.035985 0.689500
O O4 0.563250 0.124422 0.904897
O O5 0.418503 0.750000 0.461827
O O6 0.500000 0.000000 0.500000
O O7 0.319053 0.998517 0.528474
O O8 0.185263 0.250000 0.335212
O O9 0.139887 0.435766 0.197438
O O10 0.178572 0.540278 0.379885
O O11 0.160944 0.750000 0.838824
O O12 0.028043 0.950865 0.860793
O O13 0.216642 0.017950 0.757720
O O14 0.139673 0.973392 0.987688
O O15 0.899280 0.750000 0.942772
O O16 0.235171 0.250000 0.618228
O O17 0.133756 0.490264 0.600983
O O18 0.087497 0.750000 0.529993
O O19 0.000000 0.000000 0.500000
#
# Coordination Sequence:
#
# PCOD9164130 Si02
#       8
#     4   4   2   4   4   4   4   4
#     4  11  23  46  70 100 136 172 227 282 357 417
#     4  12  27  48  73 101 136 181 230 286 351 420
#     4  10  24  44  72 100 130 176 214 284 344 418
#     4  11  22  39  66  96 131 172 219 272 338 403
#     4  10  20  39  62  90 131 176 226 274 326 392
#     4   9  20  38  61  90 129 175 220 274 330 393
#     4  12  25  43  67  96 132 177 223 274 334 399
#     4  12  25  40  64  98 136 176 222 273 330 401
#
# _framework density 20.319883000000001
#
# number of rings (size 3 to 8) (size 9 to 14) (size 15 to 20)
#    0.000    1.067    2.667    4.000    2.800    2.133 
#    4.800    0.000    0.000    0.000    0.000    0.000 
#    0.000    0.000    0.000    0.000    0.000    0.000 
#
# Total GULP energy -167131.666014 kJ/mol
# GULP energy per Si atom -5571.055534 kJ/mol
# Density = 2.027363 g / cm^3
# Si number density = 20.319883 Si / 1000 Ang^3
#
#
#
# Elastic Constant Matrix: (Units=GPa)
#
#
# Indices 1 2 3 4 5 6 
#
# 1 38.9368 16.4795 9.0428 0.0000 4.6044 0.0000
# 2 16.4795 160.8315 61.7799 0.0000 -8.8081 0.0000
# 3 9.0428 61.7799 118.6316 0.0000 -12.3545 0.0000
# 4 0.0000 0.0000 0.0000 39.5171 0.0000 -5.6156
# 5 4.6044 -8.8081 -12.3545 0.0000 14.9019 0.0000
# 6 0.0000 0.0000 0.0000 -5.6156 0.0000 22.1657
#
#
#
# Elastic Compliance Matrix: (Units=1/GPa)
#
#
# Indices 1 2 3 4 5 6 
#
# 1 0.028799 -0.002860 -0.001979 0.000000 -0.012230 0.000000
# 2 -0.002860 0.008082 -0.003723 0.000000 0.002574 0.000000
# 3 -0.001979 -0.003723 0.011332 0.000000 0.007806 0.000000
# 4 0.000000 0.000000 0.000000 0.026251 0.000000 0.006650
# 5 -0.012230 0.002574 0.007806 0.000000 0.078877 0.000000
# 6 0.000000 0.000000 0.000000 0.006650 0.000000 0.046800
#
#
# Mechanical properties :
#
#
# Convention : Reuss Voigt Hill
#
# Bulk Modulus (GPa) = 32.16649 54.77828 43.47238
# Shear Modulus (GPa) = 21.96568 30.72345 26.34457
#
# Velocity S-wave (km/s) = 3.29142 3.89265 3.60459
# Velocity P-wave (km/s) = 5.50536 6.87169 6.22612
#
# Compressibility (1/GPa) = 0.03108826
#
# Stress axis : x y z
#
# Youngs Moduli (GPa) = 34.72319 123.73610 88.24665
#
# Poissons Ratio (x) = 0.35393 0.17467
# Poissons Ratio (y) = 0.09932 0.32851
# Poissons Ratio (z) = 0.06873 0.46062
#
# Static dielectric constant tensor:
#      x y z
#    x 7.675230 0.000000 0.586600 
#    y 0.000000 1.686700 0.000000 
#    z 0.586600 0.000000 1.792660 
# 
# From -- ./inp_files/38035.got.cif
#   From: 2010.05.17/outbox.cif.g08.bks.cpg/sg11_20_cif.got.tgz:38035.got - 2010.06.03 12:22:45.
