data_PCOD9164810
_publ_section_title
;
Structure prediction by ZEFSAII (Michael W. Deem and Ramdas Pophale) SiO2 
 PCOD9164810
Probable space group: P 21/M
;
_chemical_formula_sum "Si O2"
_cell_formula_units_Z 28
_cell_length_a 19.110128
_cell_length_b 8.936155
_cell_length_c 8.208793
_cell_angle_alpha 90.000000
_cell_angle_beta 93.850430
_cell_angle_gamma 90.000000
_cell_volume 1398.660062
_symmetry_space_group_name_H-M "P 21/M"
_symmetry_group_IT_number 11
_symmetry_cell_setting 'monoclinic'
loop_
_space_group_symop_operation_xyz
x,y,z
-x,1/2+y,-z
-x,-y,-z
x,1/2-y,z
loop_
_atom_site_type_symbol
_atom_site_label
_atom_site_fract_x
_atom_site_fract_y
_atom_site_fract_z
Si Si1 0.050020 0.407624 0.118320
Si Si2 0.203772 0.568022 0.773563
Si Si3 0.422912 0.429951 0.995184
Si Si4 0.055707 0.909195 0.607527
Si Si5 0.342994 0.930339 0.296565
Si Si6 0.205731 0.069642 0.136693
Si Si7 0.659606 0.569988 0.358489
O O1 0.067616 0.250000 0.036791
O O2 0.126139 0.466569 0.180219
O O3 0.995382 0.384793 0.250664
O O4 0.000000 0.500000 0.000000
O O5 0.205884 0.750000 0.790751
O O6 0.128970 0.526053 0.682015
O O7 0.266219 0.507287 0.671665
O O8 0.210921 0.491390 0.952162
O O9 0.424289 0.250000 0.018232
O O10 0.386099 0.457950 0.813178
O O11 0.500000 0.500000 0.000000
O O12 0.383614 0.504377 0.144097
O O13 0.072938 0.750000 0.528887
O O14 0.000000 0.000000 0.500000
O O15 0.347765 0.750000 0.300141
O O16 0.263400 0.986271 0.253610
O O17 0.366997 0.999254 0.474753
O O18 0.217991 0.250000 0.145308
O O19 0.666261 0.750000 0.378092
#
# Coordination Sequence:
#
# PCOD9164810 Si02
#       7
#     4   4   4   4   4   4   4
#     4  10  21  37  56  81 112 154 207 264 324 387
#     4  11  22  39  63  91 126 170 223 279 337 399
#     4  11  25  47  76 108 142 180 222 269 330 397
#     4  10  23  39  54  82 120 163 215 273 333 394
#     4  12  26  44  70 102 138 178 224 277 333 395
#     4  11  22  38  62  91 124 168 219 272 335 403
#     4  11  25  45  70 100 138 180 227 276 331 400
#
# _framework density 20.019159999999999
#
# number of rings (size 3 to 8) (size 9 to 14) (size 15 to 20)
#    0.000    1.143    2.857    3.000    2.000    4.571 
#    0.000    0.000    0.000    0.000    0.000    0.000 
#    0.000    0.000    0.000    0.000    0.000    0.000 
#
# Total GULP energy -155979.721971 kJ/mol
# GULP energy per Si atom -5570.704356 kJ/mol
# Density = 1.997360 g / cm^3
# Si number density = 20.019160 Si / 1000 Ang^3
#
#
#
# Elastic Constant Matrix: (Units=GPa)
#
#
# Indices 1 2 3 4 5 6 
#
# 1 131.8155 46.3948 55.1792 0.0000 1.2384 0.0000
# 2 46.3948 113.0904 72.4552 0.0000 7.3401 0.0000
# 3 55.1792 72.4552 128.1556 0.0000 19.2974 0.0000
# 4 0.0000 0.0000 0.0000 47.5365 0.0000 11.3174
# 5 1.2384 7.3401 19.2974 0.0000 3.7984 0.0000
# 6 0.0000 0.0000 0.0000 11.3174 0.0000 37.2529
#
#
#
# Elastic Compliance Matrix: (Units=1/GPa)
#
#
# Indices 1 2 3 4 5 6 
#
# 1 0.020368 0.004606 -0.038441 0.000000 0.179757 0.000000
# 2 0.004606 0.018328 -0.028876 0.000000 0.109786 0.000000
# 3 -0.038441 -0.028876 0.129322 0.000000 -0.588678 0.000000
# 4 0.000000 0.000000 0.000000 0.022677 0.000000 -0.006889
# 5 0.179757 0.109786 -0.588678 0.000000 2.983254 0.000000
# 6 0.000000 0.000000 0.000000 -0.006889 0.000000 0.028936
#
#
# Mechanical properties :
#
#
# Convention : Reuss Voigt Hill
#
# Bulk Modulus (GPa) = 23.47716 80.12444 51.80080
# Shear Modulus (GPa) = 1.49588 30.98636 16.24112
#
# Velocity S-wave (km/s) = 0.86536 3.93852 2.85139
# Velocity P-wave (km/s) = 3.57089 7.79701 6.06402
#
# Compressibility (1/GPa) = 0.04259459
#
# Stress axis : x y z
#
# Youngs Moduli (GPa) = 49.09592 54.56082 7.73263
#
# Poissons Ratio (x) = -0.25128 0.29725
# Poissons Ratio (y) = -0.22611 0.22329
# Poissons Ratio (z) = 1.88730 1.57552
#
# Static dielectric constant tensor:
#      x y z
#    x 1.712220 0.000000 -0.022410 
#    y 0.000000 0.369170 0.000000 
#    z -0.022410 0.000000 1.697010 
# 
# From -- ./inp_files/24156.got.cif
#   From: 2010.05.17/outbox.cif.g08.bks.cpg/sg11_13_cif.got.tgz:24156.got - 2010.06.03 12:22:45.
