data_PCOD9164628
_publ_section_title
;
Structure prediction by ZEFSAII (Michael W. Deem and Ramdas Pophale) SiO2 
 PCOD9164628
Probable space group: P 21/M
;
_chemical_formula_sum "Si O2"
_cell_formula_units_Z 28
_cell_length_a 24.745649
_cell_length_b 7.567788
_cell_length_c 8.320270
_cell_angle_alpha 90.000000
_cell_angle_beta 43.637309
_cell_angle_gamma 90.000000
_cell_volume 1075.255220
_symmetry_space_group_name_H-M "P 21/M"
_symmetry_group_IT_number 11
_symmetry_cell_setting 'monoclinic'
loop_
_space_group_symop_operation_xyz
x,y,z
-x,1/2+y,-z
-x,-y,-z
x,1/2-y,z
loop_
_atom_site_type_symbol
_atom_site_label
_atom_site_fract_x
_atom_site_fract_y
_atom_site_fract_z
Si Si1 0.805849 0.954614 0.083318
Si Si2 0.333972 0.546140 0.409269
Si Si3 0.617720 0.042212 0.182000
Si Si4 0.761971 0.465546 0.686177
Si Si5 0.904468 0.544702 0.574608
Si Si6 0.043413 0.961044 0.072878
Si Si7 0.471873 0.964364 0.310073
O O1 0.788400 0.750000 0.089077
O O2 0.854001 0.034764 0.829116
O O3 0.869683 0.967189 0.089271
O O4 0.724867 0.041968 0.311193
O O5 0.347924 0.750000 0.336195
O O6 0.282141 0.468639 0.377895
O O7 0.418075 0.470155 0.279491
O O8 0.625464 0.250000 0.192893
O O9 0.573562 0.968224 0.431699
O O10 0.560787 0.018655 0.150381
O O11 0.703326 0.975874 0.955090
O O12 0.766667 0.250000 0.669774
O O13 0.847335 0.532880 0.543539
O O14 0.916798 0.750000 0.587462
O O15 0.987157 0.469670 0.338086
O O16 0.049120 0.750000 0.073597
O O17 0.000000 0.000000 0.000000
O O18 0.470728 0.750000 0.310386
#
# Coordination Sequence:
#
# PCOD9164628 Si02
#       7
#     4   4   4   4   4   4   4
#     4  11  23  39  59  84 112 145 186 228 272 324
#     4  10  21  37  56  81 112 146 185 228 276 328
#     4   9  18  33  52  76 106 141 182 226 272 324
#     4  10  21  36  56  81 110 145 184 226 274 329
#     4  10  23  40  58  82 112 145 184 228 272 323
#     4  11  23  40  61  86 116 148 182 224 274 325
#     4   9  18  33  53  76 105 142 183 226 272 324
#
# _framework density 26.040329
#
# number of rings (size 3 to 8) (size 9 to 14) (size 15 to 20)
#    0.000    2.000    0.000    3.000    0.000    8.000 
#    0.000    2.857    0.000    0.000    0.000    0.000 
#    0.000    0.000    0.000    0.000    0.000    0.000 
#
# Total GULP energy -156664.788919 kJ/mol
# GULP energy per Si atom -5595.171033 kJ/mol
# Density = 2.598106 g / cm^3
# Si number density = 26.040329 Si / 1000 Ang^3
#
#
#
# Elastic Constant Matrix: (Units=GPa)
#
#
# Indices 1 2 3 4 5 6 
#
# 1 120.8157 -3.7059 7.3044 0.0000 -16.1100 0.0000
# 2 -3.7059 84.9753 -2.6805 0.0000 2.6248 0.0000
# 3 7.3044 -2.6805 75.0608 0.0000 -16.0906 0.0000
# 4 0.0000 0.0000 0.0000 11.2999 0.0000 -0.3488
# 5 -16.1100 2.6248 -16.0906 0.0000 51.6549 0.0000
# 6 0.0000 0.0000 0.0000 -0.3488 0.0000 26.2277
#
#
#
# Elastic Compliance Matrix: (Units=1/GPa)
#
#
# Indices 1 2 3 4 5 6 
#
# 1 0.008649 0.000288 -0.000275 0.000000 0.002597 0.000000
# 2 0.000288 0.011803 0.000304 0.000000 -0.000415 0.000000
# 3 -0.000275 0.000304 0.014293 0.000000 0.004351 0.000000
# 4 0.000000 0.000000 0.000000 0.088532 0.000000 0.001177
# 5 0.002597 -0.000415 0.004351 0.000000 0.021546 0.000000
# 6 0.000000 0.000000 0.000000 0.001177 0.000000 0.038143
#
#
# Mechanical properties :
#
#
# Convention : Reuss Voigt Hill
#
# Bulk Modulus (GPa) = 28.26361 31.40977 29.83669
# Shear Modulus (GPa) = 25.75679 36.49877 31.12778
#
# Velocity S-wave (km/s) = 3.14843 3.74789 3.46116
# Velocity P-wave (km/s) = 4.90858 5.55131 5.23981
#
# Compressibility (1/GPa) = 0.03538119
#
# Stress axis : x y z
#
# Youngs Moduli (GPa) = 115.62248 84.72333 69.96496
#
# Poissons Ratio (x) = -0.02443 0.01921
# Poissons Ratio (y) = -0.03333 -0.02130
# Poissons Ratio (z) = 0.03175 -0.02580
#
# Static dielectric constant tensor:
#      x y z
#    x 2.083780 0.000000 0.090720 
#    y 0.000000 1.951800 0.000000 
#    z 0.090720 0.000000 2.069020 
# 
# From -- ./inp_files/24053.got.cif
#   From: 2010.05.17/outbox.cif.g08.bks.cpg/sg11_13_cif.got.tgz:24053.got - 2010.06.03 12:22:45.
