data_PCOD9164748
_publ_section_title
;
Structure prediction by ZEFSAII (Michael W. Deem and Ramdas Pophale) SiO2 
 PCOD9164748
Probable space group: P 21/M
;
_chemical_formula_sum "Si O2"
_cell_formula_units_Z 30
_cell_length_a 7.447707
_cell_length_b 23.265097
_cell_length_c 11.286010
_cell_angle_alpha 90.000000
_cell_angle_beta 136.669034
_cell_angle_gamma 90.000000
_cell_volume 1341.917838
_symmetry_space_group_name_H-M "P 21/M"
_symmetry_group_IT_number 11
_symmetry_cell_setting 'monoclinic'
loop_
_space_group_symop_operation_xyz
x,y,z
-x,1/2+y,-z
-x,-y,-z
x,1/2-y,z
loop_
_atom_site_type_symbol
_atom_site_label
_atom_site_fract_x
_atom_site_fract_y
_atom_site_fract_z
Si Si1 0.776514 0.936971 0.459416
Si Si2 0.793565 0.750000 0.796781
Si Si3 0.187906 0.831871 0.124668
Si Si4 0.462583 0.055096 0.331656
Si Si5 0.102393 0.963830 0.816043
Si Si6 0.193372 0.086857 0.969053
Si Si7 0.500392 0.655192 0.491739
Si Si8 0.564113 0.882129 0.130919
O O1 0.683437 0.881039 0.489068
O O2 0.745489 0.916728 0.310274
O O3 0.048632 0.955069 0.650437
O O4 0.595051 0.992826 0.393824
O O5 0.655817 0.699314 0.648400
O O6 0.947328 0.798916 0.951769
O O7 0.299328 0.814513 0.305841
O O8 0.417726 0.833488 0.137312
O O9 0.079823 0.895928 0.101773
O O10 0.612477 0.103960 0.479039
O O11 0.175922 0.048514 0.254346
O O12 0.401882 0.078435 0.172376
O O13 0.173543 0.027611 0.889166
O O14 0.326236 0.921835 0.969892
O O15 0.278888 0.133528 0.912088
#
# Coordination Sequence:
#
# PCOD9164748 Si02
#       8
#     4   2   4   4   4   4   4   4
#     4  10  21  36  60  93 131 168 208 251 308 390
#     4  12  22  42  72  94 110 158 220 264 324 378
#     4  11  23  44  66  86 123 162 199 270 321 358
#     4  11  19  37  63  93 131 170 207 251 315 382
#     4  11  19  35  57  86 131 173 202 245 302 357
#     4  12  22  37  62  92 131 168 206 250 304 376
#     4  10  21  38  64  97 118 159 216 256 311 386
#     4  11  23  39  58  91 127 165 213 246 299 378
#
# _framework density 22.356064
#
# number of rings (size 3 to 8) (size 9 to 14) (size 15 to 20)
#    0.000    1.067    4.000    6.000    0.000    0.533 
#    2.400    0.667    0.000    0.000    0.000    0.000 
#    0.000    0.000    0.000    0.000    0.000    0.000 
#
# Total GULP energy -167038.807632 kJ/mol
# GULP energy per Si atom -5567.960254 kJ/mol
# Density = 2.230518 g / cm^3
# Si number density = 22.356064 Si / 1000 Ang^3
#
#
#
# Elastic Constant Matrix: (Units=GPa)
#
#
# Indices 1 2 3 4 5 6 
#
# 1 76.9604 0.4341 25.4996 0.0000 -5.1804 0.0000
# 2 0.4341 80.1376 35.9160 0.0000 -2.5765 0.0000
# 3 25.4996 35.9160 203.8111 0.0000 -33.0709 0.0000
# 4 0.0000 0.0000 0.0000 41.3630 0.0000 -2.0834
# 5 -5.1804 -2.5765 -33.0709 0.0000 23.2933 0.0000
# 6 0.0000 0.0000 0.0000 -2.0834 0.0000 -12.9335
#
#
#
# Elastic Compliance Matrix: (Units=1/GPa)
#
#
# Indices 1 2 3 4 5 6 
#
# 1 0.013605 0.000719 -0.001722 0.000000 0.000661 0.000000
# 2 0.000719 0.013696 -0.002900 0.000000 -0.002442 0.000000
# 3 -0.001722 -0.002900 0.007171 0.000000 0.009477 0.000000
# 4 0.000000 0.000000 0.000000 0.023982 0.000000 -0.003863
# 5 0.000661 -0.002442 0.009477 0.000000 0.056263 0.000000
# 6 0.000000 0.000000 0.000000 -0.003863 0.000000 -0.076696
#
#
# Mechanical properties :
#
#
# Convention : Reuss Voigt Hill
#
# Bulk Modulus (GPa) = 37.50012 53.84538 45.67275
# Shear Modulus (GPa) = 91.38730 30.28186 60.83458
#
# Velocity S-wave (km/s) = 6.40053 3.68438 5.22214
# Velocity P-wave (km/s) = 8.45180 6.49901 7.53890
#
# Compressibility (1/GPa) = 0.02666658
#
# Stress axis : x y z
#
# Youngs Moduli (GPa) = 73.50481 73.01548 139.45733
#
# Poissons Ratio (x) = -0.05251 0.24009
# Poissons Ratio (y) = -0.05286 0.40439
# Poissons Ratio (z) = 0.12655 0.21172
#
# Static dielectric constant tensor:
#      x y z
#    x 1.897750 0.000000 -0.002900 
#    y 0.000000 1.830880 0.000000 
#    z -0.002900 0.000000 1.860100 
# 
# From -- ./inp_files/33050.got.cif
#   From: 2010.05.17/outbox.cif.g08.bks.cpg/sg11_17_cif.got.tgz:33050.got - 2010.06.03 12:22:45.
