data_PCOD9164868
_publ_section_title
;
Structure prediction by ZEFSAII (Michael W. Deem and Ramdas Pophale) SiO2 
 PCOD9164868
Probable space group: P 21/M
;
_chemical_formula_sum "Si O2"
_cell_formula_units_Z 28
_cell_length_a 22.097430
_cell_length_b 8.958310
_cell_length_c 15.524829
_cell_angle_alpha 90.000000
_cell_angle_beta 27.285247
_cell_angle_gamma 90.000000
_cell_volume 1408.831093
_symmetry_space_group_name_H-M "P 21/M"
_symmetry_group_IT_number 11
_symmetry_cell_setting 'monoclinic'
loop_
_space_group_symop_operation_xyz
x,y,z
-x,1/2+y,-z
-x,-y,-z
x,1/2-y,z
loop_
_atom_site_type_symbol
_atom_site_label
_atom_site_fract_x
_atom_site_fract_y
_atom_site_fract_z
Si Si1 0.534381 0.920551 0.369161
Si Si2 0.190380 0.418535 0.712471
Si Si3 0.424664 0.570455 0.013164
Si Si4 0.590786 0.070863 0.649134
Si Si5 0.140550 0.569959 0.293645
Si Si6 0.104734 0.582088 0.984675
Si Si7 0.166108 0.422221 0.074450
O O1 0.490925 0.750000 0.432371
O O2 0.465206 0.982554 0.371869
O O3 0.500000 0.000000 0.500000
O O4 0.687841 0.922702 0.150928
O O5 0.244412 0.250000 0.646013
O O6 0.259567 0.518136 0.551657
O O7 0.193621 0.492323 0.803343
O O8 0.037688 0.408167 0.879391
O O9 0.430846 0.750000 0.011171
O O10 0.508548 0.509409 0.826641
O O11 0.500000 0.500000 0.000000
O O12 0.269502 0.531073 0.190151
O O13 0.578506 0.250000 0.673222
O O14 0.130761 0.750000 0.304998
O O15 0.166307 0.507486 0.164845
O O16 0.000000 0.500000 0.500000
O O17 0.157311 0.750000 0.930437
O O18 0.086308 0.503034 0.099743
O O19 0.125318 0.250000 0.139506
#
# Coordination Sequence:
#
# PCOD9164868 Si02
#       7
#     4   4   4   4   4   4   4
#     4  10  22  36  56  88 124 162 200 246 303 364
#     4  10  21  37  57  85 123 166 212 260 312 375
#     4  11  25  45  70  98 128 168 216 271 334 398
#     4  11  22  39  62  89 123 162 206 257 315 377
#     4  11  25  45  70  98 128 168 216 271 334 398
#     4  10  21  37  57  85 123 166 212 260 312 375
#     4  11  22  39  62  89 123 162 206 257 315 377
#
# _framework density 19.874632999999999
#
# number of rings (size 3 to 8) (size 9 to 14) (size 15 to 20)
#    0.000    1.429    1.429    3.429    0.000    9.143 
#    0.000    0.000    0.000    0.000    0.000    0.000 
#    0.000    0.000    0.000    0.000    0.000    0.000 
#
# Total GULP energy -156276.215433 kJ/mol
# GULP energy per Si atom -5581.293408 kJ/mol
# Density = 1.982940 g / cm^3
# Si number density = 19.874633 Si / 1000 Ang^3
#
#
#
# Elastic Constant Matrix: (Units=GPa)
#
#
# Indices 1 2 3 4 5 6 
#
# 1 134.9042 65.8754 60.6938 0.0000 17.3129 0.0000
# 2 65.8754 105.9075 42.0174 0.0000 5.5623 0.0000
# 3 60.6938 42.0174 101.7919 0.0000 14.8703 0.0000
# 4 0.0000 0.0000 0.0000 30.8739 0.0000 7.2293
# 5 17.3129 5.5623 14.8703 0.0000 25.4668 0.0000
# 6 0.0000 0.0000 0.0000 7.2293 0.0000 33.8655
#
#
#
# Elastic Compliance Matrix: (Units=1/GPa)
#
#
# Indices 1 2 3 4 5 6 
#
# 1 0.013048 -0.006046 -0.004571 0.000000 -0.004881 0.000000
# 2 -0.006046 0.014095 -0.002584 0.000000 0.002541 0.000000
# 3 -0.004571 -0.002584 0.014300 0.000000 -0.004678 0.000000
# 4 0.000000 0.000000 0.000000 0.034094 0.000000 -0.007278
# 5 -0.004881 0.002541 -0.004678 0.000000 0.044761 0.000000
# 6 0.000000 0.000000 0.000000 -0.007278 0.000000 0.031082
#
#
# Mechanical properties :
#
#
# Convention : Reuss Voigt Hill
#
# Bulk Modulus (GPa) = 66.49214 75.53074 71.01144
# Shear Modulus (GPa) = 27.35296 29.64238 28.49767
#
# Velocity S-wave (km/s) = 3.71384 3.86614 3.79076
# Velocity P-wave (km/s) = 7.20545 7.61679 7.41398
#
# Compressibility (1/GPa) = 0.01503937
#
# Stress axis : x y z
#
# Youngs Moduli (GPa) = 76.64001 70.94872 69.93205
#
# Poissons Ratio (x) = 0.42896 0.31968
# Poissons Ratio (y) = 0.46337 0.18071
# Poissons Ratio (z) = 0.35034 0.18334
#
# Static dielectric constant tensor:
#      x y z
#    x 1.749760 0.000000 -0.083600 
#    y 0.000000 1.702240 0.000000 
#    z -0.083600 0.000000 1.746050 
# 
# From -- ./inp_files/54475.got.cif
#   From: 2010.05.17/outbox.cif.g08.bks.cpg/sg11_28_cif.got.tgz:54475.got - 2010.06.03 12:22:45.
