data_PCOD9164323
_publ_section_title
;
Structure prediction by ZEFSAII (Michael W. Deem and Ramdas Pophale) SiO2 
 PCOD9164323
Probable space group: P 21/M
;
_chemical_formula_sum "Si O2"
_cell_formula_units_Z 32
_cell_length_a 15.601082
_cell_length_b 8.784849
_cell_length_c 12.250544
_cell_angle_alpha 90.000000
_cell_angle_beta 91.564854
_cell_angle_gamma 90.000000
_cell_volume 1678.349473
_symmetry_space_group_name_H-M "P 21/M"
_symmetry_group_IT_number 11
_symmetry_cell_setting 'monoclinic'
loop_
_space_group_symop_operation_xyz
x,y,z
-x,1/2+y,-z
-x,-y,-z
x,1/2-y,z
loop_
_atom_site_type_symbol
_atom_site_label
_atom_site_fract_x
_atom_site_fract_y
_atom_site_fract_z
Si Si1 0.907508 0.071245 0.476402
Si Si2 0.589167 0.933762 0.463697
Si Si3 0.905249 0.567768 0.010791
Si Si4 0.147194 0.076834 0.742362
Si Si5 0.350352 0.425176 0.769052
Si Si6 0.754083 0.933358 0.614224
Si Si7 0.405224 0.930242 0.993522
Si Si8 0.247970 0.566191 0.141864
O O1 0.907489 0.250000 0.498817
O O2 0.886213 0.036828 0.349644
O O3 0.835835 0.991658 0.549118
O O4 0.000000 0.000000 0.500000
O O5 0.586889 0.750000 0.464044
O O6 0.604798 0.981377 0.339254
O O7 0.668618 0.978994 0.543817
O O8 0.500000 0.000000 0.500000
O O9 0.906080 0.750000 0.993469
O O10 0.878680 0.539331 0.135337
O O11 0.834129 0.494811 0.928644
O O12 0.000000 0.500000 0.000000
O O13 0.116912 0.250000 0.716517
O O14 0.249696 0.078092 0.740914
O O15 0.377550 0.250000 0.792991
O O16 0.367654 0.525481 0.874709
O O17 0.756617 0.750000 0.620276
O O18 0.753115 0.002064 0.735555
O O19 0.412894 0.750000 0.005391
O O20 0.335598 0.982292 0.081805
O O21 0.500000 0.000000 0.000000
O O22 0.245096 0.750000 0.143684
#
# Coordination Sequence:
#
# PCOD9164323 Si02
#       8
#     4   4   4   4   4   4   4   4
#     4  12  26  43  67  96 129 169 213 262 317 378
#     4  10  23  41  64  93 126 164 207 259 314 375
#     4  11  24  42  67  95 128 169 211 262 317 378
#     4  10  21  42  68  92 124 165 212 262 317 374
#     4  10  20  41  67  91 123 162 207 261 317 371
#     4  11  24  45  67  92 128 170 214 262 319 379
#     4  11  25  42  64  94 128 167 213 262 315 377
#     4  11  25  44  64  93 130 168 213 265 319 380
#
# _framework density 19.06635
#
# number of rings (size 3 to 8) (size 9 to 14) (size 15 to 20)
#    0.000    1.250    2.500    2.625    3.500    4.500 
#    0.000    0.000    0.000    0.000    0.000    0.000 
#    0.000    0.000    0.000    0.000    0.000    0.000 
#
# Total GULP energy -178863.757288 kJ/mol
# GULP energy per Si atom -5589.492415 kJ/mol
# Density = 1.902295 g / cm^3
# Si number density = 19.066350 Si / 1000 Ang^3
#
#
#
# Elastic Constant Matrix: (Units=GPa)
#
#
# Indices 1 2 3 4 5 6 
#
# 1 112.1585 35.3803 31.6691 0.0000 -5.4960 0.0000
# 2 35.3803 61.9687 37.5491 0.0000 0.9751 0.0000
# 3 31.6691 37.5491 94.7631 0.0000 -9.2948 0.0000
# 4 0.0000 0.0000 0.0000 33.1061 0.0000 2.2674
# 5 -5.4960 0.9751 -9.2948 0.0000 33.5480 0.0000
# 6 0.0000 0.0000 0.0000 2.2674 0.0000 34.7270
#
#
#
# Elastic Compliance Matrix: (Units=1/GPa)
#
#
# Indices 1 2 3 4 5 6 
#
# 1 0.011132 -0.005556 -0.001361 0.000000 0.001608 0.000000
# 2 -0.005556 0.024313 -0.008157 0.000000 -0.003877 0.000000
# 3 -0.001361 -0.008157 0.014639 0.000000 0.004070 0.000000
# 4 0.000000 0.000000 0.000000 0.030342 0.000000 -0.001981
# 5 0.001608 -0.003877 0.004070 0.000000 0.031312 0.000000
# 6 0.000000 0.000000 0.000000 -0.001981 0.000000 0.028925
#
#
# Mechanical properties :
#
#
# Convention : Reuss Voigt Hill
#
# Bulk Modulus (GPa) = 50.16280 53.12079 51.64180
# Shear Modulus (GPa) = 28.17592 31.22900 29.70246
#
# Velocity S-wave (km/s) = 3.84836 4.05150 3.95124
# Velocity P-wave (km/s) = 6.79067 7.05746 6.92535
#
# Compressibility (1/GPa) = 0.01993509
#
# Stress axis : x y z
#
# Youngs Moduli (GPa) = 89.83349 41.12981 68.31130
#
# Poissons Ratio (x) = 0.22853 0.09296
# Poissons Ratio (y) = 0.49914 0.55724
# Poissons Ratio (z) = 0.12224 0.33551
#
# Static dielectric constant tensor:
#      x y z
#    x 1.698050 0.000000 -0.067500 
#    y 0.000000 1.651100 0.000000 
#    z -0.067500 0.000000 1.669670 
# 
# From -- ./inp_files/38218.got.cif
#   From: 2010.05.17/outbox.cif.g08.bks.cpg/sg11_20_cif.got.tgz:38218.got - 2010.06.03 12:22:45.
