data_PCOD9164727
_publ_section_title
;
Structure prediction by ZEFSAII (Michael W. Deem and Ramdas Pophale) SiO2 
 PCOD9164727
Probable space group: P 21/M
;
_chemical_formula_sum "Si O2"
_cell_formula_units_Z 32
_cell_length_a 12.879746
_cell_length_b 8.345113
_cell_length_c 21.676436
_cell_angle_alpha 90.000000
_cell_angle_beta 35.083501
_cell_angle_gamma 90.000000
_cell_volume 1339.125291
_symmetry_space_group_name_H-M "P 21/M"
_symmetry_group_IT_number 11
_symmetry_cell_setting 'monoclinic'
loop_
_space_group_symop_operation_xyz
x,y,z
-x,1/2+y,-z
-x,-y,-z
x,1/2-y,z
loop_
_atom_site_type_symbol
_atom_site_label
_atom_site_fract_x
_atom_site_fract_y
_atom_site_fract_z
Si Si1 0.025641 0.942796 0.057532
Si Si2 0.694000 0.564495 0.987228
Si Si3 0.041143 0.938821 0.243139
Si Si4 0.299573 0.444381 0.523578
Si Si5 0.334205 0.061845 0.189834
Si Si6 0.654713 0.562355 0.285572
Si Si7 0.116700 0.424004 0.495989
Si Si8 0.510562 0.929874 0.755476
O O1 0.025555 0.750000 0.059358
O O2 0.860370 0.999692 0.182253
O O3 0.211013 0.009339 0.995359
O O4 0.000000 0.000000 0.000000
O O5 0.643220 0.750000 0.014058
O O6 0.846401 0.534849 0.862043
O O7 0.515402 0.460553 0.061599
O O8 0.044779 0.750000 0.225985
O O9 0.829460 0.984694 0.355628
O O10 0.165910 0.968522 0.243243
O O11 0.298852 0.250000 0.520767
O O12 0.503715 0.493178 0.406271
O O13 0.173610 0.514714 0.529908
O O14 0.288149 0.250000 0.218069
O O15 0.408971 0.003536 0.219823
O O16 0.658079 0.750000 0.297108
O O17 0.600579 0.533718 0.239568
O O18 0.038286 0.250000 0.550009
O O19 0.309705 0.403858 0.371198
O O20 0.000000 0.500000 0.500000
O O21 0.429096 0.750000 0.805276
#
# Coordination Sequence:
#
# PCOD9164727 Si02
#       8
#     4   4   4   4   4   4   4   4
#     4  11  24  43  67  97 127 158 197 247 305 363
#     4  12  26  43  63  89 120 158 203 252 304 364
#     4  11  23  41  63  88 120 160 205 254 302 358
#     4   9  20  37  57  81 115 158 201 245 299 357
#     4  11  22  38  61  89 122 162 204 252 306 363
#     4  10  21  36  59  90 123 156 198 251 303 357
#     4   9  16  27  43  70 105 142 184 229 276 332
#     4   9  19  33  51  78 115 154 192 234 288 350
#
# _framework density 23.896197000000001
#
# number of rings (size 3 to 8) (size 9 to 14) (size 15 to 20)
#    0.000    1.750    0.000    5.250    0.000    8.000 
#    0.000    0.625    0.000    0.000    0.000    0.000 
#    0.000    0.000    0.000    0.000    0.000    0.000 
#
# Total GULP energy -178532.259558 kJ/mol
# GULP energy per Si atom -5579.133111 kJ/mol
# Density = 2.384181 g / cm^3
# Si number density = 23.896197 Si / 1000 Ang^3
#
#
#
# Elastic Constant Matrix: (Units=GPa)
#
#
# Indices 1 2 3 4 5 6 
#
# 1 48.9491 -10.8773 13.6146 0.0000 -14.0029 0.0000
# 2 -10.8773 40.1883 2.2526 0.0000 -7.4729 0.0000
# 3 13.6146 2.2526 127.6495 0.0000 -5.4635 0.0000
# 4 0.0000 0.0000 0.0000 29.2168 0.0000 4.8368
# 5 -14.0029 -7.4729 -5.4635 0.0000 31.7607 0.0000
# 6 0.0000 0.0000 0.0000 4.8368 0.0000 19.2609
#
#
#
# Elastic Compliance Matrix: (Units=1/GPa)
#
#
# Indices 1 2 3 4 5 6 
#
# 1 0.027402 0.010168 -0.002501 0.000000 0.014043 0.000000
# 2 0.010168 0.029799 -0.001127 0.000000 0.011301 0.000000
# 3 -0.002501 -0.001127 0.008122 0.000000 0.000029 0.000000
# 4 0.000000 0.000000 0.000000 0.035711 0.000000 -0.008968
# 5 0.014043 0.011301 0.000029 0.000000 0.040341 0.000000
# 6 0.000000 0.000000 0.000000 -0.008968 0.000000 0.054171
#
#
# Mechanical properties :
#
#
# Convention : Reuss Voigt Hill
#
# Bulk Modulus (GPa) = 12.75444 25.19629 18.97536
# Shear Modulus (GPa) = 23.96932 30.16749 27.06841
#
# Velocity S-wave (km/s) = 3.17055 3.55694 3.36929
# Velocity P-wave (km/s) = 4.33038 5.23794 4.80563
#
# Compressibility (1/GPa) = 0.07840408
#
# Stress axis : x y z
#
# Youngs Moduli (GPa) = 36.49378 33.55772 123.12493
#
# Poissons Ratio (x) = -0.34122 0.30793
# Poissons Ratio (y) = -0.37107 0.13872
# Poissons Ratio (z) = 0.09127 0.03781
#
# Static dielectric constant tensor:
#      x y z
#    x 2.655340 0.000000 0.251160 
#    y 0.000000 1.853330 0.000000 
#    z 0.251160 0.000000 2.041210 
# 
# From -- ./inp_files/69013.got.cif
#   From: 2010.05.17/outbox.cif.g08.bks.cpg/sg11_35_cif.got.tgz:69013.got - 2010.06.03 12:22:45.
