data_PCOD9164765
_publ_section_title
;
Structure prediction by ZEFSAII (Michael W. Deem and Ramdas Pophale) SiO2 
 PCOD9164765
Probable space group: P 21/M
;
_chemical_formula_sum "Si O2"
_cell_formula_units_Z 24
_cell_length_a 6.952178
_cell_length_b 19.240620
_cell_length_c 9.580867
_cell_angle_alpha 90.000000
_cell_angle_beta 56.186498
_cell_angle_gamma 90.000000
_cell_volume 1064.802675
_symmetry_space_group_name_H-M "P 21/M"
_symmetry_group_IT_number 11
_symmetry_cell_setting 'monoclinic'
loop_
_space_group_symop_operation_xyz
x,y,z
-x,1/2+y,-z
-x,-y,-z
x,1/2-y,z
loop_
_atom_site_type_symbol
_atom_site_label
_atom_site_fract_x
_atom_site_fract_y
_atom_site_fract_z
Si Si1 0.870372 0.327478 0.772499
Si Si2 0.312094 0.537343 0.479589
Si Si3 0.557981 0.830203 0.867349
Si Si4 0.086374 0.827421 0.579350
Si Si5 0.614935 0.477851 0.147142
Si Si6 0.011935 0.976166 0.200133
O O1 0.946247 0.250000 0.787032
O O2 0.925437 0.332653 0.585480
O O3 0.991044 0.392371 0.799788
O O4 0.597440 0.332005 0.927694
O O5 0.500000 0.500000 0.500000
O O6 0.276320 0.616000 0.538873
O O7 0.410605 0.526220 0.286085
O O8 0.072205 0.500939 0.615870
O O9 0.524277 0.750000 0.826816
O O10 0.460919 0.897165 0.823378
O O11 0.836294 0.839886 0.752000
O O12 0.159328 0.750000 0.586193
O O13 0.827874 0.490102 0.168466
O O14 0.735111 0.498113 0.952990
#
# Coordination Sequence:
#
# PCOD9164765 Si02
#       6
#     4   4   4   4   4   4
#     4   9  18  33  54  80 109 142 179 218 262 311
#     4  10  21  37  53  74 105 138 175 218 266 323
#     4   9  18  33  54  80 109 142 179 218 262 311
#     4  10  21  37  56  78 105 136 173 219 269 321
#     4   9  18  33  52  77 110 145 181 217 255 305
#     4   9  18  33  52  77 110 145 181 217 255 305
#
# _framework density 22.539387999999999
#
# number of rings (size 3 to 8) (size 9 to 14) (size 15 to 20)
#    0.000    2.667    0.000    1.000    0.000    4.000 
#    0.000   10.000    0.000    2.000    0.000    0.000 
#    0.000    0.000    0.000    0.000    0.000    0.000 
#
# Total GULP energy -133747.892754 kJ/mol
# GULP energy per Si atom -5572.828865 kJ/mol
# Density = 2.248809 g / cm^3
# Si number density = 22.539388 Si / 1000 Ang^3
#
#
#
# Elastic Constant Matrix: (Units=GPa)
#
#
# Indices 1 2 3 4 5 6 
#
# 1 53.8293 22.9547 14.2923 0.0000 -8.6539 0.0000
# 2 22.9547 143.5717 24.3868 0.0000 -15.1296 0.0000
# 3 14.2923 24.3868 153.3564 0.0000 -22.3264 0.0000
# 4 0.0000 0.0000 0.0000 41.4421 0.0000 -14.7765
# 5 -8.6539 -15.1296 -22.3264 0.0000 26.5041 0.0000
# 6 0.0000 0.0000 0.0000 -14.7765 0.0000 44.5089
#
#
#
# Elastic Compliance Matrix: (Units=1/GPa)
#
#
# Indices 1 2 3 4 5 6 
#
# 1 0.020671 -0.002687 -0.000843 0.000000 0.004505 0.000000
# 2 -0.002687 0.007816 -0.000536 0.000000 0.003132 0.000000
# 3 -0.000843 -0.000536 0.007523 0.000000 0.005755 0.000000
# 4 0.000000 0.000000 0.000000 0.027370 0.000000 0.009087
# 5 0.004505 0.003132 0.005755 0.000000 0.045837 0.000000
# 6 0.000000 0.000000 0.000000 0.009087 0.000000 0.025484
#
#
# Mechanical properties :
#
#
# Convention : Reuss Voigt Hill
#
# Bulk Modulus (GPa) = 35.87279 52.66944 44.27111
# Shear Modulus (GPa) = 32.86738 41.76592 37.31665
#
# Velocity S-wave (km/s) = 3.82281 4.30934 4.07334
# Velocity P-wave (km/s) = 5.95275 6.94111 6.46585
#
# Compressibility (1/GPa) = 0.02787628
#
# Stress axis : x y z
#
# Youngs Moduli (GPa) = 48.37631 127.94295 132.93401
#
# Poissons Ratio (x) = 0.34378 0.11210
# Poissons Ratio (y) = 0.12999 0.07131
# Poissons Ratio (z) = 0.04080 0.06863
#
# Static dielectric constant tensor:
#      x y z
#    x 6.969070 0.000000 1.320080 
#    y 0.000000 1.843690 0.000000 
#    z 1.320080 0.000000 2.287680 
# 
# From -- ./inp_files/32185.got.cif
#   From: 2010.05.17/outbox.cif.g08.bks.cpg/sg11_17_cif.got.tgz:32185.got - 2010.06.03 12:22:45.
