data_PCOD9164561
_publ_section_title
;
Structure prediction by ZEFSAII (Michael W. Deem and Ramdas Pophale) SiO2 
 PCOD9164561
Probable space group: P 21/M
;
_chemical_formula_sum "Si O2"
_cell_formula_units_Z 24
_cell_length_a 19.444356
_cell_length_b 9.145589
_cell_length_c 9.510543
_cell_angle_alpha 90.000000
_cell_angle_beta 60.631312
_cell_angle_gamma 90.000000
_cell_volume 1473.903189
_symmetry_space_group_name_H-M "P 21/M"
_symmetry_group_IT_number 11
_symmetry_cell_setting 'monoclinic'
loop_
_space_group_symop_operation_xyz
x,y,z
-x,1/2+y,-z
-x,-y,-z
x,1/2-y,z
loop_
_atom_site_type_symbol
_atom_site_label
_atom_site_fract_x
_atom_site_fract_y
_atom_site_fract_z
Si Si1 0.776980 0.576669 0.082521
Si Si2 0.917443 0.421278 0.061978
Si Si3 0.501917 0.424285 0.346453
Si Si4 0.653215 0.575995 0.684467
Si Si5 0.364916 0.075376 0.974069
Si Si6 0.764702 0.420944 0.371596
O O1 0.786961 0.750000 0.091153
O O2 0.721621 0.549711 0.005270
O O3 0.734795 0.509204 0.263724
O O4 0.861904 0.497593 0.000075
O O5 0.927872 0.250000 0.022428
O O6 0.859459 0.434776 0.256382
O O7 0.000000 0.500000 0.000000
O O8 0.500000 0.500000 0.500000
O O9 0.510788 0.250000 0.353784
O O10 0.420944 0.452515 0.342681
O O11 0.572084 0.489180 0.181672
O O12 0.669056 0.750000 0.667560
O O13 0.727230 0.490608 0.546140
O O14 0.633356 0.533801 0.864121
O O15 0.380738 0.250000 0.946950
O O16 0.744897 0.250000 0.379682
#
# Coordination Sequence:
#
# PCOD9164561 Si02
#       6
#     4   4   4   4   4   4
#     4   9  17  31  52  75 102 133 167 210 257 301
#     4   9  18  31  52  81 107 131 168 211 253 303
#     4  11  23  36  53  75 102 137 177 221 261 302
#     4  10  21  36  52  73 103 139 176 213 260 309
#     4  10  21  36  53  75 103 137 176 215 258 309
#     4   9  19  32  50  77 104 131 170 212 252 302
#
# _framework density 16.283294999999999
#
# number of rings (size 3 to 8) (size 9 to 14) (size 15 to 20)
#    1.000    1.333    0.000    3.000    0.000    7.333 
#    0.000    0.000    0.000    1.000    0.000    0.000 
#    0.000    0.000    0.000    0.000    0.000    0.000 
#
# Total GULP energy -133649.583544 kJ/mol
# GULP energy per Si atom -5568.732648 kJ/mol
# Density = 1.624623 g / cm^3
# Si number density = 16.283295 Si / 1000 Ang^3
#
#
#
# Elastic Constant Matrix: (Units=GPa)
#
#
# Indices 1 2 3 4 5 6 
#
# 1 87.7767 67.7826 65.9395 0.0000 -3.9283 0.0000
# 2 67.7826 89.3545 64.1272 0.0000 -4.6662 0.0000
# 3 65.9395 64.1272 109.1073 0.0000 14.4007 0.0000
# 4 0.0000 0.0000 0.0000 30.1012 0.0000 -5.7605
# 5 -3.9283 -4.6662 14.4007 0.0000 20.1935 0.0000
# 6 0.0000 0.0000 0.0000 -5.7605 0.0000 21.0761
#
#
#
# Elastic Compliance Matrix: (Units=1/GPa)
#
#
# Indices 1 2 3 4 5 6 
#
# 1 0.033589 -0.015873 -0.012528 0.000000 0.011801 0.000000
# 2 -0.015873 0.031175 -0.010237 0.000000 0.011416 0.000000
# 3 -0.012528 -0.010237 0.025818 0.000000 -0.023214 0.000000
# 4 0.000000 0.000000 0.000000 0.035055 0.000000 0.009581
# 5 0.011801 0.011416 -0.023214 0.000000 0.071009 0.000000
# 6 0.000000 0.000000 0.000000 0.009581 0.000000 0.050066
#
#
# Mechanical properties :
#
#
# Convention : Reuss Voigt Hill
#
# Bulk Modulus (GPa) = 75.15513 75.77079 75.46296
# Shear Modulus (GPa) = 15.22424 20.16677 17.69550
#
# Velocity S-wave (km/s) = 3.06103 3.52304 3.30013
# Velocity P-wave (km/s) = 7.66473 7.94877 7.80804
#
# Compressibility (1/GPa) = 0.01330581
#
# Stress axis : x y z
#
# Youngs Moduli (GPa) = 29.77131 32.07685 38.73329
#
# Poissons Ratio (x) = 0.50915 0.48526
# Poissons Ratio (y) = 0.47255 0.39651
# Poissons Ratio (z) = 0.37299 0.32837
#
# Static dielectric constant tensor:
#      x y z
#    x 1.545710 0.000000 -0.004300 
#    y 0.000000 1.545080 0.000000 
#    z -0.004300 0.000000 1.533750 
# 
# From -- ./inp_files/25518.got.cif
#   From: 2010.05.17/outbox.cif.g08.bks.cpg/sg11_13_cif.got.tgz:25518.got - 2010.06.03 12:22:45.
