data_PCOD9164687
_publ_section_title
;
Structure prediction by ZEFSAII (Michael W. Deem and Ramdas Pophale) SiO2 
 PCOD9164687
Probable space group: P 21/M
;
_chemical_formula_sum "Si O2"
_cell_formula_units_Z 32
_cell_length_a 16.067912
_cell_length_b 13.974424
_cell_length_c 12.523569
_cell_angle_alpha 90.000000
_cell_angle_beta 152.044428
_cell_angle_gamma 90.000000
_cell_volume 1318.247089
_symmetry_space_group_name_H-M "P 21/M"
_symmetry_group_IT_number 11
_symmetry_cell_setting 'monoclinic'
loop_
_space_group_symop_operation_xyz
x,y,z
-x,1/2+y,-z
-x,-y,-z
x,1/2-y,z
loop_
_atom_site_type_symbol
_atom_site_label
_atom_site_fract_x
_atom_site_fract_y
_atom_site_fract_z
Si Si1 0.148512 0.636268 0.464135
Si Si2 0.093567 0.633013 0.808705
Si Si3 0.283343 0.132897 0.689355
Si Si4 0.020018 0.907919 0.095810
Si Si5 0.704588 0.355792 0.758348
Si Si6 0.671271 0.133115 0.122024
Si Si7 0.631680 0.635781 0.748700
Si Si8 0.753142 0.864001 0.109618
O O1 0.175746 0.750000 0.472471
O O2 0.289699 0.603533 0.712082
O O3 0.130367 0.585793 0.330397
O O4 0.958695 0.627769 0.308477
O O5 0.093574 0.750000 0.813549
O O6 0.185212 0.602917 0.802337
O O7 0.889562 0.602137 0.571442
O O8 0.205201 0.596511 0.036124
O O9 0.276536 0.250000 0.683627
O O10 0.273327 0.099084 0.801075
O O11 0.475053 0.106333 0.862937
O O12 0.140944 0.846081 0.153871
O O13 0.822779 0.875690 0.907590
O O14 0.000000 0.000000 0.000000
O O15 0.646409 0.250000 0.729286
O O16 0.533945 0.400565 0.507968
O O17 0.681894 0.250000 0.137064
O O18 0.603697 0.750000 0.727584
O O19 0.643350 0.598294 0.883694
O O20 0.714775 0.750000 0.073250
#
# Coordination Sequence:
#
# PCOD9164687 Si02
#       8
#     4   4   4   4   4   4   4   4
#     4   9  16  30  52  76 106 134 171 226 272 315
#     4   9  17  30  45  73 111 138 168 213 265 321
#     4   9  15  23  41  72 106 134 160 205 270 324
#     4  11  23  37  54  79 113 148 184 226 276 330
#     4  10  21  36  58  81 108 148 186 220 267 330
#     4   9  16  25  44  74 103 131 165 215 274 319
#     4   9  19  35  56  83 110 138 181 231 274 321
#     4   8  13  24  43  70 104 130 156 210 270 312
#
# _framework density 24.274661999999999
#
# number of rings (size 3 to 8) (size 9 to 14) (size 15 to 20)
#    0.000    2.750    1.250    1.875    1.750    1.500 
#    0.000    3.750    0.000    0.750    0.000    1.750 
#    0.000    0.000    0.000    0.000    0.000    0.000 
#
# Total GULP energy -178864.951377 kJ/mol
# GULP energy per Si atom -5589.529731 kJ/mol
# Density = 2.421941 g / cm^3
# Si number density = 24.274662 Si / 1000 Ang^3
#
#
#
# Elastic Constant Matrix: (Units=GPa)
#
#
# Indices 1 2 3 4 5 6 
#
# 1 48.2012 11.2384 16.6692 0.0000 -20.8028 0.0000
# 2 11.2384 76.9082 7.6790 0.0000 -7.1597 0.0000
# 3 16.6692 7.6790 158.9496 0.0000 -21.5588 0.0000
# 4 0.0000 0.0000 0.0000 7.0249 0.0000 -3.4858
# 5 -20.8028 -7.1597 -21.5588 0.0000 33.2760 0.0000
# 6 0.0000 0.0000 0.0000 -3.4858 0.0000 41.8807
#
#
#
# Elastic Compliance Matrix: (Units=1/GPa)
#
#
# Indices 1 2 3 4 5 6 
#
# 1 0.028960 -0.002575 -0.000583 0.000000 0.017172 0.000000
# 2 -0.002575 0.013508 -0.000227 0.000000 0.001150 0.000000
# 3 -0.000583 -0.000227 0.006915 0.000000 0.004067 0.000000
# 4 0.000000 0.000000 0.000000 0.148484 0.000000 0.012359
# 5 0.017172 0.001150 0.004067 0.000000 0.043669 0.000000
# 6 0.000000 0.000000 0.000000 0.012359 0.000000 0.024906
#
#
# Mechanical properties :
#
#
# Convention : Reuss Voigt Hill
#
# Bulk Modulus (GPa) = 23.46686 39.47024 31.46855
# Shear Modulus (GPa) = 17.39634 33.00114 25.19874
#
# Velocity S-wave (km/s) = 2.67993 3.69113 3.22540
# Velocity P-wave (km/s) = 4.38910 5.87035 5.18292
#
# Compressibility (1/GPa) = 0.04261329
#
# Stress axis : x y z
#
# Youngs Moduli (GPa) = 34.53059 74.02772 144.61317
#
# Poissons Ratio (x) = 0.19061 0.08438
# Poissons Ratio (y) = 0.08891 0.03277
# Poissons Ratio (z) = 0.02015 0.01677
#
# Static dielectric constant tensor:
#      x y z
#    x 1.882270 0.000000 0.009490 
#    y 0.000000 2.033960 0.000000 
#    z 0.009490 0.000000 1.926070 
# 
# From -- ./inp_files/40008.got.cif
#   From: 2010.05.17/outbox.cif.g08.bks.cpg/sg11_21_cif.got.tgz:40008.got - 2010.06.03 12:22:45.
