data_PCOD9164923
_publ_section_title
;
Structure prediction by ZEFSAII (Michael W. Deem and Ramdas Pophale) SiO2 
 PCOD9164923
Probable space group: P 21/M
;
_chemical_formula_sum "Si O2"
_cell_formula_units_Z 32
_cell_length_a 12.641136
_cell_length_b 8.493792
_cell_length_c 20.783600
_cell_angle_alpha 90.000000
_cell_angle_beta 126.415693
_cell_angle_gamma 90.000000
_cell_volume 1795.805751
_symmetry_space_group_name_H-M "P 21/M"
_symmetry_group_IT_number 11
_symmetry_cell_setting 'monoclinic'
loop_
_space_group_symop_operation_xyz
x,y,z
-x,1/2+y,-z
-x,-y,-z
x,1/2-y,z
loop_
_atom_site_type_symbol
_atom_site_label
_atom_site_fract_x
_atom_site_fract_y
_atom_site_fract_z
Si Si1 0.392764 0.563007 0.122631
Si Si2 0.356606 0.939444 0.469105
Si Si3 0.618369 0.059200 0.378601
Si Si4 0.642146 0.562881 0.028790
Si Si5 0.317753 0.559299 0.737306
Si Si6 0.854050 0.440405 0.206689
Si Si7 0.848823 0.559456 0.709889
Si Si8 0.678209 0.559991 0.768034
O O1 0.396483 0.750000 0.118461
O O2 0.541513 0.499574 0.186063
O O3 0.315245 0.512562 0.158803
O O4 0.337265 0.490854 0.037116
O O5 0.358127 0.750000 0.468582
O O6 0.333250 0.994382 0.534337
O O7 0.500000 0.000000 0.500000
O O8 0.247662 0.000714 0.380736
O O9 0.623160 0.250000 0.381036
O O10 0.692923 0.006503 0.340843
O O11 0.464938 0.016537 0.312979
O O12 0.640071 0.750000 0.031797
O O13 0.753933 0.497122 0.116005
O O14 0.500000 0.500000 0.000000
O O15 0.322260 0.750000 0.739207
O O16 0.204742 0.508336 0.745562
O O17 0.854482 0.250000 0.206264
O O18 0.002329 0.494704 0.247596
O O19 0.846900 0.750000 0.708197
O O20 0.788562 0.510757 0.757005
O O21 0.679868 0.750000 0.774765
#
# Coordination Sequence:
#
# PCOD9164923 Si02
#       8
#     4   4   4   4   4   4   4   4
#     4  11  21  33  54  85 113 138 182 234 277 326
#     4  11  20  33  54  81 111 146 190 237 282 330
#     4   8  15  29  51  77 105 141 182 224 275 330
#     4  12  23  37  58  84 114 146 185 230 278 328
#     4   9  17  33  55  78 108 146 184 223 280 333
#     4  10  21  37  59  83 111 148 188 230 278 336
#     4  10  21  38  57  81 114 151 188 228 281 340
#     4   9  17  34  55  76 109 148 183 223 281 334
#
# _framework density 17.819298
#
# number of rings (size 3 to 8) (size 9 to 14) (size 15 to 20)
#    0.000    2.000    2.500    3.375    0.000    1.000 
#    0.000    1.875    0.000    0.000    0.000    0.000 
#    0.000    0.000    0.000    0.000    0.000    0.000 
#
# Total GULP energy -178573.870663 kJ/mol
# GULP energy per Si atom -5580.433458 kJ/mol
# Density = 1.777874 g / cm^3
# Si number density = 17.819298 Si / 1000 Ang^3
#
#
#
# Elastic Constant Matrix: (Units=GPa)
#
#
# Indices 1 2 3 4 5 6 
#
# 1 173.6507 27.0412 91.4896 0.0000 -14.4139 0.0000
# 2 27.0412 17.4492 12.4198 0.0000 0.2181 0.0000
# 3 91.4896 12.4198 115.1976 0.0000 -10.3141 0.0000
# 4 0.0000 0.0000 0.0000 27.9477 0.0000 -3.4379
# 5 -14.4139 0.2181 -10.3141 0.0000 31.1286 0.0000
# 6 0.0000 0.0000 0.0000 -3.4379 0.0000 15.9995
#
#
#
# Elastic Compliance Matrix: (Units=1/GPa)
#
#
# Indices 1 2 3 4 5 6 
#
# 1 0.012386 -0.013466 -0.008104 0.000000 0.003145 0.000000
# 2 -0.013466 0.076940 0.001848 0.000000 -0.006162 0.000000
# 3 -0.008104 0.001848 0.015026 0.000000 0.001213 0.000000
# 4 0.000000 0.000000 0.000000 0.036753 0.000000 0.007897
# 5 0.003145 -0.006162 0.001213 0.000000 0.034026 0.000000
# 6 0.000000 0.000000 0.000000 0.007897 0.000000 0.064199
#
#
# Mechanical properties :
#
#
# Convention : Reuss Voigt Hill
#
# Bulk Modulus (GPa) = 15.40639 63.13318 39.26978
# Shear Modulus (GPa) = 16.64395 26.70497 21.67446
#
# Velocity S-wave (km/s) = 3.05952 3.87545 3.49140
# Velocity P-wave (km/s) = 4.59843 7.45198 6.19183
#
# Compressibility (1/GPa) = 0.06490815
#
# Stress axis : x y z
#
# Youngs Moduli (GPa) = 80.73464 12.99718 66.55103
#
# Poissons Ratio (x) = 0.17503 0.53931
# Poissons Ratio (y) = 1.08721 -0.12300
# Poissons Ratio (z) = 0.65425 -0.02402
#
# Static dielectric constant tensor:
#      x y z
#    x 1.625500 0.000000 -0.028630 
#    y 0.000000 1.604150 0.000000 
#    z -0.028630 0.000000 1.583150 
# 
# From -- ./inp_files/64425.got.cif
#   From: 2010.05.17/outbox.cif.g08.bks.cpg/sg11_33_cif.got.tgz:64425.got - 2010.06.03 12:22:45.
