data_PCOD9164599
_publ_section_title
;
Structure prediction by ZEFSAII (Michael W. Deem and Ramdas Pophale) SiO2 
 PCOD9164599
Probable space group: P 21/M
;
_chemical_formula_sum "Si O2"
_cell_formula_units_Z 32
_cell_length_a 24.602208
_cell_length_b 9.177986
_cell_length_c 16.286057
_cell_angle_alpha 90.000000
_cell_angle_beta 150.727977
_cell_angle_gamma 90.000000
_cell_volume 1798.074630
_symmetry_space_group_name_H-M "P 21/M"
_symmetry_group_IT_number 11
_symmetry_cell_setting 'monoclinic'
loop_
_space_group_symop_operation_xyz
x,y,z
-x,1/2+y,-z
-x,-y,-z
x,1/2-y,z
loop_
_atom_site_type_symbol
_atom_site_label
_atom_site_fract_x
_atom_site_fract_y
_atom_site_fract_z
Si Si1 0.565483 0.425262 0.470127
Si Si2 0.322868 0.576340 0.557266
Si Si3 0.667607 0.575536 0.765100
Si Si4 0.260414 0.586258 0.749899
Si Si5 0.475180 0.078635 0.052045
Si Si6 0.111068 0.925012 0.880121
Si Si7 0.086229 0.591044 0.663688
Si Si8 0.849470 0.925385 0.553284
O O1 0.575887 0.250000 0.495316
O O2 0.629307 0.462312 0.469743
O O3 0.622112 0.509507 0.619956
O O4 0.432337 0.457181 0.300742
O O5 0.296958 0.750000 0.523355
O O6 0.219907 0.487890 0.460513
O O7 0.426138 0.551690 0.754732
O O8 0.677707 0.750000 0.773536
O O9 0.787255 0.505360 0.941673
O O10 0.294414 0.750000 0.765940
O O11 0.358955 0.493421 0.918944
O O12 0.182123 0.604627 0.724365
O O13 0.201554 0.503722 0.595698
O O14 0.462750 0.250000 0.025219
O O15 0.500000 0.000000 0.000000
O O16 0.127446 0.750000 0.909763
O O17 0.119767 0.969347 0.795761
O O18 0.982324 0.956281 0.735047
O O19 0.036676 0.750000 0.617448
O O20 0.000000 0.500000 0.500000
O O21 0.835480 0.750000 0.528293
#
# Coordination Sequence:
#
# PCOD9164599 Si02
#       8
#     4   4   4   4   4   4   4   4
#     4   9  20  41  64  87 117 149 179 228 291 342
#     4  10  22  39  59  83 114 151 192 235 284 339
#     4  10  21  38  64  93 115 143 184 230 283 344
#     4  11  22  35  52  77 112 153 195 239 285 336
#     4  11  22  35  54  80 113 152 193 235 281 334
#     4  10  22  39  57  83 117 153 190 232 287 341
#     4  10  21  36  54  79 112 152 196 237 282 333
#     4  11  22  37  58  81 113 155 196 237 283 334
#
# _framework density 17.796814999999999
#
# number of rings (size 3 to 8) (size 9 to 14) (size 15 to 20)
#    0.000    1.750    2.500    1.500    1.750    3.500 
#    0.000    0.625    0.000    0.000    0.000    0.000 
#    0.000    0.000    0.000    0.000    0.000    0.000 
#
# Total GULP energy -178309.105769 kJ/mol
# GULP energy per Si atom -5572.159555 kJ/mol
# Density = 1.775631 g / cm^3
# Si number density = 17.796815 Si / 1000 Ang^3
#
#
#
# Elastic Constant Matrix: (Units=GPa)
#
#
# Indices 1 2 3 4 5 6 
#
# 1 134.2634 54.3648 51.2331 0.0000 10.3811 0.0000
# 2 54.3648 70.8980 68.3205 0.0000 11.1122 0.0000
# 3 51.2331 68.3205 105.0583 0.0000 16.6499 0.0000
# 4 0.0000 0.0000 0.0000 32.8373 0.0000 2.2412
# 5 10.3811 11.1122 16.6499 0.0000 26.4372 0.0000
# 6 0.0000 0.0000 0.0000 2.2412 0.0000 22.4028
#
#
#
# Elastic Compliance Matrix: (Units=1/GPa)
#
#
# Indices 1 2 3 4 5 6 
#
# 1 0.010826 -0.008599 0.000459 0.000000 -0.000926 0.000000
# 2 -0.008599 0.044616 -0.024866 0.000000 0.000284 0.000000
# 3 0.000459 -0.024866 0.026480 0.000000 -0.006406 0.000000
# 4 0.000000 0.000000 0.000000 0.030663 0.000000 -0.003068
# 5 -0.000926 0.000284 -0.006406 0.000000 0.042104 0.000000
# 6 0.000000 0.000000 0.000000 -0.003068 0.000000 0.044944
#
#
# Mechanical properties :
#
#
# Convention : Reuss Voigt Hill
#
# Bulk Modulus (GPa) = 62.84840 73.11741 67.98290
# Shear Modulus (GPa) = 18.45378 25.42221 21.93800
#
# Velocity S-wave (km/s) = 3.22361 3.78361 3.51478
# Velocity P-wave (km/s) = 7.01759 7.76282 7.39959
#
# Compressibility (1/GPa) = 0.01591130
#
# Stress axis : x y z
#
# Youngs Moduli (GPa) = 92.36814 22.41367 37.76422
#
# Poissons Ratio (x) = 0.19273 -0.01734
# Poissons Ratio (y) = 0.79427 0.93903
# Poissons Ratio (z) = -0.04241 0.55733
#
# Static dielectric constant tensor:
#      x y z
#    x 1.486600 0.000000 -0.098910 
#    y 0.000000 1.886900 0.000000 
#    z -0.098910 0.000000 1.490570 
# 
# From -- ./inp_files/55691.got.cif
#   From: 2010.05.17/outbox.cif.g08.bks.cpg/sg11_28_cif.got.tgz:55691.got - 2010.06.03 12:22:45.
