data_PCOD9164917
_publ_section_title
;
Structure prediction by ZEFSAII (Michael W. Deem and Ramdas Pophale) SiO2 
 PCOD9164917
Probable space group: P 21/M
;
_chemical_formula_sum "Si O2"
_cell_formula_units_Z 32
_cell_length_a 12.330649
_cell_length_b 19.272816
_cell_length_c 8.519902
_cell_angle_alpha 90.000000
_cell_angle_beta 128.917643
_cell_angle_gamma 90.000000
_cell_volume 1575.335551
_symmetry_space_group_name_H-M "P 21/M"
_symmetry_group_IT_number 11
_symmetry_cell_setting 'monoclinic'
loop_
_space_group_symop_operation_xyz
x,y,z
-x,1/2+y,-z
-x,-y,-z
x,1/2-y,z
loop_
_atom_site_type_symbol
_atom_site_label
_atom_site_fract_x
_atom_site_fract_y
_atom_site_fract_z
Si Si1 0.417126 0.558291 0.232950
Si Si2 0.336379 0.550830 0.500201
Si Si3 0.367496 0.130994 0.779892
Si Si4 0.130609 0.326055 0.339720
Si Si5 0.720436 0.826911 0.858357
Si Si6 0.212996 0.038932 0.871290
Si Si7 0.956618 0.522325 0.781554
Si Si8 0.441420 0.825730 0.756649
O O1 0.348881 0.579718 0.334611
O O2 0.523905 0.493976 0.351667
O O3 0.515086 0.614237 0.241031
O O4 0.297770 0.526296 0.015852
O O5 0.202277 0.502118 0.382316
O O6 0.338213 0.611114 0.631434
O O7 0.239429 0.170034 0.582654
O O8 0.291933 0.063151 0.786242
O O9 0.455697 0.164752 0.001365
O O10 0.060973 0.250000 0.278038
O O11 0.222161 0.330956 0.264163
O O12 0.037209 0.395127 0.244720
O O13 0.761104 0.750000 0.958980
O O14 0.553236 0.829241 0.715841
O O15 0.772760 0.893042 0.003387
O O16 0.053429 0.016795 0.743326
O O17 0.000000 0.500000 0.000000
O O18 0.375503 0.750000 0.702777
#
# Coordination Sequence:
#
# PCOD9164917 Si02
#       8
#     4   4   4   4   4   4   4   4
#     4  11  20  36  62  93 118 150 207 259 302 343
#     4  11  21  37  65  89 121 153 204 259 296 356
#     4  11  22  36  62  93 123 158 203 253 304 365
#     4  11  22  38  61  89 123 161 203 252 301 364
#     4   9  17  33  58  86 117 155 204 250 298 351
#     4  11  22  38  61  91 124 160 202 250 302 363
#     4  12  23  41  64  93 121 159 208 252 299 360
#     4  10  21  37  58  89 125 161 198 251 311 360
#
# _framework density 20.313132
#
# number of rings (size 3 to 8) (size 9 to 14) (size 15 to 20)
#    0.000    1.250    6.250    1.500    0.000    1.000 
#    0.000    1.875    0.000    3.000    0.000    0.000 
#    0.000    0.000    0.000    0.000    0.000    0.000 
#
# Total GULP energy -178475.878372 kJ/mol
# GULP energy per Si atom -5577.371199 kJ/mol
# Density = 2.026690 g / cm^3
# Si number density = 20.313132 Si / 1000 Ang^3
#
#
#
# Elastic Constant Matrix: (Units=GPa)
#
#
# Indices 1 2 3 4 5 6 
#
# 1 47.6011 -6.7516 3.9146 0.0000 6.5371 0.0000
# 2 -6.7516 108.1740 30.2418 0.0000 7.2898 0.0000
# 3 3.9146 30.2418 51.7166 0.0000 -9.0532 0.0000
# 4 0.0000 0.0000 0.0000 14.5549 0.0000 5.5624
# 5 6.5371 7.2898 -9.0532 0.0000 11.4399 0.0000
# 6 0.0000 0.0000 0.0000 5.5624 0.0000 15.2501
#
#
#
# Elastic Compliance Matrix: (Units=1/GPa)
#
#
# Indices 1 2 3 4 5 6 
#
# 1 0.026645 0.006539 -0.010720 0.000000 -0.027876 0.000000
# 2 0.006539 0.015041 -0.013492 0.000000 -0.023998 0.000000
# 3 -0.010720 -0.013492 0.035537 0.000000 0.042846 0.000000
# 4 0.000000 0.000000 0.000000 0.079834 0.000000 -0.029119
# 5 -0.027876 -0.023998 0.042846 0.000000 0.152542 0.000000
# 6 0.000000 0.000000 0.000000 -0.029119 0.000000 0.076195
#
#
# Mechanical properties :
#
#
# Convention : Reuss Voigt Hill
#
# Bulk Modulus (GPa) = 23.87906 29.14460 26.51183
# Shear Modulus (GPa) = 11.49163 20.25477 15.87320
#
# Velocity S-wave (km/s) = 2.38108 3.16116 2.79843
# Velocity P-wave (km/s) = 4.39777 5.26334 4.84990
#
# Compressibility (1/GPa) = 0.04187769
#
# Stress axis : x y z
#
# Youngs Moduli (GPa) = 37.53029 66.48284 28.13941
#
# Poissons Ratio (x) = -0.43470 0.30166
# Poissons Ratio (y) = -0.24540 0.37964
# Poissons Ratio (z) = 0.40233 0.89696
#
# Static dielectric constant tensor:
#      x y z
#    x 1.715800 0.000000 -0.050850 
#    y 0.000000 1.772270 0.000000 
#    z -0.050850 0.000000 1.748760 
# 
# From -- ./inp_files/19438.got.cif
#   From: 2010.05.17/outbox.cif.g08.bks.cpg/sg11_10_cif.got.tgz:19438.got - 2010.06.03 12:22:45.
