data_PCOD9164462
_publ_section_title
;
Structure prediction by ZEFSAII (Michael W. Deem and Ramdas Pophale) SiO2 
 PCOD9164462
Probable space group: P 21/M
;
_chemical_formula_sum "Si O2"
_cell_formula_units_Z 32
_cell_length_a 11.914718
_cell_length_b 7.561570
_cell_length_c 20.923014
_cell_angle_alpha 90.000000
_cell_angle_beta 127.270372
_cell_angle_gamma 90.000000
_cell_volume 1500.087824
_symmetry_space_group_name_H-M "P 21/M"
_symmetry_group_IT_number 11
_symmetry_cell_setting 'monoclinic'
loop_
_space_group_symop_operation_xyz
x,y,z
-x,1/2+y,-z
-x,-y,-z
x,1/2-y,z
loop_
_atom_site_type_symbol
_atom_site_label
_atom_site_fract_x
_atom_site_fract_y
_atom_site_fract_z
Si Si1 0.292394 0.464654 0.460139
Si Si2 0.430020 0.455496 0.376272
Si Si3 0.898017 0.962060 0.906107
Si Si4 0.985951 0.033101 0.325760
Si Si5 0.950466 0.039826 0.168304
Si Si6 0.680482 0.046902 0.247349
Si Si7 0.361696 0.457835 0.911825
Si Si8 0.407308 0.467707 0.225052
O O1 0.299496 0.250000 0.463343
O O2 0.349441 0.528805 0.410463
O O3 0.404258 0.530332 0.550438
O O4 0.130035 0.518052 0.410155
O O5 0.388186 0.250000 0.359188
O O6 0.399071 0.527570 0.295775
O O7 0.891861 0.750000 0.898134
O O8 0.737091 0.023022 0.859111
O O9 0.963261 0.031733 0.862038
O O10 0.000000 0.000000 0.000000
O O11 0.981153 0.250000 0.323011
O O12 0.990346 0.974080 0.252936
O O13 0.838290 0.969692 0.304461
O O14 0.975543 0.250000 0.178934
O O15 0.783136 0.010469 0.102951
O O16 0.693662 0.250000 0.273506
O O17 0.550647 0.967880 0.241579
O O18 0.640258 0.046510 0.158451
O O19 0.356415 0.250000 0.898358
O O20 0.500000 0.500000 0.000000
O O21 0.411970 0.250000 0.225693
#
# Coordination Sequence:
#
# PCOD9164462 Si02
#       8
#     4   4   4   4   4   4   4   4
#     4   9  16  28  49  75 102 131 169 214 256 300
#     4   9  17  30  49  74 100 132 170 209 255 305
#     4  10  21  35  52  76 103 133 170 212 258 310
#     4   8  14  28  51  73  95 129 171 210 249 300
#     4   9  18  34  53  74 100 131 171 212 254 306
#     4   9  18  34  54  76 100 134 176 213 254 307
#     4  11  22  35  53  75 100 130 169 215 262 307
#     4   9  18  34  55  75 102 139 174 208 253 313
#
# _framework density 21.332086
#
# number of rings (size 3 to 8) (size 9 to 14) (size 15 to 20)
#    0.000    2.750    0.000    2.625    1.750    3.500 
#    0.000    4.375    0.000    4.500    0.000    0.000 
#    0.000    0.000    0.000    0.000    0.000    0.000 
#
# Total GULP energy -178561.063876 kJ/mol
# GULP energy per Si atom -5580.033246 kJ/mol
# Density = 2.128353 g / cm^3
# Si number density = 21.332086 Si / 1000 Ang^3
#
#
#
# Elastic Constant Matrix: (Units=GPa)
#
#
# Indices 1 2 3 4 5 6 
#
# 1 87.5879 0.7427 36.7278 0.0000 13.5919 0.0000
# 2 0.7427 52.0311 -9.9373 0.0000 -7.5490 0.0000
# 3 36.7278 -9.9373 89.8869 0.0000 27.6934 0.0000
# 4 0.0000 0.0000 0.0000 11.4632 0.0000 8.1921
# 5 13.5919 -7.5490 27.6934 0.0000 21.8568 0.0000
# 6 0.0000 0.0000 0.0000 8.1921 0.0000 4.7448
#
#
#
# Elastic Compliance Matrix: (Units=1/GPa)
#
#
# Indices 1 2 3 4 5 6 
#
# 1 0.013973 -0.001575 -0.004985 0.000000 -0.002918 0.000000
# 2 -0.001575 0.020412 0.000699 0.000000 0.007143 0.000000
# 3 -0.004985 0.000699 0.020028 0.000000 -0.022035 0.000000
# 4 0.000000 0.000000 0.000000 -0.373044 0.000000 0.644072
# 5 -0.002918 0.007143 -0.022035 0.000000 0.077953 0.000000
# 6 0.000000 0.000000 0.000000 0.644072 0.000000 -0.901253
#
#
# Mechanical properties :
#
#
# Convention : Reuss Voigt Hill
#
# Bulk Modulus (GPa) = 23.42333 31.61915 27.52124
# Shear Modulus (GPa) = -4.48037 21.07781 8.29872
#
# Velocity S-wave (km/s) = -1.45081 3.14678 1.97451
# Velocity P-wave (km/s) = 2.86316 5.29694 4.25765
#
# Compressibility (1/GPa) = 0.04269248
#
# Stress axis : x y z
#
# Youngs Moduli (GPa) = 71.56433 48.99151 49.93031
#
# Poissons Ratio (x) = 0.07715 0.24889
# Poissons Ratio (y) = 0.11270 -0.03491
# Poissons Ratio (z) = 0.35673 -0.03426
#
# Static dielectric constant tensor:
#      x y z
#    x 1.758160 0.000000 0.021910 
#    y 0.000000 1.805320 0.000000 
#    z 0.021910 0.000000 1.742690 
# 
# From -- ./inp_files/64433.got.cif
#   From: 2010.05.17/outbox.cif.g08.bks.cpg/sg11_33_cif.got.tgz:64433.got - 2010.06.03 12:22:45.
