data_PCOD9164143
_publ_section_title
;
Structure prediction by ZEFSAII (Michael W. Deem and Ramdas Pophale) SiO2 
 PCOD9164143
Probable space group: P 21/M
;
_chemical_formula_sum "Si O2"
_cell_formula_units_Z 32
_cell_length_a 13.239488
_cell_length_b 8.603306
_cell_length_c 14.501345
_cell_angle_alpha 90.000000
_cell_angle_beta 94.577767
_cell_angle_gamma 90.000000
_cell_volume 1646.482800
_symmetry_space_group_name_H-M "P 21/M"
_symmetry_group_IT_number 11
_symmetry_cell_setting 'monoclinic'
loop_
_space_group_symop_operation_xyz
x,y,z
-x,1/2+y,-z
-x,-y,-z
x,1/2-y,z
loop_
_atom_site_type_symbol
_atom_site_label
_atom_site_fract_x
_atom_site_fract_y
_atom_site_fract_z
Si Si1 0.599435 0.435943 0.058548
Si Si2 0.001484 0.063940 0.709862
Si Si3 0.608471 0.061556 0.711926
Si Si4 0.040048 0.432972 0.098875
Si Si5 0.261760 0.564034 0.100976
Si Si6 0.808215 0.436397 0.387778
Si Si7 0.614763 0.563261 0.265654
Si Si8 0.208253 0.560408 0.401081
O O1 0.590571 0.250000 0.067941
O O2 0.613355 0.512866 0.158758
O O3 0.500000 0.500000 0.000000
O O4 0.692812 0.467679 0.996279
O O5 0.003368 0.250000 0.708599
O O6 0.891869 0.012170 0.662493
O O7 0.012137 0.006905 0.815327
O O8 0.090978 0.000683 0.652774
O O9 0.606082 0.250000 0.706796
O O10 0.655405 0.023080 0.815361
O O11 0.492519 0.008875 0.698459
O O12 0.688828 0.006713 0.641478
O O13 0.024095 0.250000 0.099486
O O14 0.158555 0.475386 0.112340
O O15 0.000000 0.500000 0.000000
O O16 0.242496 0.750000 0.107627
O O17 0.812140 0.250000 0.386879
O O18 0.710269 0.492627 0.324813
O O19 0.800173 0.488652 0.493579
O O20 0.619515 0.750000 0.270865
O O21 0.209664 0.750000 0.399381
#
# Coordination Sequence:
#
# PCOD9164143 Si02
#       8
#     4   4   4   4   4   4   4   4
#     4  11  22  37  60  89 122 161 204 250 299 361
#     4  11  22  42  69  93 121 163 209 255 309 377
#     4   9  17  36  64  91 120 159 205 253 306 365
#     4  12  26  42  62  93 128 163 202 252 307 369
#     4  10  20  39  63  87 120 162 205 251 307 369
#     4  11  24  41  61  91 127 163 204 260 321 373
#     4  11  23  40  61  89 125 168 212 256 309 372
#     4   9  19  38  67  93 118 157 206 260 320 376
#
# _framework density 19.435368
#
# number of rings (size 3 to 8) (size 9 to 14) (size 15 to 20)
#    0.000    1.500    2.500    3.000    1.750    1.500 
#    0.000    1.875    0.000    0.000    0.000    0.000 
#    0.000    0.000    0.000    0.000    0.000    0.000 
#
# Total GULP energy -178857.925068 kJ/mol
# GULP energy per Si atom -5589.310158 kJ/mol
# Density = 1.939113 g / cm^3
# Si number density = 19.435368 Si / 1000 Ang^3
#
#
#
# Elastic Constant Matrix: (Units=GPa)
#
#
# Indices 1 2 3 4 5 6 
#
# 1 78.8014 27.1876 43.0673 0.0000 -23.3038 0.0000
# 2 27.1876 53.8420 32.6522 0.0000 -9.1555 0.0000
# 3 43.0673 32.6522 141.3653 0.0000 -17.9854 0.0000
# 4 0.0000 0.0000 0.0000 22.4459 0.0000 -2.5381
# 5 -23.3038 -9.1555 -17.9854 0.0000 35.4238 0.0000
# 6 0.0000 0.0000 0.0000 -2.5381 0.0000 27.7547
#
#
#
# Elastic Compliance Matrix: (Units=1/GPa)
#
#
# Indices 1 2 3 4 5 6 
#
# 1 0.019438 -0.006210 -0.003277 0.000000 0.009519 0.000000
# 2 -0.006210 0.023940 -0.003603 0.000000 0.000273 0.000000
# 3 -0.003277 -0.003603 0.009099 0.000000 0.001533 0.000000
# 4 0.000000 0.000000 0.000000 0.045017 0.000000 0.004117
# 5 0.009519 0.000273 0.001533 0.000000 0.035341 0.000000
# 6 0.000000 0.000000 0.000000 0.004117 0.000000 0.036406
#
#
# Mechanical properties :
#
#
# Convention : Reuss Voigt Hill
#
# Bulk Modulus (GPa) = 38.02416 53.31364 45.66890
# Shear Modulus (GPa) = 24.48736 28.53166 26.50951
#
# Velocity S-wave (km/s) = 3.55341 3.83564 3.69722
# Velocity P-wave (km/s) = 6.03676 6.86345 6.46334
#
# Compressibility (1/GPa) = 0.02629907
#
# Stress axis : x y z
#
# Youngs Moduli (GPa) = 51.44452 41.77120 109.89772
#
# Poissons Ratio (x) = 0.25939 0.36009
# Poissons Ratio (y) = 0.31946 0.39597
# Poissons Ratio (z) = 0.16856 0.15050
#
# Static dielectric constant tensor:
#      x y z
#    x 1.667660 0.000000 -0.006130 
#    y 0.000000 1.666020 0.000000 
#    z -0.006130 0.000000 1.646450 
# 
# From -- ./inp_files/49342.got.cif
#   From: 2010.05.17/outbox.cif.g08.bks.cpg/sg11_25_cif.got.tgz:49342.got - 2010.06.03 12:22:45.
