data_PCOD9164101
_publ_section_title
;
Structure prediction by ZEFSAII (Michael W. Deem and Ramdas Pophale) SiO2 
 PCOD9164101
Probable space group: P 21/M
;
_chemical_formula_sum "Si O2"
_cell_formula_units_Z 28
_cell_length_a 5.645905
_cell_length_b 13.055966
_cell_length_c 18.370157
_cell_angle_alpha 90.000000
_cell_angle_beta 111.986729
_cell_angle_gamma 90.000000
_cell_volume 1255.630723
_symmetry_space_group_name_H-M "P 21/M"
_symmetry_group_IT_number 11
_symmetry_cell_setting 'monoclinic'
loop_
_space_group_symop_operation_xyz
x,y,z
-x,1/2+y,-z
-x,-y,-z
x,1/2-y,z
loop_
_atom_site_type_symbol
_atom_site_label
_atom_site_fract_x
_atom_site_fract_y
_atom_site_fract_z
Si Si1 0.403787 0.130336 0.280334
Si Si2 0.539594 0.644564 0.978049
Si Si3 0.975642 0.863078 0.149188
Si Si4 0.932660 0.873129 0.405599
Si Si5 0.111737 0.512684 0.737905
Si Si6 0.636092 0.039425 0.444494
Si Si7 0.743214 0.454533 0.936644
O O1 0.389445 0.250000 0.258314
O O2 0.493833 0.115705 0.374266
O O3 0.116758 0.081343 0.252312
O O4 0.636790 0.074849 0.261311
O O5 0.520897 0.750000 0.933894
O O6 0.787702 0.646097 0.058399
O O7 0.324732 0.634198 0.014612
O O8 0.545337 0.546483 0.927908
O O9 0.041046 0.750000 0.183038
O O10 0.838270 0.927704 0.194765
O O11 0.217488 0.918451 0.140504
O O12 0.914107 0.750000 0.391435
O O13 0.998036 0.942734 0.341962
O O14 0.122017 0.899263 0.494533
O O15 0.682973 0.934544 0.404162
O O16 0.500000 0.000000 0.500000
O O17 0.000000 0.500000 0.000000
#
# Coordination Sequence:
#
# PCOD9164101 Si02
#       7
#     4   4   4   4   4   4   4
#     4  11  24  44  66  86 122 170 210 258 314 369
#     4   9  18  34  58  89 121 158 198 245 309 364
#     4  10  21  37  61  89 120 162 201 250 314 367
#     4  10  21  37  58  88 126 159 200 263 321 366
#     4  11  24  42  63  93 128 159 216 255 304 376
#     4  10  20  39  58  90 117 158 211 260 310 380
#     4   9  18  34  58  86 119 153 197 249 293 364
#
# _framework density 22.299548999999999
#
# number of rings (size 3 to 8) (size 9 to 14) (size 15 to 20)
#    0.000    2.000    1.429    1.714    2.000    1.714 
#    0.000    2.857    0.000    2.571    0.000    0.000 
#    0.000    0.000    0.000    0.000    0.000    0.000 
#
# Total GULP energy -155895.298632 kJ/mol
# GULP energy per Si atom -5567.689237 kJ/mol
# Density = 2.224879 g / cm^3
# Si number density = 22.299549 Si / 1000 Ang^3
#
#
#
# Elastic Constant Matrix: (Units=GPa)
#
#
# Indices 1 2 3 4 5 6 
#
# 1 87.2697 47.4111 16.9705 0.0000 -30.4057 0.0000
# 2 47.4111 185.3408 40.4397 0.0000 -26.6112 0.0000
# 3 16.9705 40.4397 60.0942 0.0000 -23.1881 0.0000
# 4 0.0000 0.0000 0.0000 17.1301 0.0000 3.9196
# 5 -30.4057 -26.6112 -23.1881 0.0000 33.0866 0.0000
# 6 0.0000 0.0000 0.0000 3.9196 0.0000 7.8255
#
#
#
# Elastic Compliance Matrix: (Units=1/GPa)
#
#
# Indices 1 2 3 4 5 6 
#
# 1 0.018255 -0.002994 0.003295 0.000000 0.016677 0.000000
# 2 -0.002994 0.007022 -0.003786 0.000000 0.000243 0.000000
# 3 0.003295 -0.003786 0.025016 0.000000 0.017514 0.000000
# 4 0.000000 0.000000 0.000000 0.065933 0.000000 -0.033024
# 5 0.016677 0.000243 0.017514 0.000000 0.058019 0.000000
# 6 0.000000 0.000000 0.000000 -0.033024 0.000000 0.144328
#
#
# Mechanical properties :
#
#
# Convention : Reuss Voigt Hill
#
# Bulk Modulus (GPa) = 23.08303 60.26081 41.67192
# Shear Modulus (GPa) = 14.70649 26.80067 20.75358
#
# Velocity S-wave (km/s) = 2.57085 3.47053 3.05400
# Velocity P-wave (km/s) = 4.38021 6.56821 5.58246
#
# Compressibility (1/GPa) = 0.04332187
#
# Stress axis : x y z
#
# Youngs Moduli (GPa) = 54.77945 142.40120 39.97391
#
# Poissons Ratio (x) = 0.42637 -0.13170
# Poissons Ratio (y) = 0.16402 0.15136
# Poissons Ratio (z) = -0.18048 0.53918
#
# Static dielectric constant tensor:
#      x y z
#    x 2.027680 0.000000 0.036480 
#    y 0.000000 1.866280 0.000000 
#    z 0.036480 0.000000 1.840830 
# 
# From -- ./inp_files/8763.got.cif
#   From: 2010.05.17/outbox.cif.g08.bks.cpg/sg11_5_cif.got.tgz:8763.got - 2010.06.03 12:22:45.
