data_PCOD9164875
_publ_section_title
;
Structure prediction by ZEFSAII (Michael W. Deem and Ramdas Pophale) SiO2 
 PCOD9164875
Probable space group: P 21/M
;
_chemical_formula_sum "Si O2"
_cell_formula_units_Z 20
_cell_length_a 7.921197
_cell_length_b 19.302103
_cell_length_c 12.573459
_cell_angle_alpha 90.000000
_cell_angle_beta 34.504259
_cell_angle_gamma 90.000000
_cell_volume 1088.993300
_symmetry_space_group_name_H-M "P 21/M"
_symmetry_group_IT_number 11
_symmetry_cell_setting 'monoclinic'
loop_
_space_group_symop_operation_xyz
x,y,z
-x,1/2+y,-z
-x,-y,-z
x,1/2-y,z
loop_
_atom_site_type_symbol
_atom_site_label
_atom_site_fract_x
_atom_site_fract_y
_atom_site_fract_z
Si Si1 0.121981 0.577140 0.455464
Si Si2 0.439674 0.167877 0.895556
Si Si3 0.375607 0.328836 0.181583
Si Si4 0.897084 0.105311 0.035686
Si Si5 0.642794 0.513946 0.311838
O O1 0.401599 0.564304 0.385567
O O2 0.000000 0.500000 0.500000
O O3 0.864886 0.620259 0.643922
O O4 0.270959 0.621559 0.283717
O O5 0.484186 0.250000 0.849670
O O6 0.390634 0.160059 0.047130
O O7 0.153235 0.140467 0.976254
O O8 0.282782 0.250000 0.248200
O O9 0.686312 0.342877 0.080786
O O10 0.697051 0.056501 0.216754
O O11 0.048577 0.055040 0.868170
O O12 0.500000 0.500000 0.500000
#
# Coordination Sequence:
#
# PCOD9164875 Si02
#       5
#     4   4   4   4   4
#     4  11  22  38  59  87 119 151 192 244 289 341
#     4  10  23  41  59  85 121 156 192 240 294 347
#     4  11  23  39  62  88 117 157 197 237 292 349
#     4  10  21  38  59  86 116 151 197 241 283 348
#     4  10  21  37  57  87 119 150 191 242 295 341
#
# _framework density 18.365586
#
# number of rings (size 3 to 8) (size 9 to 14) (size 15 to 20)
#    0.000    1.600    2.000    2.400    2.800    0.800 
#    0.000    0.000    0.000    9.600    0.000    0.000 
#    0.000    0.000    0.000    0.000    0.000    0.000 
#
# Total GULP energy -111450.889810 kJ/mol
# GULP energy per Si atom -5572.544490 kJ/mol
# Density = 1.832378 g / cm^3
# Si number density = 18.365586 Si / 1000 Ang^3
#
#
#
# Elastic Constant Matrix: (Units=GPa)
#
#
# Indices 1 2 3 4 5 6 
#
# 1 69.1036 40.3878 38.8653 0.0000 2.0207 0.0000
# 2 40.3878 139.7013 79.8231 0.0000 12.3963 0.0000
# 3 38.8653 79.8231 131.0129 0.0000 14.8495 0.0000
# 4 0.0000 0.0000 0.0000 37.6978 0.0000 -6.4564
# 5 2.0207 12.3963 14.8495 0.0000 19.4525 0.0000
# 6 0.0000 0.0000 0.0000 -6.4564 0.0000 7.0872
#
#
#
# Elastic Compliance Matrix: (Units=1/GPa)
#
#
# Indices 1 2 3 4 5 6 
#
# 1 0.018519 -0.003513 -0.003710 0.000000 0.003147 0.000000
# 2 -0.003513 0.011724 -0.005797 0.000000 -0.002681 0.000000
# 3 -0.003710 -0.005797 0.012921 0.000000 -0.005784 0.000000
# 4 0.000000 0.000000 0.000000 0.031431 0.000000 0.028633
# 5 0.003147 -0.002681 -0.005784 0.000000 0.057204 0.000000
# 6 0.000000 0.000000 0.000000 0.028633 0.000000 0.167185
#
#
# Mechanical properties :
#
#
# Convention : Reuss Voigt Hill
#
# Bulk Modulus (GPa) = 58.39948 73.10781 65.75364
# Shear Modulus (GPa) = 15.11799 24.89695 20.00747
#
# Velocity S-wave (km/s) = 2.87221 3.68588 3.30419
# Velocity P-wave (km/s) = 6.54727 7.61628 7.10192
#
# Compressibility (1/GPa) = 0.01712344
#
# Stress axis : x y z
#
# Youngs Moduli (GPa) = 53.99904 85.29428 77.39375
#
# Poissons Ratio (x) = 0.29967 0.28711
# Poissons Ratio (y) = 0.18972 0.44866
# Poissons Ratio (z) = 0.20032 0.49446
#
# Static dielectric constant tensor:
#      x y z
#    x 1.610050 0.000000 -0.009030 
#    y 0.000000 1.282590 0.000000 
#    z -0.009030 0.000000 1.662280 
# 
# From -- ./inp_files/1976.got.cif
#   From: 2010.05.17/outbox.cif.g08.bks.cpg/sg11_1_cif.got.tgz:1976.got - 2010.06.03 12:22:45.
