data_PCOD9164942
_publ_section_title
;
Structure prediction by ZEFSAII (Michael W. Deem and Ramdas Pophale) SiO2 
 PCOD9164942
Probable space group: P 21/M
;
_chemical_formula_sum "Si O2"
_cell_formula_units_Z 28
_cell_length_a 17.433005
_cell_length_b 12.909331
_cell_length_c 20.317837
_cell_angle_alpha 90.000000
_cell_angle_beta 160.396076
_cell_angle_gamma 90.000000
_cell_volume 1534.146422
_symmetry_space_group_name_H-M "P 21/M"
_symmetry_group_IT_number 11
_symmetry_cell_setting 'monoclinic'
loop_
_space_group_symop_operation_xyz
x,y,z
-x,1/2+y,-z
-x,-y,-z
x,1/2-y,z
loop_
_atom_site_type_symbol
_atom_site_label
_atom_site_fract_x
_atom_site_fract_y
_atom_site_fract_z
Si Si1 0.351705 0.626989 0.446739
Si Si2 0.159836 0.035557 0.187991
Si Si3 0.950927 0.024983 0.686761
Si Si4 0.851642 0.367348 0.048425
Si Si5 0.261611 0.037229 0.719116
Si Si6 0.324869 0.369239 0.628096
Si Si7 0.643270 0.870201 0.061454
O O1 0.327618 0.750000 0.420284
O O2 0.615834 0.592814 0.657668
O O3 0.236814 0.563514 0.293742
O O4 0.230393 0.587176 0.415296
O O5 0.017235 0.109078 0.121474
O O6 0.000000 0.000000 0.000000
O O7 0.131761 0.099184 0.797762
O O8 0.827817 0.951510 0.534202
O O9 0.086740 0.948942 0.845577
O O10 0.886471 0.250000 0.100353
O O11 0.586342 0.378071 0.815054
O O12 0.321854 0.102230 0.702766
O O13 0.302479 0.101892 0.818793
O O14 0.000000 0.000000 0.500000
O O15 0.433389 0.940136 0.866070
O O16 0.249394 0.250000 0.557660
O O17 0.589213 0.750000 0.011050
#
# Coordination Sequence:
#
# PCOD9164942 Si02
#       7
#     4   4   4   4   4   4   4
#     4  10  22  38  60  89 121 159 199 244 300 354
#     4  10  21  39  61  87 121 154 199 251 293 356
#     4  11  21  40  60  86 126 155 200 245 292 359
#     4  10  21  37  59  86 119 157 198 245 299 351
#     4  11  23  44  61  89 122 153 205 253 294 362
#     4  11  22  38  62  89 119 160 202 250 303 350
#     4  11  24  41  64  89 122 162 197 246 307 355
#
# _framework density 18.251190999999999
#
# number of rings (size 3 to 8) (size 9 to 14) (size 15 to 20)
#    0.000    1.429    2.857    2.571    0.000    2.286 
#    0.000    3.571    0.000    0.000    0.000    0.000 
#    0.000    0.000    0.000    0.000    0.000    0.000 
#
# Total GULP energy -156428.067649 kJ/mol
# GULP energy per Si atom -5586.716702 kJ/mol
# Density = 1.820965 g / cm^3
# Si number density = 18.251191 Si / 1000 Ang^3
#
#
#
# Elastic Constant Matrix: (Units=GPa)
#
#
# Indices 1 2 3 4 5 6 
#
# 1 86.6540 31.7020 32.9292 0.0000 12.9129 0.0000
# 2 31.7020 107.8463 18.6634 0.0000 11.3706 0.0000
# 3 32.9292 18.6634 79.4058 0.0000 11.0356 0.0000
# 4 0.0000 0.0000 0.0000 20.7388 0.0000 5.6083
# 5 12.9129 11.3706 11.0356 0.0000 31.9305 0.0000
# 6 0.0000 0.0000 0.0000 5.6083 0.0000 11.2021
#
#
#
# Elastic Compliance Matrix: (Units=1/GPa)
#
#
# Indices 1 2 3 4 5 6 
#
# 1 0.015127 -0.003231 -0.005067 0.000000 -0.003216 0.000000
# 2 -0.003231 0.010598 -0.000849 0.000000 -0.002174 0.000000
# 3 -0.005067 -0.000849 0.015302 0.000000 -0.002937 0.000000
# 4 0.000000 0.000000 0.000000 0.055769 0.000000 -0.027921
# 5 -0.003216 -0.002174 -0.002937 0.000000 0.034408 0.000000
# 6 0.000000 0.000000 0.000000 -0.027921 0.000000 0.103247
#
#
# Mechanical properties :
#
#
# Convention : Reuss Voigt Hill
#
# Bulk Modulus (GPa) = 43.98613 48.94393 46.46503
# Shear Modulus (GPa) = 19.20692 25.48171 22.34431
#
# Velocity S-wave (km/s) = 3.24754 3.74059 3.50275
# Velocity P-wave (km/s) = 6.18181 6.74767 6.47093
#
# Compressibility (1/GPa) = 0.02273444
#
# Stress axis : x y z
#
# Youngs Moduli (GPa) = 66.10837 94.35469 65.34893
#
# Poissons Ratio (x) = 0.30483 0.33110
# Poissons Ratio (y) = 0.21358 0.05549
# Poissons Ratio (z) = 0.33495 0.08012
#
# Static dielectric constant tensor:
#      x y z
#    x 1.635770 0.000000 0.019750 
#    y 0.000000 1.609930 0.000000 
#    z 0.019750 0.000000 1.606540 
# 
# From -- ./inp_files/61463.got.cif
#   From: 2010.05.17/outbox.cif.g08.bks.cpg/sg11_31_cif.got.tgz:61463.got - 2010.06.03 12:22:45.
