data_PCOD9164615
_publ_section_title
;
Structure prediction by ZEFSAII (Michael W. Deem and Ramdas Pophale) SiO2 
 PCOD9164615
Probable space group: P 21/M
;
_chemical_formula_sum "Si O2"
_cell_formula_units_Z 32
_cell_length_a 12.044954
_cell_length_b 8.693642
_cell_length_c 31.905066
_cell_angle_alpha 90.000000
_cell_angle_beta 27.297677
_cell_angle_gamma 90.000000
_cell_volume 1532.192756
_symmetry_space_group_name_H-M "P 21/M"
_symmetry_group_IT_number 11
_symmetry_cell_setting 'monoclinic'
loop_
_space_group_symop_operation_xyz
x,y,z
-x,1/2+y,-z
-x,-y,-z
x,1/2-y,z
loop_
_atom_site_type_symbol
_atom_site_label
_atom_site_fract_x
_atom_site_fract_y
_atom_site_fract_z
Si Si1 0.754241 0.062591 0.209415
Si Si2 0.022392 0.066468 0.039027
Si Si3 0.267572 0.428788 0.629356
Si Si4 0.246117 0.076260 0.519445
Si Si5 0.464184 0.435464 0.114404
Si Si6 0.031756 0.435577 0.197467
Si Si7 0.108603 0.069859 0.307329
Si Si8 0.260054 0.424337 0.415807
O O1 0.744296 0.250000 0.212846
O O2 0.494875 0.006753 0.313862
O O3 0.820884 0.012663 0.140208
O O4 0.968683 0.023824 0.170691
O O5 0.007479 0.250000 0.041149
O O6 0.279564 0.017118 0.972130
O O7 0.000000 0.000000 0.000000
O O8 0.214113 0.250000 0.640895
O O9 0.549683 0.463823 0.531299
O O10 0.112469 0.533221 0.650046
O O11 0.171283 0.480896 0.706888
O O12 0.281229 0.250000 0.523638
O O13 0.298401 0.079383 0.452747
O O14 0.978028 0.020056 0.622295
O O15 0.491950 0.250000 0.104876
O O16 0.285243 0.475544 0.135557
O O17 0.335515 0.476642 0.202159
O O18 0.005790 0.250000 0.210527
O O19 0.130274 0.250000 0.309219
O O20 0.236798 0.250000 0.407812
O O21 0.000000 0.500000 0.500000
#
# Coordination Sequence:
#
# PCOD9164615 Si02
#       8
#     4   4   4   4   4   4   4   4
#     4   9  19  40  66  89 116 160 201 240 303 369
#     4  11  24  42  66  90 119 158 205 253 299 359
#     4  11  20  31  51  83 120 155 195 241 289 349
#     4  11  21  35  55  79 112 156 200 246 295 347
#     4   9  20  38  61  89 123 159 196 247 307 362
#     4   9  17  36  63  88 120 160 200 240 302 374
#     4  10  21  36  55  81 117 160 197 237 289 352
#     4  10  22  40  61  84 116 153 197 246 296 355
#
# _framework density 20.885100999999999
#
# number of rings (size 3 to 8) (size 9 to 14) (size 15 to 20)
#    0.000    2.000    1.250    3.375    0.000    5.000 
#    0.000    6.250    0.000    0.000    0.000    0.000 
#    0.000    0.000    0.000    0.000    0.000    0.000 
#
# Total GULP energy -178489.856071 kJ/mol
# GULP energy per Si atom -5577.808002 kJ/mol
# Density = 2.083757 g / cm^3
# Si number density = 20.885101 Si / 1000 Ang^3
#
#
#
# Elastic Constant Matrix: (Units=GPa)
#
#
# Indices 1 2 3 4 5 6 
#
# 1 77.3213 17.0093 56.3710 0.0000 10.9125 0.0000
# 2 17.0093 18.7368 23.3386 0.0000 1.9541 0.0000
# 3 56.3710 23.3386 128.0969 0.0000 17.9455 0.0000
# 4 0.0000 0.0000 0.0000 26.1159 0.0000 -4.0782
# 5 10.9125 1.9541 17.9455 0.0000 33.2425 0.0000
# 6 0.0000 0.0000 0.0000 -4.0782 0.0000 23.4627
#
#
#
# Elastic Compliance Matrix: (Units=1/GPa)
#
#
# Indices 1 2 3 4 5 6 
#
# 1 0.020429 -0.009724 -0.006879 0.000000 -0.002421 0.000000
# 2 -0.009724 0.073937 -0.009769 0.000000 0.004120 0.000000
# 3 -0.006879 -0.009769 0.013216 0.000000 -0.004302 0.000000
# 4 0.000000 0.000000 0.000000 0.039359 0.000000 0.006841
# 5 -0.002421 0.004120 -0.004302 0.000000 0.032957 0.000000
# 6 0.000000 0.000000 0.000000 0.006841 0.000000 0.043810
#
#
# Mechanical properties :
#
#
# Convention : Reuss Voigt Hill
#
# Bulk Modulus (GPa) = 18.23551 46.39923 32.31737
# Shear Modulus (GPa) = 16.96448 25.05996 21.01222
#
# Velocity S-wave (km/s) = 2.85314 3.46771 3.17533
# Velocity P-wave (km/s) = 4.42766 6.18854 5.38062
#
# Compressibility (1/GPa) = 0.05483807
#
# Stress axis : x y z
#
# Youngs Moduli (GPa) = 48.94933 13.52497 75.66312
#
# Poissons Ratio (x) = 0.13152 0.52051
# Poissons Ratio (y) = 0.47600 0.73914
# Poissons Ratio (z) = 0.33674 0.13212
#
# Static dielectric constant tensor:
#      x y z
#    x 1.810800 0.000000 0.040780 
#    y 0.000000 1.720720 0.000000 
#    z 0.040780 0.000000 1.787060 
# 
# From -- ./inp_files/73059.got.cif
#   From: 2010.05.17/outbox.cif.g08.bks.cpg/sg11_37_cif.got.tgz:73059.got - 2010.06.03 12:22:45.
