data_PCOD9164956
_publ_section_title
;
Structure prediction by ZEFSAII (Michael W. Deem and Ramdas Pophale) SiO2 
 PCOD9164956
Probable space group: P 21/M
;
_chemical_formula_sum "Si O2"
_cell_formula_units_Z 28
_cell_length_a 8.905961
_cell_length_b 13.127990
_cell_length_c 12.391588
_cell_angle_alpha 90.000000
_cell_angle_beta 68.939418
_cell_angle_gamma 90.000000
_cell_volume 1352.013970
_symmetry_space_group_name_H-M "P 21/M"
_symmetry_group_IT_number 11
_symmetry_cell_setting 'monoclinic'
loop_
_space_group_symop_operation_xyz
x,y,z
-x,1/2+y,-z
-x,-y,-z
x,1/2-y,z
loop_
_atom_site_type_symbol
_atom_site_label
_atom_site_fract_x
_atom_site_fract_y
_atom_site_fract_z
Si Si1 0.373443 0.500000 0.253113
Si Si2 0.818719 0.627403 0.868017
Si Si3 0.240677 0.127504 0.648338
Si Si4 0.686735 0.872597 0.131982
Si Si5 0.110985 0.627503 0.648337
Si Si6 0.479826 0.627229 0.587129
Si Si7 0.066955 0.872771 0.412871
O O1 0.310664 0.427679 0.174140
O O2 0.515195 0.572320 0.174138
O O3 0.440988 0.430706 0.332977
O O4 0.226036 0.569295 0.332977
O O5 0.803530 0.750000 0.861583
O O6 0.990338 0.596232 0.773978
O O7 0.789953 0.600819 1.000000
O O8 0.229117 0.250000 0.652236
O O9 0.235685 0.096232 0.773978
O O10 0.410925 0.107320 0.546306
O O11 0.089359 0.094793 0.615251
O O12 0.665112 0.750000 0.138417
O O13 0.118646 0.750000 0.652235
O O14 0.295390 0.594793 0.615250
O O15 0.042768 0.607319 0.546306
O O16 0.483901 0.750000 0.604824
O O17 0.088725 0.750000 0.395177
#
# Coordination Sequence:
#
# PCOD9164956 Si02
#       7
#     4   4   4   4   4   4   4
#     4  12  23  36  60  88 117 150 188 232 286 340
#     4  10  22  41  61  82 113 152 192 233 278 334
#     4   9  19  38  61  84 114 151 190 234 285 336
#     4  10  22  41  61  82 113 152 192 233 278 334
#     4   9  19  38  61  84 114 151 190 234 285 336
#     4  10  21  37  59  88 118 147 186 237 287 337
#     4  10  21  37  59  88 118 147 186 237 287 337
#
# _framework density 20.709845000000001
#
# number of rings (size 3 to 8) (size 9 to 14) (size 15 to 20)
#    0.000    2.000    0.000    3.000    0.000   10.286 
#    0.000    4.286    0.000    6.857    0.000    0.000 
#    0.000    0.000    0.000    0.000    0.000    0.000 
#
# Total GULP energy -156652.253434 kJ/mol
# GULP energy per Si atom -5594.723337 kJ/mol
# Density = 2.066271 g / cm^3
# Si number density = 20.709845 Si / 1000 Ang^3
#
#
#
# Elastic Constant Matrix: (Units=GPa)
#
#
# Indices 1 2 3 4 5 6 
#
# 1 179.2510 45.5081 117.0323 0.0000 -0.0172 0.0000
# 2 45.5081 78.2290 55.2991 0.0000 -0.1692 0.0000
# 3 117.0323 55.2991 215.9646 0.0000 -0.6168 0.0000
# 4 0.0000 0.0000 0.0000 29.4019 0.0000 0.1240
# 5 -0.0172 -0.1692 -0.6168 0.0000 31.6035 0.0000
# 6 0.0000 0.0000 0.0000 0.1240 0.0000 36.5885
#
#
#
# Elastic Compliance Matrix: (Units=1/GPa)
#
#
# Indices 1 2 3 4 5 6 
#
# 1 0.008924 -0.002165 -0.004282 0.000000 -0.000090 0.000000
# 2 -0.002165 0.016133 -0.002958 0.000000 0.000027 0.000000
# 3 -0.004282 -0.002958 0.007709 0.000000 0.000132 0.000000
# 4 0.000000 0.000000 0.000000 0.034012 0.000000 -0.000115
# 5 -0.000090 0.000027 0.000132 0.000000 0.031645 0.000000
# 6 0.000000 0.000000 0.000000 -0.000115 0.000000 0.027331
#
#
# Mechanical properties :
#
#
# Convention : Reuss Voigt Hill
#
# Bulk Modulus (GPa) = 71.64999 101.01375 86.33187
# Shear Modulus (GPa) = 33.50869 36.55911 35.03390
#
# Velocity S-wave (km/s) = 4.02681 4.20611 4.11743
# Velocity P-wave (km/s) = 7.50283 8.51293 8.02379
#
# Compressibility (1/GPa) = 0.01395674
#
# Stress axis : x y z
#
# Youngs Moduli (GPa) = 112.05752 61.98401 129.72616
#
# Poissons Ratio (x) = 0.13418 0.55548
# Poissons Ratio (y) = 0.24257 0.38371
# Poissons Ratio (z) = 0.47982 0.18334
#
# Static dielectric constant tensor:
#      x y z
#    x 1.708270 0.000000 0.000250 
#    y 0.000000 1.792030 0.000000 
#    z 0.000250 0.000000 1.693490 
# 
# From -- ./inp_files/31660.got.cif
#   From: 2010.05.17/outbox.cif.g08.bks.cpg/sg11_16_cif.got.tgz:31660.got - 2010.06.03 12:22:45.
