data_PCOD9164043
_publ_section_title
;
Structure prediction by ZEFSAII (Michael W. Deem and Ramdas Pophale) SiO2 
 PCOD9164043
Probable space group: P 21/M
;
_chemical_formula_sum "Si O2"
_cell_formula_units_Z 28
_cell_length_a 5.887826
_cell_length_b 16.957794
_cell_length_c 12.134916
_cell_angle_alpha 90.000000
_cell_angle_beta 119.621290
_cell_angle_gamma 90.000000
_cell_volume 1053.262051
_symmetry_space_group_name_H-M "P 21/M"
_symmetry_group_IT_number 11
_symmetry_cell_setting 'monoclinic'
loop_
_space_group_symop_operation_xyz
x,y,z
-x,1/2+y,-z
-x,-y,-z
x,1/2-y,z
loop_
_atom_site_type_symbol
_atom_site_label
_atom_site_fract_x
_atom_site_fract_y
_atom_site_fract_z
Si Si1 0.610229 0.426003 0.593498
Si Si2 0.954304 0.664161 0.842385
Si Si3 0.753584 0.750000 0.273190
Si Si4 0.389061 0.750000 0.408804
Si Si5 0.495555 0.382294 0.933841
Si Si6 0.114935 0.070529 0.601153
Si Si7 0.410148 0.054753 0.143016
Si Si8 0.149778 0.837519 0.647354
O O1 0.500000 0.500000 0.500000
O O2 0.553680 0.338194 0.531106
O O3 0.428415 0.430739 0.658602
O O4 0.926684 0.433663 0.663876
O O5 0.837401 0.750000 0.847974
O O6 0.829410 0.579372 0.839183
O O7 0.979298 0.666509 0.716921
O O8 0.232924 0.658681 0.968658
O O9 0.560019 0.750000 0.335302
O O10 0.662927 0.826930 0.184858
O O11 0.070446 0.750000 0.332596
O O12 0.545337 0.468356 0.893759
O O13 0.362333 0.394253 0.020495
O O14 0.013287 0.143147 0.500858
O O15 0.000000 0.000000 0.500000
O O16 0.647456 0.094233 0.268921
O O17 0.266320 0.750000 0.660645
#
# Coordination Sequence:
#
# PCOD9164043 Si02
#       8
#     4   4   2   2   4   4   4   4
#     4  10  24  46  73  99 136 183 232 292 356 425
#     4  10  20  38  64  93 137 177 230 290 342 417
#     4  12  28  48  74 106 146 188 238 292 350 434
#     4  12  28  48  74 106 144 188 246 296 360 430
#     4  10  23  40  63  99 133 189 232 282 354 405
#     4  10  23  44  71  98 135 181 225 285 356 425
#     4  10  22  40  65  94 140 178 238 288 340 423
#     4  10  23  38  61 103 130 172 228 289 346 407
#
# _framework density 26.584078999999999
#
# number of rings (size 3 to 8) (size 9 to 14) (size 15 to 20)
#    0.000    1.714    0.714    1.714    8.000    4.571 
#    2.571    0.000    0.000    0.000    0.000    0.000 
#    0.000    0.000    0.000    0.000    0.000    0.000 
#
# Total GULP energy -156234.345829 kJ/mol
# GULP energy per Si atom -5579.798065 kJ/mol
# Density = 2.652357 g / cm^3
# Si number density = 26.584079 Si / 1000 Ang^3
#
#
#
# Elastic Constant Matrix: (Units=GPa)
#
#
# Indices 1 2 3 4 5 6 
#
# 1 188.2130 36.8198 63.6001 0.0000 16.2701 0.0000
# 2 36.8198 158.3394 9.0539 0.0000 -9.7191 0.0000
# 3 63.6001 9.0539 77.3105 0.0000 -4.3463 0.0000
# 4 0.0000 0.0000 0.0000 -239.2905 0.0000-1484.5575
# 5 16.2701 -9.7191 -4.3463 0.0000 22.3868 0.0000
# 6 0.0000 0.0000 0.0000-1484.5575 0.0000-7711.8215
#
#
#
# Elastic Compliance Matrix: (Units=1/GPa)
#
#
# Indices 1 2 3 4 5 6 
#
# 1 0.009185 -0.002252 -0.007807 0.000000 -0.009169 0.000000
# 2 -0.002252 0.007069 0.001304 0.000000 0.004959 0.000000
# 3 -0.007807 0.001304 0.019772 0.000000 0.010079 0.000000
# 4 0.000000 0.000000 0.000000 0.021509 0.000000 -0.004141
# 5 -0.009169 0.004959 0.010079 0.000000 0.055442 0.000000
# 6 0.000000 0.000000 0.000000 -0.004141 0.000000 0.000667
#
#
# Mechanical properties :
#
#
# Convention : Reuss Voigt Hill
#
# Bulk Modulus (GPa) = 54.01481 71.42341 62.71911
# Shear Modulus (GPa) = 36.40957 -1564.78577 -764.18810
#
# Velocity S-wave (km/s) = 3.70483 -24.28776 -16.97306
# Velocity P-wave (km/s) = 6.21800 27.56088 18.98603
#
# Compressibility (1/GPa) = 0.01851344
#
# Stress axis : x y z
#
# Youngs Moduli (GPa) = 108.87870 141.46101 50.57749
#
# Poissons Ratio (x) = 0.31858 0.39488
# Poissons Ratio (y) = 0.24521 -0.06593
# Poissons Ratio (z) = 0.85006 -0.18441
#
# Static dielectric constant tensor:
#      x y z
#    x 2.109920 0.000000 0.023910 
#    y 0.000000 2.256310 0.000000 
#    z 0.023910 0.000000 2.063040 
# 
# From -- ./inp_files/46110.got.cif
#   From: 2010.05.17/outbox.cif.g08.bks.cpg/sg11_24_cif.got.tgz:46110.got - 2010.06.03 12:22:45.
