data_PCOD9164251
_publ_section_title
;
Structure prediction by ZEFSAII (Michael W. Deem and Ramdas Pophale) SiO2 
 PCOD9164251
Probable space group: P 21/M
;
_chemical_formula_sum "Si O2"
_cell_formula_units_Z 20
_cell_length_a 11.470883
_cell_length_b 9.924167
_cell_length_c 9.000792
_cell_angle_alpha 90.000000
_cell_angle_beta 89.391907
_cell_angle_gamma 90.000000
_cell_volume 1024.583080
_symmetry_space_group_name_H-M "P 21/M"
_symmetry_group_IT_number 11
_symmetry_cell_setting 'monoclinic'
loop_
_space_group_symop_operation_xyz
x,y,z
-x,1/2+y,-z
-x,-y,-z
x,1/2-y,z
loop_
_atom_site_type_symbol
_atom_site_label
_atom_site_fract_x
_atom_site_fract_y
_atom_site_fract_z
Si Si1 0.344516 0.601740 0.016662
Si Si2 0.516910 0.019812 0.255437
Si Si3 0.673927 0.599174 0.504499
Si Si4 0.105476 0.910131 0.431724
Si Si5 0.095449 0.907702 0.074533
O O1 0.313354 0.750000 0.068970
O O2 0.437185 0.553329 0.134964
O O3 0.220435 0.530881 0.022691
O O4 0.398422 0.603549 0.852485
O O5 0.424466 0.090378 0.365280
O O6 0.600372 0.928926 0.356075
O O7 0.724951 0.750000 0.502486
O O8 0.772959 0.485536 0.526931
O O9 0.104563 0.750000 0.476053
O O10 0.093181 0.913333 0.253252
O O11 0.000000 0.000000 0.500000
O O12 0.079069 0.750000 0.029646
O O13 0.000000 0.000000 0.000000
#
# Coordination Sequence:
#
# PCOD9164251 Si02
#       5
#     4   4   4   4   4
#     4  10  20  40  63  89 125 165 208 255 310 369
#     4  10  22  38  62  94 128 167 208 253 309 373
#     4  11  23  40  64  96 130 166 209 258 312 373
#     4  11  25  45  67  92 125 165 210 261 315 374
#     4  10  23  43  65  91 123 163 208 258 311 368
#
# _framework density 19.520133999999999
#
# number of rings (size 3 to 8) (size 9 to 14) (size 15 to 20)
#    0.000    1.600    2.000    1.800    2.800    5.600 
#    0.000    1.000    0.000    0.000    0.000    0.000 
#    0.000    0.000    0.000    0.000    0.000    0.000 
#
# Total GULP energy -111442.889993 kJ/mol
# GULP energy per Si atom -5572.144500 kJ/mol
# Density = 1.947571 g / cm^3
# Si number density = 19.520134 Si / 1000 Ang^3
#
#
#
# Elastic Constant Matrix: (Units=GPa)
#
#
# Indices 1 2 3 4 5 6 
#
# 1 142.1037 61.1299 53.8706 0.0000 3.4055 0.0000
# 2 61.1299 125.9693 40.6157 0.0000 7.8330 0.0000
# 3 53.8706 40.6157 98.8292 0.0000 3.0960 0.0000
# 4 0.0000 0.0000 0.0000 13.3265 0.0000 -2.0275
# 5 3.4055 7.8330 3.0960 0.0000 32.0443 0.0000
# 6 0.0000 0.0000 0.0000 -2.0275 0.0000 22.7084
#
#
#
# Elastic Compliance Matrix: (Units=1/GPa)
#
#
# Indices 1 2 3 4 5 6 
#
# 1 0.010120 -0.003623 -0.004034 0.000000 0.000200 0.000000
# 2 -0.003623 0.010562 -0.002304 0.000000 -0.001974 0.000000
# 3 -0.004034 -0.002304 0.013273 0.000000 -0.000291 0.000000
# 4 0.000000 0.000000 0.000000 0.076072 0.000000 0.006792
# 5 0.000200 -0.001974 -0.000291 0.000000 0.031696 0.000000
# 6 0.000000 0.000000 0.000000 0.006792 0.000000 0.044643
#
#
# Mechanical properties :
#
#
# Convention : Reuss Voigt Hill
#
# Bulk Modulus (GPa) = 71.25498 75.34829 73.30163
# Shear Modulus (GPa) = 23.70054 27.70156 25.70105
#
# Velocity S-wave (km/s) = 3.48826 3.77122 3.63249
# Velocity P-wave (km/s) = 7.26681 7.59255 7.43147
#
# Compressibility (1/GPa) = 0.01403411
#
# Stress axis : x y z
#
# Youngs Moduli (GPa) = 98.81503 94.67739 75.33991
#
# Poissons Ratio (x) = 0.34300 0.30389
# Poissons Ratio (y) = 0.35799 0.17359
# Poissons Ratio (z) = 0.39858 0.21815
#
# Static dielectric constant tensor:
#      x y z
#    x 1.733920 0.000000 -0.037730 
#    y 0.000000 1.712310 0.000000 
#    z -0.037730 0.000000 1.662510 
# 
# From -- ./inp_files/15936.got.cif
#   From: 2010.05.17/outbox.cif.g08.bks.cpg/sg11_8_cif.got.tgz:15936.got - 2010.06.03 12:22:45.
