data_PCOD9164178
_publ_section_title
;
Structure prediction by ZEFSAII (Michael W. Deem and Ramdas Pophale) SiO2 
 PCOD9164178
Probable space group: P 21/M
;
_chemical_formula_sum "Si O2"
_cell_formula_units_Z 32
_cell_length_a 25.482962
_cell_length_b 14.326977
_cell_length_c 10.044025
_cell_angle_alpha 90.000000
_cell_angle_beta 26.419167
_cell_angle_gamma 90.000000
_cell_volume 1631.580945
_symmetry_space_group_name_H-M "P 21/M"
_symmetry_group_IT_number 11
_symmetry_cell_setting 'monoclinic'
loop_
_space_group_symop_operation_xyz
x,y,z
-x,1/2+y,-z
-x,-y,-z
x,1/2-y,z
loop_
_atom_site_type_symbol
_atom_site_label
_atom_site_fract_x
_atom_site_fract_y
_atom_site_fract_z
Si Si1 0.403833 0.861009 0.717143
Si Si2 0.140906 0.644287 0.344079
Si Si3 0.692403 0.512035 0.433970
Si Si4 0.951674 0.511098 0.261284
Si Si5 0.479619 0.639062 0.830220
Si Si6 0.706941 0.523629 0.694337
Si Si7 0.916568 0.440373 0.786747
Si Si8 0.480552 0.639469 0.253272
O O1 0.387299 0.750000 0.736658
O O2 0.487697 0.872433 0.652130
O O3 0.454532 0.894413 0.463083
O O4 0.273586 0.897176 0.045876
O O5 0.142277 0.750000 0.389610
O O6 0.058214 0.584862 0.630235
O O7 0.111162 0.642459 0.253693
O O8 0.597604 0.593716 0.622648
O O9 0.751976 0.525979 0.440818
O O10 0.613487 0.417948 0.618759
O O11 0.795234 0.495036 0.094207
O O12 0.815527 0.538673 0.545689
O O13 0.021879 0.575654 0.209053
O O14 0.000000 0.500000 0.000000
O O15 0.465172 0.750000 0.893207
O O16 0.366931 0.573507 0.121190
O O17 0.610141 0.604374 0.926228
O O18 0.000000 0.500000 0.500000
O O19 0.467878 0.750000 0.268407
#
# Coordination Sequence:
#
# PCOD9164178 Si02
#       8
#     4   4   4   4   4   4   4   4
#     4   9  17  31  56  88 113 143 189 244 301 355
#     4  10  20  39  64  92 120 156 212 263 308 364
#     4  11  22  37  58  88 120 159 207 247 311 377
#     4  11  22  41  64  87 126 167 208 258 310 372
#     4  10  21  37  59  89 122 154 198 255 311 370
#     4  11  23  37  59  88 120 159 208 248 306 381
#     4  10  22  39  62  88 119 162 208 255 305 363
#     4  10  21  37  58  86 122 157 194 254 315 368
#
# _framework density 19.612879
#
# number of rings (size 3 to 8) (size 9 to 14) (size 15 to 20)
#    0.000    1.750    3.750    1.500    0.000    6.000 
#    0.000    4.375    0.000    0.000    0.000    0.000 
#    0.000    0.000    0.000    0.000    0.000    0.000 
#
# Total GULP energy -178192.000195 kJ/mol
# GULP energy per Si atom -5568.500006 kJ/mol
# Density = 1.956824 g / cm^3
# Si number density = 19.612879 Si / 1000 Ang^3
#
#
#
# Elastic Constant Matrix: (Units=GPa)
#
#
# Indices 1 2 3 4 5 6 
#
# 1 130.8342 16.2785 23.9355 0.0000 3.0922 0.0000
# 2 16.2785 68.3540 7.9466 0.0000 -4.0662 0.0000
# 3 23.9355 7.9466 77.9581 0.0000 5.5196 0.0000
# 4 0.0000 0.0000 0.0000 14.5532 0.0000 6.0378
# 5 3.0922 -4.0662 5.5196 0.0000 42.2046 0.0000
# 6 0.0000 0.0000 0.0000 6.0378 0.0000 15.1145
#
#
#
# Elastic Compliance Matrix: (Units=1/GPa)
#
#
# Indices 1 2 3 4 5 6 
#
# 1 0.008298 -0.001732 -0.002338 0.000000 -0.000469 0.000000
# 2 -0.001732 0.015280 -0.001150 0.000000 0.001749 0.000000
# 3 -0.002338 -0.001150 0.013786 0.000000 -0.001742 0.000000
# 4 0.000000 0.000000 0.000000 0.082364 0.000000 -0.032902
# 5 -0.000469 0.001749 -0.001742 0.000000 0.024125 0.000000
# 6 0.000000 0.000000 0.000000 -0.032902 0.000000 0.079305
#
#
# Mechanical properties :
#
#
# Convention : Reuss Voigt Hill
#
# Bulk Modulus (GPa) = 37.14148 41.49640 39.31894
# Shear Modulus (GPa) = 20.61253 29.64015 25.12634
#
# Velocity S-wave (km/s) = 3.24538 3.89171 3.58315
# Velocity P-wave (km/s) = 5.74645 6.43409 6.09997
#
# Compressibility (1/GPa) = 0.02692408
#
# Stress axis : x y z
#
# Youngs Moduli (GPa) = 120.51730 65.44517 72.53872
#
# Poissons Ratio (x) = 0.11336 0.16958
# Poissons Ratio (y) = 0.20876 0.08339
# Poissons Ratio (z) = 0.28175 0.07523
#
# Static dielectric constant tensor:
#      x y z
#    x 1.760550 0.000000 0.000920 
#    y 0.000000 1.693410 0.000000 
#    z 0.000920 0.000000 1.715380 
# 
# From -- ./inp_files/27766.got.cif
#   From: 2010.05.17/outbox.cif.g08.bks.cpg/sg11_14_cif.got.tgz:27766.got - 2010.06.03 12:22:45.
