data_PCOD9164382
_publ_section_title
;
Structure prediction by ZEFSAII (Michael W. Deem and Ramdas Pophale) SiO2 
 PCOD9164382
Probable space group: P 21/M
;
_chemical_formula_sum "Si O2"
_cell_formula_units_Z 30
_cell_length_a 26.040140
_cell_length_b 9.671245
_cell_length_c 10.855907
_cell_angle_alpha 90.000000
_cell_angle_beta 144.790655
_cell_angle_gamma 90.000000
_cell_volume 1576.306008
_symmetry_space_group_name_H-M "P 21/M"
_symmetry_group_IT_number 11
_symmetry_cell_setting 'monoclinic'
loop_
_space_group_symop_operation_xyz
x,y,z
-x,1/2+y,-z
-x,-y,-z
x,1/2-y,z
loop_
_atom_site_type_symbol
_atom_site_label
_atom_site_fract_x
_atom_site_fract_y
_atom_site_fract_z
Si Si1 0.733459 0.912040 0.232259
Si Si2 0.099348 0.413289 0.055621
Si Si3 0.641053 0.505517 0.795607
Si Si4 0.252885 0.586618 0.223908
Si Si5 0.925027 0.911072 0.700085
Si Si6 0.593424 0.096159 0.062772
Si Si7 0.500425 0.250000 0.533387
Si Si8 0.444380 0.900601 0.722147
O O1 0.719434 0.750000 0.230947
O O2 0.838519 0.938272 0.447454
O O3 0.681162 0.004556 0.228651
O O4 0.687005 0.951912 0.013804
O O5 0.101394 0.250000 0.030489
O O6 0.178375 0.496576 0.145261
O O7 0.104530 0.426437 0.214666
O O8 0.006225 0.485579 0.836658
O O9 0.720975 0.470455 0.858149
O O10 0.578650 0.371123 0.683184
O O11 0.578136 0.629150 0.626021
O O12 0.229618 0.750000 0.176148
O O13 0.346926 0.574258 0.480346
O O14 0.952577 0.750000 0.738395
O O15 0.607178 0.250000 0.040708
O O16 0.563207 0.107070 0.145123
O O17 0.515730 0.018442 0.835679
O O18 0.475606 0.750000 0.734374
#
# Coordination Sequence:
#
# PCOD9164382 Si02
#       8
#     4   4   4   4   4   4   2   4
#     4  11  23  38  59  83 115 155 197 243 293 352
#     4  10  21  38  65  95 120 150 191 242 300 361
#     4  11  24  40  61  88 117 162 209 250 296 345
#     4  11  23  38  59  84 117 155 197 243 295 354
#     4   9  20  41  65  90 120 155 193 238 299 363
#     4  10  21  33  52  81 113 149 188 237 292 349
#     4  10  24  42  60  82 120 160 214 254 288 340
#     4   9  20  36  52  77 113 151 189 233 291 352
#
# _framework density 19.031836999999999
#
# number of rings (size 3 to 8) (size 9 to 14) (size 15 to 20)
#    0.000    1.867    1.333    1.600    5.600    2.133 
#    0.000    0.667    0.000    0.000    0.000    0.000 
#    0.000    0.000    0.000    0.000    0.000    0.000 
#
# Total GULP energy -167031.844552 kJ/mol
# GULP energy per Si atom -5567.728152 kJ/mol
# Density = 1.898852 g / cm^3
# Si number density = 19.031837 Si / 1000 Ang^3
#
#
#
# Elastic Constant Matrix: (Units=GPa)
#
#
# Indices 1 2 3 4 5 6 
#
# 1 40.0234 29.6380 17.8020 0.0000 8.6945 0.0000
# 2 29.6380 148.5541 50.3391 0.0000 17.3185 0.0000
# 3 17.8020 50.3391 71.1685 0.0000 17.2837 0.0000
# 4 0.0000 0.0000 0.0000 16.1144 0.0000 15.6434
# 5 8.6945 17.3185 17.2837 0.0000 17.1892 0.0000
# 6 0.0000 0.0000 0.0000 15.6434 0.0000 23.6667
#
#
#
# Elastic Compliance Matrix: (Units=1/GPa)
#
#
# Indices 1 2 3 4 5 6 
#
# 1 0.031269 -0.004321 -0.002622 0.000000 -0.008826 0.000000
# 2 -0.004321 0.009610 -0.005155 0.000000 -0.002314 0.000000
# 3 -0.002622 -0.005155 0.022188 0.000000 -0.015790 0.000000
# 4 0.000000 0.000000 0.000000 0.173180 0.000000 -0.114469
# 5 -0.008826 -0.002314 -0.015790 0.000000 0.080849 0.000000
# 6 0.000000 0.000000 0.000000 -0.114469 0.000000 0.117916
#
#
# Mechanical properties :
#
#
# Convention : Reuss Voigt Hill
#
# Bulk Modulus (GPa) = 25.72558 50.58937 38.15747
# Shear Modulus (GPa) = 10.58956 22.19185 16.39071
#
# Velocity S-wave (km/s) = 2.36140 3.41843 2.93785
# Velocity P-wave (km/s) = 4.58055 6.49770 5.62145
#
# Compressibility (1/GPa) = 0.03887182
#
# Stress axis : x y z
#
# Youngs Moduli (GPa) = 31.98093 104.05724 45.07005
#
# Poissons Ratio (x) = 0.44964 0.11815
# Poissons Ratio (y) = 0.13819 0.23232
# Poissons Ratio (z) = 0.08384 0.53638
#
# Static dielectric constant tensor:
#      x y z
#    x 1.691000 0.000000 -0.054330 
#    y 0.000000 1.668830 0.000000 
#    z -0.054330 0.000000 1.667540 
# 
# From -- ./inp_files/45019.got.cif
#   From: 2010.05.17/outbox.cif.g08.bks.cpg/sg11_23_cif.got.tgz:45019.got - 2010.06.03 12:22:45.
