data_PCOD9164688
_publ_section_title
;
Structure prediction by ZEFSAII (Michael W. Deem and Ramdas Pophale) SiO2 
 PCOD9164688
Probable space group: P 21/M
;
_chemical_formula_sum "Si O2"
_cell_formula_units_Z 32
_cell_length_a 9.749987
_cell_length_b 13.706545
_cell_length_c 13.480953
_cell_angle_alpha 90.000000
_cell_angle_beta 94.108054
_cell_angle_gamma 90.000000
_cell_volume 1796.947416
_symmetry_space_group_name_H-M "P 21/M"
_symmetry_group_IT_number 11
_symmetry_cell_setting 'monoclinic'
loop_
_space_group_symop_operation_xyz
x,y,z
-x,1/2+y,-z
-x,-y,-z
x,1/2-y,z
loop_
_atom_site_type_symbol
_atom_site_label
_atom_site_fract_x
_atom_site_fract_y
_atom_site_fract_z
Si Si1 0.990269 0.137783 0.710638
Si Si2 0.387599 0.527395 0.137311
Si Si3 0.061000 0.002354 0.114287
Si Si4 0.784498 0.507731 0.374527
Si Si5 0.575842 0.137650 0.064876
Si Si6 0.489175 0.134734 0.666000
Si Si7 0.149113 0.638102 0.798858
Si Si8 0.746560 0.139327 0.548882
O O1 0.032507 0.250000 0.721435
O O2 0.988228 0.087214 0.818127
O O3 0.841036 0.133500 0.651845
O O4 0.089357 0.079985 0.640964
O O5 0.226183 0.501027 0.124150
O O6 0.478700 0.430448 0.126518
O O7 0.432152 0.584398 0.238020
O O8 0.424443 0.596268 0.046076
O O9 0.992107 0.095023 0.165070
O O10 0.000000 0.000000 0.000000
O O11 0.648319 0.573202 0.359167
O O12 0.796867 0.428277 0.287692
O O13 0.786256 0.445555 0.475210
O O14 0.532238 0.250000 0.066209
O O15 0.732105 0.131706 0.112035
O O16 0.463112 0.250000 0.684221
O O17 0.590057 0.129042 0.576700
O O18 0.133637 0.750000 0.767834
O O19 0.766311 0.250000 0.509208
#
# Coordination Sequence:
#
# PCOD9164688 Si02
#       8
#     4   4   4   4   4   4   4   4
#     4  10  22  38  60  88 117 154 197 243 291 346
#     4  11  21  38  59  83 119 151 195 245 291 350
#     4  11  22  37  59  86 116 150 192 238 291 347
#     4  11  21  38  59  86 117 155 193 248 290 343
#     4  10  21  36  58  83 113 155 194 232 290 353
#     4  11  22  37  59  89 118 151 196 243 294 348
#     4  10  21  37  56  81 112 151 193 233 289 350
#     4  10  21  38  61  87 114 153 199 240 296 353
#
# _framework density 17.807977000000001
#
# number of rings (size 3 to 8) (size 9 to 14) (size 15 to 20)
#    0.000    1.500    3.750    1.875    0.000    1.500 
#    0.000    1.250    0.000    1.500    0.000    0.000 
#    0.000    0.000    0.000    0.000    0.000    0.000 
#
# Total GULP energy -178546.238089 kJ/mol
# GULP energy per Si atom -5579.569940 kJ/mol
# Density = 1.776745 g / cm^3
# Si number density = 17.807977 Si / 1000 Ang^3
#
#
#
# Elastic Constant Matrix: (Units=GPa)
#
#
# Indices 1 2 3 4 5 6 
#
# 1 81.1566 51.1993 19.8760 0.0000 -7.9897 0.0000
# 2 51.1993 153.8044 43.3514 0.0000 -11.0841 0.0000
# 3 19.8760 43.3514 67.9831 0.0000 -7.3425 0.0000
# 4 0.0000 0.0000 0.0000 20.1949 0.0000 6.6593
# 5 -7.9897 -11.0841 -7.3425 0.0000 23.8802 0.0000
# 6 0.0000 0.0000 0.0000 6.6593 0.0000 18.9686
#
#
#
# Elastic Compliance Matrix: (Units=1/GPa)
#
#
# Indices 1 2 3 4 5 6 
#
# 1 0.015894 -0.004716 -0.001347 0.000000 0.002715 0.000000
# 2 -0.004716 0.009439 -0.004486 0.000000 0.001424 0.000000
# 3 -0.001347 -0.004486 0.018298 0.000000 0.003093 0.000000
# 4 0.000000 0.000000 0.000000 0.056000 0.000000 -0.019660
# 5 0.002715 0.001424 0.003093 0.000000 0.044396 0.000000
# 6 0.000000 0.000000 0.000000 -0.019660 0.000000 0.059621
#
#
# Mechanical properties :
#
#
# Convention : Reuss Voigt Hill
#
# Bulk Modulus (GPa) = 44.37816 59.08859 51.73337
# Shear Modulus (GPa) = 21.52798 25.17658 23.35228
#
# Velocity S-wave (km/s) = 3.48069 3.76411 3.62517
# Velocity P-wave (km/s) = 6.41312 7.22110 6.82907
#
# Compressibility (1/GPa) = 0.02253360
#
# Stress axis : x y z
#
# Youngs Moduli (GPa) = 62.91729 105.94704 54.65026
#
# Poissons Ratio (x) = 0.49961 0.07359
# Poissons Ratio (y) = 0.29670 0.24518
# Poissons Ratio (z) = 0.08472 0.47532
#
# Static dielectric constant tensor:
#      x y z
#    x 1.596020 0.000000 -0.003720 
#    y 0.000000 1.593070 0.000000 
#    z -0.003720 0.000000 1.593960 
# 
# From -- ./inp_files/21548.got.cif
#   From: 2010.05.17/outbox.cif.g08.bks.cpg/sg11_11_cif.got.tgz:21548.got - 2010.06.03 12:22:45.
