data_PCOD9164832
_publ_section_title
;
Structure prediction by ZEFSAII (Michael W. Deem and Ramdas Pophale) SiO2 
 PCOD9164832
Probable space group: P 21/M
;
_chemical_formula_sum "Si O2"
_cell_formula_units_Z 28
_cell_length_a 20.007286
_cell_length_b 8.850533
_cell_length_c 15.541271
_cell_angle_alpha 90.000000
_cell_angle_beta 35.101520
_cell_angle_gamma 90.000000
_cell_volume 1582.458553
_symmetry_space_group_name_H-M "P 21/M"
_symmetry_group_IT_number 11
_symmetry_cell_setting 'monoclinic'
loop_
_space_group_symop_operation_xyz
x,y,z
-x,1/2+y,-z
-x,-y,-z
x,1/2-y,z
loop_
_atom_site_type_symbol
_atom_site_label
_atom_site_fract_x
_atom_site_fract_y
_atom_site_fract_z
Si Si1 0.261356 0.428671 0.613015
Si Si2 0.376298 0.929176 0.653987
Si Si3 0.373121 0.569427 0.151802
Si Si4 0.996017 0.071531 0.909068
Si Si5 0.595204 0.568678 0.706830
Si Si6 0.323279 0.568606 0.016945
Si Si7 0.219769 0.070260 0.962435
O O1 0.281430 0.250000 0.611609
O O2 0.291847 0.525207 0.664627
O O3 0.125656 0.445398 0.734590
O O4 0.343636 0.472048 0.446965
O O5 0.385513 0.750000 0.653814
O O6 0.500000 0.000000 0.500000
O O7 0.323402 0.000436 0.795739
O O8 0.381995 0.750000 0.147138
O O9 0.340522 0.504101 0.278857
O O10 0.500000 0.500000 0.000000
O O11 0.301982 0.532510 0.140062
O O12 0.969673 0.250000 0.943594
O O13 0.000000 0.000000 0.000000
O O14 0.898651 0.992368 0.954211
O O15 0.600385 0.750000 0.710296
O O16 0.458366 0.527072 0.853844
O O17 0.313582 0.750000 0.016101
O O18 0.240766 0.485316 0.037158
O O19 0.222343 0.250000 0.953811
#
# Coordination Sequence:
#
# PCOD9164832 Si02
#       7
#     4   4   4   4   4   4   4
#     4  10  21  37  57  80 108 142 182 224 269 322
#     4  12  24  37  55  78 109 143 176 219 271 326
#     4   9  17  30  51  78 109 143 176 215 262 321
#     4  11  22  38  59  79 105 143 188 231 272 320
#     4   9  18  33  54  81 112 142 173 217 270 326
#     4   9  18  33  53  79 111 144 177 217 271 324
#     4  12  24  37  55  79 108 142 184 229 273 322
#
# _framework density 17.693985999999999
#
# number of rings (size 3 to 8) (size 9 to 14) (size 15 to 20)
#    0.000    1.714    1.429    5.143    0.000    5.143 
#    0.000    0.000    0.000    0.857    0.000    0.000 
#    0.000    0.000    0.000    0.000    0.000    0.000 
#
# Total GULP energy -156331.326491 kJ/mol
# GULP energy per Si atom -5583.261660 kJ/mol
# Density = 1.765371 g / cm^3
# Si number density = 17.693986 Si / 1000 Ang^3
#
#
#
# Elastic Constant Matrix: (Units=GPa)
#
#
# Indices 1 2 3 4 5 6 
#
# 1 120.3592 47.6223 4.2491 0.0000 4.0641 0.0000
# 2 47.6223 80.0266 5.4844 0.0000 -2.4509 0.0000
# 3 4.2491 5.4844 12.0924 0.0000 -3.3143 0.0000
# 4 0.0000 0.0000 0.0000 22.7473 0.0000 2.6677
# 5 4.0641 -2.4509 -3.3143 0.0000 27.5777 0.0000
# 6 0.0000 0.0000 0.0000 2.6677 0.0000 35.2668
#
#
#
# Elastic Compliance Matrix: (Units=1/GPa)
#
#
# Indices 1 2 3 4 5 6 
#
# 1 0.011028 -0.006528 -0.001570 0.000000 -0.002394 0.000000
# 2 -0.006528 0.016767 -0.004796 0.000000 0.001876 0.000000
# 3 -0.001570 -0.004796 0.088278 0.000000 0.010414 0.000000
# 4 0.000000 0.000000 0.000000 0.044355 0.000000 -0.003355
# 5 -0.002394 0.001876 0.010414 0.000000 0.038032 0.000000
# 6 0.000000 0.000000 0.000000 -0.003355 0.000000 0.028609
#
#
# Mechanical properties :
#
#
# Convention : Reuss Voigt Hill
#
# Bulk Modulus (GPa) = 11.07629 36.35441 23.71535
# Shear Modulus (GPa) = 17.67079 27.45986 22.56532
#
# Velocity S-wave (km/s) = 3.16363 3.94373 3.57502
# Velocity P-wave (km/s) = 4.42925 6.42870 5.52025
#
# Compressibility (1/GPa) = 0.09028298
#
# Stress axis : x y z
#
# Youngs Moduli (GPa) = 90.68076 59.64193 11.32781
#
# Poissons Ratio (x) = 0.38935 0.01779
# Poissons Ratio (y) = 0.59197 0.05433
# Poissons Ratio (z) = 0.14240 0.28607
#
# Static dielectric constant tensor:
#      x y z
#    x 1.618500 0.000000 0.004900 
#    y 0.000000 1.593080 0.000000 
#    z 0.004900 0.000000 1.597930 
# 
# From -- ./inp_files/53205.got.cif
#   From: 2010.05.17/outbox.cif.g08.bks.cpg/sg11_27_cif.got.tgz:53205.got - 2010.06.03 12:22:45.
