data_PCOD9164992
_publ_section_title
;
Structure prediction by ZEFSAII (Michael W. Deem and Ramdas Pophale) SiO2 
 PCOD9164992
Probable space group: P 21/M
;
_chemical_formula_sum "Si O2"
_cell_formula_units_Z 28
_cell_length_a 24.303262
_cell_length_b 8.952748
_cell_length_c 9.361468
_cell_angle_alpha 90.000000
_cell_angle_beta 37.593824
_cell_angle_gamma 90.000000
_cell_volume 1242.616925
_symmetry_space_group_name_H-M "P 21/M"
_symmetry_group_IT_number 11
_symmetry_cell_setting 'monoclinic'
loop_
_space_group_symop_operation_xyz
x,y,z
-x,1/2+y,-z
-x,-y,-z
x,1/2-y,z
loop_
_atom_site_type_symbol
_atom_site_label
_atom_site_fract_x
_atom_site_fract_y
_atom_site_fract_z
Si Si1 0.398578 0.427479 0.521502
Si Si2 0.996254 0.426395 0.852784
Si Si3 0.085174 0.428578 0.241793
Si Si4 0.280069 0.419470 0.480897
Si Si5 0.264666 0.576689 0.997338
Si Si6 0.825402 0.420381 0.525202
Si Si7 0.460247 0.079795 0.942412
O O1 0.403583 0.250000 0.525903
O O2 0.330856 0.457703 0.524562
O O3 0.496172 0.491860 0.278457
O O4 0.353583 0.501861 0.751016
O O5 0.980326 0.250000 0.886917
O O6 0.096973 0.464426 0.589604
O O7 0.927114 0.512966 0.894027
O O8 0.000000 0.500000 0.000000
O O9 0.081243 0.250000 0.257895
O O10 0.178865 0.490435 0.108797
O O11 0.000000 0.500000 0.500000
O O12 0.243227 0.250000 0.571148
O O13 0.209965 0.535328 0.558643
O O14 0.355838 0.414519 0.199531
O O15 0.261264 0.750000 0.960354
O O16 0.250863 0.572852 0.195994
O O17 0.860776 0.250000 0.453642
O O18 0.492732 0.250000 0.865765
O O19 0.500000 0.000000 0.000000
#
# Coordination Sequence:
#
# PCOD9164992 Si02
#       7
#     4   4   4   4   4   4   4
#     4  10  21  37  60  90 120 154 200 248 297 357
#     4  12  26  44  66  90 122 159 200 252 304 357
#     4  12  24  42  66  91 120 159 204 246 298 360
#     4   9  20  37  59  87 120 155 195 244 300 357
#     4  11  24  41  61  87 121 159 202 249 298 355
#     4  11  24  41  61  87 121 158 201 246 300 361
#     4   9  17  33  57  86 119 154 195 243 297 355
#
# _framework density 22.533090999999999
#
# number of rings (size 3 to 8) (size 9 to 14) (size 15 to 20)
#    0.000    1.429    1.429    5.143    2.000    5.143 
#    0.000    0.714    0.000    0.000    0.000    0.000 
#    0.000    0.000    0.000    0.000    0.000    0.000 
#
# Total GULP energy -156529.986556 kJ/mol
# GULP energy per Si atom -5590.356663 kJ/mol
# Density = 2.248180 g / cm^3
# Si number density = 22.533091 Si / 1000 Ang^3
#
#
#
# Elastic Constant Matrix: (Units=GPa)
#
#
# Indices 1 2 3 4 5 6 
#
# 1 48.7697 31.4943 -14.0841 0.0000 17.3216 0.0000
# 2 31.4943 157.5552 21.7193 0.0000 8.2252 0.0000
# 3 -14.0841 21.7193 105.1331 0.0000 12.9213 0.0000
# 4 0.0000 0.0000 0.0000 40.1083 0.0000 0.1707
# 5 17.3216 8.2252 12.9213 0.0000 21.9461 0.0000
# 6 0.0000 0.0000 0.0000 0.1707 0.0000 24.5312
#
#
#
# Elastic Compliance Matrix: (Units=1/GPa)
#
#
# Indices 1 2 3 4 5 6 
#
# 1 0.042690 -0.008227 0.012053 0.000000 -0.037708 0.000000
# 2 -0.008227 0.008184 -0.003464 0.000000 0.005466 0.000000
# 3 0.012053 -0.003464 0.013854 0.000000 -0.016372 0.000000
# 4 0.000000 0.000000 0.000000 0.024933 0.000000 -0.000173
# 5 -0.037708 0.005466 -0.016372 0.000000 0.082919 0.000000
# 6 0.000000 0.000000 0.000000 -0.000173 0.000000 0.040766
#
#
# Mechanical properties :
#
#
# Convention : Reuss Voigt Hill
#
# Bulk Modulus (GPa) = 15.27831 43.30192 29.29011
# Shear Modulus (GPa) = 21.32745 35.47234 28.39989
#
# Velocity S-wave (km/s) = 3.07985 3.97197 3.55401
# Velocity P-wave (km/s) = 4.40936 6.34776 5.46519
#
# Compressibility (1/GPa) = 0.06545227
#
# Stress axis : x y z
#
# Youngs Moduli (GPa) = 23.42443 122.19461 72.17985
#
# Poissons Ratio (x) = 1.00524 -0.86998
# Poissons Ratio (y) = 0.19270 0.25006
# Poissons Ratio (z) = -0.28233 0.42334
#
# Static dielectric constant tensor:
#      x y z
#    x 1.839820 0.000000 0.003330 
#    y 0.000000 1.765920 0.000000 
#    z 0.003330 0.000000 1.946760 
# 
# From -- ./inp_files/28453.got.cif
#   From: 2010.05.17/outbox.cif.g08.bks.cpg/sg11_15_cif.got.tgz:28453.got - 2010.06.03 12:22:45.
