data_PCOD9164114
_publ_section_title
;
Structure prediction by ZEFSAII (Michael W. Deem and Ramdas Pophale) SiO2 
 PCOD9164114
Probable space group: P 21/M
;
_chemical_formula_sum "Si O2"
_cell_formula_units_Z 32
_cell_length_a 5.424632
_cell_length_b 17.874117
_cell_length_c 16.092758
_cell_angle_alpha 90.000000
_cell_angle_beta 85.140601
_cell_angle_gamma 90.000000
_cell_volume 1554.753370
_symmetry_space_group_name_H-M "P 21/M"
_symmetry_group_IT_number 11
_symmetry_cell_setting 'monoclinic'
loop_
_space_group_symop_operation_xyz
x,y,z
-x,1/2+y,-z
-x,-y,-z
x,1/2-y,z
loop_
_atom_site_type_symbol
_atom_site_label
_atom_site_fract_x
_atom_site_fract_y
_atom_site_fract_z
Si Si1 0.784794 0.841016 0.524624
Si Si2 0.133720 0.898237 0.806163
Si Si3 0.592479 0.169028 0.786212
Si Si4 0.028553 0.568030 0.182558
Si Si5 0.388466 0.338659 0.112868
Si Si6 0.261638 0.840821 0.620066
Si Si7 0.773368 0.836434 0.336307
Si Si8 0.185706 0.332579 0.940229
O O1 0.779899 0.750000 0.522831
O O2 0.528370 0.863950 0.575849
O O3 0.789711 0.866396 0.428709
O O4 0.031594 0.862593 0.567417
O O5 0.364481 0.877365 0.859135
O O6 0.216474 0.874740 0.711780
O O7 0.871239 0.858387 0.834476
O O8 0.071933 0.985650 0.813921
O O9 0.730385 0.250000 0.795004
O O10 0.502413 0.167358 0.693902
O O11 0.372084 0.175951 0.858235
O O12 0.690358 0.086531 0.804275
O O13 0.912132 0.615134 0.263011
O O14 0.996604 0.606832 0.093325
O O15 0.430807 0.250000 0.119326
O O16 0.330418 0.356261 0.018219
O O17 0.261240 0.750000 0.626658
O O18 0.860010 0.750000 0.334721
O O19 0.072513 0.250000 0.960476
#
# Coordination Sequence:
#
# PCOD9164114 Si02
#       8
#     4   4   4   4   4   4   4   4
#     4   9  19  35  63  92 116 151 209 265 303 353
#     4  12  27  42  66  93 127 167 207 257 319 371
#     4   9  18  35  61  87 123 166 204 248 302 375
#     4  11  23  37  60  90 135 167 200 248 312 382
#     4  11  25  46  69  93 118 159 217 269 308 366
#     4  10  20  39  61  85 116 156 208 265 310 357
#     4   9  19  36  60  93 123 164 211 253 304 369
#     4   9  21  40  64  92 123 163 211 256 308 364
#
# _framework density 20.582042999999999
#
# number of rings (size 3 to 8) (size 9 to 14) (size 15 to 20)
#    0.000    2.000    0.000    3.750    7.000    2.000 
#    0.000    1.250    0.000    0.000    0.000    0.000 
#    0.000    0.000    0.000    0.000    0.000    0.000 
#
# Total GULP energy -178268.733776 kJ/mol
# GULP energy per Si atom -5570.897930 kJ/mol
# Density = 2.053520 g / cm^3
# Si number density = 20.582043 Si / 1000 Ang^3
#
#
#
# Elastic Constant Matrix: (Units=GPa)
#
#
# Indices 1 2 3 4 5 6 
#
# 1 51.3057 -9.2170 1.2001 0.0000 8.3950 0.0000
# 2 -9.2170 25.4645 7.4453 0.0000 4.7278 0.0000
# 3 1.2001 7.4453 84.3853 0.0000 23.9500 0.0000
# 4 0.0000 0.0000 0.0000 -9.9919 0.0000 -19.7949
# 5 8.3950 4.7278 23.9500 0.0000 27.9920 0.0000
# 6 0.0000 0.0000 0.0000 -19.7949 0.0000 45.7394
#
#
#
# Elastic Compliance Matrix: (Units=1/GPa)
#
#
# Indices 1 2 3 4 5 6 
#
# 1 0.022789 0.009602 0.001623 0.000000 -0.009845 0.000000
# 2 0.009602 0.044887 -0.001490 0.000000 -0.009186 0.000000
# 3 0.001623 -0.001490 0.015882 0.000000 -0.013824 0.000000
# 4 0.000000 0.000000 0.000000 -0.053883 0.000000 -0.023319
# 5 -0.009845 -0.009186 -0.013824 0.000000 0.052056 0.000000
# 6 0.000000 0.000000 0.000000 -0.023319 0.000000 0.011771
#
#
# Mechanical properties :
#
#
# Convention : Reuss Voigt Hill
#
# Bulk Modulus (GPa) = 9.70606 17.77912 13.74259
# Shear Modulus (GPa) = 46.13626 23.52972 34.83299
#
# Velocity S-wave (km/s) = 4.73967 3.38482 4.11834
# Velocity P-wave (km/s) = 5.88886 4.89213 5.41348
#
# Compressibility (1/GPa) = 0.10302846
#
# Stress axis : x y z
#
# Youngs Moduli (GPa) = 43.88097 22.27818 62.96341
#
# Poissons Ratio (x) = -0.21391 -0.10218
# Poissons Ratio (y) = -0.42134 0.09379
# Poissons Ratio (z) = -0.07121 0.03319
#
# Static dielectric constant tensor:
#      x y z
#    x 1.868040 0.000000 0.017510 
#    y 0.000000 1.762510 0.000000 
#    z 0.017510 0.000000 1.707730 
# 
# From -- ./inp_files/9139.got.cif
#   From: 2010.05.17/outbox.cif.g08.bks.cpg/sg11_5_cif.got.tgz:9139.got - 2010.06.03 12:22:45.
