data_PCOD9164865
_publ_section_title
;
Structure prediction by ZEFSAII (Michael W. Deem and Ramdas Pophale) SiO2 
 PCOD9164865
Probable space group: P 21/M
;
_chemical_formula_sum "Si O2"
_cell_formula_units_Z 32
_cell_length_a 15.200401
_cell_length_b 9.222332
_cell_length_c 26.112269
_cell_angle_alpha 90.000000
_cell_angle_beta 24.739607
_cell_angle_gamma 90.000000
_cell_volume 1531.900942
_symmetry_space_group_name_H-M "P 21/M"
_symmetry_group_IT_number 11
_symmetry_cell_setting 'monoclinic'
loop_
_space_group_symop_operation_xyz
x,y,z
-x,1/2+y,-z
-x,-y,-z
x,1/2-y,z
loop_
_atom_site_type_symbol
_atom_site_label
_atom_site_fract_x
_atom_site_fract_y
_atom_site_fract_z
Si Si1 0.580122 0.581490 0.589924
Si Si2 0.860059 0.922329 0.838295
Si Si3 0.387709 0.584636 0.321677
Si Si4 0.241322 0.415940 0.304778
Si Si5 0.283024 0.916732 0.989720
Si Si6 0.664292 0.077495 0.376240
Si Si7 0.050239 0.918672 0.311653
Si Si8 0.866794 0.916933 0.027373
O O1 0.551879 0.750000 0.620328
O O2 0.603562 0.483511 0.627007
O O3 0.391501 0.535284 0.652448
O O4 0.796711 0.573063 0.443248
O O5 0.822779 0.750000 0.855760
O O6 0.098045 0.949232 0.732584
O O7 0.718804 0.999605 0.955574
O O8 0.847988 0.993364 0.788806
O O9 0.313187 0.750000 0.361607
O O10 0.251981 0.487805 0.354816
O O11 0.626242 0.585254 0.174233
O O12 0.168067 0.250000 0.344879
O O13 0.112924 0.511226 0.332464
O O14 0.480987 0.415341 0.157118
O O15 0.213680 0.750000 0.032747
O O16 0.141448 0.000345 0.022560
O O17 0.627924 0.250000 0.398551
O O18 0.500000 0.000000 0.500000
O O19 0.111504 0.750000 0.277322
O O20 0.938430 0.750000 0.983344
O O21 0.000000 0.000000 0.000000
#
# Coordination Sequence:
#
# PCOD9164865 Si02
#       8
#     4   4   4   4   4   4   4   4
#     4  10  22  39  59  87 121 158 197 239 292 350
#     4  11  23  38  60  91 122 157 198 243 293 350
#     4  10  22  39  60  88 118 153 197 243 292 349
#     4  10  22  42  65  87 116 154 195 247 300 349
#     4  10  22  40  61  86 117 155 196 242 297 351
#     4  10  21  38  59  85 119 158 196 240 292 345
#     4  11  23  40  63  88 117 156 199 247 295 348
#     4  10  21  37  57  85 118 154 197 243 291 347
#
# _framework density 20.889078999999999
#
# number of rings (size 3 to 8) (size 9 to 14) (size 15 to 20)
#    0.000    1.750    1.250    2.250    1.750    6.000 
#    0.000    0.000    0.000    0.000    0.000    0.000 
#    0.000    0.000    0.000    0.000    0.000    0.000 
#
# Total GULP energy -178956.279178 kJ/mol
# GULP energy per Si atom -5592.383724 kJ/mol
# Density = 2.084153 g / cm^3
# Si number density = 20.889079 Si / 1000 Ang^3
#
#
#
# Elastic Constant Matrix: (Units=GPa)
#
#
# Indices 1 2 3 4 5 6 
#
# 1 100.4708 41.2251 3.5665 0.0000 11.0959 0.0000
# 2 41.2251 122.9591 22.2425 0.0000 10.5675 0.0000
# 3 3.5665 22.2425 40.6121 0.0000 12.4133 0.0000
# 4 0.0000 0.0000 0.0000 27.0509 0.0000 7.6563
# 5 11.0959 10.5675 12.4133 0.0000 34.1772 0.0000
# 6 0.0000 0.0000 0.0000 7.6563 0.0000 39.3713
#
#
#
# Elastic Compliance Matrix: (Units=1/GPa)
#
#
# Indices 1 2 3 4 5 6 
#
# 1 0.011940 -0.004117 0.002252 0.000000 -0.003422 0.000000
# 2 -0.004117 0.010485 -0.005398 0.000000 0.000055 0.000000
# 3 0.002252 -0.005398 0.030479 0.000000 -0.010132 0.000000
# 4 0.000000 0.000000 0.000000 0.039121 0.000000 -0.007608
# 5 -0.003422 0.000055 -0.010132 0.000000 0.034033 0.000000
# 6 0.000000 0.000000 0.000000 -0.007608 0.000000 0.026879
#
#
# Mechanical properties :
#
#
# Convention : Reuss Voigt Hill
#
# Bulk Modulus (GPa) = 26.05610 44.23444 35.14527
# Shear Modulus (GPa) = 27.73880 33.25375 30.49628
#
# Velocity S-wave (km/s) = 3.64800 3.99422 3.82503
# Velocity P-wave (km/s) = 5.49950 6.51871 6.03067
#
# Compressibility (1/GPa) = 0.03837873
#
# Stress axis : x y z
#
# Youngs Moduli (GPa) = 83.75093 95.37796 32.80997
#
# Poissons Ratio (x) = 0.39263 -0.07388
# Poissons Ratio (y) = 0.34476 0.17709
# Poissons Ratio (z) = -0.18859 0.51481
#
# Static dielectric constant tensor:
#      x y z
#    x 1.728430 0.000000 -0.025840 
#    y 0.000000 1.713100 0.000000 
#    z -0.025840 0.000000 1.763940 
# 
# From -- ./inp_files/51717.got.cif
#   From: 2010.05.17/outbox.cif.g08.bks.cpg/sg11_26_cif.got.tgz:51717.got - 2010.06.03 12:22:45.
