data_PCOD9164655
_publ_section_title
;
Structure prediction by ZEFSAII (Michael W. Deem and Ramdas Pophale) SiO2 
 PCOD9164655
Probable space group: P 21/M
;
_chemical_formula_sum "Si O2"
_cell_formula_units_Z 32
_cell_length_a 14.632813
_cell_length_b 14.040007
_cell_length_c 19.229863
_cell_angle_alpha 90.000000
_cell_angle_beta 154.543038
_cell_angle_gamma 90.000000
_cell_volume 1698.130593
_symmetry_space_group_name_H-M "P 21/M"
_symmetry_group_IT_number 11
_symmetry_cell_setting 'monoclinic'
loop_
_space_group_symop_operation_xyz
x,y,z
-x,1/2+y,-z
-x,-y,-z
x,1/2-y,z
loop_
_atom_site_type_symbol
_atom_site_label
_atom_site_fract_x
_atom_site_fract_y
_atom_site_fract_z
Si Si1 0.479426 0.963308 0.880842
Si Si2 0.084983 0.363585 0.861709
Si Si3 0.321821 0.862379 0.906748
Si Si4 0.357710 0.863669 0.515521
Si Si5 0.823808 0.861693 0.576246
Si Si6 0.426357 0.000960 0.689235
Si Si7 0.080559 0.511007 0.977026
Si Si8 0.273006 0.364556 0.337730
O O1 0.347792 0.904125 0.846873
O O2 0.380260 0.970379 0.736277
O O3 0.705040 0.909480 0.027060
O O4 0.531400 0.068932 0.945596
O O5 0.105006 0.250000 0.881420
O O6 0.879209 0.385938 0.673692
O O7 0.057629 0.413029 0.917857
O O8 0.375097 0.750000 0.946615
O O9 0.076095 0.874144 0.759628
O O10 0.372819 0.750000 0.534355
O O11 0.411511 0.914581 0.624382
O O12 0.525470 0.891337 0.570809
O O13 0.784913 0.750000 0.538456
O O14 0.709073 0.891993 0.569079
O O15 0.733273 0.921056 0.450379
O O16 0.670529 0.036859 0.854777
O O17 0.000000 0.500000 0.000000
O O18 0.934050 0.587118 0.837210
O O19 0.251153 0.250000 0.321118
#
# Coordination Sequence:
#
# PCOD9164655 Si02
#       8
#     4   4   4   4   4   4   4   4
#     4  10  22  39  63  92 116 149 191 239 299 345
#     4  10  22  39  58  82 114 152 195 237 283 347
#     4  10  21  41  65  86 115 154 194 237 288 351
#     4  10  21  36  57  82 113 154 194 234 284 342
#     4  10  22  38  58  83 113 154 198 237 285 342
#     4  11  22  36  57  85 120 147 185 246 288 344
#     4  11  22  34  52  81 112 151 191 236 289 337
#     4  10  21  38  56  78 113 157 198 234 280 343
#
# _framework density 18.844251
#
# number of rings (size 3 to 8) (size 9 to 14) (size 15 to 20)
#    0.000    1.750    1.250    3.375    1.750    5.500 
#    0.000    0.000    0.000    3.000    0.000    0.000 
#    0.000    0.000    0.000    0.000    0.000    0.000 
#
# Total GULP energy -178782.607600 kJ/mol
# GULP energy per Si atom -5586.956488 kJ/mol
# Density = 1.880136 g / cm^3
# Si number density = 18.844251 Si / 1000 Ang^3
#
#
#
# Elastic Constant Matrix: (Units=GPa)
#
#
# Indices 1 2 3 4 5 6 
#
# 1 125.2668 33.3864 11.4637 0.0000 -13.7880 0.0000
# 2 33.3864 91.4047 22.1510 0.0000 -3.0778 0.0000
# 3 11.4637 22.1510 44.8603 0.0000 -16.5718 0.0000
# 4 0.0000 0.0000 0.0000 5.6064 0.0000 15.4377
# 5 -13.7880 -3.0778 -16.5718 0.0000 17.8219 0.0000
# 6 0.0000 0.0000 0.0000 15.4377 0.0000 15.4854
#
#
#
# Elastic Compliance Matrix: (Units=1/GPa)
#
#
# Indices 1 2 3 4 5 6 
#
# 1 0.009849 -0.004015 0.003083 0.000000 0.009793 0.000000
# 2 -0.004015 0.014418 -0.009628 0.000000 -0.009569 0.000000
# 3 0.003083 -0.009628 0.040403 0.000000 0.038292 0.000000
# 4 0.000000 0.000000 0.000000 -0.102210 0.000000 0.101896
# 5 0.009793 -0.009569 0.038292 0.000000 0.097640 0.000000
# 6 0.000000 0.000000 0.000000 0.101896 0.000000 -0.037005
#
#
# Mechanical properties :
#
#
# Convention : Reuss Voigt Hill
#
# Bulk Modulus (GPa) = 22.96185 43.94822 33.45504
# Shear Modulus (GPa) = 85.13401 20.75146 52.94273
#
# Velocity S-wave (km/s) = 6.72873 3.32205 5.30621
# Velocity P-wave (km/s) = 8.51934 6.17148 7.43863
#
# Compressibility (1/GPa) = 0.04355049
#
# Stress axis : x y z
#
# Youngs Moduli (GPa) = 101.53552 69.35829 24.75068
#
# Poissons Ratio (x) = 0.27846 -0.07632
# Poissons Ratio (y) = 0.40765 0.23830
# Poissons Ratio (z) = -0.31308 0.66779
#
# Static dielectric constant tensor:
#      x y z
#    x 1.649760 0.000000 0.011960 
#    y 0.000000 1.653300 0.000000 
#    z 0.011960 0.000000 1.630140 
# 
# From -- ./inp_files/65803.got.cif
#   From: 2010.05.17/outbox.cif.g08.bks.cpg/sg11_33_cif.got.tgz:65803.got - 2010.06.03 12:22:45.
