data_PCOD9164833
_publ_section_title
;
Structure prediction by ZEFSAII (Michael W. Deem and Ramdas Pophale) SiO2 
 PCOD9164833
Probable space group: P 21/M
;
_chemical_formula_sum "Si O2"
_cell_formula_units_Z 32
_cell_length_a 7.098460
_cell_length_b 8.964209
_cell_length_c 28.542126
_cell_angle_alpha 90.000000
_cell_angle_beta 93.340715
_cell_angle_gamma 90.000000
_cell_volume 1813.108483
_symmetry_space_group_name_H-M "P 21/M"
_symmetry_group_IT_number 11
_symmetry_cell_setting 'monoclinic'
loop_
_space_group_symop_operation_xyz
x,y,z
-x,1/2+y,-z
-x,-y,-z
x,1/2-y,z
loop_
_atom_site_type_symbol
_atom_site_label
_atom_site_fract_x
_atom_site_fract_y
_atom_site_fract_z
Si Si1 0.711441 0.074383 0.624992
Si Si2 0.678441 0.073038 0.116055
Si Si3 0.958358 0.926728 0.049184
Si Si4 0.981108 0.928289 0.448902
Si Si5 0.278378 0.926797 0.132233
Si Si6 0.690964 0.072378 0.373079
Si Si7 0.946944 0.572370 0.299213
Si Si8 0.001774 0.927033 0.800891
O O1 0.660015 0.250000 0.624852
O O2 0.831476 0.045050 0.579624
O O3 0.858265 0.047389 0.669440
O O4 0.525432 0.976828 0.626254
O O5 0.656593 0.250000 0.108996
O O6 0.820768 0.048940 0.161766
O O7 0.479292 0.997970 0.123867
O O8 0.780658 0.001181 0.072622
O O9 0.927711 0.750000 0.043802
O O10 0.136603 0.949619 0.086389
O O11 0.000000 0.000000 0.000000
O O12 0.954080 0.750000 0.451348
O O13 0.000000 0.000000 0.500000
O O14 0.809665 0.000642 0.417423
O O15 0.295854 0.750000 0.140534
O O16 0.178099 0.003808 0.175101
O O17 0.710320 0.250000 0.374039
O O18 0.784341 0.006051 0.327304
O O19 0.913673 0.750000 0.297572
O O20 0.962742 0.505734 0.247887
O O21 0.976959 0.750000 0.794308
#
# Coordination Sequence:
#
# PCOD9164833 Si02
#       8
#     4   4   4   4   4   4   4   4
#     4   9  20  38  57  79 108 143 182 223 268 319
#     4  10  21  37  57  81 110 144 181 224 272 321
#     4  10  21  37  57  81 109 142 181 224 271 323
#     4  10  21  38  59  82 111 145 183 227 272 322
#     4  10  21  37  57  81 109 143 182 223 269 322
#     4  11  22  36  57  83 111 144 181 224 273 323
#     4  10  21  38  59  81 109 145 183 225 271 321
#     4  10  21  37  57  82 111 142 180 225 271 321
#
# _framework density 17.649246000000002
#
# number of rings (size 3 to 8) (size 9 to 14) (size 15 to 20)
#    0.000    2.000    0.000    4.125    0.000    8.000 
#    0.000    0.000    0.000    0.000    0.000    0.000 
#    0.000    0.000    0.000    0.000    0.000    0.000 
#
# Total GULP energy -178757.956811 kJ/mol
# GULP energy per Si atom -5586.186150 kJ/mol
# Density = 1.760908 g / cm^3
# Si number density = 17.649246 Si / 1000 Ang^3
#
#
#
# Elastic Constant Matrix: (Units=GPa)
#
#
# Indices 1 2 3 4 5 6 
#
# 1 111.1461 86.9923 33.9277 0.0000 -16.3068 0.0000
# 2 86.9923 133.8628 80.8335 0.0000 -11.9538 0.0000
# 3 33.9277 80.8335 120.5371 0.0000 -16.3814 0.0000
# 4 0.0000 0.0000 0.0000 37.2057 0.0000 -3.6013
# 5 -16.3068 -11.9538 -16.3814 0.0000 7.4820 0.0000
# 6 0.0000 0.0000 0.0000 -3.6013 0.0000 32.9505
#
#
#
# Elastic Compliance Matrix: (Units=1/GPa)
#
#
# Indices 1 2 3 4 5 6 
#
# 1 0.036943 -0.028859 0.019405 0.000000 0.076894 0.000000
# 2 -0.028859 0.035126 -0.023282 0.000000 -0.057750 0.000000
# 3 0.019405 -0.023282 0.027247 0.000000 0.064753 0.000000
# 4 0.000000 0.000000 0.000000 0.027165 0.000000 0.002969
# 5 0.076894 -0.057750 0.064753 0.000000 0.350748 0.000000
# 6 0.000000 0.000000 0.000000 0.002969 0.000000 0.030673
#
#
# Mechanical properties :
#
#
# Convention : Reuss Voigt Hill
#
# Bulk Modulus (GPa) = 29.54623 85.45033 57.49828
# Shear Modulus (GPa) = 8.55205 26.44715 17.49960
#
# Velocity S-wave (km/s) = 2.20365 3.87523 3.15226
# Velocity P-wave (km/s) = 4.82202 8.27914 6.77481
#
# Compressibility (1/GPa) = 0.03384527
#
# Stress axis : x y z
#
# Youngs Moduli (GPa) = 27.06900 28.46876 36.70093
#
# Poissons Ratio (x) = 0.82157 -0.71218
# Poissons Ratio (y) = 0.78118 0.85446
# Poissons Ratio (z) = -0.52527 0.66280
#
# Static dielectric constant tensor:
#      x y z
#    x 1.572930 0.000000 0.006630 
#    y 0.000000 1.588540 0.000000 
#    z 0.006630 0.000000 1.574360 
# 
# From -- ./inp_files/72594.got.cif
#   From: 2010.05.17/outbox.cif.g08.bks.cpg/sg11_37_cif.got.tgz:72594.got - 2010.06.03 12:22:45.
