data_PCOD9164864
_publ_section_title
;
Structure prediction by ZEFSAII (Michael W. Deem and Ramdas Pophale) SiO2 
 PCOD9164864
Probable space group: P 21/M
;
_chemical_formula_sum "Si O2"
_cell_formula_units_Z 28
_cell_length_a 11.177032
_cell_length_b 8.710258
_cell_length_c 15.356901
_cell_angle_alpha 90.000000
_cell_angle_beta 113.009495
_cell_angle_gamma 90.000000
_cell_volume 1376.121005
_symmetry_space_group_name_H-M "P 21/M"
_symmetry_group_IT_number 11
_symmetry_cell_setting 'monoclinic'
loop_
_space_group_symop_operation_xyz
x,y,z
-x,1/2+y,-z
-x,-y,-z
x,1/2-y,z
loop_
_atom_site_type_symbol
_atom_site_label
_atom_site_fract_x
_atom_site_fract_y
_atom_site_fract_z
Si Si1 0.314852 0.925323 0.943349
Si Si2 0.014745 0.575658 0.909963
Si Si3 0.209636 0.933721 0.247238
Si Si4 0.854303 0.563862 0.449393
Si Si5 0.352309 0.065793 0.456736
Si Si6 0.317371 0.433603 0.755457
Si Si7 0.401788 0.563287 0.150829
O O1 0.359037 0.750000 0.939482
O O2 0.166585 0.919651 0.933173
O O3 0.311752 0.016554 0.853335
O O4 0.391290 0.992704 0.048350
O O5 0.965039 0.750000 0.898244
O O6 0.937021 0.485180 0.813294
O O7 0.000000 0.500000 0.000000
O O8 0.217628 0.750000 0.258445
O O9 0.285454 0.981578 0.180624
O O10 0.279322 0.010597 0.348720
O O11 0.862443 0.750000 0.453017
O O12 0.746351 0.520792 0.492162
O O13 0.793818 0.509071 0.340227
O O14 0.000000 0.500000 0.500000
O O15 0.362972 0.250000 0.462094
O O16 0.500000 0.000000 0.500000
O O17 0.312362 0.250000 0.750011
O O18 0.462073 0.480985 0.767050
O O19 0.397010 0.750000 0.143106
#
# Coordination Sequence:
#
# PCOD9164864 Si02
#       7
#     4   4   4   4   4   4   4
#     4  10  21  37  57  84 120 159 195 240 300 359
#     4  11  22  38  58  86 123 161 204 252 305 368
#     4  11  22  39  64  91 123 164 204 251 311 371
#     4  10  24  44  64  89 124 165 211 264 321 378
#     4  11  24  44  68  97 128 164 212 268 325 384
#     4  10  21  38  61  86 113 152 202 247 296 364
#     4   9  18  37  60  85 121 159 192 238 304 363
#
# _framework density 20.347047
#
# number of rings (size 3 to 8) (size 9 to 14) (size 15 to 20)
#    0.000    1.714    1.429    2.571    2.000    5.143 
#    0.000    2.857    0.000    0.000    0.000    0.000 
#    0.000    0.000    0.000    0.000    0.000    0.000 
#
# Total GULP energy -156289.525846 kJ/mol
# GULP energy per Si atom -5581.768780 kJ/mol
# Density = 2.030074 g / cm^3
# Si number density = 20.347047 Si / 1000 Ang^3
#
#
#
# Elastic Constant Matrix: (Units=GPa)
#
#
# Indices 1 2 3 4 5 6 
#
# 1 88.5274 27.7287 49.8399 0.0000 14.0620 0.0000
# 2 27.7287 37.8921 23.7922 0.0000 6.0582 0.0000
# 3 49.8399 23.7922 155.7407 0.0000 23.3044 0.0000
# 4 0.0000 0.0000 0.0000 33.7649 0.0000 0.6525
# 5 14.0620 6.0582 23.3044 0.0000 35.8139 0.0000
# 6 0.0000 0.0000 0.0000 0.6525 0.0000 25.7621
#
#
#
# Elastic Compliance Matrix: (Units=1/GPa)
#
#
# Indices 1 2 3 4 5 6 
#
# 1 0.016682 -0.009600 -0.003473 0.000000 -0.002666 0.000000
# 2 -0.009600 0.034881 -0.002147 0.000000 -0.000734 0.000000
# 3 -0.003473 -0.002147 0.008422 0.000000 -0.003753 0.000000
# 4 0.000000 0.000000 0.000000 0.029631 0.000000 -0.000750
# 5 -0.002666 -0.000734 -0.003753 0.000000 0.031536 0.000000
# 6 0.000000 0.000000 0.000000 -0.000750 0.000000 0.038836
#
#
# Mechanical properties :
#
#
# Convention : Reuss Voigt Hill
#
# Bulk Modulus (GPa) = 33.84653 53.87573 43.86113
# Shear Modulus (GPa) = 24.96561 31.12149 28.04355
#
# Velocity S-wave (km/s) = 3.50664 3.91517 3.71652
# Velocity P-wave (km/s) = 5.75031 6.85375 6.32614
#
# Compressibility (1/GPa) = 0.02954512
#
# Stress axis : x y z
#
# Youngs Moduli (GPa) = 59.94594 28.66859 118.73819
#
# Poissons Ratio (x) = 0.27523 0.41236
# Poissons Ratio (y) = 0.57551 0.25488
# Poissons Ratio (z) = 0.20818 0.06154
#
# Static dielectric constant tensor:
#      x y z
#    x 1.737500 0.000000 0.000950 
#    y 0.000000 1.717440 0.000000 
#    z 0.000950 0.000000 1.716180 
# 
# From -- ./inp_files/37917.got.cif
#   From: 2010.05.17/outbox.cif.g08.bks.cpg/sg11_19_cif.got.tgz:37917.got - 2010.06.03 12:22:45.
