data_PCOD9164788
_publ_section_title
;
Structure prediction by ZEFSAII (Michael W. Deem and Ramdas Pophale) SiO2 
 PCOD9164788
Probable space group: P 21/M
;
_chemical_formula_sum "Si O2"
_cell_formula_units_Z 32
_cell_length_a 22.398235
_cell_length_b 8.760809
_cell_length_c 28.878255
_cell_angle_alpha 90.000000
_cell_angle_beta 18.706677
_cell_angle_gamma 90.000000
_cell_volume 1817.437838
_symmetry_space_group_name_H-M "P 21/M"
_symmetry_group_IT_number 11
_symmetry_cell_setting 'monoclinic'
loop_
_space_group_symop_operation_xyz
x,y,z
-x,1/2+y,-z
-x,-y,-z
x,1/2-y,z
loop_
_atom_site_type_symbol
_atom_site_label
_atom_site_fract_x
_atom_site_fract_y
_atom_site_fract_z
Si Si1 0.370913 0.564368 0.451332
Si Si2 0.326073 0.066638 0.848060
Si Si3 0.307321 0.568083 0.160062
Si Si4 0.365588 0.568230 0.304716
Si Si5 0.801369 0.568945 0.660946
Si Si6 0.450349 0.065593 0.586150
Si Si7 0.038313 0.432251 0.921244
Si Si8 0.060913 0.566827 0.608772
O O1 0.369093 0.750000 0.452060
O O2 0.543603 0.520139 0.291256
O O3 0.412476 0.515014 0.472975
O O4 0.181157 0.516900 0.565161
O O5 0.303548 0.250000 0.861977
O O6 0.446508 0.032558 0.805214
O O7 0.127750 0.988417 0.989591
O O8 0.317402 0.750000 0.153954
O O9 0.264216 0.503930 0.242876
O O10 0.133774 0.515091 0.255951
O O11 0.500000 0.500000 0.000000
O O12 0.362866 0.750000 0.296714
O O13 0.336072 0.474687 0.279922
O O14 0.195478 0.539013 0.465546
O O15 0.818667 0.750000 0.653760
O O16 0.000000 0.500000 0.500000
O O17 0.456920 0.250000 0.579500
O O18 0.241235 0.020306 0.754272
O O19 0.500000 0.000000 0.500000
O O20 0.037156 0.250000 0.925489
O O21 0.000000 0.500000 0.000000
O O22 0.032106 0.750000 0.632275
#
# Coordination Sequence:
#
# PCOD9164788 Si02
#       8
#     4   4   4   4   4   4   4   4
#     4   8  15  32  56  80 109 146 184 227 277 334
#     4   9  17  33  56  83 114 147 186 232 283 340
#     4  12  25  41  60  85 118 154 193 238 289 346
#     4   9  18  33  57  86 116 150 189 234 285 339
#     4  12  23  37  59  87 118 151 190 236 284 339
#     4  10  21  37  55  79 112 148 188 229 277 331
#     4  11  21  34  55  81 111 145 185 235 284 335
#     4   9  17  33  59  84 109 146 191 235 282 337
#
# _framework density 17.607205
#
# number of rings (size 3 to 8) (size 9 to 14) (size 15 to 20)
#    0.000    2.000    2.500    4.125    0.000    1.500 
#    0.000    3.750    0.000    4.500    0.000    0.000 
#    0.000    0.000    0.000    0.000    0.000    0.000 
#
# Total GULP energy -178623.096678 kJ/mol
# GULP energy per Si atom -5581.971771 kJ/mol
# Density = 1.756713 g / cm^3
# Si number density = 17.607205 Si / 1000 Ang^3
#
#
#
# Elastic Constant Matrix: (Units=GPa)
#
#
# Indices 1 2 3 4 5 6 
#
# 1 151.8301 54.9413 84.2314 0.0000 -8.4684 0.0000
# 2 54.9413 69.0582 56.3424 0.0000 -6.6198 0.0000
# 3 84.2314 56.3424 126.5317 0.0000 -8.8672 0.0000
# 4 0.0000 0.0000 0.0000 28.2717 0.0000 -3.1020
# 5 -8.4684 -6.6198 -8.8672 0.0000 28.9841 0.0000
# 6 0.0000 0.0000 0.0000 -3.1020 0.0000 32.0850
#
#
#
# Elastic Compliance Matrix: (Units=1/GPa)
#
#
# Indices 1 2 3 4 5 6 
#
# 1 0.011266 -0.004430 -0.005485 0.000000 0.000602 0.000000
# 2 -0.004430 0.024616 -0.007877 0.000000 0.001918 0.000000
# 3 -0.005485 -0.007877 0.015148 0.000000 0.001233 0.000000
# 4 0.000000 0.000000 0.000000 0.035750 0.000000 0.003456
# 5 0.000602 0.001918 0.001233 0.000000 0.035493 0.000000
# 6 0.000000 0.000000 0.000000 0.003456 0.000000 0.031501
#
#
# Mechanical properties :
#
#
# Convention : Reuss Voigt Hill
#
# Bulk Modulus (GPa) = 64.74479 82.05004 73.39741
# Shear Modulus (GPa) = 25.70591 27.99514 26.85053
#
# Velocity S-wave (km/s) = 3.82509 3.99178 3.90933
# Velocity P-wave (km/s) = 7.50733 8.24301 7.88376
#
# Compressibility (1/GPa) = 0.01544526
#
# Stress axis : x y z
#
# Youngs Moduli (GPa) = 88.76431 40.62386 66.01409
#
# Poissons Ratio (x) = 0.17998 0.36206
# Poissons Ratio (y) = 0.39327 0.52002
# Poissons Ratio (z) = 0.48684 0.32001
#
# Static dielectric constant tensor:
#      x y z
#    x 1.613900 0.000000 -0.023820 
#    y 0.000000 1.592160 0.000000 
#    z -0.023820 0.000000 1.576430 
# 
# From -- ./inp_files/72068.got.cif
#   From: 2010.05.17/outbox.cif.g08.bks.cpg/sg11_37_cif.got.tgz:72068.got - 2010.06.03 12:22:45.
