data_PCOD9164072
_publ_section_title
;
Structure prediction by ZEFSAII (Michael W. Deem and Ramdas Pophale) SiO2 
 PCOD9164072
Probable space group: P 21/M
;
_chemical_formula_sum "Si O2"
_cell_formula_units_Z 24
_cell_length_a 17.887895
_cell_length_b 8.762736
_cell_length_c 9.433185
_cell_angle_alpha 90.000000
_cell_angle_beta 129.774968
_cell_angle_gamma 90.000000
_cell_volume 1136.414720
_symmetry_space_group_name_H-M "P 21/M"
_symmetry_group_IT_number 11
_symmetry_cell_setting 'monoclinic'
loop_
_space_group_symop_operation_xyz
x,y,z
-x,1/2+y,-z
-x,-y,-z
x,1/2-y,z
loop_
_atom_site_type_symbol
_atom_site_label
_atom_site_fract_x
_atom_site_fract_y
_atom_site_fract_z
Si Si1 0.419703 0.250000 0.630325
Si Si2 0.673854 0.750000 0.763347
Si Si3 0.796099 0.065508 0.901275
Si Si4 0.887603 0.418025 0.708161
Si Si5 0.309191 0.498361 0.678809
Si Si6 0.546793 0.250000 0.032718
Si Si7 0.332193 0.250000 0.911357
Si Si8 0.034948 0.927177 0.688121
O O1 0.415275 0.250000 0.456327
O O2 0.359687 0.393733 0.620039
O O3 0.522860 0.250000 0.836126
O O4 0.726542 0.584051 0.801440
O O5 0.655436 0.750000 0.907775
O O6 0.763375 0.250000 0.866495
O O7 0.864369 0.058120 0.844599
O O8 0.860469 0.032146 0.118621
O O9 0.931855 0.250000 0.742810
O O10 0.783808 0.424181 0.502596
O O11 0.957098 0.536551 0.716474
O O12 0.391077 0.608289 0.839534
O O13 0.279708 0.393707 0.776114
O O14 0.441165 0.250000 0.977342
O O15 0.038797 0.750000 0.665578
O O16 0.000000 0.000000 0.500000
#
# Coordination Sequence:
#
# PCOD9164072 Si02
#       8
#     2   2   4   4   4   2   2   4
#     4  10  20  38  66  92 121 165 221 244 329 390
#     4  12  24  42  71  92 134 174 213 278 321 383
#     4  10  25  45  63  96 132 173 220 266 324 384
#     4  11  22  39  66  95 121 165 223 260 320 383
#     4  10  20  39  64  94 123 166 208 269 313 389
#     4  10  20  44  67  94 132 166 210 277 320 392
#     4  10  24  38  62  94 125 163 218 255 334 387
#     4  11  26  42  64  92 132 172 213 271 323 382
#
# _framework density 21.119050000000001
#
# number of rings (size 3 to 8) (size 9 to 14) (size 15 to 20)
#    0.000    1.667    2.500    3.000    8.167    0.000 
#    1.500    3.333    0.000    0.000    0.000    0.000 
#    0.000    0.000    0.000    0.000    0.000    0.000 
#
# Total GULP energy -133841.387529 kJ/mol
# GULP energy per Si atom -5576.724480 kJ/mol
# Density = 2.107098 g / cm^3
# Si number density = 21.119050 Si / 1000 Ang^3
#
#
#
# Elastic Constant Matrix: (Units=GPa)
#
#
# Indices 1 2 3 4 5 6 
#
# 1 14.7991 1.1614 17.8994 0.0000 -11.8026 0.0000
# 2 1.1614 73.9739 45.1899 0.0000 -0.4409 0.0000
# 3 17.8994 45.1899 162.1418 0.0000 -22.6965 0.0000
# 4 0.0000 0.0000 0.0000 41.7735 0.0000 -4.5203
# 5 -11.8026 -0.4409 -22.6965 0.0000 36.5529 0.0000
# 6 0.0000 0.0000 0.0000 -4.5203 0.0000 13.0273
#
#
#
# Elastic Compliance Matrix: (Units=1/GPa)
#
#
# Indices 1 2 3 4 5 6 
#
# 1 0.098483 0.003571 -0.008115 0.000000 0.026803 0.000000
# 2 0.003571 0.016702 -0.005322 0.000000 -0.001950 0.000000
# 3 -0.008115 -0.005322 0.008949 0.000000 0.002872 0.000000
# 4 0.000000 0.000000 0.000000 0.024872 0.000000 0.008630
# 5 0.026803 -0.001950 0.002872 0.000000 0.037772 0.000000
# 6 0.000000 0.000000 0.000000 0.008630 0.000000 0.079757
#
#
# Mechanical properties :
#
#
# Convention : Reuss Voigt Hill
#
# Bulk Modulus (GPa) = 9.57847 42.15738 25.86792
# Shear Modulus (GPa) = 15.57307 30.71502 23.14404
#
# Velocity S-wave (km/s) = 2.71845 3.81776 3.31401
# Velocity P-wave (km/s) = 3.79455 6.28004 5.18833
#
# Compressibility (1/GPa) = 0.10440077
#
# Stress axis : x y z
#
# Youngs Moduli (GPa) = 10.15405 59.87372 111.74910
#
# Poissons Ratio (x) = -0.21381 0.90687
# Poissons Ratio (y) = -0.03626 0.59474
# Poissons Ratio (z) = 0.08240 0.31865
#
# Static dielectric constant tensor:
#      x y z
#    x 1.745180 0.000000 0.013570 
#    y 0.000000 3.967030 0.000000 
#    z 0.013570 0.000000 1.802170 
# 
# From -- ./inp_files/25989.got.cif
#   From: 2010.05.17/outbox.cif.g08.bks.cpg/sg11_13_cif.got.tgz:25989.got - 2010.06.03 12:22:45.
