data_PCOD9164361
_publ_section_title
;
Structure prediction by ZEFSAII (Michael W. Deem and Ramdas Pophale) SiO2 
 PCOD9164361
Probable space group: P 21/M
;
_chemical_formula_sum "Si O2"
_cell_formula_units_Z 20
_cell_length_a 5.250240
_cell_length_b 22.782762
_cell_length_c 7.634494
_cell_angle_alpha 90.000000
_cell_angle_beta 62.209087
_cell_angle_gamma 90.000000
_cell_volume 807.866670
_symmetry_space_group_name_H-M "P 21/M"
_symmetry_group_IT_number 11
_symmetry_cell_setting 'monoclinic'
loop_
_space_group_symop_operation_xyz
x,y,z
-x,1/2+y,-z
-x,-y,-z
x,1/2-y,z
loop_
_atom_site_type_symbol
_atom_site_label
_atom_site_fract_x
_atom_site_fract_y
_atom_site_fract_z
Si Si1 0.467755 0.629333 0.612402
Si Si2 0.261098 0.545646 0.429021
Si Si3 0.969367 0.250000 0.767592
Si Si4 0.622285 0.461703 0.122030
Si Si5 0.959215 0.380428 0.804616
Si Si6 0.352081 0.750000 0.503999
O O1 0.238508 0.583419 0.610300
O O2 0.546232 0.599021 0.770668
O O3 0.734901 0.623804 0.392398
O O4 0.335625 0.692908 0.631516
O O5 0.544730 0.507046 0.302451
O O6 0.000000 0.500000 0.500000
O O7 0.244785 0.594683 0.282648
O O8 0.859854 0.250000 0.597178
O O9 0.877489 0.313105 0.875755
O O10 0.316720 0.250000 0.668799
O O11 0.500000 0.500000 0.000000
O O12 0.919898 0.430649 0.965158
#
# Coordination Sequence:
#
# PCOD9164361 Si02
#       6
#     4   4   2   4   4   2
#     4  11  22  42  65  90 130 174 220 281 334 402
#     4  11  21  39  63  91 133 170 216 272 333 400
#     4  10  20  43  66  97 127 173 228 281 339 401
#     4  10  23  39  60  98 125 170 215 263 335 402
#     4  10  22  40  64  88 131 167 221 274 336 396
#     4  10  22  39  74  93 123 181 230 273 345 399
#
# _framework density 24.756558999999999
#
# number of rings (size 3 to 8) (size 9 to 14) (size 15 to 20)
#    0.000    1.600    4.000    0.600    0.000    1.600 
#    7.200    0.000    0.000    4.800    0.000    0.000 
#    0.000    0.000    0.000    0.000    0.000    0.000 
#
# Total GULP energy -111382.044631 kJ/mol
# GULP energy per Si atom -5569.102232 kJ/mol
# Density = 2.470021 g / cm^3
# Si number density = 24.756559 Si / 1000 Ang^3
#
#
#
# Elastic Constant Matrix: (Units=GPa)
#
#
# Indices 1 2 3 4 5 6 
#
# 1 52.4358 25.0801 11.8180 0.0000 -10.4284 0.0000
# 2 25.0801 191.0866 29.3281 0.0000 -8.4412 0.0000
# 3 11.8180 29.3281 98.2595 0.0000 -3.3689 0.0000
# 4 0.0000 0.0000 0.0000 43.7226 0.0000 -1.3188
# 5 -10.4284 -8.4412 -3.3689 0.0000 30.1157 0.0000
# 6 0.0000 0.0000 0.0000 -1.3188 0.0000 30.7499
#
#
#
# Elastic Compliance Matrix: (Units=1/GPa)
#
#
# Indices 1 2 3 4 5 6 
#
# 1 0.021905 -0.002314 -0.001713 0.000000 0.006745 0.000000
# 2 -0.002314 0.005785 -0.001426 0.000000 0.000661 0.000000
# 3 -0.001713 -0.001426 0.010816 0.000000 0.000217 0.000000
# 4 0.000000 0.000000 0.000000 0.022901 0.000000 0.000982
# 5 0.006745 0.000661 0.000217 0.000000 0.035750 0.000000
# 6 0.000000 0.000000 0.000000 0.000982 0.000000 0.032563
#
#
# Mechanical properties :
#
#
# Convention : Reuss Voigt Hill
#
# Bulk Modulus (GPa) = 36.23023 52.69271 44.46147
# Shear Modulus (GPa) = 33.37206 39.28803 36.33005
#
# Velocity S-wave (km/s) = 3.67551 3.98801 3.83494
# Velocity P-wave (km/s) = 5.71654 6.52197 6.13249
#
# Compressibility (1/GPa) = 0.02760126
#
# Stress axis : x y z
#
# Youngs Moduli (GPa) = 45.65109 172.86166 92.45478
#
# Poissons Ratio (x) = 0.40005 0.15834
# Poissons Ratio (y) = 0.10565 0.13181
# Poissons Ratio (z) = 0.07818 0.24645
#
# Static dielectric constant tensor:
#      x y z
#    x 2.027850 0.000000 0.024820 
#    y 0.000000 2.018410 0.000000 
#    z 0.024820 0.000000 2.130310 
# 
# From -- ./inp_files/10226.got.cif
#   From: 2010.05.17/outbox.cif.g08.bks.cpg/sg11_6_cif.got.tgz:10226.got - 2010.06.03 12:22:45.
