data_PCOD9164924
_publ_section_title
;
Structure prediction by ZEFSAII (Michael W. Deem and Ramdas Pophale) SiO2 
 PCOD9164924
Probable space group: P 21/M
;
_chemical_formula_sum "Si O2"
_cell_formula_units_Z 32
_cell_length_a 18.849539
_cell_length_b 14.313949
_cell_length_c 18.828232
_cell_angle_alpha 90.000000
_cell_angle_beta 158.352003
_cell_angle_gamma 90.000000
_cell_volume 1874.054786
_symmetry_space_group_name_H-M "P 21/M"
_symmetry_group_IT_number 11
_symmetry_cell_setting 'monoclinic'
loop_
_space_group_symop_operation_xyz
x,y,z
-x,1/2+y,-z
-x,-y,-z
x,1/2-y,z
loop_
_atom_site_type_symbol
_atom_site_label
_atom_site_fract_x
_atom_site_fract_y
_atom_site_fract_z
Si Si1 0.387560 0.640160 0.466804
Si Si2 0.231026 0.638689 0.664086
Si Si3 0.611965 0.640071 0.526142
Si Si4 0.542956 0.140156 0.987625
Si Si5 0.615558 0.996937 0.779969
Si Si6 0.441452 0.023075 0.106504
Si Si7 0.201886 0.360849 0.780406
Si Si8 0.952545 0.999235 0.872139
O O1 0.366930 0.750000 0.461025
O O2 0.493961 0.627142 0.489957
O O3 0.519885 0.589422 0.648258
O O4 0.182967 0.587741 0.272342
O O5 0.265573 0.750000 0.686211
O O6 0.371087 0.580890 0.743670
O O7 0.011704 0.617832 0.443282
O O8 0.287284 0.618900 0.798133
O O9 0.632442 0.750000 0.531861
O O10 0.490177 0.586986 0.352529
O O11 0.816791 0.588886 0.726642
O O12 0.545852 0.250000 0.973362
O O13 0.352442 0.119683 0.857034
O O14 0.552281 0.075589 0.928179
O O15 0.575274 0.987684 0.825529
O O16 0.843400 0.000801 0.977325
O O17 0.266428 0.080887 0.908599
O O18 0.216468 0.250000 0.808981
O O19 0.000000 0.000000 0.000000
#
# Coordination Sequence:
#
# PCOD9164924 Si02
#       8
#     4   4   4   4   4   4   4   4
#     4  10  21  37  59  84 106 138 184 229 277 330
#     4   9  18  35  58  80 107 141 177 223 268 313
#     4  10  21  38  60  82 104 139 186 230 276 328
#     4   9  19  35  53  78 106 138 185 226 258 308
#     4  11  23  38  53  81 118 148 178 229 279 326
#     4  11  22  33  53  79 112 147 177 215 272 326
#     4   9  18  34  57  83 106 137 181 223 264 317
#     4  11  19  37  60  82 110 138 180 233 275 321
#
# _framework density 17.075275000000001
#
# number of rings (size 3 to 8) (size 9 to 14) (size 15 to 20)
#    0.000    2.000    2.500    3.375    0.000    7.000 
#    0.000    1.250    0.000    1.500    0.000    0.000 
#    0.000    0.000    0.000    0.000    0.000    0.000 
#
# Total GULP energy -178624.226271 kJ/mol
# GULP energy per Si atom -5582.007071 kJ/mol
# Density = 1.703641 g / cm^3
# Si number density = 17.075275 Si / 1000 Ang^3
#
#
#
# Elastic Constant Matrix: (Units=GPa)
#
#
# Indices 1 2 3 4 5 6 
#
# 1 79.2326 43.7377 61.2710 0.0000 -23.1671 0.0000
# 2 43.7377 113.8405 66.9918 0.0000 -3.9772 0.0000
# 3 61.2710 66.9918 140.4925 0.0000 10.1821 0.0000
# 4 0.0000 0.0000 0.0000 13.5660 0.0000 2.2904
# 5 -23.1671 -3.9772 10.1821 0.0000 23.0824 0.0000
# 6 0.0000 0.0000 0.0000 2.2904 0.0000 3.5714
#
#
#
# Elastic Compliance Matrix: (Units=1/GPa)
#
#
# Indices 1 2 3 4 5 6 
#
# 1 0.054841 -0.002524 -0.027552 0.000000 0.066761 0.000000
# 2 -0.002524 0.012870 -0.005179 0.000000 0.001969 0.000000
# 3 -0.027552 -0.005179 0.024454 0.000000 -0.039332 0.000000
# 4 0.000000 0.000000 0.000000 0.082664 0.000000 -0.053014
# 5 0.066761 0.001969 -0.039332 0.000000 0.128019 0.000000
# 6 0.000000 0.000000 0.000000 -0.053014 0.000000 0.314000
#
#
# Mechanical properties :
#
#
# Convention : Reuss Voigt Hill
#
# Bulk Modulus (GPa) = 46.17831 75.28518 60.73175
# Shear Modulus (GPa) = 7.19863 18.81498 13.00681
#
# Velocity S-wave (km/s) = 2.05547 3.32307 2.76295
# Velocity P-wave (km/s) = 5.72154 7.67526 6.76925
#
# Compressibility (1/GPa) = 0.02165519
#
# Stress axis : x y z
#
# Youngs Moduli (GPa) = 18.23457 77.69741 40.89352
#
# Poissons Ratio (x) = 0.19612 1.12669
# Poissons Ratio (y) = 0.04603 0.21179
# Poissons Ratio (z) = 0.50240 0.40239
#
# Static dielectric constant tensor:
#      x y z
#    x 1.543220 0.000000 0.010400 
#    y 0.000000 1.591650 0.000000 
#    z 0.010400 0.000000 1.568150 
# 
# From -- ./inp_files/61625.got.cif
#   From: 2010.05.17/outbox.cif.g08.bks.cpg/sg11_31_cif.got.tgz:61625.got - 2010.06.03 12:22:45.
