data_PCOD9164534
_publ_section_title
;
Structure prediction by ZEFSAII (Michael W. Deem and Ramdas Pophale) SiO2 
 PCOD9164534
Probable space group: P 21/M
;
_chemical_formula_sum "Si O2"
_cell_formula_units_Z 24
_cell_length_a 10.823226
_cell_length_b 18.348496
_cell_length_c 16.072648
_cell_angle_alpha 90.000000
_cell_angle_beta 24.101091
_cell_angle_gamma 90.000000
_cell_volume 1303.391538
_symmetry_space_group_name_H-M "P 21/M"
_symmetry_group_IT_number 11
_symmetry_cell_setting 'monoclinic'
loop_
_space_group_symop_operation_xyz
x,y,z
-x,1/2+y,-z
-x,-y,-z
x,1/2-y,z
loop_
_atom_site_type_symbol
_atom_site_label
_atom_site_fract_x
_atom_site_fract_y
_atom_site_fract_z
Si Si1 0.356177 0.939097 0.028437
Si Si2 0.683383 0.575019 0.393640
Si Si3 0.670019 0.034382 0.706726
Si Si4 0.124061 0.664650 0.794240
Si Si5 0.199973 0.072650 0.867194
Si Si6 0.544375 0.663533 0.044555
O O1 0.460115 0.970592 0.875741
O O2 0.484830 0.864064 0.987318
O O3 0.994695 0.935662 0.251651
O O4 0.500000 0.000000 0.000000
O O5 0.500000 0.500000 0.500000
O O6 0.449237 0.630272 0.578334
O O7 0.770269 0.596237 0.246052
O O8 0.527413 0.055593 0.705918
O O9 0.644886 0.107569 0.779668
O O10 0.000000 0.000000 0.500000
O O11 0.150607 0.750000 0.787458
O O12 0.962105 0.630688 0.973934
O O13 0.890588 0.650025 0.861349
O O14 0.000000 0.000000 0.000000
O O15 0.480677 0.750000 0.094437
#
# Coordination Sequence:
#
# PCOD9164534 Si02
#       6
#     4   4   4   4   4   4
#     4  10  21  36  57  86 116 150 196 242 293 350
#     4  12  22  36  64  91 119 155 204 246 301 356
#     4  10  21  35  59  88 117 153 196 242 299 353
#     4  10  23  42  62  87 120 160 199 248 306 360
#     4  11  21  38  60  91 122 152 198 253 295 353
#     4   9  20  40  59  81 117 154 197 246 298 357
#
# _framework density 18.413502000000001
#
# number of rings (size 3 to 8) (size 9 to 14) (size 15 to 20)
#    0.000    1.667    3.333    2.000    7.000    1.333 
#    0.000    0.833    0.000    0.000    0.000    0.000 
#    0.000    0.000    0.000    0.000    0.000    0.000 
#
# Total GULP energy -133845.397144 kJ/mol
# GULP energy per Si atom -5576.891548 kJ/mol
# Density = 1.837159 g / cm^3
# Si number density = 18.413502 Si / 1000 Ang^3
#
#
#
# Elastic Constant Matrix: (Units=GPa)
#
#
# Indices 1 2 3 4 5 6 
#
# 1 87.0073 27.1904 39.3735 0.0000 -17.0507 0.0000
# 2 27.1904 105.1604 54.0859 0.0000 -18.6552 0.0000
# 3 39.3735 54.0859 125.6091 0.0000 -28.7339 0.0000
# 4 0.0000 0.0000 0.0000 28.2431 0.0000 -0.9622
# 5 -17.0507 -18.6552 -28.7339 0.0000 27.5650 0.0000
# 6 0.0000 0.0000 0.0000 -0.9622 0.0000 23.1471
#
#
#
# Elastic Compliance Matrix: (Units=1/GPa)
#
#
# Indices 1 2 3 4 5 6 
#
# 1 0.014121 -0.001382 -0.002688 0.000000 0.004997 0.000000
# 2 -0.001382 0.012637 -0.004264 0.000000 0.003252 0.000000
# 3 -0.002688 -0.004264 0.012605 0.000000 0.008591 0.000000
# 4 0.000000 0.000000 0.000000 0.035457 0.000000 0.001474
# 5 0.004997 0.003252 0.008591 0.000000 0.050526 0.000000
# 6 0.000000 0.000000 0.000000 0.001474 0.000000 0.043263
#
#
# Mechanical properties :
#
#
# Convention : Reuss Voigt Hill
#
# Bulk Modulus (GPa) = 44.06366 62.11959 53.09162
# Shear Modulus (GPa) = 25.92798 28.93283 27.43040
#
# Velocity S-wave (km/s) = 3.75653 3.96824 3.86384
# Velocity P-wave (km/s) = 6.54197 7.40304 6.98579
#
# Compressibility (1/GPa) = 0.02269444
#
# Stress axis : x y z
#
# Youngs Moduli (GPa) = 70.81677 79.13496 79.33284
#
# Poissons Ratio (x) = 0.10937 0.21325
# Poissons Ratio (y) = 0.09788 0.33827
# Poissons Ratio (z) = 0.19036 0.33743
#
# Static dielectric constant tensor:
#      x y z
#    x 1.690330 0.000000 0.000570 
#    y 0.000000 1.619250 0.000000 
#    z 0.000570 0.000000 1.621230 
# 
# From -- ./inp_files/58279.got.cif
#   From: 2010.05.17/outbox.cif.g08.bks.cpg/sg11_30_cif.got.tgz:58279.got - 2010.06.03 12:22:45.
