data_PCOD9164476
_publ_section_title
;
Structure prediction by ZEFSAII (Michael W. Deem and Ramdas Pophale) SiO2 
 PCOD9164476
Probable space group: P 21/M
;
_chemical_formula_sum "Si O2"
_cell_formula_units_Z 32
_cell_length_a 19.729855
_cell_length_b 8.980016
_cell_length_c 24.924073
_cell_angle_alpha 90.000000
_cell_angle_beta 156.396715
_cell_angle_gamma 90.000000
_cell_volume 1768.136506
_symmetry_space_group_name_H-M "P 21/M"
_symmetry_group_IT_number 11
_symmetry_cell_setting 'monoclinic'
loop_
_space_group_symop_operation_xyz
x,y,z
-x,1/2+y,-z
-x,-y,-z
x,1/2-y,z
loop_
_atom_site_type_symbol
_atom_site_label
_atom_site_fract_x
_atom_site_fract_y
_atom_site_fract_z
Si Si1 0.401688 0.928690 0.795382
Si Si2 0.754544 0.928922 0.094394
Si Si3 0.793228 0.072505 0.235278
Si Si4 0.265365 0.928332 0.199476
Si Si5 0.571171 0.570526 0.496635
Si Si6 0.056333 0.071787 0.959913
Si Si7 0.061262 0.569894 0.243595
Si Si8 0.104989 0.072001 0.527157
O O1 0.388284 0.750000 0.779062
O O2 0.316278 0.965895 0.791280
O O3 0.291923 0.006798 0.669676
O O4 0.596768 0.973083 0.942362
O O5 0.749439 0.750000 0.093748
O O6 0.932477 0.972712 0.197291
O O7 0.734836 0.992756 0.139415
O O8 0.779320 0.250000 0.218254
O O9 0.989460 0.036331 0.391813
O O10 0.262639 0.750000 0.192144
O O11 0.442259 0.970890 0.355060
O O12 0.115378 0.970144 0.132490
O O13 0.212230 0.999836 0.104653
O O14 0.500000 0.500000 0.500000
O O15 0.571340 0.750000 0.501594
O O16 0.758191 0.508651 0.622247
O O17 0.073075 0.250000 0.974878
O O18 0.027800 0.030657 0.877581
O O19 0.084468 0.750000 0.260667
O O20 0.107034 0.250000 0.534577
O O21 0.000000 0.000000 0.500000
#
# Coordination Sequence:
#
# PCOD9164476 Si02
#       8
#     4   4   4   4   4   4   4   4
#     4   9  18  33  52  78 106 137 176 221 266 312
#     4  10  21  35  53  75 104 141 178 216 263 315
#     4   9  18  32  51  76 108 137 173 220 264 310
#     4   9  18  32  51  78 104 128 164 208 252 298
#     4  11  21  35  56  81 107 137 171 212 258 309
#     4   9  17  32  52  74 103 133 162 206 255 300
#     4  10  21  38  54  75 107 139 175 219 263 312
#     4   9  17  30  50  77 104 134 169 216 266 310
#
# _framework density 18.098151999999999
#
# number of rings (size 3 to 8) (size 9 to 14) (size 15 to 20)
#    0.000    2.500    1.250    1.875    0.000    5.000 
#    0.000    1.250    0.000    4.500    0.000    0.000 
#    0.000    0.000    0.000    0.000    0.000    0.000 
#
# Total GULP energy -178409.604565 kJ/mol
# GULP energy per Si atom -5575.300143 kJ/mol
# Density = 1.805696 g / cm^3
# Si number density = 18.098152 Si / 1000 Ang^3
#
#
#
# Elastic Constant Matrix: (Units=GPa)
#
#
# Indices 1 2 3 4 5 6 
#
# 1 16.8470 8.6769 16.3888 0.0000 3.7090 0.0000
# 2 8.6769 21.3019 36.5563 0.0000 0.9113 0.0000
# 3 16.3888 36.5563 136.8941 0.0000 -1.0403 0.0000
# 4 0.0000 0.0000 0.0000 35.0885 0.0000 -5.4757
# 5 3.7090 0.9113 -1.0403 0.0000 25.0372 0.0000
# 6 0.0000 0.0000 0.0000 -5.4757 0.0000 16.6091
#
#
#
# Elastic Compliance Matrix: (Units=1/GPa)
#
#
# Indices 1 2 3 4 5 6 
#
# 1 0.077998 -0.027972 -0.001949 0.000000 -0.010618 0.000000
# 2 -0.027972 0.097114 -0.022587 0.000000 -0.000329 0.000000
# 3 -0.001949 -0.022587 0.013583 0.000000 0.001675 0.000000
# 4 0.000000 0.000000 0.000000 0.030045 0.000000 0.009905
# 5 -0.010618 -0.000329 0.001675 0.000000 0.041595 0.000000
# 6 0.000000 0.000000 0.000000 0.009905 0.000000 0.063474
#
#
# Mechanical properties :
#
#
# Convention : Reuss Voigt Hill
#
# Bulk Modulus (GPa) = 11.95057 33.14300 22.54678
# Shear Modulus (GPa) = 10.94771 22.90836 16.92804
#
# Velocity S-wave (km/s) = 2.46216 3.56165 3.06166
# Velocity P-wave (km/s) = 3.83412 5.93856 4.99835
#
# Compressibility (1/GPa) = 0.08367802
#
# Stress axis : x y z
#
# Youngs Moduli (GPa) = 12.82086 10.29723 73.62372
#
# Poissons Ratio (x) = 0.28804 0.14348
# Poissons Ratio (y) = 0.35863 1.66293
# Poissons Ratio (z) = 0.02498 0.23258
#
# Static dielectric constant tensor:
#      x y z
#    x 1.603250 0.000000 0.010070 
#    y 0.000000 1.607140 0.000000 
#    z 0.010070 0.000000 1.654700 
# 
# From -- ./inp_files/67188.got.cif
#   From: 2010.05.17/outbox.cif.g08.bks.cpg/sg11_34_cif.got.tgz:67188.got - 2010.06.03 12:22:45.
