data_PCOD9164343
_publ_section_title
;
Structure prediction by ZEFSAII (Michael W. Deem and Ramdas Pophale) SiO2 
 PCOD9164343
Probable space group: P 21/M
;
_chemical_formula_sum "Si O2"
_cell_formula_units_Z 30
_cell_length_a 14.964693
_cell_length_b 16.877280
_cell_length_c 5.241129
_cell_angle_alpha 90.000000
_cell_angle_beta 78.007486
_cell_angle_gamma 90.000000
_cell_volume 1294.826466
_symmetry_space_group_name_H-M "P 21/M"
_symmetry_group_IT_number 11
_symmetry_cell_setting 'monoclinic'
loop_
_space_group_symop_operation_xyz
x,y,z
-x,1/2+y,-z
-x,-y,-z
x,1/2-y,z
loop_
_atom_site_type_symbol
_atom_site_label
_atom_site_fract_x
_atom_site_fract_y
_atom_site_fract_z
Si Si1 0.178138 0.750000 0.734728
Si Si2 0.458661 0.658338 0.718919
Si Si3 0.816483 0.967338 0.345809
Si Si4 0.350521 0.003339 0.237613
Si Si5 0.960415 0.846120 0.092056
Si Si6 0.530285 0.913175 0.196911
Si Si7 0.071224 0.609996 0.529415
Si Si8 0.734231 0.101855 0.066070
O O1 0.142369 0.679220 0.562237
O O2 0.212176 0.681020 0.915543
O O3 0.436253 0.750000 0.712221
O O4 0.529341 0.634996 0.456949
O O5 0.363175 0.612877 0.732982
O O6 0.495664 0.639162 0.978084
O O7 0.866007 0.888967 0.219058
O O8 0.721972 0.951273 0.549860
O O9 0.884818 0.022477 0.474768
O O10 0.791336 0.028078 0.134957
O O11 0.451688 0.980845 0.275233
O O12 0.299466 0.921564 0.195091
O O13 0.376605 0.049026 0.960727
O O14 0.958963 0.750000 0.079383
O O15 0.028001 0.871976 0.280732
O O16 0.996579 0.878992 0.800521
#
# Coordination Sequence:
#
# PCOD9164343 Si02
#       8
#     2   4   4   4   4   4   4   4
#     4  10  20  42  64 102 136 164 212 276 350 396
#     4  11  21  41  63  97 134 173 216 272 339 391
#     4  11  25  40  69  97 129 172 227 272 325 399
#     4  10  23  40  64  96 130 176 224 265 331 389
#     4  12  25  47  65  93 131 180 220 271 329 393
#     4  10  23  40  66  91 135 178 214 269 326 405
#     4  11  25  44  68  96 134 171 215 272 338 398
#     4  10  22  38  64 101 134 171 212 284 330 399
#
# _framework density 23.169129999999999
#
# number of rings (size 3 to 8) (size 9 to 14) (size 15 to 20)
#    0.000    1.333    3.333    1.200    7.467    1.600 
#    0.000    1.333    0.000    0.000    0.000    0.000 
#    0.000    0.000    0.000    0.000    0.000    0.000 
#
# Total GULP energy -167256.499947 kJ/mol
# GULP energy per Si atom -5575.216665 kJ/mol
# Density = 2.311640 g / cm^3
# Si number density = 23.169130 Si / 1000 Ang^3
#
#
#
# Elastic Constant Matrix: (Units=GPa)
#
#
# Indices 1 2 3 4 5 6 
#
# 1 67.7662 19.9321 40.2327 0.0000 -7.7027 0.0000
# 2 19.9321 48.9000 28.5436 0.0000 -6.4491 0.0000
# 3 40.2327 28.5436 135.4898 0.0000 -26.0523 0.0000
# 4 0.0000 0.0000 0.0000 22.3267 0.0000 11.4643
# 5 -7.7027 -6.4491 -26.0523 0.0000 46.8103 0.0000
# 6 0.0000 0.0000 0.0000 11.4643 0.0000 35.6442
#
#
#
# Elastic Compliance Matrix: (Units=1/GPa)
#
#
# Indices 1 2 3 4 5 6 
#
# 1 0.018955 -0.005066 -0.004586 0.000000 -0.000132 0.000000
# 2 -0.005066 0.024683 -0.003586 0.000000 0.000571 0.000000
# 3 -0.004586 -0.003586 0.010367 0.000000 0.004521 0.000000
# 4 0.000000 0.000000 0.000000 0.053650 0.000000 -0.017255
# 5 -0.000132 0.000571 0.004521 0.000000 0.023936 0.000000
# 6 0.000000 0.000000 0.000000 -0.017255 0.000000 0.033605
#
#
# Mechanical properties :
#
#
# Convention : Reuss Voigt Hill
#
# Bulk Modulus (GPa) = 36.32618 47.73031 42.02825
# Shear Modulus (GPa) = 24.89425 31.85273 28.37349
#
# Velocity S-wave (km/s) = 3.28145 3.71184 3.50326
# Velocity P-wave (km/s) = 5.48361 6.24627 5.87732
#
# Compressibility (1/GPa) = 0.02752835
#
# Stress axis : x y z
#
# Youngs Moduli (GPa) = 52.75708 40.51306 96.45702
#
# Poissons Ratio (x) = 0.20525 0.44240
# Poissons Ratio (y) = 0.26729 0.34587
# Poissons Ratio (z) = 0.24197 0.14527
#
# Static dielectric constant tensor:
#      x y z
#    x 1.962500 0.000000 -0.009170 
#    y 0.000000 1.849710 0.000000 
#    z -0.009170 0.000000 1.938660 
# 
# From -- ./inp_files/6804.got.cif
#   From: 2010.05.17/outbox.cif.g08.bks.cpg/sg11_4_cif.got.tgz:6804.got - 2010.06.03 12:22:45.
