data_PCOD9164566
_publ_section_title
;
Structure prediction by ZEFSAII (Michael W. Deem and Ramdas Pophale) SiO2 
 PCOD9164566
Probable space group: P 21/M
;
_chemical_formula_sum "Si O2"
_cell_formula_units_Z 22
_cell_length_a 19.338968
_cell_length_b 7.280935
_cell_length_c 8.175567
_cell_angle_alpha 90.000000
_cell_angle_beta 46.676851
_cell_angle_gamma 90.000000
_cell_volume 837.468937
_symmetry_space_group_name_H-M "P 21/M"
_symmetry_group_IT_number 11
_symmetry_cell_setting 'monoclinic'
loop_
_space_group_symop_operation_xyz
x,y,z
-x,1/2+y,-z
-x,-y,-z
x,1/2-y,z
loop_
_atom_site_type_symbol
_atom_site_label
_atom_site_fract_x
_atom_site_fract_y
_atom_site_fract_z
Si Si1 0.392074 0.527619 0.848640
Si Si2 0.122588 0.951723 0.159349
Si Si3 0.723575 0.474281 0.649845
Si Si4 0.926076 0.750000 0.512507
Si Si5 0.111325 0.531888 0.822663
Si Si6 0.615257 0.462411 0.501002
O O1 0.392853 0.750000 0.844253
O O2 0.501283 0.472186 0.700616
O O3 0.362474 0.461888 0.715790
O O4 0.327173 0.464632 0.103394
O O5 0.167274 0.750000 0.119456
O O6 0.009530 0.905414 0.326013
O O7 0.132041 0.089932 0.290655
O O8 0.150449 0.027235 0.935935
O O9 0.725753 0.250000 0.656162
O O10 0.829113 0.544508 0.427244
O O11 0.662286 0.532796 0.590655
O O12 0.123996 0.750000 0.800237
O O13 0.000000 0.500000 0.000000
O O14 0.645033 0.250000 0.448196
#
# Coordination Sequence:
#
# PCOD9164566 Si02
#       6
#     4   4   4   2   4   4
#     4   9  17  31  54  83 112 138 176 215 266 330
#     4   8  15  29  50  72  97 126 173 227 280 331
#     4   9  18  34  54  77 109 142 182 225 266 328
#     4   8  14  28  50  74  94 122 168 228 282 328
#     4  10  21  36  53  72 103 144 190 237 282 329
#     4   9  17  31  55  82 109 143 172 216 271 327
#
# _framework density 26.269634
#
# number of rings (size 3 to 8) (size 9 to 14) (size 15 to 20)
#    0.545    2.545    0.000    0.545    1.273    0.000 
#    0.000    5.455    4.000    0.000    0.000    0.000 
#    0.000    0.000    0.000    0.000    0.000    0.000 
#
# Total GULP energy -122501.846907 kJ/mol
# GULP energy per Si atom -5568.265769 kJ/mol
# Density = 2.620984 g / cm^3
# Si number density = 26.269634 Si / 1000 Ang^3
#
#
#
# Elastic Constant Matrix: (Units=GPa)
#
#
# Indices 1 2 3 4 5 6 
#
# 1 133.2744 -14.6406 86.4710 0.0000 -7.3926 0.0000
# 2 -14.6406 112.0192 10.4616 0.0000 10.1327 0.0000
# 3 86.4710 10.4616 265.0784 0.0000 32.3036 0.0000
# 4 0.0000 0.0000 0.0000 26.1700 0.0000 -9.3167
# 5 -7.3926 10.1327 32.3036 0.0000 40.4517 0.0000
# 6 0.0000 0.0000 0.0000 -9.3167 0.0000 -14.1195
#
#
#
# Elastic Compliance Matrix: (Units=1/GPa)
#
#
# Indices 1 2 3 4 5 6 
#
# 1 0.010577 0.001324 -0.004096 0.000000 0.004872 0.000000
# 2 0.001324 0.009302 -0.000603 0.000000 -0.001606 0.000000
# 3 -0.004096 -0.000603 0.005767 0.000000 -0.005202 0.000000
# 4 0.000000 0.000000 0.000000 0.030943 0.000000 -0.020417
# 5 0.004872 -0.001606 -0.005202 0.000000 0.030168 0.000000
# 6 0.000000 0.000000 0.000000 -0.020417 0.000000 -0.057351
#
#
# Mechanical properties :
#
#
# Convention : Reuss Voigt Hill
#
# Bulk Modulus (GPa) = 52.92629 74.99511 63.96070
# Shear Modulus (GPa) = 117.77604 39.03911 78.40757
#
# Velocity S-wave (km/s) = 6.70305 3.85917 5.46919
# Velocity P-wave (km/s) = 8.94980 6.96188 8.01769
#
# Compressibility (1/GPa) = 0.01889420
#
# Stress axis : x y z
#
# Youngs Moduli (GPa) = 94.54670 107.50678 173.41503
#
# Poissons Ratio (x) = -0.14236 0.71036
# Poissons Ratio (y) = -0.12520 0.10463
# Poissons Ratio (z) = 0.38729 0.06486
#
# Static dielectric constant tensor:
#      x y z
#    x 2.139360 0.000000 0.015640 
#    y 0.000000 2.020610 0.000000 
#    z 0.015640 0.000000 2.066510 
# 
# From -- ./inp_files/27239.got.cif
#   From: 2010.05.17/outbox.cif.g08.bks.cpg/sg11_14_cif.got.tgz:27239.got - 2010.06.03 12:22:45.
