data_PCOD9164703
_publ_section_title
;
Structure prediction by ZEFSAII (Michael W. Deem and Ramdas Pophale) SiO2 
 PCOD9164703
Probable space group: P 21/M
;
_chemical_formula_sum "Si O2"
_cell_formula_units_Z 32
_cell_length_a 12.013726
_cell_length_b 7.675775
_cell_length_c 15.593892
_cell_angle_alpha 90.000000
_cell_angle_beta 93.877779
_cell_angle_gamma 90.000000
_cell_volume 1434.693263
_symmetry_space_group_name_H-M "P 21/M"
_symmetry_group_IT_number 11
_symmetry_cell_setting 'monoclinic'
loop_
_space_group_symop_operation_xyz
x,y,z
-x,1/2+y,-z
-x,-y,-z
x,1/2-y,z
loop_
_atom_site_type_symbol
_atom_site_label
_atom_site_fract_x
_atom_site_fract_y
_atom_site_fract_z
Si Si1 0.336173 0.464113 0.899363
Si Si2 0.824435 0.454929 0.546089
Si Si3 0.892374 0.540672 0.192589
Si Si4 0.495392 0.550150 0.235958
Si Si5 0.333926 0.049706 0.087695
Si Si6 0.941660 0.044309 0.381689
Si Si7 0.419997 0.960337 0.415608
Si Si8 0.919195 0.457950 0.916650
O O1 0.339698 0.250000 0.902323
O O2 0.210447 0.519425 0.870755
O O3 0.413163 0.525003 0.824969
O O4 0.369111 0.523406 0.996364
O O5 0.804329 0.250000 0.530851
O O6 0.871235 0.528879 0.458335
O O7 0.706367 0.526067 0.573027
O O8 0.932239 0.471712 0.612866
O O9 0.892405 0.750000 0.187436
O O10 0.880002 0.489508 0.290001
O O11 0.010535 0.480266 0.161899
O O12 0.530914 0.750000 0.252570
O O13 0.384434 0.546642 0.171928
O O14 0.470467 0.472236 0.328001
O O15 0.370481 0.250000 0.095991
O O16 0.200516 0.043230 0.081373
O O17 0.953653 0.250000 0.395386
O O18 0.413385 0.750000 0.406276
O O19 0.500000 0.000000 0.500000
O O20 0.902438 0.250000 0.911524
O O21 0.000000 0.500000 0.000000
#
# Coordination Sequence:
#
# PCOD9164703 Si02
#       8
#     4   4   4   4   4   4   4   4
#     4   9  19  38  60  84 118 156 198 241 286 342
#     4   9  20  40  59  81 118 154 186 234 295 348
#     4  10  21  37  58  83 117 156 188 233 293 348
#     4  10  22  40  62  88 115 154 203 241 286 349
#     4  11  22  39  61  87 121 156 194 245 294 343
#     4  10  21  36  58  88 115 147 193 241 283 343
#     4  10  23  41  62  86 116 152 192 240 291 345
#     4  11  22  38  59  84 117 155 192 234 288 348
#
# _framework density 22.304418999999999
#
# number of rings (size 3 to 8) (size 9 to 14) (size 15 to 20)
#    0.000    2.000    1.250    1.500    3.500    2.500 
#    0.000    1.250    0.000    0.000    0.000    0.000 
#    0.000    0.000    0.000    0.000    0.000    0.000 
#
# Total GULP energy -178712.077949 kJ/mol
# GULP energy per Si atom -5584.752436 kJ/mol
# Density = 2.225365 g / cm^3
# Si number density = 22.304419 Si / 1000 Ang^3
#
#
#
# Elastic Constant Matrix: (Units=GPa)
#
#
# Indices 1 2 3 4 5 6 
#
# 1 100.0410 3.0106 32.2655 0.0000 -18.5375 0.0000
# 2 3.0106 44.9370 0.4686 0.0000 -10.2809 0.0000
# 3 32.2655 0.4686 138.8934 0.0000 -4.9052 0.0000
# 4 0.0000 0.0000 0.0000 18.5963 0.0000 7.5215
# 5 -18.5375 -10.2809 -4.9052 0.0000 28.5093 0.0000
# 6 0.0000 0.0000 0.0000 7.5215 0.0000 17.3011
#
#
#
# Elastic Compliance Matrix: (Units=1/GPa)
#
#
# Indices 1 2 3 4 5 6 
#
# 1 0.012257 0.001011 -0.002572 0.000000 0.007892 0.000000
# 2 0.001011 0.024345 0.000016 0.000000 0.009440 0.000000
# 3 -0.002572 0.000016 0.007786 0.000000 -0.000327 0.000000
# 4 0.000000 0.000000 0.000000 0.065247 0.000000 -0.028365
# 5 0.007892 0.009440 -0.000327 0.000000 0.043556 0.000000
# 6 0.000000 0.000000 0.000000 -0.028365 0.000000 0.070131
#
#
# Mechanical properties :
#
#
# Convention : Reuss Voigt Hill
#
# Bulk Modulus (GPa) = 24.21361 39.48453 31.84907
# Shear Modulus (GPa) = 20.81792 29.42311 25.12052
#
# Velocity S-wave (km/s) = 3.05840 3.63597 3.35962
# Velocity P-wave (km/s) = 4.83232 5.94710 5.41845
#
# Compressibility (1/GPa) = 0.04129909
#
# Stress axis : x y z
#
# Youngs Moduli (GPa) = 81.58287 41.07606 128.44089
#
# Poissons Ratio (x) = -0.04154 0.33037
# Poissons Ratio (y) = -0.08250 -0.00210
# Poissons Ratio (z) = 0.20984 -0.00067
#
# Static dielectric constant tensor:
#      x y z
#    x 1.814900 0.000000 -0.032840 
#    y 0.000000 1.871340 0.000000 
#    z -0.032840 0.000000 1.822300 
# 
# From -- ./inp_files/49330.got.cif
#   From: 2010.05.17/outbox.cif.g08.bks.cpg/sg11_25_cif.got.tgz:49330.got - 2010.06.03 12:22:45.
