data_PCOD9164513
_publ_section_title
;
Structure prediction by ZEFSAII (Michael W. Deem and Ramdas Pophale) SiO2 
 PCOD9164513
Probable space group: P 21/M
;
_chemical_formula_sum "Si O2"
_cell_formula_units_Z 32
_cell_length_a 8.566077
_cell_length_b 13.777632
_cell_length_c 12.128343
_cell_angle_alpha 90.000000
_cell_angle_beta 97.315945
_cell_angle_gamma 90.000000
_cell_volume 1419.737267
_symmetry_space_group_name_H-M "P 21/M"
_symmetry_group_IT_number 11
_symmetry_cell_setting 'monoclinic'
loop_
_space_group_symop_operation_xyz
x,y,z
-x,1/2+y,-z
-x,-y,-z
x,1/2-y,z
loop_
_atom_site_type_symbol
_atom_site_label
_atom_site_fract_x
_atom_site_fract_y
_atom_site_fract_z
Si Si1 0.138420 0.862609 0.862429
Si Si2 0.845449 0.507257 0.333687
Si Si3 0.960364 0.136524 0.911838
Si Si4 0.642658 0.860485 0.708461
Si Si5 0.179594 0.944028 0.317668
Si Si6 0.311042 0.137778 0.842596
Si Si7 0.381919 0.585918 0.519370
Si Si8 0.490795 0.134941 0.065996
O O1 0.100889 0.750000 0.838515
O O2 0.111337 0.927163 0.753966
O O3 0.323021 0.871591 0.906025
O O4 0.049551 0.898681 0.963412
O O5 0.710239 0.575002 0.268500
O O6 0.768700 0.456382 0.430230
O O7 0.008109 0.564848 0.359936
O O8 0.913092 0.250000 0.913063
O O9 0.849874 0.086912 0.811196
O O10 0.138670 0.132865 0.884203
O O11 0.707488 0.750000 0.719283
O O12 0.487018 0.855616 0.616530
O O13 0.589792 0.893806 0.826324
O O14 0.757983 0.944555 0.675087
O O15 0.307351 0.880383 0.396585
O O16 0.347117 0.250000 0.820067
O O17 0.428319 0.094580 0.944453
O O18 0.500000 0.500000 0.500000
O O19 0.451060 0.250000 0.053863
#
# Coordination Sequence:
#
# PCOD9164513 Si02
#       8
#     4   4   4   4   4   4   4   4
#     4  10  21  35  55  86 122 153 195 243 293 359
#     4  11  22  37  61  86 118 157 196 247 305 351
#     4   9  20  38  57  85 121 157 195 239 293 355
#     4  10  21  38  59  86 118 153 197 243 294 353
#     4  10  23  38  61  86 119 153 204 244 297 352
#     4   9  20  36  56  83 118 156 194 239 292 357
#     4  10  22  42  59  82 114 155 201 251 292 343
#     4   9  18  33  52  79 114 150 188 234 284 343
#
# _framework density 22.539380999999999
#
# number of rings (size 3 to 8) (size 9 to 14) (size 15 to 20)
#    0.000    2.250    1.250    0.375    3.500    4.500 
#    0.000    2.500    0.000    4.500    0.000    0.000 
#    0.000    0.000    0.000    0.000    0.000    0.000 
#
# Total GULP energy -178704.531116 kJ/mol
# GULP energy per Si atom -5584.516597 kJ/mol
# Density = 2.248808 g / cm^3
# Si number density = 22.539381 Si / 1000 Ang^3
#
#
#
# Elastic Constant Matrix: (Units=GPa)
#
#
# Indices 1 2 3 4 5 6 
#
# 1 39.3057 -3.8662 11.8572 0.0000 20.3126 0.0000
# 2 -3.8662 56.7323 6.9051 0.0000 0.5528 0.0000
# 3 11.8572 6.9051 71.9073 0.0000 13.3870 0.0000
# 4 0.0000 0.0000 0.0000 -17.8579 0.0000 11.0977
# 5 20.3126 0.5528 13.3870 0.0000 42.2057 0.0000
# 6 0.0000 0.0000 0.0000 11.0977 0.0000 19.0624
#
#
#
# Elastic Compliance Matrix: (Units=1/GPa)
#
#
# Indices 1 2 3 4 5 6 
#
# 1 0.034834 0.002903 -0.003076 0.000000 -0.015827 0.000000
# 2 0.002903 0.018081 -0.002031 0.000000 -0.000990 0.000000
# 3 -0.003076 -0.002031 0.015228 0.000000 -0.003323 0.000000
# 4 0.000000 0.000000 0.000000 -0.041120 0.000000 0.023939
# 5 -0.015827 -0.000990 -0.003323 0.000000 0.032378 0.000000
# 6 0.000000 0.000000 0.000000 0.023939 0.000000 0.038522
#
#
# Mechanical properties :
#
#
# Convention : Reuss Voigt Hill
#
# Bulk Modulus (GPa) = 15.69007 21.97082 18.83045
# Shear Modulus (GPa) = 40.46088 18.88532 29.67310
#
# Velocity S-wave (km/s) = 4.24148 2.89776 3.63230
# Velocity P-wave (km/s) = 5.56446 4.57875 5.09549
#
# Compressibility (1/GPa) = 0.06373456
#
# Stress axis : x y z
#
# Youngs Moduli (GPa) = 28.70736 55.30588 65.66992
#
# Poissons Ratio (x) = -0.16053 0.20201
# Poissons Ratio (y) = -0.08332 0.13335
# Poissons Ratio (z) = 0.08831 0.11231
#
# Static dielectric constant tensor:
#      x y z
#    x 1.825540 0.000000 0.036520 
#    y 0.000000 1.889240 0.000000 
#    z 0.036520 0.000000 1.858460 
# 
# From -- ./inp_files/18079.got.cif
#   From: 2010.05.17/outbox.cif.g08.bks.cpg/sg11_10_cif.got.tgz:18079.got - 2010.06.03 12:22:45.
