data_PCOD9164920
_publ_section_title
;
Structure prediction by ZEFSAII (Michael W. Deem and Ramdas Pophale) SiO2 
 PCOD9164920
Probable space group: P 21/M
;
_chemical_formula_sum "Si O2"
_cell_formula_units_Z 32
_cell_length_a 18.466751
_cell_length_b 13.479365
_cell_length_c 12.241641
_cell_angle_alpha 90.000000
_cell_angle_beta 30.805743
_cell_angle_gamma 90.000000
_cell_volume 1560.554358
_symmetry_space_group_name_H-M "P 21/M"
_symmetry_group_IT_number 11
_symmetry_cell_setting 'monoclinic'
loop_
_space_group_symop_operation_xyz
x,y,z
-x,1/2+y,-z
-x,-y,-z
x,1/2-y,z
loop_
_atom_site_type_symbol
_atom_site_label
_atom_site_fract_x
_atom_site_fract_y
_atom_site_fract_z
Si Si1 0.952707 0.950541 0.782175
Si Si2 0.493752 0.369993 0.424744
Si Si3 0.425799 0.869542 0.257444
Si Si4 0.833399 0.868921 0.158014
Si Si5 0.013446 0.631566 0.134003
Si Si6 0.305750 0.630993 0.639054
Si Si7 0.227114 0.632609 0.312292
Si Si8 0.324731 0.996168 0.983979
O O1 0.074838 0.894488 0.559571
O O2 0.927106 0.905337 0.935543
O O3 0.000054 0.064391 0.741969
O O4 0.802374 0.951059 0.916162
O O5 0.502964 0.250000 0.394465
O O6 0.329882 0.400395 0.636601
O O7 0.561015 0.390519 0.456265
O O8 0.584617 0.428065 0.216912
O O9 0.445436 0.750000 0.235998
O O10 0.326798 0.901200 0.487901
O O11 0.346259 0.893795 0.248475
O O12 0.571408 0.925871 0.091875
O O13 0.834143 0.750000 0.150063
O O14 0.898328 0.893612 0.191445
O O15 0.012238 0.750000 0.156343
O O16 0.163329 0.601917 0.885026
O O17 0.295862 0.750000 0.645980
O O18 0.235303 0.750000 0.282671
O O19 0.256723 0.573354 0.164029
#
# Coordination Sequence:
#
# PCOD9164920 Si02
#       8
#     4   4   4   4   4   4   4   4
#     4  12  24  39  66  95 126 166 219 264 319 370
#     4  10  21  37  60  93 131 167 201 253 325 386
#     4  10  23  42  66  94 126 164 212 265 316 375
#     4  10  22  38  59  93 131 167 208 263 322 377
#     4  10  21  37  58  92 134 171 210 255 317 380
#     4   9  17  34  59  89 126 164 201 248 311 378
#     4  11  26  48  67  88 122 172 221 265 317 376
#     4  12  25  41  66  93 129 166 218 259 318 375
#
# _framework density 20.505533
#
# number of rings (size 3 to 8) (size 9 to 14) (size 15 to 20)
#    0.000    1.500    1.250    3.375    3.500    5.500 
#    0.000    0.625    0.000    0.000    0.000    0.000 
#    0.000    0.000    0.000    0.000    0.000    0.000 
#
# Total GULP energy -179006.827805 kJ/mol
# GULP energy per Si atom -5593.963369 kJ/mol
# Density = 2.045886 g / cm^3
# Si number density = 20.505533 Si / 1000 Ang^3
#
#
#
# Elastic Constant Matrix: (Units=GPa)
#
#
# Indices 1 2 3 4 5 6 
#
# 1 35.7389 2.7753 0.8755 0.0000 -16.0790 0.0000
# 2 2.7753 47.7471 8.1540 0.0000 -9.1348 0.0000
# 3 0.8755 8.1540 49.8810 0.0000 -2.2737 0.0000
# 4 0.0000 0.0000 0.0000 35.5178 0.0000 -1.0359
# 5 -16.0790 -9.1348 -2.2737 0.0000 30.8370 0.0000
# 6 0.0000 0.0000 0.0000 -1.0359 0.0000 25.4177
#
#
#
# Elastic Compliance Matrix: (Units=1/GPa)
#
#
# Indices 1 2 3 4 5 6 
#
# 1 0.036674 0.001621 -0.000015 0.000000 0.019602 0.000000
# 2 0.001621 0.022843 -0.003427 0.000000 0.007359 0.000000
# 3 -0.000015 -0.003427 0.020631 0.000000 0.000498 0.000000
# 4 0.000000 0.000000 0.000000 0.028188 0.000000 0.001149
# 5 0.019602 0.007359 0.000498 0.000000 0.044866 0.000000
# 6 0.000000 0.000000 0.000000 0.001149 0.000000 0.039390
#
#
# Mechanical properties :
#
#
# Convention : Reuss Voigt Hill
#
# Bulk Modulus (GPa) = 13.07103 17.44187 15.25645
# Shear Modulus (GPa) = 22.54937 26.45864 24.50401
#
# Velocity S-wave (km/s) = 3.31973 3.59600 3.46062
# Velocity P-wave (km/s) = 4.59155 5.07602 4.83985
#
# Compressibility (1/GPa) = 0.07650508
#
# Stress axis : x y z
#
# Youngs Moduli (GPa) = 27.26723 43.77775 48.47098
#
# Poissons Ratio (x) = -0.07096 0.00074
# Poissons Ratio (y) = -0.04420 0.16611
# Poissons Ratio (z) = 0.00041 0.15003
#
# Static dielectric constant tensor:
#      x y z
#    x 1.701690 0.000000 -0.018600 
#    y 0.000000 1.761660 0.000000 
#    z -0.018600 0.000000 1.697050 
# 
# From -- ./inp_files/41629.got.cif
#   From: 2010.05.17/outbox.cif.g08.bks.cpg/sg11_21_cif.got.tgz:41629.got - 2010.06.03 12:22:45.
