data_PCOD9164980
_publ_section_title
;
Structure prediction by ZEFSAII (Michael W. Deem and Ramdas Pophale) SiO2 
 PCOD9164980
Probable space group: P 21/M
;
_chemical_formula_sum "Si O2"
_cell_formula_units_Z 20
_cell_length_a 5.361849
_cell_length_b 8.865791
_cell_length_c 19.304864
_cell_angle_alpha 90.000000
_cell_angle_beta 103.587834
_cell_angle_gamma 90.000000
_cell_volume 892.010473
_symmetry_space_group_name_H-M "P 21/M"
_symmetry_group_IT_number 11
_symmetry_cell_setting 'monoclinic'
loop_
_space_group_symop_operation_xyz
x,y,z
-x,1/2+y,-z
-x,-y,-z
x,1/2-y,z
loop_
_atom_site_type_symbol
_atom_site_label
_atom_site_fract_x
_atom_site_fract_y
_atom_site_fract_z
Si Si1 0.781379 0.066084 0.537024
Si Si2 0.545508 0.567681 0.230279
Si Si3 0.177785 0.415015 0.111007
Si Si4 0.896234 0.566293 0.696389
Si Si5 0.739697 0.911495 0.042292
O O1 0.779751 0.250000 0.534931
O O2 0.500000 0.000000 0.500000
O O3 0.847948 0.003330 0.617390
O O4 0.000000 0.000000 0.500000
O O5 0.556720 0.750000 0.235173
O O6 0.422783 0.509258 0.149944
O O7 0.330982 0.501067 0.269872
O O8 0.822073 0.493291 0.262374
O O9 0.184968 0.250000 0.144474
O O10 0.925907 0.510870 0.108751
O O11 0.139454 0.390047 0.026685
O O12 0.890036 0.750000 0.694664
O O13 0.664432 0.750000 0.064959
O O14 0.500000 0.000000 0.000000
#
# Coordination Sequence:
#
# PCOD9164980 Si02
#       5
#     4   4   4   4   4
#     4  12  25  45  72 105 141 181 227 276 332 394
#     4  12  26  45  69  99 136 180 227 279 338 404
#     4  10  22  40  60  87 121 165 215 269 332 397
#     4  12  26  47  71 101 139 181 226 277 335 399
#     4  10  21  37  60  87 120 159 211 270 330 394
#
# _framework density 22.421261000000001
#
# number of rings (size 3 to 8) (size 9 to 14) (size 15 to 20)
#    0.000    0.800    0.000    7.800    2.800    2.400 
#    0.000    0.000    0.000    0.000    0.000    0.000 
#    0.000    0.000    0.000    0.000    0.000    0.000 
#
# Total GULP energy -111636.635830 kJ/mol
# GULP energy per Si atom -5581.831791 kJ/mol
# Density = 2.237023 g / cm^3
# Si number density = 22.421261 Si / 1000 Ang^3
#
#
#
# Elastic Constant Matrix: (Units=GPa)
#
#
# Indices 1 2 3 4 5 6 
#
# 1 151.2691 74.9647 69.7619 0.0000 28.5714 0.0000
# 2 74.9647 264.2730 59.4297 0.0000 27.2472 0.0000
# 3 69.7619 59.4297 116.7520 0.0000 14.5075 0.0000
# 4 0.0000 0.0000 0.0000 35.5384 0.0000 4.6492
# 5 28.5714 27.2472 14.5075 0.0000 52.1705 0.0000
# 6 0.0000 0.0000 0.0000 4.6492 0.0000 39.6489
#
#
#
# Elastic Compliance Matrix: (Units=1/GPa)
#
#
# Indices 1 2 3 4 5 6 
#
# 1 0.010277 -0.001436 -0.004976 0.000000 -0.003495 0.000000
# 2 -0.001436 0.004622 -0.001339 0.000000 -0.001255 0.000000
# 3 -0.004976 -0.001339 0.012216 0.000000 0.000027 0.000000
# 4 0.000000 0.000000 0.000000 0.028577 0.000000 -0.003351
# 5 -0.003495 -0.001255 0.000027 0.000000 0.021730 0.000000
# 6 0.000000 0.000000 0.000000 -0.003351 0.000000 0.025614
#
#
# Mechanical properties :
#
#
# Convention : Reuss Voigt Hill
#
# Bulk Modulus (GPa) = 86.09769 104.51185 95.30477
# Shear Modulus (GPa) = 40.84703 47.34742 44.09722
#
# Velocity S-wave (km/s) = 4.27288 4.60033 4.43963
# Velocity P-wave (km/s) = 7.92633 8.65629 8.29934
#
# Compressibility (1/GPa) = 0.01161471
#
# Stress axis : x y z
#
# Youngs Moduli (GPa) = 97.30400 216.36892 81.85865
#
# Poissons Ratio (x) = 0.31071 0.40729
# Poissons Ratio (y) = 0.13973 0.10957
# Poissons Ratio (z) = 0.48414 0.28962
#
# Static dielectric constant tensor:
#      x y z
#    x 1.902530 0.000000 -0.152310 
#    y 0.000000 1.817500 0.000000 
#    z -0.152310 0.000000 1.896690 
# 
# From -- ./inp_files/8509.got.cif
#   From: 2010.05.17/outbox.cif.g08.bks.cpg/sg11_5_cif.got.tgz:8509.got - 2010.06.03 12:22:45.
