data_PCOD9164434
_publ_section_title
;
Structure prediction by ZEFSAII (Michael W. Deem and Ramdas Pophale) SiO2 
 PCOD9164434
Probable space group: P 21/M
;
_chemical_formula_sum "Si O2"
_cell_formula_units_Z 32
_cell_length_a 19.033058
_cell_length_b 7.360211
_cell_length_c 10.664438
_cell_angle_alpha 90.000000
_cell_angle_beta 127.888267
_cell_angle_gamma 90.000000
_cell_volume 1179.042100
_symmetry_space_group_name_H-M "P 21/M"
_symmetry_group_IT_number 11
_symmetry_cell_setting 'monoclinic'
loop_
_space_group_symop_operation_xyz
x,y,z
-x,1/2+y,-z
-x,-y,-z
x,1/2-y,z
loop_
_atom_site_type_symbol
_atom_site_label
_atom_site_fract_x
_atom_site_fract_y
_atom_site_fract_z
Si Si1 0.886763 0.026185 0.127857
Si Si2 0.235083 0.538456 0.782270
Si Si3 0.608818 0.472803 0.205452
Si Si4 0.246116 0.957329 0.440950
Si Si5 0.470021 0.040070 0.245852
Si Si6 0.938991 0.536291 0.556233
Si Si7 0.622988 0.969988 0.623100
Si Si8 0.103092 0.533394 0.129698
O O1 0.888912 0.250000 0.135146
O O2 0.817788 0.961151 0.157491
O O3 0.988755 0.964365 0.264576
O O4 0.858727 0.965918 0.960344
O O5 0.249401 0.750000 0.823233
O O6 0.333597 0.468910 0.853067
O O7 0.160620 0.529384 0.588501
O O8 0.603496 0.250000 0.198588
O O9 0.680402 0.538215 0.388260
O O10 0.514716 0.534109 0.165038
O O11 0.238096 0.750000 0.473676
O O12 0.150785 0.041820 0.306234
O O13 0.290128 0.960949 0.351299
O O14 0.450116 0.250000 0.198520
O O15 0.391569 0.964164 0.249115
O O16 0.547152 0.033242 0.439342
O O17 0.930396 0.750000 0.560470
O O18 0.000000 0.500000 0.500000
O O19 0.621456 0.750000 0.621955
O O20 0.115253 0.750000 0.150349
O O21 0.000000 0.500000 0.000000
#
# Coordination Sequence:
#
# PCOD9164434 Si02
#       8
#     4   4   4   4   4   4   4   4
#     4   8  16  30  44  60  81 107 139 179 219 251
#     4   9  16  27  45  64  85 110 137 172 213 259
#     4   8  14  25  42  64  88 112 139 168 206 256
#     4   9  18  31  44  60  85 117 148 180 214 256
#     4   8  14  25  40  62  92 119 141 169 209 258
#     4   9  16  27  42  60  81 105 135 174 216 254
#     4   9  15  24  42  64  87 115 145 177 211 253
#     4  10  21  35  48  62  84 114 149 185 223 257
#
# _framework density 27.140675999999999
#
# number of rings (size 3 to 8) (size 9 to 14) (size 15 to 20)
#    0.000    3.250    0.000    2.250    1.750    1.000 
#    0.000    5.000    0.000    0.000    0.000    0.875 
#    0.000    0.000    0.000    0.000    0.000    0.000 
#
# Total GULP energy -178443.968487 kJ/mol
# GULP energy per Si atom -5576.374015 kJ/mol
# Density = 2.707890 g / cm^3
# Si number density = 27.140676 Si / 1000 Ang^3
#
#
#
# Elastic Constant Matrix: (Units=GPa)
#
#
# Indices 1 2 3 4 5 6 
#
# 1 166.0350 14.7925 8.1530 0.0000 -12.6443 0.0000
# 2 14.7925 132.4120 6.9088 0.0000 -6.7274 0.0000
# 3 8.1530 6.9088 63.0698 0.0000 15.4371 0.0000
# 4 0.0000 0.0000 0.0000 8.2541 0.0000 0.3212
# 5 -12.6443 -6.7274 15.4371 0.0000 42.1485 0.0000
# 6 0.0000 0.0000 0.0000 0.3212 0.0000 20.2485
#
#
#
# Elastic Compliance Matrix: (Units=1/GPa)
#
#
# Indices 1 2 3 4 5 6 
#
# 1 0.006309 -0.000519 -0.001320 0.000000 0.002293 0.000000
# 2 -0.000519 0.007746 -0.001149 0.000000 0.001501 0.000000
# 3 -0.001320 -0.001149 0.017898 0.000000 -0.007135 0.000000
# 4 0.000000 0.000000 0.000000 0.121226 0.000000 -0.001923
# 5 0.002293 0.001501 -0.007135 0.000000 0.027266 0.000000
# 6 0.000000 0.000000 0.000000 -0.001923 0.000000 0.049417
#
#
# Mechanical properties :
#
#
# Convention : Reuss Voigt Hill
#
# Bulk Modulus (GPa) = 38.49579 46.80281 42.64930
# Shear Modulus (GPa) = 20.45008 36.24107 28.34557
#
# Velocity S-wave (km/s) = 2.74794 3.65815 3.23522
# Velocity P-wave (km/s) = 4.92776 5.92661 5.45012
#
# Compressibility (1/GPa) = 0.02597686
#
# Stress axis : x y z
#
# Youngs Moduli (GPa) = 158.51541 129.09164 55.87160
#
# Poissons Ratio (x) = 0.06705 0.07374
# Poissons Ratio (y) = 0.08233 0.06419
# Poissons Ratio (z) = 0.20922 0.14831
#
# Static dielectric constant tensor:
#      x y z
#    x 2.302460 0.000000 -0.039440 
#    y 0.000000 2.151750 0.000000 
#    z -0.039440 0.000000 2.176230 
# 
# From -- ./inp_files/42435.got.cif
#   From: 2010.05.17/outbox.cif.g08.bks.cpg/sg11_22_cif.got.tgz:42435.got - 2010.06.03 12:22:45.
