data_PCOD9164892
_publ_section_title
;
Structure prediction by ZEFSAII (Michael W. Deem and Ramdas Pophale) SiO2 
 PCOD9164892
Probable space group: P 21/M
;
_chemical_formula_sum "Si O2"
_cell_formula_units_Z 32
_cell_length_a 30.659426
_cell_length_b 9.078430
_cell_length_c 11.839972
_cell_angle_alpha 90.000000
_cell_angle_beta 149.770009
_cell_angle_gamma 90.000000
_cell_volume 1659.208655
_symmetry_space_group_name_H-M "P 21/M"
_symmetry_group_IT_number 11
_symmetry_cell_setting 'monoclinic'
loop_
_space_group_symop_operation_xyz
x,y,z
-x,1/2+y,-z
-x,-y,-z
x,1/2-y,z
loop_
_atom_site_type_symbol
_atom_site_label
_atom_site_fract_x
_atom_site_fract_y
_atom_site_fract_z
Si Si1 0.506175 0.578949 0.813350
Si Si2 0.044586 0.425696 0.923338
Si Si3 0.332371 0.582333 0.537305
Si Si4 0.295940 0.421524 0.675897
Si Si5 0.927844 0.072031 0.258752
Si Si6 0.732293 0.077487 0.864766
Si Si7 0.128048 0.923828 0.329223
Si Si8 0.565445 0.922621 0.561407
O O1 0.497962 0.750000 0.753671
O O2 0.436332 0.568838 0.757779
O O3 0.472789 0.465787 0.646013
O O4 0.605650 0.552076 0.064600
O O5 0.059600 0.250000 0.947204
O O6 0.065015 0.506208 0.851673
O O7 0.944586 0.449381 0.737782
O O8 0.098256 0.491735 0.148792
O O9 0.312065 0.750000 0.528321
O O10 0.295801 0.468786 0.544617
O O11 0.293984 0.562058 0.326385
O O12 0.276419 0.250000 0.645707
O O13 0.222539 0.516826 0.572243
O O14 0.935848 0.250000 0.272430
O O15 0.832732 0.036828 0.096322
O O16 0.000000 0.000000 0.500000
O O17 0.722270 0.250000 0.870366
O O18 0.662880 0.986276 0.780779
O O19 0.129964 0.750000 0.310222
O O20 0.566836 0.750000 0.583545
O O21 0.500000 0.000000 0.500000
#
# Coordination Sequence:
#
# PCOD9164892 Si02
#       8
#     4   4   4   4   4   4   4   4
#     4   9  20  37  53  76 112 149 187 231 278 330
#     4  10  21  39  62  85 112 149 196 245 293 349
#     4   9  17  32  55  79 110 148 186 231 281 332
#     4  11  21  32  51  82 116 149 187 230 276 334
#     4  11  23  40  63  90 122 157 195 245 302 353
#     4   9  20  39  60  84 113 149 192 236 282 338
#     4  10  21  37  58  84 115 153 193 237 291 351
#     4  11  22  38  62  86 110 146 189 236 286 340
#
# _framework density 19.286303
#
# number of rings (size 3 to 8) (size 9 to 14) (size 15 to 20)
#    0.000    2.000    0.000    4.500    0.000    6.500 
#    2.250    0.000    0.000    0.000    0.000    0.000 
#    0.000    0.000    0.000    0.000    0.000    0.000 
#
# Total GULP energy -178674.296287 kJ/mol
# GULP energy per Si atom -5583.571759 kJ/mol
# Density = 1.924241 g / cm^3
# Si number density = 19.286303 Si / 1000 Ang^3
#
#
#
# Elastic Constant Matrix: (Units=GPa)
#
#
# Indices 1 2 3 4 5 6 
#
# 1 85.4365 59.7881 33.1487 0.0000 29.1963 0.0000
# 2 59.7881 101.0708 51.4942 0.0000 26.3187 0.0000
# 3 33.1487 51.4942 91.4625 0.0000 40.4682 0.0000
# 4 0.0000 0.0000 0.0000 31.6175 0.0000 4.5050
# 5 29.1963 26.3187 40.4682 0.0000 32.1785 0.0000
# 6 0.0000 0.0000 0.0000 4.5050 0.0000 34.7027
#
#
#
# Elastic Compliance Matrix: (Units=1/GPa)
#
#
# Indices 1 2 3 4 5 6 
#
# 1 0.025737 -0.013564 0.008415 0.000000 -0.022840 0.000000
# 2 -0.013564 0.021193 -0.010803 0.000000 0.008560 0.000000
# 3 0.008415 -0.010803 0.030288 0.000000 -0.036890 0.000000
# 4 0.000000 0.000000 0.000000 0.032224 0.000000 -0.004183
# 5 -0.022840 0.008560 -0.036890 0.000000 0.091193 0.000000
# 6 0.000000 0.000000 0.000000 -0.004183 0.000000 0.029359
#
#
# Mechanical properties :
#
#
# Convention : Reuss Voigt Hill
#
# Bulk Modulus (GPa) = 22.06862 62.98131 42.52496
# Shear Modulus (GPa) = 18.05025 28.60232 23.32628
#
# Velocity S-wave (km/s) = 3.06258 3.85520 3.48152
# Velocity P-wave (km/s) = 4.89626 7.24870 6.18535
#
# Compressibility (1/GPa) = 0.04531322
#
# Stress axis : x y z
#
# Youngs Moduli (GPa) = 38.85417 47.18512 33.01629
#
# Poissons Ratio (x) = 0.64004 -0.27782
# Poissons Ratio (y) = 0.52703 0.35667
# Poissons Ratio (z) = -0.32695 0.50974
#
# Static dielectric constant tensor:
#      x y z
#    x 1.683480 0.000000 0.018580 
#    y 0.000000 1.646210 0.000000 
#    z 0.018580 0.000000 1.694290 
# 
# From -- ./inp_files/45291.got.cif
#   From: 2010.05.17/outbox.cif.g08.bks.cpg/sg11_23_cif.got.tgz:45291.got - 2010.06.03 12:22:45.
