data_PCOD9164014
_publ_section_title
;
Structure prediction by ZEFSAII (Michael W. Deem and Ramdas Pophale) SiO2 
 PCOD9164014
Probable space group: P 21/M
;
_chemical_formula_sum "Si O2"
_cell_formula_units_Z 22
_cell_length_a 12.865531
_cell_length_b 10.949704
_cell_length_c 12.269060
_cell_angle_alpha 90.000000
_cell_angle_beta 32.811776
_cell_angle_gamma 90.000000
_cell_volume 936.580857
_symmetry_space_group_name_H-M "P 21/M"
_symmetry_group_IT_number 11
_symmetry_cell_setting 'monoclinic'
loop_
_space_group_symop_operation_xyz
x,y,z
-x,1/2+y,-z
-x,-y,-z
x,1/2-y,z
loop_
_atom_site_type_symbol
_atom_site_label
_atom_site_fract_x
_atom_site_fract_y
_atom_site_fract_z
Si Si1 0.826102 0.250000 0.755467
Si Si2 0.765455 0.514773 0.810899
Si Si3 0.732603 0.750000 0.694919
Si Si4 0.570737 0.983524 0.220128
Si Si5 0.069669 0.381197 0.000431
Si Si6 0.858695 0.390039 0.419481
Si Si7 0.615531 0.250000 0.164017
O O1 0.741568 0.377823 0.786848
O O2 0.051325 0.250000 0.537871
O O3 0.780566 0.250000 0.925676
O O4 0.705323 0.627538 0.789639
O O5 0.990860 0.535117 0.639834
O O6 0.652169 0.520750 0.024922
O O7 0.580548 0.750000 0.733013
O O8 0.611509 0.120889 0.227501
O O9 0.348905 0.949145 0.411069
O O10 0.704643 0.894776 0.172138
O O11 0.031497 0.250000 0.979654
O O12 0.959805 0.383478 0.212544
O O13 0.000000 0.500000 0.000000
O O14 0.845049 0.250000 0.472014
#
# Coordination Sequence:
#
# PCOD9164014 Si02
#       7
#     2   4   2   4   4   4   2
#     4  10  22  38  54  80 122 158 196 260 310 340
#     4  10  22  38  59  86 120 161 207 253 299 356
#     4  12  22  36  60  87 121 157 218 252 297 358
#     4  10  22  40  63  87 126 161 203 246 303 363
#     4  10  23  42  66  97 124 155 196 243 300 366
#     4  10  20  38  63  89 120 163 199 244 300 353
#     4  10  24  40  58  89 123 161 204 256 303 350
#
# _framework density 23.489697
#
# number of rings (size 3 to 8) (size 9 to 14) (size 15 to 20)
#    0.000    1.818    0.909    2.182    3.818    5.091 
#    3.273    0.000    2.000    0.000    0.000    0.000 
#    0.000    0.000    0.000    0.000    0.000    0.000 
#
# Total GULP energy -123215.588485 kJ/mol
# GULP energy per Si atom -5600.708568 kJ/mol
# Density = 2.343623 g / cm^3
# Si number density = 23.489697 Si / 1000 Ang^3
#
#
#
# Elastic Constant Matrix: (Units=GPa)
#
#
# Indices 1 2 3 4 5 6 
#
# 1 47.9131 39.3025 19.9551 0.0000 -18.9107 0.0000
# 2 39.3025 221.9175 25.9950 0.0000 -6.0978 0.0000
# 3 19.9551 25.9950 103.5231 0.0000 -43.3283 0.0000
# 4 0.0000 0.0000 0.0000 24.9290 0.0000 7.0260
# 5 -18.9107 -6.0978 -43.3283 0.0000 29.8039 0.0000
# 6 0.0000 0.0000 0.0000 7.0260 0.0000 35.9800
#
#
#
# Elastic Compliance Matrix: (Units=1/GPa)
#
#
# Indices 1 2 3 4 5 6 
#
# 1 0.036331 -0.006574 0.009534 0.000000 0.035567 0.000000
# 2 -0.006574 0.005875 -0.003705 0.000000 -0.008356 0.000000
# 3 0.009534 -0.003705 0.028010 0.000000 0.046011 0.000000
# 4 0.000000 0.000000 0.000000 0.042450 0.000000 -0.008289
# 5 0.035567 -0.008356 0.046011 0.000000 0.121301 0.000000
# 6 0.000000 0.000000 0.000000 -0.008289 0.000000 0.029412
#
#
# Mechanical properties :
#
#
# Convention : Reuss Voigt Hill
#
# Bulk Modulus (GPa) = 14.55074 60.42879 37.48976
# Shear Modulus (GPa) = 17.37452 37.34930 27.36191
#
# Velocity S-wave (km/s) = 2.72263 3.99184 3.41669
# Velocity P-wave (km/s) = 4.01143 6.85769 5.61781
#
# Compressibility (1/GPa) = 0.06872505
#
# Stress axis : x y z
#
# Youngs Moduli (GPa) = 27.52485 170.21701 35.70173
#
# Poissons Ratio (x) = 1.11897 -0.34037
# Poissons Ratio (y) = 0.18094 0.13228
# Poissons Ratio (z) = -0.26242 0.63069
#
# Static dielectric constant tensor:
#      x y z
#    x 1.862360 0.000000 0.016700 
#    y 0.000000 1.933900 0.000000 
#    z 0.016700 0.000000 1.863000 
# 
# From -- ./inp_files/52088.got.cif
#   From: 2010.05.17/outbox.cif.g08.bks.cpg/sg11_27_cif.got.tgz:52088.got - 2010.06.03 12:22:45.
