data_PCOD9164202
_publ_section_title
;
Structure prediction by ZEFSAII (Michael W. Deem and Ramdas Pophale) SiO2 
 PCOD9164202
Probable space group: P 21/M
;
_chemical_formula_sum "Si O2"
_cell_formula_units_Z 32
_cell_length_a 14.496834
_cell_length_b 8.412716
_cell_length_c 12.648232
_cell_angle_alpha 90.000000
_cell_angle_beta 89.310818
_cell_angle_gamma 90.000000
_cell_volume 1542.438292
_symmetry_space_group_name_H-M "P 21/M"
_symmetry_group_IT_number 11
_symmetry_cell_setting 'monoclinic'
loop_
_space_group_symop_operation_xyz
x,y,z
-x,1/2+y,-z
-x,-y,-z
x,1/2-y,z
loop_
_atom_site_type_symbol
_atom_site_label
_atom_site_fract_x
_atom_site_fract_y
_atom_site_fract_z
Si Si1 0.507961 0.436516 0.164861
Si Si2 0.038990 0.936848 0.387542
Si Si3 0.293945 0.569079 0.554274
Si Si4 0.716472 0.443650 0.112526
Si Si5 0.134192 0.937618 0.716830
Si Si6 0.240208 0.065563 0.339175
Si Si7 0.526906 0.931942 0.386082
Si Si8 0.684059 0.062140 0.880720
O O1 0.503016 0.250000 0.139853
O O2 0.612220 0.495523 0.143101
O O3 0.490430 0.465006 0.289708
O O4 0.425261 0.526409 0.107947
O O5 0.058724 0.750000 0.396938
O O6 0.132171 0.025915 0.353147
O O7 0.000000 0.000000 0.500000
O O8 0.959362 0.968853 0.302290
O O9 0.325409 0.750000 0.575146
O O10 0.194321 0.551739 0.608438
O O11 0.289778 0.535655 0.430283
O O12 0.362729 0.450773 0.611615
O O13 0.714260 0.250000 0.120417
O O14 0.797260 0.494308 0.190976
O O15 0.731260 0.486901 0.990159
O O16 0.113800 0.750000 0.733886
O O17 0.256833 0.250000 0.362012
O O18 0.276112 0.023879 0.222490
O O19 0.498697 0.750000 0.373463
O O20 0.500000 0.000000 0.500000
O O21 0.696635 0.250000 0.866317
#
# Coordination Sequence:
#
# PCOD9164202 Si02
#       8
#     4   4   4   4   4   4   4   4
#     4  11  21  39  62  89 123 163 210 257 306 364
#     4  12  24  40  64  96 128 161 201 251 307 371
#     4  11  21  37  62  88 122 159 197 247 308 367
#     4   9  20  40  66  91 123 164 207 255 306 362
#     4  10  20  39  65  93 123 158 199 248 305 364
#     4  12  25  42  63  90 125 165 208 254 307 367
#     4  12  24  37  54  82 121 163 207 252 305 367
#     4  11  23  41  63  91 124 163 209 257 310 364
#
# _framework density 20.746373999999999
#
# number of rings (size 3 to 8) (size 9 to 14) (size 15 to 20)
#    0.000    1.000    2.500    5.625    0.000    0.500 
#    0.000    3.750    0.000    0.000    0.000    0.000 
#    0.000    0.000    0.000    0.000    0.000    0.000 
#
# Total GULP energy -178970.583008 kJ/mol
# GULP energy per Si atom -5592.830719 kJ/mol
# Density = 2.069915 g / cm^3
# Si number density = 20.746374 Si / 1000 Ang^3
#
#
#
# Elastic Constant Matrix: (Units=GPa)
#
#
# Indices 1 2 3 4 5 6 
#
# 1 71.2065 -1.7871 20.8398 0.0000 11.7222 0.0000
# 2 -1.7871 52.4712 -1.1350 0.0000 -4.1471 0.0000
# 3 20.8398 -1.1350 104.5256 0.0000 16.2979 0.0000
# 4 0.0000 0.0000 0.0000 17.9534 0.0000 2.7964
# 5 11.7222 -4.1471 16.2979 0.0000 28.8354 0.0000
# 6 0.0000 0.0000 0.0000 2.7964 0.0000 32.1127
#
#
#
# Elastic Compliance Matrix: (Units=1/GPa)
#
#
# Indices 1 2 3 4 5 6 
#
# 1 0.015547 0.000084 -0.002320 0.000000 -0.004997 0.000000
# 2 0.000084 0.019283 -0.000257 0.000000 0.002884 0.000000
# 3 -0.002320 -0.000257 0.010841 0.000000 -0.005221 0.000000
# 4 0.000000 0.000000 0.000000 0.056466 0.000000 -0.004917
# 5 -0.004997 0.002884 -0.005221 0.000000 0.040077 0.000000
# 6 0.000000 0.000000 0.000000 -0.004917 0.000000 0.031568
#
#
# Mechanical properties :
#
#
# Convention : Reuss Voigt Hill
#
# Bulk Modulus (GPa) = 24.57815 29.33765 26.95790
# Shear Modulus (GPa) = 25.99702 29.79933 27.89818
#
# Velocity S-wave (km/s) = 3.54374 3.79405 3.67103
# Velocity P-wave (km/s) = 5.34947 5.77623 5.56694
#
# Compressibility (1/GPa) = 0.04068655
#
# Stress axis : x y z
#
# Youngs Moduli (GPa) = 64.31981 51.85825 92.24371
#
# Poissons Ratio (x) = -0.00438 0.21398
# Poissons Ratio (y) = -0.00543 0.02372
# Poissons Ratio (z) = 0.14920 0.01334
#
# Static dielectric constant tensor:
#      x y z
#    x 1.773160 0.000000 -0.003630 
#    y 0.000000 1.709380 0.000000 
#    z -0.003630 0.000000 1.752910 
# 
# From -- ./inp_files/38117.got.cif
#   From: 2010.05.17/outbox.cif.g08.bks.cpg/sg11_20_cif.got.tgz:38117.got - 2010.06.03 12:22:45.
