data_PCOD9164841
_publ_section_title
;
Structure prediction by ZEFSAII (Michael W. Deem and Ramdas Pophale) SiO2 
 PCOD9164841
Probable space group: P 21/M
;
_chemical_formula_sum "Si O2"
_cell_formula_units_Z 32
_cell_length_a 14.509679
_cell_length_b 7.848210
_cell_length_c 20.979766
_cell_angle_alpha 90.000000
_cell_angle_beta 143.228464
_cell_angle_gamma 90.000000
_cell_volume 1430.159379
_symmetry_space_group_name_H-M "P 21/M"
_symmetry_group_IT_number 11
_symmetry_cell_setting 'monoclinic'
loop_
_space_group_symop_operation_xyz
x,y,z
-x,1/2+y,-z
-x,-y,-z
x,1/2-y,z
loop_
_atom_site_type_symbol
_atom_site_label
_atom_site_fract_x
_atom_site_fract_y
_atom_site_fract_z
Si Si1 0.160219 0.553861 0.729073
Si Si2 0.151850 0.450235 0.398328
Si Si3 0.253185 0.446869 0.919567
Si Si4 0.343706 0.956972 0.171388
Si Si5 0.062635 0.549687 0.938617
Si Si6 0.473945 0.052830 0.854413
Si Si7 0.488624 0.947197 0.608051
Si Si8 0.216915 0.039762 0.293128
O O1 0.156430 0.750000 0.706367
O O2 0.215866 0.539790 0.833372
O O3 0.292217 0.466502 0.760901
O O4 0.987331 0.479078 0.636257
O O5 0.115999 0.250000 0.372236
O O6 0.323258 0.466765 0.520000
O O7 0.157080 0.518173 0.328803
O O8 0.208184 0.250000 0.887820
O O9 0.161914 0.527537 0.928576
O O10 0.431842 0.455690 0.038722
O O11 0.340744 0.750000 0.175781
O O12 0.456901 0.000582 0.175182
O O13 0.415554 0.035456 0.273919
O O14 0.172864 0.018653 0.055614
O O15 0.043827 0.750000 0.940723
O O16 0.896911 0.479155 0.826236
O O17 0.514980 0.250000 0.885759
O O18 0.458592 0.750000 0.577531
O O19 0.608887 0.017158 0.622617
O O20 0.216466 0.250000 0.292129
#
# Coordination Sequence:
#
# PCOD9164841 Si02
#       8
#     4   4   4   4   4   4   4   4
#     4  11  21  35  57  83 111 148 187 230 282 337
#     4  10  21  39  61  81 112 151 188 229 282 344
#     4  11  20  31  51  83 120 151 183 226 276 336
#     4   9  20  38  59  80 111 153 191 227 276 338
#     4   9  17  35  59  82 113 152 189 228 282 338
#     4  10  21  37  57  81 112 150 188 231 277 332
#     4  11  23  37  58  84 113 148 191 240 281 329
#     4   9  18  36  60  86 114 147 183 230 291 340
#
# _framework density 22.375128
#
# number of rings (size 3 to 8) (size 9 to 14) (size 15 to 20)
#    0.000    2.000    1.250    3.750    0.000    4.000 
#    0.000    2.500    0.000    0.000    0.000    0.000 
#    0.000    0.000    0.000    0.000    0.000    0.000 
#
# Total GULP energy -178749.143966 kJ/mol
# GULP energy per Si atom -5585.910749 kJ/mol
# Density = 2.232420 g / cm^3
# Si number density = 22.375128 Si / 1000 Ang^3
#
#
#
# Elastic Constant Matrix: (Units=GPa)
#
#
# Indices 1 2 3 4 5 6 
#
# 1 44.3220 -0.3956 29.7951 0.0000 21.5305 0.0000
# 2 -0.3956 37.1914 -1.1503 0.0000 4.4234 0.0000
# 3 29.7951 -1.1503 123.6517 0.0000 24.8550 0.0000
# 4 0.0000 0.0000 0.0000 9.7964 0.0000 -3.3523
# 5 21.5305 4.4234 24.8550 0.0000 41.2739 0.0000
# 6 0.0000 0.0000 0.0000 -3.3523 0.0000 12.0377
#
#
#
# Elastic Compliance Matrix: (Units=1/GPa)
#
#
# Indices 1 2 3 4 5 6 
#
# 1 0.032935 0.001902 -0.005033 0.000000 -0.014353 0.000000
# 2 0.001902 0.027445 0.000669 0.000000 -0.004336 0.000000
# 3 -0.005033 0.000669 0.010004 0.000000 -0.003470 0.000000
# 4 0.000000 0.000000 0.000000 0.112831 0.000000 0.031422
# 5 -0.014353 -0.004336 -0.003470 0.000000 0.034270 0.000000
# 6 0.000000 0.000000 0.000000 0.031422 0.000000 0.091823
#
#
# Mechanical properties :
#
#
# Convention : Reuss Voigt Hill
#
# Bulk Modulus (GPa) = 15.27695 29.07372 22.17534
# Shear Modulus (GPa) = 14.87861 24.41598 19.64730
#
# Velocity S-wave (km/s) = 2.58148 3.30693 2.96647
# Velocity P-wave (km/s) = 3.96584 5.25386 4.65462
#
# Compressibility (1/GPa) = 0.06545807
#
# Stress axis : x y z
#
# Youngs Moduli (GPa) = 30.36264 36.43712 99.96173
#
# Poissons Ratio (x) = -0.06930 0.50313
# Poissons Ratio (y) = -0.05774 -0.06684
# Poissons Ratio (z) = 0.15282 -0.02436
#
# Static dielectric constant tensor:
#      x y z
#    x 1.838370 0.000000 0.037060 
#    y 0.000000 1.842990 0.000000 
#    z 0.037060 0.000000 1.846420 
# 
# From -- ./inp_files/69084.got.cif
#   From: 2010.05.17/outbox.cif.g08.bks.cpg/sg11_35_cif.got.tgz:69084.got - 2010.06.03 12:22:45.
