data_PCOD9164297
_publ_section_title
;
Structure prediction by ZEFSAII (Michael W. Deem and Ramdas Pophale) SiO2 
 PCOD9164297
Probable space group: P 21/M
;
_chemical_formula_sum "Si O2"
_cell_formula_units_Z 32
_cell_length_a 11.815750
_cell_length_b 17.322411
_cell_length_c 10.889219
_cell_angle_alpha 90.000000
_cell_angle_beta 143.347276
_cell_angle_gamma 90.000000
_cell_volume 1330.497479
_symmetry_space_group_name_H-M "P 21/M"
_symmetry_group_IT_number 11
_symmetry_cell_setting 'monoclinic'
loop_
_space_group_symop_operation_xyz
x,y,z
-x,1/2+y,-z
-x,-y,-z
x,1/2-y,z
loop_
_atom_site_type_symbol
_atom_site_label
_atom_site_fract_x
_atom_site_fract_y
_atom_site_fract_z
Si Si1 0.373166 0.597200 0.563067
Si Si2 0.700979 0.659778 0.231809
Si Si3 0.152989 0.658942 0.600519
Si Si4 0.489058 0.074409 0.704623
Si Si5 0.718607 0.661984 0.970590
Si Si6 0.184369 0.659204 0.901194
Si Si7 0.980331 0.081187 0.910657
Si Si8 0.803570 0.662614 0.692391
O O1 0.239752 0.613315 0.563879
O O2 0.474486 0.515839 0.673976
O O3 0.547002 0.656817 0.723498
O O4 0.230893 0.593986 0.324151
O O5 0.665277 0.750000 0.235166
O O6 0.613798 0.605692 0.260643
O O7 0.926919 0.649239 0.414398
O O8 0.633048 0.648525 0.032118
O O9 0.189296 0.750000 0.611758
O O10 0.234019 0.638709 0.804953
O O11 0.372727 0.109065 0.489193
O O12 0.699260 0.107191 0.903763
O O13 0.797905 0.750000 0.041146
O O14 0.875481 0.597089 0.077325
O O15 0.225735 0.750000 0.957870
O O16 0.959907 0.650116 0.722041
O O17 0.068937 0.144522 0.079073
O O18 0.000000 0.000000 0.000000
O O19 0.739828 0.750000 0.634741
#
# Coordination Sequence:
#
# PCOD9164297 Si02
#       8
#     4   4   4   4   4   4   4   4
#     4  12  27  43  69 101 138 180 220 283 344 406
#     4  10  20  40  70 100 136 178 223 275 333 403
#     4  10  20  40  68  99 133 173 223 274 334 407
#     4  12  24  40  65 101 143 177 212 276 344 412
#     4  11  26  47  74 103 134 179 233 280 335 411
#     4  10  22  40  67  99 135 174 219 276 333 407
#     4  12  27  49  70  96 134 180 228 294 344 388
#     4  11  24  44  69  96 128 179 232 274 332 407
#
# _framework density 24.051154
#
# number of rings (size 3 to 8) (size 9 to 14) (size 15 to 20)
#    0.000    1.000    3.750    2.625    1.750    7.500 
#    0.000    1.250    0.000    0.000    0.000    0.000 
#    0.000    0.000    0.000    0.000    0.000    0.000 
#
# Total GULP energy -179126.568614 kJ/mol
# GULP energy per Si atom -5597.705269 kJ/mol
# Density = 2.399641 g / cm^3
# Si number density = 24.051154 Si / 1000 Ang^3
#
#
#
# Elastic Constant Matrix: (Units=GPa)
#
#
# Indices 1 2 3 4 5 6 
#
# 1 53.8561 8.7903 6.3147 0.0000 -4.0572 0.0000
# 2 8.7903 56.9087 28.0072 0.0000 2.7192 0.0000
# 3 6.3147 28.0072 145.7244 0.0000 -3.4257 0.0000
# 4 0.0000 0.0000 0.0000 41.6770 0.0000 -75.1325
# 5 -4.0572 2.7192 -3.4257 0.0000 42.5200 0.0000
# 6 0.0000 0.0000 0.0000 -75.1325 0.0000 846.7309
#
#
#
# Elastic Compliance Matrix: (Units=1/GPa)
#
#
# Indices 1 2 3 4 5 6 
#
# 1 0.019228 -0.002959 -0.000217 0.000000 0.002006 0.000000
# 2 -0.002959 0.019965 -0.003753 0.000000 -0.001861 0.000000
# 3 -0.000217 -0.003753 0.007612 0.000000 0.000833 0.000000
# 4 0.000000 0.000000 0.000000 0.028563 0.000000 0.002534
# 5 0.002006 -0.001861 0.000833 0.000000 0.023896 0.000000
# 6 0.000000 0.000000 0.000000 0.002534 0.000000 0.001406
#
#
# Mechanical properties :
#
#
# Convention : Reuss Voigt Hill
#
# Bulk Modulus (GPa) = 30.35159 38.07929 34.21544
# Shear Modulus (GPa) = 39.83753 200.41072 120.12412
#
# Velocity S-wave (km/s) = 4.07426 9.13826 7.07486
# Velocity P-wave (km/s) = 5.89744 11.27877 8.99974
#
# Compressibility (1/GPa) = 0.03294720
#
# Stress axis : x y z
#
# Youngs Moduli (GPa) = 52.00866 50.08810 131.36305
#
# Poissons Ratio (x) = 0.14820 0.02855
# Poissons Ratio (y) = 0.15389 0.49296
# Poissons Ratio (z) = 0.01130 0.18796
#
# Static dielectric constant tensor:
#      x y z
#    x 2.036620 0.000000 -0.026380 
#    y 0.000000 1.802030 0.000000 
#    z -0.026380 0.000000 1.942740 
# 
# From -- ./inp_files/40028.got.cif
#   From: 2010.05.17/outbox.cif.g08.bks.cpg/sg11_21_cif.got.tgz:40028.got - 2010.06.03 12:22:45.
