data_PCOD9164037
_publ_section_title
;
Structure prediction by ZEFSAII (Michael W. Deem and Ramdas Pophale) SiO2 
 PCOD9164037
Probable space group: P 21/M
;
_chemical_formula_sum "Si O2"
_cell_formula_units_Z 32
_cell_length_a 14.888936
_cell_length_b 8.852227
_cell_length_c 12.618062
_cell_angle_alpha 90.000000
_cell_angle_beta 88.093914
_cell_angle_gamma 90.000000
_cell_volume 1662.143424
_symmetry_space_group_name_H-M "P 21/M"
_symmetry_group_IT_number 11
_symmetry_cell_setting 'monoclinic'
loop_
_space_group_symop_operation_xyz
x,y,z
-x,1/2+y,-z
-x,-y,-z
x,1/2-y,z
loop_
_atom_site_type_symbol
_atom_site_label
_atom_site_fract_x
_atom_site_fract_y
_atom_site_fract_z
Si Si1 0.049808 0.569626 0.896230
Si Si2 0.005843 0.429613 0.675987
Si Si3 0.132990 0.570896 0.503111
Si Si4 0.247555 0.432478 0.868571
Si Si5 0.433171 0.429528 0.258326
Si Si6 0.385024 0.069897 0.686590
Si Si7 0.597592 0.930423 0.973686
Si Si8 0.344107 0.571031 0.467369
O O1 0.047099 0.750000 0.901759
O O2 0.005418 0.512933 0.788085
O O3 0.152625 0.511497 0.888200
O O4 0.000000 0.500000 0.000000
O O5 0.007847 0.250000 0.693756
O O6 0.091767 0.479701 0.602826
O O7 0.922519 0.466915 0.601400
O O8 0.119014 0.750000 0.523992
O O9 0.237697 0.543966 0.482180
O O10 0.235815 0.250000 0.875019
O O11 0.294178 0.468057 0.753963
O O12 0.321588 0.479783 0.953284
O O13 0.445849 0.250000 0.266787
O O14 0.530125 0.508941 0.251749
O O15 0.382444 0.461364 0.150438
O O16 0.381995 0.492156 0.361899
O O17 0.390699 0.250000 0.677481
O O18 0.387850 0.995226 0.571622
O O19 0.589323 0.750000 0.988424
O O20 0.500000 0.000000 0.000000
O O21 0.360652 0.750000 0.460503
#
# Coordination Sequence:
#
# PCOD9164037 Si02
#       8
#     4   4   4   4   4   4   4   4
#     4  12  26  43  63  89 123 162 204 252 307 365
#     4  10  20  38  64  91 121 155 197 247 301 359
#     4   9  20  38  61  90 120 155 199 244 297 360
#     4  10  22  41  65  93 122 156 199 249 304 362
#     4  11  23  38  58  85 118 155 197 243 296 354
#     4  11  22  38  61  86 118 156 197 243 294 352
#     4  10  21  39  63  90 120 154 198 249 298 355
#     4  11  23  38  56  82 120 157 197 244 294 353
#
# _framework density 19.252248999999999
#
# number of rings (size 3 to 8) (size 9 to 14) (size 15 to 20)
#    0.000    1.500    1.250    3.750    0.000    6.500 
#    0.000    2.500    0.000    0.000    0.000    0.000 
#    0.000    0.000    0.000    0.000    0.000    0.000 
#
# Total GULP energy -178887.400220 kJ/mol
# GULP energy per Si atom -5590.231257 kJ/mol
# Density = 1.920843 g / cm^3
# Si number density = 19.252249 Si / 1000 Ang^3
#
#
#
# Elastic Constant Matrix: (Units=GPa)
#
#
# Indices 1 2 3 4 5 6 
#
# 1 19.3765 5.6398 5.3414 0.0000 0.2720 0.0000
# 2 5.6398 120.5378 92.2151 0.0000 -19.8561 0.0000
# 3 5.3414 92.2151 165.2404 0.0000 -13.9565 0.0000
# 4 0.0000 0.0000 0.0000 27.5652 0.0000 -4.8001
# 5 0.2720 -19.8561 -13.9565 0.0000 29.0598 0.0000
# 6 0.0000 0.0000 0.0000 -4.8001 0.0000 32.2403
#
#
#
# Elastic Compliance Matrix: (Units=1/GPa)
#
#
# Indices 1 2 3 4 5 6 
#
# 1 0.052502 -0.002444 -0.000538 0.000000 -0.002419 0.000000
# 2 -0.002444 0.015775 -0.008142 0.000000 0.006891 0.000000
# 3 -0.000538 -0.008142 0.010573 0.000000 -0.000481 0.000000
# 4 0.000000 0.000000 0.000000 0.037243 0.000000 0.005545
# 5 -0.002419 0.006891 -0.000481 0.000000 0.038912 0.000000
# 6 0.000000 0.000000 0.000000 0.005545 0.000000 0.031843
#
#
# Mechanical properties :
#
#
# Convention : Reuss Voigt Hill
#
# Bulk Modulus (GPa) = 17.66715 56.83860 37.25287
# Shear Modulus (GPa) = 21.93343 31.23696 26.58519
#
# Velocity S-wave (km/s) = 3.37896 4.03241 3.72006
# Velocity P-wave (km/s) = 4.94164 7.16014 6.15172
#
# Compressibility (1/GPa) = 0.05660222
#
# Stress axis : x y z
#
# Youngs Moduli (GPa) = 19.04673 63.39234 94.58472
#
# Poissons Ratio (x) = 0.15491 0.05087
# Poissons Ratio (y) = 0.04654 0.77014
# Poissons Ratio (z) = 0.01024 0.51616
#
# Static dielectric constant tensor:
#      x y z
#    x 1.657320 0.000000 0.014560 
#    y 0.000000 1.643350 0.000000 
#    z 0.014560 0.000000 1.664290 
# 
# From -- ./inp_files/38090.got.cif
#   From: 2010.05.17/outbox.cif.g08.bks.cpg/sg11_20_cif.got.tgz:38090.got - 2010.06.03 12:22:45.
