data_PCOD9164997
_publ_section_title
;
Structure prediction by ZEFSAII (Michael W. Deem and Ramdas Pophale) SiO2 
 PCOD9164997
Probable space group: P 21/M
;
_chemical_formula_sum "Si O2"
_cell_formula_units_Z 32
_cell_length_a 23.892339
_cell_length_b 8.667096
_cell_length_c 13.852273
_cell_angle_alpha 90.000000
_cell_angle_beta 146.148074
_cell_angle_gamma 90.000000
_cell_volume 1597.887942
_symmetry_space_group_name_H-M "P 21/M"
_symmetry_group_IT_number 11
_symmetry_cell_setting 'monoclinic'
loop_
_space_group_symop_operation_xyz
x,y,z
-x,1/2+y,-z
-x,-y,-z
x,1/2-y,z
loop_
_atom_site_type_symbol
_atom_site_label
_atom_site_fract_x
_atom_site_fract_y
_atom_site_fract_z
Si Si1 0.643977 0.064376 0.246429
Si Si2 0.550874 0.931957 0.919360
Si Si3 0.089203 0.433799 0.693462
Si Si4 0.388608 0.433065 0.346540
Si Si5 0.840113 0.062495 0.636027
Si Si6 0.304567 0.932619 0.029620
Si Si7 0.942043 0.564528 0.125013
Si Si8 0.231307 0.566147 0.256044
O O1 0.639960 0.250000 0.222632
O O2 0.754910 0.018813 0.437518
O O3 0.608129 0.976347 0.100224
O O4 0.565164 0.033737 0.220507
O O5 0.559718 0.750000 0.912069
O O6 0.603337 0.023337 0.908517
O O7 0.095575 0.250000 0.688863
O O8 0.199498 0.506263 0.835155
O O9 0.000000 0.500000 0.500000
O O10 0.063379 0.464690 0.768721
O O11 0.500000 0.500000 0.500000
O O12 0.391811 0.250000 0.349844
O O13 0.332980 0.491343 0.362704
O O14 0.325908 0.490507 0.163707
O O15 0.841310 0.250000 0.639609
O O16 0.950839 0.013635 0.764174
O O17 0.805669 0.010468 0.692378
O O18 0.298456 0.750000 0.032956
O O19 0.930549 0.750000 0.094623
O O20 0.854476 0.478825 0.943004
O O21 0.244481 0.750000 0.278543
#
# Coordination Sequence:
#
# PCOD9164997 Si02
#       8
#     4   4   4   4   4   4   4   4
#     4   9  19  38  61  87 122 164 205 255 311 371
#     4  10  21  37  60  90 125 163 205 256 313 372
#     4  11  24  41  64  95 131 169 212 263 320 381
#     4  12  26  45  67  95 129 166 211 263 321 386
#     4   9  20  37  61  91 119 159 210 256 309 368
#     4  12  25  43  67  95 127 169 215 263 321 383
#     4  10  21  40  63  87 123 166 206 255 314 372
#     4  11  22  39  64  92 124 163 208 257 313 375
#
# _framework density 20.026436
#
# number of rings (size 3 to 8) (size 9 to 14) (size 15 to 20)
#    0.000    1.500    1.250    3.750    3.500    1.000 
#    0.000    2.500    0.000    0.000    0.000    0.000 
#    0.000    0.000    0.000    0.000    0.000    0.000 
#
# Total GULP energy -178930.086066 kJ/mol
# GULP energy per Si atom -5591.565190 kJ/mol
# Density = 1.998085 g / cm^3
# Si number density = 20.026436 Si / 1000 Ang^3
#
#
#
# Elastic Constant Matrix: (Units=GPa)
#
#
# Indices 1 2 3 4 5 6 
#
# 1 59.6610 12.9617 -12.9569 0.0000 22.8544 0.0000
# 2 12.9617 66.0725 8.0088 0.0000 8.9123 0.0000
# 3 -12.9569 8.0088 58.9666 0.0000 21.5202 0.0000
# 4 0.0000 0.0000 0.0000 30.8678 0.0000 2.5441
# 5 22.8544 8.9123 21.5202 0.0000 32.8331 0.0000
# 6 0.0000 0.0000 0.0000 2.5441 0.0000 28.7365
#
#
#
# Elastic Compliance Matrix: (Units=1/GPa)
#
#
# Indices 1 2 3 4 5 6 
#
# 1 0.039493 -0.005039 0.024837 0.000000 -0.042401 0.000000
# 2 -0.005039 0.016379 -0.003929 0.000000 0.001637 0.000000
# 3 0.024837 -0.003929 0.037948 0.000000 -0.041094 0.000000
# 4 0.000000 0.000000 0.000000 0.032634 0.000000 -0.002889
# 5 -0.042401 0.001637 -0.041094 0.000000 0.086463 0.000000
# 6 0.000000 0.000000 0.000000 -0.002889 0.000000 0.035055
#
#
# Mechanical properties :
#
#
# Convention : Reuss Voigt Hill
#
# Bulk Modulus (GPa) = 7.96446 22.30303 15.13375
# Shear Modulus (GPa) = 19.37350 30.26657 24.82003
#
# Velocity S-wave (km/s) = 3.11367 3.89180 3.52428
# Velocity P-wave (km/s) = 4.11245 5.59962 4.91264
#
# Compressibility (1/GPa) = 0.12555772
#
# Stress axis : x y z
#
# Youngs Moduli (GPa) = 25.32113 61.05445 26.35220
#
# Poissons Ratio (x) = 0.30763 -0.65451
# Poissons Ratio (y) = 0.12758 0.10354
# Poissons Ratio (z) = -0.62890 0.23988
#
# Static dielectric constant tensor:
#      x y z
#    x 1.693880 0.000000 0.026780 
#    y 0.000000 1.671860 0.000000 
#    z 0.026780 0.000000 1.658470 
# 
# From -- ./inp_files/55778.got.cif
#   From: 2010.05.17/outbox.cif.g08.bks.cpg/sg11_28_cif.got.tgz:55778.got - 2010.06.03 12:22:45.
