data_PCOD9164028
_publ_section_title
;
Structure prediction by ZEFSAII (Michael W. Deem and Ramdas Pophale) SiO2 
 PCOD9164028
Probable space group: P 21/M
;
_chemical_formula_sum "Si O2"
_cell_formula_units_Z 28
_cell_length_a 5.013207
_cell_length_b 18.679691
_cell_length_c 13.878164
_cell_angle_alpha 90.000000
_cell_angle_beta 68.641306
_cell_angle_gamma 90.000000
_cell_volume 1210.362969
_symmetry_space_group_name_H-M "P 21/M"
_symmetry_group_IT_number 11
_symmetry_cell_setting 'monoclinic'
loop_
_space_group_symop_operation_xyz
x,y,z
-x,1/2+y,-z
-x,-y,-z
x,1/2-y,z
loop_
_atom_site_type_symbol
_atom_site_label
_atom_site_fract_x
_atom_site_fract_y
_atom_site_fract_z
Si Si1 0.529879 0.665976 0.882711
Si Si2 0.774294 0.620443 0.236908
Si Si3 0.202405 0.250000 0.480972
Si Si4 0.557705 0.250000 0.618677
Si Si5 0.589863 0.162494 0.886001
Si Si6 0.989035 0.893415 0.579479
Si Si7 0.192441 0.665351 0.745234
Si Si8 0.403671 0.523295 0.405543
O O1 0.446803 0.750000 0.891783
O O2 0.869569 0.661632 0.828632
O O3 0.390364 0.635684 0.804275
O O4 0.429124 0.639855 0.999923
O O5 0.598037 0.683128 0.312635
O O6 0.109788 0.636119 0.197235
O O7 0.663275 0.550043 0.305982
O O8 0.665584 0.627671 0.141583
O O9 0.465788 0.250000 0.518954
O O10 0.184848 0.321144 0.419415
O O11 0.900784 0.250000 0.580270
O O12 0.572434 0.250000 0.882702
O O13 0.180994 0.877869 0.647326
O O14 0.182647 0.912563 0.461205
O O15 0.781558 0.960754 0.617506
O O16 0.251759 0.750000 0.718384
O O17 0.500000 0.500000 0.500000
#
# Coordination Sequence:
#
# PCOD9164028 Si02
#       8
#     4   4   2   2   4   4   4   4
#     4   9  20  36  61  94 133 155 203 267 327 374
#     4  12  23  38  63  90 132 167 215 251 314 386
#     4  12  24  40  64  93 126 165 206 280 308 359
#     4  12  22  36  58  93 128 165 212 264 308 365
#     4  11  21  38  63  99 128 166 207 269 326 374
#     4  11  25  42  65  92 129 168 217 260 318 377
#     4  10  20  38  63  96 122 164 208 264 322 371
#     4  11  27  44  61  91 131 181 209 256 317 385
#
# _framework density 23.133555999999999
#
# number of rings (size 3 to 8) (size 9 to 14) (size 15 to 20)
#    0.000    1.143    3.571    2.571    6.000    2.286 
#    0.000    0.000    0.000    5.143    0.000    0.000 
#    0.000    0.000    0.000    0.000    0.000    0.000 
#
# Total GULP energy -156839.581538 kJ/mol
# GULP energy per Si atom -5601.413626 kJ/mol
# Density = 2.308090 g / cm^3
# Si number density = 23.133556 Si / 1000 Ang^3
#
#
#
# Elastic Constant Matrix: (Units=GPa)
#
#
# Indices 1 2 3 4 5 6 
#
# 1 75.5255 10.0428 15.9218 0.0000 17.6507 0.0000
# 2 10.0428 72.3289 28.9798 0.0000 2.6798 0.0000
# 3 15.9218 28.9798 101.0383 0.0000 17.2188 0.0000
# 4 0.0000 0.0000 0.0000 24.7254 0.0000 1.9460
# 5 17.6507 2.6798 17.2188 0.0000 35.7096 0.0000
# 6 0.0000 0.0000 0.0000 1.9460 0.0000 25.4823
#
#
#
# Elastic Compliance Matrix: (Units=1/GPa)
#
#
# Indices 1 2 3 4 5 6 
#
# 1 0.015256 -0.001554 -0.000755 0.000000 -0.007060 0.000000
# 2 -0.001554 0.015817 -0.004598 0.000000 0.001798 0.000000
# 3 -0.000755 -0.004598 0.012217 0.000000 -0.005172 0.000000
# 4 0.000000 0.000000 0.000000 0.040689 0.000000 -0.003107
# 5 -0.007060 0.001798 -0.005172 0.000000 0.033853 0.000000
# 6 0.000000 0.000000 0.000000 -0.003107 0.000000 0.039480
#
#
# Mechanical properties :
#
#
# Convention : Reuss Voigt Hill
#
# Bulk Modulus (GPa) = 33.92705 39.86463 36.89584
# Shear Modulus (GPa) = 27.63158 30.11332 28.87245
#
# Velocity S-wave (km/s) = 3.45981 3.61184 3.53665
# Velocity P-wave (km/s) = 5.53696 5.88759 5.71497
#
# Compressibility (1/GPa) = 0.02947500
#
# Stress axis : x y z
#
# Youngs Moduli (GPa) = 65.54607 63.22198 81.85583
#
# Poissons Ratio (x) = 0.09826 0.06181
# Poissons Ratio (y) = 0.10187 0.37640
# Poissons Ratio (z) = 0.04950 0.29071
#
# Static dielectric constant tensor:
#      x y z
#    x 1.880990 0.000000 -0.000600 
#    y 0.000000 1.896530 0.000000 
#    z -0.000600 0.000000 1.902290 
# 
# From -- ./inp_files/5052.got.cif
#   From: 2010.05.17/outbox.cif.g08.bks.cpg/sg11_3_cif.got.tgz:5052.got - 2010.06.03 12:22:45.
