data_PCOD9164117
_publ_section_title
;
Structure prediction by ZEFSAII (Michael W. Deem and Ramdas Pophale) SiO2 
 PCOD9164117
Probable space group: P 21/M
;
_chemical_formula_sum "Si O2"
_cell_formula_units_Z 28
_cell_length_a 12.883210
_cell_length_b 8.718666
_cell_length_c 13.687765
_cell_angle_alpha 90.000000
_cell_angle_beta 68.331206
_cell_angle_gamma 90.000000
_cell_volume 1428.822916
_symmetry_space_group_name_H-M "P 21/M"
_symmetry_group_IT_number 11
_symmetry_cell_setting 'monoclinic'
loop_
_space_group_symop_operation_xyz
x,y,z
-x,1/2+y,-z
-x,-y,-z
x,1/2-y,z
loop_
_atom_site_type_symbol
_atom_site_label
_atom_site_fract_x
_atom_site_fract_y
_atom_site_fract_z
Si Si1 0.993042 0.936463 0.784052
Si Si2 0.666889 0.066533 0.691155
Si Si3 0.466650 0.066084 0.616439
Si Si4 0.094860 0.065769 0.397043
Si Si5 0.183433 0.067058 0.997015
Si Si6 0.385032 0.431856 0.079373
Si Si7 0.231562 0.566747 0.768650
O O1 0.989427 0.750000 0.786781
O O2 0.122142 0.982716 0.745303
O O3 0.933506 0.984063 0.704521
O O4 0.924374 0.986470 0.903708
O O5 0.675263 0.250000 0.685386
O O6 0.562049 0.019444 0.660971
O O7 0.783560 0.995046 0.616243
O O8 0.646477 0.011050 0.808334
O O9 0.464970 0.250000 0.612839
O O10 0.500000 0.000000 0.500000
O O11 0.345835 0.007736 0.692479
O O12 0.094152 0.250000 0.399869
O O13 0.000000 0.000000 0.500000
O O14 0.173171 0.250000 0.980779
O O15 0.288218 0.045722 0.033104
O O16 0.205252 0.980395 0.889062
O O17 0.395664 0.250000 0.092185
O O18 0.500000 0.500000 0.000000
O O19 0.241929 0.750000 0.757809
#
# Coordination Sequence:
#
# PCOD9164117 Si02
#       7
#     4   4   4   4   4   4   4
#     4   9  20  40  63  89 127 166 201 250 311 367
#     4  11  24  43  65  92 125 162 208 261 314 370
#     4  11  26  46  66  90 123 164 208 259 313 371
#     4  11  23  42  66  95 128 166 208 257 316 375
#     4  10  20  39  61  87 125 167 205 250 309 367
#     4  11  22  37  61  90 125 167 207 255 311 372
#     4  11  23  39  63  94 126 164 208 256 308 370
#
# _framework density 19.596550000000001
#
# number of rings (size 3 to 8) (size 9 to 14) (size 15 to 20)
#    0.000    1.429    1.429    3.429    2.000    6.857 
#    0.000    2.857    0.000    0.000    0.000    0.000 
#    0.000    0.000    0.000    0.000    0.000    0.000 
#
# Total GULP energy -156570.949293 kJ/mol
# GULP energy per Si atom -5591.819618 kJ/mol
# Density = 1.955195 g / cm^3
# Si number density = 19.596550 Si / 1000 Ang^3
#
#
#
# Elastic Constant Matrix: (Units=GPa)
#
#
# Indices 1 2 3 4 5 6 
#
# 1 125.9253 41.3688 38.5977 0.0000 -29.2811 0.0000
# 2 41.3688 43.5216 14.0829 0.0000 -6.6218 0.0000
# 3 38.5977 14.0829 88.9037 0.0000 -27.7348 0.0000
# 4 0.0000 0.0000 0.0000 39.6119 0.0000 -2.3814
# 5 -29.2811 -6.6218 -27.7348 0.0000 40.6048 0.0000
# 6 0.0000 0.0000 0.0000 -2.3814 0.0000 26.5402
#
#
#
# Elastic Compliance Matrix: (Units=1/GPa)
#
#
# Indices 1 2 3 4 5 6 
#
# 1 0.013951 -0.011549 -0.002131 0.000000 0.006722 0.000000
# 2 -0.011549 0.033870 -0.001558 0.000000 -0.003869 0.000000
# 3 -0.002131 -0.001558 0.015073 0.000000 0.008505 0.000000
# 4 0.000000 0.000000 0.000000 0.025382 0.000000 0.002277
# 5 0.006722 -0.003869 0.008505 0.000000 0.034653 0.000000
# 6 0.000000 0.000000 0.000000 0.002277 0.000000 0.037883
#
#
# Mechanical properties :
#
#
# Convention : Reuss Voigt Hill
#
# Bulk Modulus (GPa) = 30.84579 49.60547 40.22563
# Shear Modulus (GPa) = 24.74075 32.30479 28.52277
#
# Velocity S-wave (km/s) = 3.55703 4.06457 3.81924
# Velocity P-wave (km/s) = 5.71354 6.88447 6.32616
#
# Compressibility (1/GPa) = 0.03241933
#
# Stress axis : x y z
#
# Youngs Moduli (GPa) = 71.67733 29.52426 66.34267
#
# Poissons Ratio (x) = 0.34098 0.14135
# Poissons Ratio (y) = 0.82781 0.10338
# Poissons Ratio (z) = 0.15271 0.04601
#
# Static dielectric constant tensor:
#      x y z
#    x 1.683070 0.000000 -0.001550 
#    y 0.000000 1.663860 0.000000 
#    z -0.001550 0.000000 1.652270 
# 
# From -- ./inp_files/49164.got.cif
#   From: 2010.05.17/outbox.cif.g08.bks.cpg/sg11_25_cif.got.tgz:49164.got - 2010.06.03 12:22:45.
