data_PCOD9164094
_publ_section_title
;
Structure prediction by ZEFSAII (Michael W. Deem and Ramdas Pophale) SiO2 
 PCOD9164094
Probable space group: P 21/M
;
_chemical_formula_sum "Si O2"
_cell_formula_units_Z 32
_cell_length_a 22.222276
_cell_length_b 12.677362
_cell_length_c 5.287354
_cell_angle_alpha 90.000000
_cell_angle_beta 107.107231
_cell_angle_gamma 90.000000
_cell_volume 1423.648595
_symmetry_space_group_name_H-M "P 21/M"
_symmetry_group_IT_number 11
_symmetry_cell_setting 'monoclinic'
loop_
_space_group_symop_operation_xyz
x,y,z
-x,1/2+y,-z
-x,-y,-z
x,1/2-y,z
loop_
_atom_site_type_symbol
_atom_site_label
_atom_site_fract_x
_atom_site_fract_y
_atom_site_fract_z
Si Si1 0.793814 0.370146 0.414347
Si Si2 0.006130 0.862614 0.767835
Si Si3 0.321683 0.124912 0.446653
Si Si4 0.580307 0.999249 0.731021
Si Si5 0.477035 0.871398 0.742017
Si Si6 0.341114 0.931520 0.794992
Si Si7 0.197881 0.010727 0.086547
Si Si8 0.931821 0.915363 0.182338
O O1 0.818764 0.250000 0.437208
O O2 0.718193 0.365440 0.358970
O O3 0.817471 0.440010 0.681556
O O4 0.799524 0.434465 0.156984
O O5 0.038857 0.750000 0.791904
O O6 0.955579 0.870691 0.477881
O O7 0.972067 0.872637 0.996274
O O8 0.052565 0.959831 0.789748
O O9 0.316587 0.250000 0.475787
O O10 0.387443 0.092063 0.394433
O O11 0.324860 0.052200 0.701009
O O12 0.261418 0.076595 0.222909
O O13 0.539019 0.938024 0.889701
O O14 0.534075 0.086734 0.557091
O O15 0.641201 0.066147 0.890692
O O16 0.490573 0.750000 0.786167
O O17 0.407660 0.894598 0.764124
O O18 0.141509 0.092440 0.964054
#
# Coordination Sequence:
#
# PCOD9164094 Si02
#       8
#     4   4   4   4   4   4   4   4
#     4  11  23  40  64  90 124 165 205 257 314 369
#     4  10  21  39  64  94 127 169 212 252 311 366
#     4  10  22  38  58  82 114 158 199 248 306 361
#     4  10  20  39  55  79 115 145 194 252 304 372
#     4  10  21  34  56  83 109 147 194 248 313 374
#     4  10  21  39  55  82 114 149 199 256 305 372
#     4  11  23  43  61  94 130 159 212 253 302 371
#     4  10  22  40  63  93 132 167 205 266 305 354
#
# _framework density 22.477456
#
# number of rings (size 3 to 8) (size 9 to 14) (size 15 to 20)
#    0.000    1.750    1.250    2.625    0.000    4.000 
#    0.000    0.000    0.000    0.000    0.000    0.000 
#    0.000    0.000    0.000    0.000    0.000    0.000 
#
# Total GULP energy -178372.717713 kJ/mol
# GULP energy per Si atom -5574.147429 kJ/mol
# Density = 2.242630 g / cm^3
# Si number density = 22.477456 Si / 1000 Ang^3
#
#
#
# Elastic Constant Matrix: (Units=GPa)
#
#
# Indices 1 2 3 4 5 6 
#
# 1 40.8697 -8.4906 -4.2934 0.0000 16.6633 0.0000
# 2 -8.4906 108.7853 6.7034 0.0000 -10.8689 0.0000
# 3 -4.2934 6.7034 85.4823 0.0000 3.5954 0.0000
# 4 0.0000 0.0000 0.0000 -27.8712 0.0000 -10.2247
# 5 16.6633 -10.8689 3.5954 0.0000 28.3236 0.0000
# 6 0.0000 0.0000 0.0000 -10.2247 0.0000 -9.0875
#
#
#
# Elastic Compliance Matrix: (Units=1/GPa)
#
#
# Indices 1 2 3 4 5 6 
#
# 1 0.032720 0.000469 0.002422 0.000000 -0.019378 0.000000
# 2 0.000469 0.009636 -0.000881 0.000000 0.003534 0.000000
# 3 0.002422 -0.000881 0.012027 0.000000 -0.003289 0.000000
# 4 0.000000 0.000000 0.000000 -0.061099 0.000000 0.068745
# 5 -0.019378 0.003534 -0.003289 0.000000 0.048480 0.000000
# 6 0.000000 0.000000 0.000000 0.068745 0.000000 -0.187390
#
#
# Mechanical properties :
#
#
# Convention : Reuss Voigt Hill
#
# Bulk Modulus (GPa) = 17.12243 24.77512 20.94878
# Shear Modulus (GPa) = -38.40962 14.35419 -12.02772
#
# Velocity S-wave (km/s) = -4.13826 2.52980 -2.31574
# Velocity P-wave (km/s) = 3.89864 4.42485 1.47985
#
# Compressibility (1/GPa) = 0.05840291
#
# Stress axis : x y z
#
# Youngs Moduli (GPa) = 30.56202 103.77375 83.14366
#
# Poissons Ratio (x) = -0.04862 -0.20135
# Poissons Ratio (y) = -0.01432 0.07323
# Poissons Ratio (z) = -0.07401 0.09140
#
# Static dielectric constant tensor:
#      x y z
#    x 1.882540 0.000000 -0.032860 
#    y 0.000000 1.804840 0.000000 
#    z -0.032860 0.000000 1.920670 
# 
# From -- ./inp_files/9393.got.cif
#   From: 2010.05.17/outbox.cif.g08.bks.cpg/sg11_5_cif.got.tgz:9393.got - 2010.06.03 12:22:45.
