data_PCOD9164674
_publ_section_title
;
Structure prediction by ZEFSAII (Michael W. Deem and Ramdas Pophale) SiO2 
 PCOD9164674
Probable space group: P 21/M
;
_chemical_formula_sum "Si O2"
_cell_formula_units_Z 32
_cell_length_a 5.221603
_cell_length_b 25.802602
_cell_length_c 10.732523
_cell_angle_alpha 90.000000
_cell_angle_beta 86.335823
_cell_angle_gamma 90.000000
_cell_volume 1443.046994
_symmetry_space_group_name_H-M "P 21/M"
_symmetry_group_IT_number 11
_symmetry_cell_setting 'monoclinic'
loop_
_space_group_symop_operation_xyz
x,y,z
-x,1/2+y,-z
-x,-y,-z
x,1/2-y,z
loop_
_atom_site_type_symbol
_atom_site_label
_atom_site_fract_x
_atom_site_fract_y
_atom_site_fract_z
Si Si1 0.032170 0.344637 0.460650
Si Si2 0.516989 0.093652 0.507113
Si Si3 0.629885 0.059629 0.247635
Si Si4 0.280785 0.908160 0.233665
Si Si5 0.688607 0.639474 0.072716
Si Si6 0.140032 0.370540 0.195418
Si Si7 0.942912 0.806397 0.283343
Si Si8 0.906767 0.528929 0.124096
O O1 0.222823 0.392848 0.485163
O O2 0.103474 0.332985 0.315518
O O3 0.120281 0.306215 0.567581
O O4 0.730450 0.360193 0.476623
O O5 0.609838 0.053918 0.398130
O O6 0.535389 0.083552 0.653206
O O7 0.378114 0.090270 0.211327
O O8 0.879804 0.094826 0.204109
O O9 0.674326 0.004763 0.182092
O O10 0.413797 0.887435 0.102865
O O11 0.117455 0.857338 0.273751
O O12 0.122450 0.960719 0.220555
O O13 0.731337 0.679737 0.184705
O O14 0.852801 0.587741 0.089705
O O15 0.781564 0.657835 0.935224
O O16 0.054555 0.750000 0.248701
O O17 0.000000 0.500000 0.000000
#
# Coordination Sequence:
#
# PCOD9164674 Si02
#       8
#     4   4   4   4   4   4   4   4
#     4   9  18  38  60  87 112 153 195 242 297 360
#     4   9  18  37  58  81 120 154 198 245 299 344
#     4  10  21  36  57  86 120 169 207 245 286 352
#     4  10  22  37  58  86 123 160 202 256 305 363
#     4  11  22  37  61  88 122 162 196 258 305 360
#     4  10  21  36  61  87 122 161 202 243 298 350
#     4  10  22  41  64  88 115 151 199 252 313 374
#     4  11  22  35  54  85 124 166 213 244 297 360
#
# _framework density 22.175298999999999
#
# number of rings (size 3 to 8) (size 9 to 14) (size 15 to 20)
#    0.000    2.000    2.500    0.750    3.500    2.000 
#    0.000    1.250    0.000    0.000    0.000    0.000 
#    0.000    0.000    0.000    0.000    0.000    0.000 
#
# Total GULP energy -178149.874890 kJ/mol
# GULP energy per Si atom -5567.183590 kJ/mol
# Density = 2.212483 g / cm^3
# Si number density = 22.175299 Si / 1000 Ang^3
#
#
#
# Elastic Constant Matrix: (Units=GPa)
#
#
# Indices 1 2 3 4 5 6 
#
# 1 84.9206 -1.6313 1.4155 0.0000 -8.6769 0.0000
# 2 -1.6313 51.5373 30.0438 0.0000 -3.9407 0.0000
# 3 1.4155 30.0438 109.3362 0.0000 -18.2715 0.0000
# 4 0.0000 0.0000 0.0000 3.3515 0.0000 -4.1914
# 5 -8.6769 -3.9407 -18.2715 0.0000 30.0155 0.0000
# 6 0.0000 0.0000 0.0000 -4.1914 0.0000 1.5561
#
#
#
# Elastic Compliance Matrix: (Units=1/GPa)
#
#
# Indices 1 2 3 4 5 6 
#
# 1 0.012166 0.000473 0.000346 0.000000 0.003790 0.000000
# 2 0.000473 0.023146 -0.006496 0.000000 -0.000779 0.000000
# 3 0.000346 -0.006496 0.012024 0.000000 0.006567 0.000000
# 4 0.000000 0.000000 0.000000 -0.125973 0.000000 -0.339319
# 5 0.003790 -0.000779 0.006567 0.000000 0.038307 0.000000
# 6 0.000000 0.000000 0.000000 -0.339319 0.000000 -0.271330
#
#
# Mechanical properties :
#
#
# Convention : Reuss Voigt Hill
#
# Bulk Modulus (GPa) = 27.79201 33.93888 30.86545
# Shear Modulus (GPa) = -17.34234 21.38236 2.02001
#
# Velocity S-wave (km/s) = -2.79956 3.10859 0.95546
# Velocity P-wave (km/s) = 1.45259 5.31249 3.89439
#
# Compressibility (1/GPa) = 0.03598156
#
# Stress axis : x y z
#
# Youngs Moduli (GPa) = 82.19459 43.20404 83.16630
#
# Poissons Ratio (x) = -0.02045 -0.02875
# Poissons Ratio (y) = -0.03890 0.54029
# Poissons Ratio (z) = -0.02842 0.28067
#
# Static dielectric constant tensor:
#      x y z
#    x 1.985580 0.000000 0.015620 
#    y 0.000000 1.774000 0.000000 
#    z 0.015620 0.000000 1.933000 
# 
# From -- ./inp_files/30199.got.cif
#   From: 2010.05.17/outbox.cif.g08.bks.cpg/sg11_16_cif.got.tgz:30199.got - 2010.06.03 12:22:45.
