data_PCOD9164856
_publ_section_title
;
Structure prediction by ZEFSAII (Michael W. Deem and Ramdas Pophale) SiO2 
 PCOD9164856
Probable space group: P 21/M
;
_chemical_formula_sum "Si O2"
_cell_formula_units_Z 28
_cell_length_a 14.768070
_cell_length_b 9.698563
_cell_length_c 19.968719
_cell_angle_alpha 90.000000
_cell_angle_beta 150.226906
_cell_angle_gamma 90.000000
_cell_volume 1420.229971
_symmetry_space_group_name_H-M "P 21/M"
_symmetry_group_IT_number 11
_symmetry_cell_setting 'monoclinic'
loop_
_space_group_symop_operation_xyz
x,y,z
-x,1/2+y,-z
-x,-y,-z
x,1/2-y,z
loop_
_atom_site_type_symbol
_atom_site_label
_atom_site_fract_x
_atom_site_fract_y
_atom_site_fract_z
Si Si1 0.657619 0.412597 0.066039
Si Si2 0.750763 0.405489 0.620652
Si Si3 0.834528 0.911628 0.069823
Si Si4 0.655857 0.588434 0.821158
Si Si5 0.937753 0.089747 0.363862
Si Si6 0.459317 0.907967 0.372180
Si Si7 0.744275 0.412374 0.377773
O O1 0.613575 0.250000 0.031967
O O2 0.706169 0.484908 0.027620
O O3 0.832821 0.426142 0.227126
O O4 0.500000 0.500000 0.000000
O O5 0.730314 0.250000 0.579769
O O6 0.648378 0.409025 0.626606
O O7 0.649257 0.513478 0.508137
O O8 0.961558 0.430566 0.772009
O O9 0.781935 0.750000 0.047303
O O10 0.813022 0.935610 0.976774
O O11 0.659531 0.750000 0.803978
O O12 0.653107 0.491297 0.755342
O O13 0.464283 0.561825 0.736798
O O14 0.988735 0.250000 0.404505
O O15 0.798178 0.055432 0.335359
O O16 0.114554 0.996816 0.486627
O O17 0.488532 0.750000 0.370743
O O18 0.776363 0.250000 0.408026
#
# Coordination Sequence:
#
# PCOD9164856 Si02
#       7
#     4   4   4   4   4   4   4
#     4  11  23  38  57  82 115 153 195 240 288 341
#     4   9  20  40  62  86 116 153 194 237 292 351
#     4  10  22  40  61  84 116 155 197 242 290 347
#     4  10  21  37  57  83 115 153 191 236 293 348
#     4   9  19  35  53  76 106 142 185 236 283 328
#     4  10  21  37  60  88 118 151 192 242 290 345
#     4   9  18  33  53  76 106 143 185 227 278 341
#
# _framework density 19.715116999999999
#
# number of rings (size 3 to 8) (size 9 to 14) (size 15 to 20)
#    0.000    2.286    0.000    1.714    2.000    6.286 
#    0.000    2.857    0.000    0.000    0.000    0.000 
#    0.000    0.000    0.000    0.000    0.000    0.000 
#
# Total GULP energy -156381.696003 kJ/mol
# GULP energy per Si atom -5585.060572 kJ/mol
# Density = 1.967024 g / cm^3
# Si number density = 19.715117 Si / 1000 Ang^3
#
#
#
# Elastic Constant Matrix: (Units=GPa)
#
#
# Indices 1 2 3 4 5 6 
#
# 1 30.4129 34.2610 6.7598 0.0000 -11.2780 0.0000
# 2 34.2610 93.1177 46.4598 0.0000 -13.3345 0.0000
# 3 6.7598 46.4598 42.9713 0.0000 -8.1938 0.0000
# 4 0.0000 0.0000 0.0000 27.7057 0.0000 -10.0140
# 5 -11.2780 -13.3345 -8.1938 0.0000 26.3645 0.0000
# 6 0.0000 0.0000 0.0000 -10.0140 0.0000 26.3511
#
#
#
# Elastic Compliance Matrix: (Units=1/GPa)
#
#
# Indices 1 2 3 4 5 6 
#
# 1 0.097138 -0.058059 0.052953 0.000000 0.028646 0.000000
# 2 -0.058059 0.058466 -0.056526 0.000000 -0.012833 0.000000
# 3 0.052953 -0.056526 0.079644 0.000000 0.018815 0.000000
# 4 0.000000 0.000000 0.000000 0.041841 0.000000 0.015900
# 5 0.028646 -0.012833 0.018815 0.000000 0.049540 0.000000
# 6 0.000000 0.000000 0.000000 0.015900 0.000000 0.043992
#
#
# Mechanical properties :
#
#
# Convention : Reuss Voigt Hill
#
# Bulk Modulus (GPa) = 8.92973 37.94033 23.43503
# Shear Modulus (GPa) = 9.41243 21.35236 15.38240
#
# Velocity S-wave (km/s) = 2.18737 3.29454 2.79630
# Velocity P-wave (km/s) = 3.30434 5.81016 4.72635
#
# Compressibility (1/GPa) = 0.11198548
#
# Stress axis : x y z
#
# Youngs Moduli (GPa) = 10.29460 17.10397 12.55586
#
# Poissons Ratio (x) = 0.99303 -0.66487
# Poissons Ratio (y) = 0.59769 0.70973
# Poissons Ratio (z) = -0.54513 0.96682
#
# Static dielectric constant tensor:
#      x y z
#    x 1.709640 0.000000 -0.002320 
#    y 0.000000 1.627830 0.000000 
#    z -0.002320 0.000000 1.681110 
# 
# From -- ./inp_files/65430.got.cif
#   From: 2010.05.17/outbox.cif.g08.bks.cpg/sg11_33_cif.got.tgz:65430.got - 2010.06.03 12:22:45.
