data_PCOD9164824
_publ_section_title
;
Structure prediction by ZEFSAII (Michael W. Deem and Ramdas Pophale) SiO2 
 PCOD9164824
Probable space group: P 21/M
;
_chemical_formula_sum "Si O2"
_cell_formula_units_Z 28
_cell_length_a 9.852427
_cell_length_b 8.962841
_cell_length_c 16.712486
_cell_angle_alpha 90.000000
_cell_angle_beta 120.533154
_cell_angle_gamma 90.000000
_cell_volume 1271.165906
_symmetry_space_group_name_H-M "P 21/M"
_symmetry_group_IT_number 11
_symmetry_cell_setting 'monoclinic'
loop_
_space_group_symop_operation_xyz
x,y,z
-x,1/2+y,-z
-x,-y,-z
x,1/2-y,z
loop_
_atom_site_type_symbol
_atom_site_label
_atom_site_fract_x
_atom_site_fract_y
_atom_site_fract_z
Si Si1 0.854377 0.423723 0.043585
Si Si2 0.473557 0.424063 0.741848
Si Si3 0.397833 0.075167 0.539566
Si Si4 0.970804 0.578319 0.573190
Si Si5 0.154759 0.579256 0.177451
Si Si6 0.535524 0.927157 0.923845
Si Si7 0.029906 0.574234 0.754544
O O1 0.834702 0.250000 0.014312
O O2 0.840678 0.434909 0.137104
O O3 0.719583 0.526291 0.967801
O O4 0.034931 0.478232 0.090073
O O5 0.425403 0.250000 0.736527
O O6 0.411464 0.481419 0.636465
O O7 0.663014 0.428490 0.786361
O O8 0.447912 0.509257 0.818323
O O9 0.444322 0.250000 0.557624
O O10 0.214001 0.066728 0.462107
O O11 0.500000 0.000000 0.500000
O O12 0.012616 0.750000 0.574531
O O13 0.000000 0.500000 0.500000
O O14 0.068058 0.519051 0.677998
O O15 0.101707 0.750000 0.154931
O O16 0.116356 0.518272 0.254220
O O17 0.515575 0.750000 0.922245
O O18 0.500000 0.000000 0.000000
O O19 0.987971 0.750000 0.736963
#
# Coordination Sequence:
#
# PCOD9164824 Si02
#       7
#     4   4   4   4   4   4   4
#     4   9  19  37  60  85 115 151 191 242 296 353
#     4  10  22  40  61  90 127 163 204 256 308 368
#     4  10  22  40  65  95 129 168 212 264 321 378
#     4  10  21  37  56  85 121 160 207 258 313 374
#     4   9  17  32  58  88 116 149 194 242 298 358
#     4  12  26  43  63  86 117 161 208 254 309 370
#     4   8  17  33  54  80 116 154 193 247 303 360
#
# _framework density 22.027021999999999
#
# number of rings (size 3 to 8) (size 9 to 14) (size 15 to 20)
#    0.857    1.429    0.000    2.571    0.000    4.571 
#    0.000    2.857    0.000    0.000    0.000    0.000 
#    0.000    0.000    0.000    0.000    0.000    0.000 
#
# Total GULP energy -156093.750654 kJ/mol
# GULP energy per Si atom -5574.776809 kJ/mol
# Density = 2.197689 g / cm^3
# Si number density = 22.027022 Si / 1000 Ang^3
#
#
#
# Elastic Constant Matrix: (Units=GPa)
#
#
# Indices 1 2 3 4 5 6 
#
# 1 37.3357 12.0813 13.1354 0.0000 -8.8480 0.0000
# 2 12.0813 75.5795 46.1306 0.0000 -12.8744 0.0000
# 3 13.1354 46.1306 165.0364 0.0000 -31.7542 0.0000
# 4 0.0000 0.0000 0.0000 28.3561 0.0000 -1.4191
# 5 -8.8480 -12.8744 -31.7542 0.0000 36.6508 0.0000
# 6 0.0000 0.0000 0.0000 -1.4191 0.0000 17.8032
#
#
#
# Elastic Compliance Matrix: (Units=1/GPa)
#
#
# Indices 1 2 3 4 5 6 
#
# 1 0.029362 -0.003581 -0.000257 0.000000 0.005608 0.000000
# 2 -0.003581 0.016524 -0.004060 0.000000 0.001422 0.000000
# 3 -0.000257 -0.004060 0.008314 0.000000 0.005715 0.000000
# 4 0.000000 0.000000 0.000000 0.035407 0.000000 0.002822
# 5 0.005608 0.001422 0.005715 0.000000 0.034090 0.000000
# 6 0.000000 0.000000 0.000000 0.002822 0.000000 0.056395
#
#
# Mechanical properties :
#
#
# Convention : Reuss Voigt Hill
#
# Bulk Modulus (GPa) = 26.03924 46.73848 36.38886
# Shear Modulus (GPa) = 23.95902 30.33564 27.14733
#
# Velocity S-wave (km/s) = 3.30162 3.71509 3.51444
# Velocity P-wave (km/s) = 5.13629 6.29820 5.74668
#
# Compressibility (1/GPa) = 0.03840357
#
# Stress axis : x y z
#
# Youngs Moduli (GPa) = 34.05731 60.51831 120.27571
#
# Poissons Ratio (x) = 0.21674 0.03090
# Poissons Ratio (y) = 0.12198 0.48833
# Poissons Ratio (z) = 0.00875 0.24571
#
# Static dielectric constant tensor:
#      x y z
#    x 1.867670 0.000000 -0.055910 
#    y 0.000000 1.763360 0.000000 
#    z -0.055910 0.000000 1.928310 
# 
# From -- ./inp_files/49470.got.cif
#   From: 2010.05.17/outbox.cif.g08.bks.cpg/sg11_25_cif.got.tgz:49470.got - 2010.06.03 12:22:45.
