data_PCOD9164234
_publ_section_title
;
Structure prediction by ZEFSAII (Michael W. Deem and Ramdas Pophale) SiO2 
 PCOD9164234
Probable space group: P 21/M
;
_chemical_formula_sum "Si O2"
_cell_formula_units_Z 20
_cell_length_a 8.484278
_cell_length_b 16.665712
_cell_length_c 9.674090
_cell_angle_alpha 90.000000
_cell_angle_beta 136.187253
_cell_angle_gamma 90.000000
_cell_volume 946.990362
_symmetry_space_group_name_H-M "P 21/M"
_symmetry_group_IT_number 11
_symmetry_cell_setting 'monoclinic'
loop_
_space_group_symop_operation_xyz
x,y,z
-x,1/2+y,-z
-x,-y,-z
x,1/2-y,z
loop_
_atom_site_type_symbol
_atom_site_label
_atom_site_fract_x
_atom_site_fract_y
_atom_site_fract_z
Si Si1 0.140835 0.112143 0.163383
Si Si2 0.665799 0.611282 0.161809
Si Si3 0.690422 0.250000 0.088691
Si Si4 0.112749 0.750000 0.103373
Si Si5 0.394255 0.250000 0.491110
Si Si6 0.695153 0.485640 0.934891
Si Si7 0.905203 0.750000 0.439093
O O1 0.286186 0.171087 0.351956
O O2 0.280527 0.039517 0.185976
O O3 0.041754 0.171353 0.981724
O O4 0.913055 0.073014 0.082919
O O5 0.540214 0.563385 0.206683
O O6 0.876323 0.667878 0.335850
O O7 0.469840 0.673297 0.991529
O O8 0.709281 0.546004 0.072674
O O9 0.884640 0.250000 0.325917
O O10 0.802221 0.250000 0.005280
O O11 0.333816 0.750000 0.337821
O O12 0.315753 0.250000 0.600300
#
# Coordination Sequence:
#
# PCOD9164234 Si02
#       7
#     4   4   2   2   2   4   2
#     4  10  21  38  62  83 116 152 191 234 281 343
#     4  10  21  38  62  83 116 152 191 234 281 343
#     4  11  19  38  62  80 110 155 193 230 279 340
#     4  11  19  38  62  80 110 155 193 230 279 340
#     4  11  19  36  62  86 108 155 198 226 281 343
#     4  10  20  40  58  86 122 150 180 242 292 324
#     4  11  19  36  62  86 108 155 198 226 281 343
#
# _framework density 21.119539
#
# number of rings (size 3 to 8) (size 9 to 14) (size 15 to 20)
#    0.000    1.600    6.000    0.000    0.000    3.200 
#    0.000   26.000    0.000    0.000    0.000    0.000 
#    0.000    0.000    0.000    0.000    0.000    0.000 
#
# Total GULP energy -111673.921555 kJ/mol
# GULP energy per Si atom -5583.696078 kJ/mol
# Density = 2.107147 g / cm^3
# Si number density = 21.119539 Si / 1000 Ang^3
#
#
#
# Elastic Constant Matrix: (Units=GPa)
#
#
# Indices 1 2 3 4 5 6 
#
# 1 27.2193 22.3144 -7.2447 0.0000 -5.0347 0.0000
# 2 22.3144 132.7484 24.8597 0.0000 -0.6909 0.0000
# 3 -7.2447 24.8597 72.9895 0.0000 8.3309 0.0000
# 4 0.0000 0.0000 0.0000 7.6920 0.0000 -10.5736
# 5 -5.0347 -0.6909 8.3309 0.0000 15.6761 0.0000
# 6 0.0000 0.0000 0.0000 -10.5736 0.0000 10.3903
#
#
#
# Elastic Compliance Matrix: (Units=1/GPa)
#
#
# Indices 1 2 3 4 5 6 
#
# 1 0.048265 -0.009296 0.006637 0.000000 0.011564 0.000000
# 2 -0.009296 0.009892 -0.004259 0.000000 -0.000286 0.000000
# 3 0.006637 -0.004259 0.016595 0.000000 -0.006875 0.000000
# 4 0.000000 0.000000 0.000000 -0.325950 0.000000 -0.331697
# 5 0.011564 -0.000286 -0.006875 0.000000 0.071147 0.000000
# 6 0.000000 0.000000 0.000000 -0.331697 0.000000 -0.241303
#
#
# Mechanical properties :
#
#
# Convention : Reuss Voigt Hill
#
# Bulk Modulus (GPa) = 16.41630 34.75735 25.58682
# Shear Modulus (GPa) = -12.91276 19.62022 3.35373
#
# Velocity S-wave (km/s) = -2.47536 3.05127 1.26152
# Velocity P-wave (km/s) = 0.61641 5.37651 3.77670
#
# Compressibility (1/GPa) = 0.06091505
#
# Stress axis : x y z
#
# Youngs Moduli (GPa) = 20.71903 101.09455 60.26022
#
# Poissons Ratio (x) = 0.93975 -0.39993
# Poissons Ratio (y) = 0.19260 0.25665
# Poissons Ratio (z) = -0.13751 0.43057
#
# Static dielectric constant tensor:
#      x y z
#    x 1.790500 0.000000 -0.015280 
#    y 0.000000 1.789350 0.000000 
#    z -0.015280 0.000000 1.727500 
# 
# From -- ./inp_files/13449.got.cif
#   From: 2010.05.17/outbox.cif.g08.bks.cpg/sg11_7_cif.got.tgz:13449.got - 2010.06.03 12:22:45.
