data_PCOD9164350
_publ_section_title
;
Structure prediction by ZEFSAII (Michael W. Deem and Ramdas Pophale) SiO2 
 PCOD9164350
Probable space group: P 21/M
;
_chemical_formula_sum "Si O2"
_cell_formula_units_Z 16
_cell_length_a 4.877680
_cell_length_b 23.216386
_cell_length_c 7.281280
_cell_angle_alpha 90.000000
_cell_angle_beta 75.716993
_cell_angle_gamma 90.000000
_cell_volume 799.059818
_symmetry_space_group_name_H-M "P 21/M"
_symmetry_group_IT_number 11
_symmetry_cell_setting 'monoclinic'
loop_
_space_group_symop_operation_xyz
x,y,z
-x,1/2+y,-z
-x,-y,-z
x,1/2-y,z
loop_
_atom_site_type_symbol
_atom_site_label
_atom_site_fract_x
_atom_site_fract_y
_atom_site_fract_z
Si Si1 0.139255 0.869622 0.911259
Si Si2 0.735905 0.858252 0.296097
Si Si3 0.371919 0.061566 0.980244
Si Si4 0.854331 0.184350 0.483691
O O1 0.946412 0.838042 0.097372
O O2 0.946539 0.926209 0.899492
O O3 0.426894 0.891254 0.955397
O O4 0.177388 0.833591 0.722306
O O5 0.643116 0.920727 0.232537
O O6 0.451723 0.822910 0.372590
O O7 0.921037 0.855805 0.448450
O O8 0.500000 0.000000 0.000000
O O9 0.953326 0.250000 0.483979
#
# Coordination Sequence:
#
# PCOD9164350 Si02
#       4
#     4   4   4   4
#     4  10  22  41  62  90 127 151 208 248 296 365
#     4  10  22  42  61  88 127 152 207 250 294 367
#     4  10  20  42  67  86 124 163 195 253 309 351
#     4  12  24  40  62  90 122 162 203 248 302 360
#
# _framework density 20.023530000000001
#
# number of rings (size 3 to 8) (size 9 to 14) (size 15 to 20)
#    1.500    0.000    2.500    3.000    0.000    2.000 
#    0.000    7.500    0.000    0.000    0.000    0.000 
#    0.000    0.000    0.000    0.000    0.000    0.000 
#
# Total GULP energy -89106.664478 kJ/mol
# GULP energy per Si atom -5569.166530 kJ/mol
# Density = 1.997796 g / cm^3
# Si number density = 20.023530 Si / 1000 Ang^3
#
#
#
# Elastic Constant Matrix: (Units=GPa)
#
#
# Indices 1 2 3 4 5 6 
#
# 1 87.9156 -13.5365 2.9146 0.0000 22.4844 0.0000
# 2 -13.5365 15.5820 6.7335 0.0000 -4.6550 0.0000
# 3 2.9146 6.7335 70.1790 0.0000 5.7370 0.0000
# 4 0.0000 0.0000 0.0000 20.4197 0.0000 4.6196
# 5 22.4844 -4.6550 5.7370 0.0000 22.8829 0.0000
# 6 0.0000 0.0000 0.0000 4.6196 0.0000 31.6256
#
#
#
# Elastic Compliance Matrix: (Units=1/GPa)
#
#
# Indices 1 2 3 4 5 6 
#
# 1 0.016593 0.010456 -0.000545 0.000000 -0.014041 0.000000
# 2 0.010456 0.079438 -0.008716 0.000000 0.008071 0.000000
# 3 -0.000545 -0.008716 0.015528 0.000000 -0.005131 0.000000
# 4 0.000000 0.000000 0.000000 0.050646 0.000000 -0.007398
# 5 -0.014041 0.008071 -0.005131 0.000000 0.060426 0.000000
# 6 0.000000 0.000000 0.000000 -0.007398 0.000000 0.032701
#
#
# Mechanical properties :
#
#
# Convention : Reuss Voigt Hill
#
# Bulk Modulus (GPa) = 8.77580 18.43329 13.60455
# Shear Modulus (GPa) = 17.18667 26.82330 22.00498
#
# Velocity S-wave (km/s) = 2.93289 3.66401 3.31865
# Velocity P-wave (km/s) = 3.98264 5.20824 4.63612
#
# Compressibility (1/GPa) = 0.11394976
#
# Stress axis : x y z
#
# Youngs Moduli (GPa) = 60.26460 12.58849 64.40143
#
# Poissons Ratio (x) = -0.13162 0.03507
# Poissons Ratio (y) = -0.63012 0.56131
# Poissons Ratio (z) = 0.03282 0.10972
#
# Static dielectric constant tensor:
#      x y z
#    x 1.712630 0.000000 -0.004380 
#    y 0.000000 1.723810 0.000000 
#    z -0.004380 0.000000 1.705400 
# 
# From -- ./inp_files/63.got.cif
#   From: 2010.05.17/outbox.cif.g08.bks.cpg/sg11_1_cif.got.tgz:63.got - 2010.06.03 12:22:45.
