data_PCOD9164554
_publ_section_title
;
Structure prediction by ZEFSAII (Michael W. Deem and Ramdas Pophale) SiO2 
 PCOD9164554
Probable space group: P 21/M
;
_chemical_formula_sum "Si O2"
_cell_formula_units_Z 28
_cell_length_a 15.681817
_cell_length_b 8.226113
_cell_length_c 12.923216
_cell_angle_alpha 90.000000
_cell_angle_beta 74.092455
_cell_angle_gamma 90.000000
_cell_volume 1603.258796
_symmetry_space_group_name_H-M "P 21/M"
_symmetry_group_IT_number 11
_symmetry_cell_setting 'monoclinic'
loop_
_space_group_symop_operation_xyz
x,y,z
-x,1/2+y,-z
-x,-y,-z
x,1/2-y,z
loop_
_atom_site_type_symbol
_atom_site_label
_atom_site_fract_x
_atom_site_fract_y
_atom_site_fract_z
Si Si1 0.890543 0.555050 0.363573
Si Si2 0.400712 0.553318 0.651024
Si Si3 0.782226 0.444288 0.197932
Si Si4 0.088333 0.053449 0.257943
Si Si5 0.598117 0.946325 0.586755
Si Si6 0.091529 0.056371 0.021769
Si Si7 0.783641 0.551276 0.604100
O O1 0.889598 0.750000 0.361697
O O2 0.842044 0.493367 0.276458
O O3 0.837381 0.500899 0.483351
O O4 0.991493 0.495928 0.330436
O O5 0.400381 0.750000 0.652303
O O6 0.317700 0.495972 0.746468
O O7 0.387200 0.498315 0.537057
O O8 0.499343 0.497508 0.650418
O O9 0.780829 0.250000 0.193322
O O10 0.828065 0.507471 0.079160
O O11 0.091655 0.250000 0.255026
O O12 0.098806 0.993020 0.136726
O O13 0.164043 0.996086 0.311713
O O14 0.597678 0.750000 0.589279
O O15 0.681885 0.002841 0.625731
O O16 0.088043 0.250000 0.028336
O O17 0.000000 0.000000 0.000000
O O18 0.783533 0.750000 0.604985
#
# Coordination Sequence:
#
# PCOD9164554 Si02
#       7
#     4   4   4   4   4   4   4
#     4  11  20  31  50  76 102 132 166 201 246 300
#     4   9  18  30  48  75 102 130 163 201 250 295
#     4  11  21  33  50  73 104 135 166 206 249 296
#     4  10  21  36  51  70  99 134 168 206 250 298
#     4   9  16  30  51  74 101 130 161 201 246 301
#     4  11  22  35  53  73  97 131 172 213 253 292
#     4   9  18  32  51  75 102 132 165 200 247 304
#
# _framework density 17.464428999999999
#
# number of rings (size 3 to 8) (size 9 to 14) (size 15 to 20)
#    0.000    2.000    2.857    1.714    0.000    1.143 
#    0.000    1.429    0.000    0.857    0.000    0.000 
#    0.000    0.000    0.000    0.000    0.000    0.286 
#
# Total GULP energy -156238.631109 kJ/mol
# GULP energy per Si atom -5579.951111 kJ/mol
# Density = 1.742468 g / cm^3
# Si number density = 17.464429 Si / 1000 Ang^3
#
#
#
# Elastic Constant Matrix: (Units=GPa)
#
#
# Indices 1 2 3 4 5 6 
#
# 1 172.7658 12.7865 72.4685 0.0000 -9.0012 0.0000
# 2 12.7865 13.1571 10.2328 0.0000 0.9628 0.0000
# 3 72.4685 10.2328 74.5467 0.0000 -1.3359 0.0000
# 4 0.0000 0.0000 0.0000 18.4312 0.0000 -2.3429
# 5 -9.0012 0.9628 -1.3359 0.0000 30.8273 0.0000
# 6 0.0000 0.0000 0.0000 -2.3429 0.0000 11.8982
#
#
#
# Elastic Compliance Matrix: (Units=1/GPa)
#
#
# Indices 1 2 3 4 5 6 
#
# 1 0.010044 -0.002681 -0.009350 0.000000 0.002611 0.000000
# 2 -0.002681 0.086114 -0.009284 0.000000 -0.003875 0.000000
# 3 -0.009350 -0.009284 0.023752 0.000000 -0.001411 0.000000
# 4 0.000000 0.000000 0.000000 0.055649 0.000000 0.010958
# 5 0.002611 -0.003875 -0.001411 0.000000 0.033261 0.000000
# 6 0.000000 0.000000 0.000000 0.010958 0.000000 0.086204
#
#
# Mechanical properties :
#
#
# Convention : Reuss Voigt Hill
#
# Bulk Modulus (GPa) = 12.93961 50.16058 31.55010
# Shear Modulus (GPa) = 13.75838 23.23013 18.49425
#
# Velocity S-wave (km/s) = 2.80981 3.65106 3.25771
# Velocity P-wave (km/s) = 4.23697 6.82331 5.67933
#
# Compressibility (1/GPa) = 0.07728207
#
# Stress axis : x y z
#
# Youngs Moduli (GPa) = 99.55729 11.61250 42.10084
#
# Poissons Ratio (x) = 0.03113 0.39363
# Poissons Ratio (y) = 0.26691 0.39086
# Poissons Ratio (z) = 0.93082 0.10781
#
# Static dielectric constant tensor:
#      x y z
#    x 1.607260 0.000000 -0.009050 
#    y 0.000000 1.610360 0.000000 
#    z -0.009050 0.000000 1.576970 
# 
# From -- ./inp_files/37222.got.cif
#   From: 2010.05.17/outbox.cif.g08.bks.cpg/sg11_19_cif.got.tgz:37222.got - 2010.06.03 12:22:45.
