data_PCOD9164327
_publ_section_title
;
Structure prediction by ZEFSAII (Michael W. Deem and Ramdas Pophale) SiO2 
 PCOD9164327
Probable space group: P 21/M
;
_chemical_formula_sum "Si O2"
_cell_formula_units_Z 32
_cell_length_a 15.706494
_cell_length_b 13.875081
_cell_length_c 22.105947
_cell_angle_alpha 90.000000
_cell_angle_beta 18.569478
_cell_angle_gamma 90.000000
_cell_volume 1534.161675
_symmetry_space_group_name_H-M "P 21/M"
_symmetry_group_IT_number 11
_symmetry_cell_setting 'monoclinic'
loop_
_space_group_symop_operation_xyz
x,y,z
-x,1/2+y,-z
-x,-y,-z
x,1/2-y,z
loop_
_atom_site_type_symbol
_atom_site_label
_atom_site_fract_x
_atom_site_fract_y
_atom_site_fract_z
Si Si1 0.038209 0.860497 0.030078
Si Si2 0.057967 0.640670 0.282221
Si Si3 0.520180 0.422964 0.353757
Si Si4 0.927799 0.854396 0.684190
Si Si5 0.476926 0.857417 0.362902
Si Si6 0.783907 0.954671 0.902385
Si Si7 0.817004 0.031574 0.680026
Si Si8 0.205149 0.977502 0.722676
O O1 0.085509 0.750000 0.016109
O O2 0.798075 0.859634 0.141771
O O3 0.922951 0.926880 0.160824
O O4 0.303223 0.907470 0.824695
O O5 0.160077 0.750000 0.207221
O O6 0.191449 0.558070 0.149862
O O7 0.073884 0.606401 0.342111
O O8 0.748272 0.636976 0.470141
O O9 0.432077 0.535249 0.419616
O O10 0.722497 0.403103 0.272493
O O11 0.836916 0.750000 0.727177
O O12 0.252677 0.858343 0.461976
O O13 0.848936 0.877418 0.806298
O O14 0.800700 0.934266 0.729287
O O15 0.429207 0.750000 0.424848
O O16 0.002294 0.946328 0.807782
O O17 0.488022 0.940524 0.128540
O O18 0.000000 0.000000 0.500000
O O19 0.500000 0.000000 0.500000
#
# Coordination Sequence:
#
# PCOD9164327 Si02
#       8
#     4   4   4   4   4   4   4   4
#     4  10  22  36  57  92 129 175 219 258 320 390
#     4  11  23  43  68  92 129 173 218 264 322 389
#     4  11  20  39  63  93 132 175 213 263 326 385
#     4  10  20  41  68  89 120 168 217 262 320 384
#     4   9  16  31  59  88 117 159 210 255 303 369
#     4  11  23  42  65  94 129 170 212 265 324 381
#     4  11  26  42  65  95 129 165 214 269 324 383
#     4  11  21  39  64  92 132 171 213 268 323 382
#
# _framework density 20.858298000000001
#
# number of rings (size 3 to 8) (size 9 to 14) (size 15 to 20)
#    0.000    1.500    3.750    4.125    1.750    4.000 
#    0.000    1.250    0.000    1.500    0.000    0.000 
#    0.000    0.000    0.000    0.000    0.000    0.000 
#
# Total GULP energy -178138.701853 kJ/mol
# GULP energy per Si atom -5566.834433 kJ/mol
# Density = 2.081082 g / cm^3
# Si number density = 20.858298 Si / 1000 Ang^3
#
#
#
# Elastic Constant Matrix: (Units=GPa)
#
#
# Indices 1 2 3 4 5 6 
#
# 1 80.0577 -2.7114 27.1933 0.0000 -11.5189 0.0000
# 2 -2.7114 62.0634 -6.4313 0.0000 -8.1187 0.0000
# 3 27.1933 -6.4313 94.8491 0.0000 -0.4047 0.0000
# 4 0.0000 0.0000 0.0000 11.7253 0.0000 -5.1155
# 5 -11.5189 -8.1187 -0.4047 0.0000 27.4725 0.0000
# 6 0.0000 0.0000 0.0000 -5.1155 0.0000 11.1910
#
#
#
# Elastic Compliance Matrix: (Units=1/GPa)
#
#
# Indices 1 2 3 4 5 6 
#
# 1 0.014876 0.001067 -0.004165 0.000000 0.006491 0.000000
# 2 0.001067 0.016965 0.000868 0.000000 0.005474 0.000000
# 3 -0.004165 0.000868 0.011790 0.000000 -0.001316 0.000000
# 4 0.000000 0.000000 0.000000 0.106531 0.000000 0.048697
# 5 0.006491 0.005474 -0.001316 0.000000 0.040720 0.000000
# 6 0.000000 0.000000 0.000000 0.048697 0.000000 0.111617
#
#
# Mechanical properties :
#
#
# Convention : Reuss Voigt Hill
#
# Bulk Modulus (GPa) = 25.52855 30.34128 27.93491
# Shear Modulus (GPa) = 15.62418 24.67240 20.14829
#
# Velocity S-wave (km/s) = 2.73987 3.44300 3.11136
# Velocity P-wave (km/s) = 4.71962 5.51214 5.13120
#
# Compressibility (1/GPa) = 0.03917183
#
# Stress axis : x y z
#
# Youngs Moduli (GPa) = 67.22323 58.94437 84.81524
#
# Poissons Ratio (x) = -0.06292 0.35324
# Poissons Ratio (y) = -0.07176 -0.07359
# Poissons Ratio (z) = 0.27997 -0.05114
#
# Static dielectric constant tensor:
#      x y z
#    x 1.822340 0.000000 0.000330 
#    y 0.000000 1.771470 0.000000 
#    z 0.000330 0.000000 1.781810 
# 
# From -- ./inp_files/65749.got.cif
#   From: 2010.05.17/outbox.cif.g08.bks.cpg/sg11_33_cif.got.tgz:65749.got - 2010.06.03 12:22:45.
