data_PCOD9164637
_publ_section_title
;
Structure prediction by ZEFSAII (Michael W. Deem and Ramdas Pophale) SiO2 
 PCOD9164637
Probable space group: P 21/M
;
_chemical_formula_sum "Si O2"
_cell_formula_units_Z 32
_cell_length_a 14.615326
_cell_length_b 8.774244
_cell_length_c 12.702012
_cell_angle_alpha 90.000000
_cell_angle_beta 90.003897
_cell_angle_gamma 90.000000
_cell_volume 1628.886155
_symmetry_space_group_name_H-M "P 21/M"
_symmetry_group_IT_number 11
_symmetry_cell_setting 'monoclinic'
loop_
_space_group_symop_operation_xyz
x,y,z
-x,1/2+y,-z
-x,-y,-z
x,1/2-y,z
loop_
_atom_site_type_symbol
_atom_site_label
_atom_site_fract_x
_atom_site_fract_y
_atom_site_fract_z
Si Si1 0.475666 0.925598 0.889422
Si Si2 0.721979 0.425149 0.030701
Si Si3 0.858510 0.067158 0.212622
Si Si4 0.226397 0.068651 0.173348
Si Si5 0.970153 0.431908 0.886460
Si Si6 0.323881 0.433005 0.388322
Si Si7 0.281140 0.066020 0.618478
Si Si8 0.489897 0.430632 0.670284
O O1 0.506387 0.750000 0.881049
O O2 0.365506 0.927752 0.893854
O O3 0.508447 0.022107 0.790920
O O4 0.500000 0.000000 0.000000
O O5 0.734541 0.250000 0.995620
O O6 0.806128 0.472081 0.103563
O O7 0.711851 0.527721 0.927964
O O8 0.867088 0.250000 0.217464
O O9 0.794477 0.009173 0.307078
O O10 0.956574 0.989126 0.199957
O O11 0.213776 0.250000 0.179520
O O12 0.272900 0.015252 0.281987
O O13 0.129711 0.990492 0.147420
O O14 0.970628 0.250000 0.894611
O O15 0.000000 0.500000 0.000000
O O16 0.330444 0.250000 0.383783
O O17 0.270485 0.472376 0.495161
O O18 0.427315 0.494780 0.393595
O O19 0.276009 0.250000 0.631569
O O20 0.385870 0.019246 0.645991
O O21 0.493326 0.250000 0.656290
#
# Coordination Sequence:
#
# PCOD9164637 Si02
#       8
#     4   4   4   4   4   4   4   4
#     4  11  22  36  53  80 119 160 200 245 299 359
#     4  10  21  36  56  82 118 157 193 242 300 356
#     4  11  22  39  63  92 121 153 197 247 299 355
#     4  11  23  39  62  90 121 159 201 247 301 361
#     4  12  24  40  64  93 124 157 195 243 300 363
#     4  10  23  42  62  87 122 163 206 253 302 352
#     4  10  22  41  63  89 123 162 206 254 300 352
#     4  11  22  36  59  89 120 159 207 253 299 356
#
# _framework density 19.645325
#
# number of rings (size 3 to 8) (size 9 to 14) (size 15 to 20)
#    0.000    1.250    2.500    3.750    0.000    5.500 
#    0.000    0.625    0.000    0.000    0.000    0.000 
#    0.000    0.000    0.000    0.000    0.000    0.000 
#
# Total GULP energy -178828.537782 kJ/mol
# GULP energy per Si atom -5588.391806 kJ/mol
# Density = 1.960061 g / cm^3
# Si number density = 19.645325 Si / 1000 Ang^3
#
#
#
# Elastic Constant Matrix: (Units=GPa)
#
#
# Indices 1 2 3 4 5 6 
#
# 1 87.4825 26.9366 38.6673 0.0000 -15.5944 0.0000
# 2 26.9366 47.3537 38.6362 0.0000 -5.6130 0.0000
# 3 38.6673 38.6362 112.9204 0.0000 -15.1776 0.0000
# 4 0.0000 0.0000 0.0000 22.4704 0.0000 -7.9952
# 5 -15.5944 -5.6130 -15.1776 0.0000 29.9191 0.0000
# 6 0.0000 0.0000 0.0000 -7.9952 0.0000 33.2079
#
#
#
# Elastic Compliance Matrix: (Units=1/GPa)
#
#
# Indices 1 2 3 4 5 6 
#
# 1 0.015388 -0.006110 -0.002420 0.000000 0.005647 0.000000
# 2 -0.006110 0.031727 -0.009006 0.000000 -0.001801 0.000000
# 3 -0.002420 -0.009006 0.013274 0.000000 0.003783 0.000000
# 4 0.000000 0.000000 0.000000 0.048672 0.000000 0.011718
# 5 0.005647 -0.001801 0.003783 0.000000 0.037948 0.000000
# 6 0.000000 0.000000 0.000000 0.011718 0.000000 0.032935
#
#
# Mechanical properties :
#
#
# Convention : Reuss Voigt Hill
#
# Bulk Modulus (GPa) = 39.49522 50.69297 45.09410
# Shear Modulus (GPa) = 22.37585 26.68725 24.53155
#
# Velocity S-wave (km/s) = 3.37856 3.68972 3.53756
# Velocity P-wave (km/s) = 5.94704 6.63416 6.29998
#
# Compressibility (1/GPa) = 0.02531952
#
# Stress axis : x y z
#
# Youngs Moduli (GPa) = 64.98446 31.51858 75.33399
#
# Poissons Ratio (x) = 0.19257 0.18231
# Poissons Ratio (y) = 0.39703 0.67842
# Poissons Ratio (z) = 0.15726 0.28384
#
# Static dielectric constant tensor:
#      x y z
#    x 1.739630 0.000000 -0.023540 
#    y 0.000000 1.667880 0.000000 
#    z -0.023540 0.000000 1.716320 
# 
# From -- ./inp_files/38137.got.cif
#   From: 2010.05.17/outbox.cif.g08.bks.cpg/sg11_20_cif.got.tgz:38137.got - 2010.06.03 12:22:45.
