data_PCOD9164317
_publ_section_title
;
Structure prediction by ZEFSAII (Michael W. Deem and Ramdas Pophale) SiO2 
 PCOD9164317
Probable space group: P 21/M
;
_chemical_formula_sum "Si O2"
_cell_formula_units_Z 32
_cell_length_a 10.670213
_cell_length_b 23.558469
_cell_length_c 5.212776
_cell_angle_alpha 90.000000
_cell_angle_beta 99.497236
_cell_angle_gamma 90.000000
_cell_volume 1292.395431
_symmetry_space_group_name_H-M "P 21/M"
_symmetry_group_IT_number 11
_symmetry_cell_setting 'monoclinic'
loop_
_space_group_symop_operation_xyz
x,y,z
-x,1/2+y,-z
-x,-y,-z
x,1/2-y,z
loop_
_atom_site_type_symbol
_atom_site_label
_atom_site_fract_x
_atom_site_fract_y
_atom_site_fract_z
Si Si1 0.062646 0.816323 0.407121
Si Si2 0.134048 0.028660 0.483412
Si Si3 0.252712 0.557359 0.855635
Si Si4 0.303048 0.115321 0.806834
Si Si5 0.351305 0.847919 0.571235
Si Si6 0.997451 0.889806 0.895847
Si Si7 0.362654 0.313821 0.323513
Si Si8 0.543706 0.452536 0.713453
O O1 0.026900 0.750000 0.407170
O O2 0.218069 0.819886 0.442484
O O3 0.021336 0.850801 0.649144
O O4 0.002691 0.848144 0.140515
O O5 0.183534 0.075875 0.699474
O O6 0.113164 0.065300 0.219270
O O7 0.225181 0.975865 0.581188
O O8 0.000000 0.000000 0.500000
O O9 0.314850 0.618279 0.817061
O O10 0.122054 0.569812 0.957215
O O11 0.351458 0.523822 0.059545
O O12 0.319532 0.160606 0.580778
O O13 0.424914 0.074947 0.817330
O O14 0.309548 0.147117 0.078031
O O15 0.482515 0.813843 0.643153
O O16 0.392800 0.898452 0.399340
O O17 0.315840 0.250000 0.278727
O O18 0.500000 0.500000 0.500000
#
# Coordination Sequence:
#
# PCOD9164317 Si02
#       8
#     4   4   4   4   4   4   4   4
#     4  11  22  41  69  95 126 169 222 281 336 382
#     4  10  24  46  69  93 132 181 219 276 335 392
#     4  10  20  41  64  97 133 177 216 269 334 405
#     4  11  25  44  67 102 133 176 228 273 327 408
#     4  10  21  38  61 101 138 168 217 269 331 405
#     4  10  23  44  62  97 132 165 224 275 326 399
#     4  11  24  44  69  99 140 180 219 270 338 400
#     4  11  22  36  64 100 140 173 211 273 336 410
#
# _framework density 24.760223
#
# number of rings (size 3 to 8) (size 9 to 14) (size 15 to 20)
#    0.000    1.500    2.500    1.875    3.500    2.000 
#    2.250   10.625    0.000    0.000    0.000    0.000 
#    0.000    0.000    0.000    0.000    0.000    0.000 
#
# Total GULP energy -179039.594697 kJ/mol
# GULP energy per Si atom -5594.987334 kJ/mol
# Density = 2.470387 g / cm^3
# Si number density = 24.760223 Si / 1000 Ang^3
#
#
#
# Elastic Constant Matrix: (Units=GPa)
#
#
# Indices 1 2 3 4 5 6 
#
# 1 66.5673 39.7214 35.4337 0.0000 20.8321 0.0000
# 2 39.7214 145.6096 53.9210 0.0000 9.3260 0.0000
# 3 35.4337 53.9210 152.6142 0.0000 14.6246 0.0000
# 4 0.0000 0.0000 0.0000 26.6315 0.0000 15.1855
# 5 20.8321 9.3260 14.6246 0.0000 36.3352 0.0000
# 6 0.0000 0.0000 0.0000 15.1855 0.0000 16.9517
#
#
#
# Elastic Compliance Matrix: (Units=1/GPa)
#
#
# Indices 1 2 3 4 5 6 
#
# 1 0.022407 -0.004466 -0.002604 0.000000 -0.010652 0.000000
# 2 -0.004466 0.008823 -0.002193 0.000000 0.001179 0.000000
# 3 -0.002604 -0.002193 0.008045 0.000000 -0.001182 0.000000
# 4 0.000000 0.000000 0.000000 0.076756 0.000000 -0.068759
# 5 -0.010652 0.001179 -0.001182 0.000000 0.033802 0.000000
# 6 0.000000 0.000000 0.000000 -0.068759 0.000000 0.120586
#
#
# Mechanical properties :
#
#
# Convention : Reuss Voigt Hill
#
# Bulk Modulus (GPa) = 48.19548 69.21592 58.70570
# Shear Modulus (GPa) = 16.89979 31.69802 24.29890
#
# Velocity S-wave (km/s) = 2.61538 3.58187 3.13608
# Velocity P-wave (km/s) = 5.35046 6.71726 6.07244
#
# Compressibility (1/GPa) = 0.02074884
#
# Stress axis : x y z
#
# Youngs Moduli (GPa) = 44.62920 113.34438 124.29772
#
# Poissons Ratio (x) = 0.50620 0.32363
# Poissons Ratio (y) = 0.19932 0.27261
# Poissons Ratio (z) = 0.11620 0.24859
#
# Static dielectric constant tensor:
#      x y z
#    x 2.060860 0.000000 -0.015820 
#    y 0.000000 1.897250 0.000000 
#    z -0.015820 0.000000 2.000450 
# 
# From -- ./inp_files/5484.got.cif
#   From: 2010.05.17/outbox.cif.g08.bks.cpg/sg11_3_cif.got.tgz:5484.got - 2010.06.03 12:22:45.
