data_PCOD9164455
_publ_section_title
;
Structure prediction by ZEFSAII (Michael W. Deem and Ramdas Pophale) SiO2 
 PCOD9164455
Probable space group: P 21/M
;
_chemical_formula_sum "Si O2"
_cell_formula_units_Z 28
_cell_length_a 13.875583
_cell_length_b 7.702817
_cell_length_c 12.998079
_cell_angle_alpha 90.000000
_cell_angle_beta 72.520480
_cell_angle_gamma 90.000000
_cell_volume 1325.099252
_symmetry_space_group_name_H-M "P 21/M"
_symmetry_group_IT_number 11
_symmetry_cell_setting 'monoclinic'
loop_
_space_group_symop_operation_xyz
x,y,z
-x,1/2+y,-z
-x,-y,-z
x,1/2-y,z
loop_
_atom_site_type_symbol
_atom_site_label
_atom_site_fract_x
_atom_site_fract_y
_atom_site_fract_z
Si Si1 0.220685 0.961771 0.542603
Si Si2 0.944898 0.457721 0.123155
Si Si3 0.279146 0.963116 0.746883
Si Si4 0.365848 0.451403 0.098940
Si Si5 0.006081 0.460080 0.325342
Si Si6 0.222970 0.549364 0.319371
Si Si7 0.570024 0.450797 0.133769
O O1 0.222295 0.750000 0.539795
O O2 0.279053 0.015495 0.627129
O O3 0.256817 0.023012 0.419396
O O4 0.103278 0.011334 0.595977
O O5 0.939836 0.250000 0.132670
O O6 0.828955 0.519122 0.170973
O O7 0.004598 0.516183 0.206024
O O8 0.000000 0.500000 0.000000
O O9 0.280141 0.750000 0.748768
O O10 0.370465 0.026731 0.788631
O O11 0.386244 0.250000 0.069075
O O12 0.271217 0.462334 0.204354
O O13 0.462936 0.525035 0.130021
O O14 0.359357 0.540931 0.990390
O O15 0.012901 0.250000 0.328319
O O16 0.102130 0.535582 0.351899
O O17 0.252793 0.750000 0.304280
O O18 0.549407 0.250000 0.165702
#
# Coordination Sequence:
#
# PCOD9164455 Si02
#       7
#     4   4   4   4   4   4   4
#     4   8  16  32  52  75 102 132 167 209 252 297
#     4   9  18  30  46  71 102 130 160 200 245 297
#     4   8  15  31  54  74  95 128 165 203 251 300
#     4  10  21  35  51  75 106 133 161 209 261 300
#     4   9  18  33  50  71 102 137 168 205 256 296
#     4  11  21  32  51  76 101 134 176 211 244 296
#     4   9  18  35  58  78  97 128 170 208 251 308
#
# _framework density 21.130493999999999
#
# number of rings (size 3 to 8) (size 9 to 14) (size 15 to 20)
#    0.000    2.857    0.000    3.000    2.000    1.143 
#    0.000    1.429    0.000    4.286    0.000    0.000 
#    0.000    0.000    0.000    0.000    0.000    0.000 
#
# Total GULP energy -156172.543040 kJ/mol
# GULP energy per Si atom -5577.590823 kJ/mol
# Density = 2.108240 g / cm^3
# Si number density = 21.130494 Si / 1000 Ang^3
#
#
#
# Elastic Constant Matrix: (Units=GPa)
#
#
# Indices 1 2 3 4 5 6 
#
# 1 57.2450 -0.7452 8.3356 0.0000 29.2149 0.0000
# 2 -0.7452 36.2293 -5.9881 0.0000 -1.2235 0.0000
# 3 8.3356 -5.9881 52.0490 0.0000 15.7699 0.0000
# 4 0.0000 0.0000 0.0000 8.0839 0.0000 1.4281
# 5 29.2149 -1.2235 15.7699 0.0000 26.1094 0.0000
# 6 0.0000 0.0000 0.0000 1.4281 0.0000 10.7651
#
#
#
# Elastic Compliance Matrix: (Units=1/GPa)
#
#
# Indices 1 2 3 4 5 6 
#
# 1 0.044426 0.000657 0.009808 0.000000 -0.055603 0.000000
# 2 0.000657 0.028160 0.003620 0.000000 -0.001602 0.000000
# 3 0.009808 0.003620 0.026110 0.000000 -0.026575 0.000000
# 4 0.000000 0.000000 0.000000 0.126671 0.000000 -0.016804
# 5 -0.055603 -0.001602 -0.026575 0.000000 0.116493 0.000000
# 6 0.000000 0.000000 0.000000 -0.016804 0.000000 0.095122
#
#
# Mechanical properties :
#
#
# Convention : Reuss Voigt Hill
#
# Bulk Modulus (GPa) = 7.88237 16.52531 12.20384
# Shear Modulus (GPa) = 11.08398 18.58642 14.83520
#
# Velocity S-wave (km/s) = 2.29279 2.96903 2.65255
# Velocity P-wave (km/s) = 3.27835 4.42618 3.89478
#
# Compressibility (1/GPa) = 0.12686532
#
# Stress axis : x y z
#
# Youngs Moduli (GPa) = 22.50923 35.51176 38.29922
#
# Poissons Ratio (x) = -0.02333 -0.37562
# Poissons Ratio (y) = -0.01479 -0.13864
# Poissons Ratio (z) = -0.22076 -0.12855
#
# Static dielectric constant tensor:
#      x y z
#    x 1.766900 0.000000 0.020060 
#    y 0.000000 1.797740 0.000000 
#    z 0.020060 0.000000 1.771470 
# 
# From -- ./inp_files/37434.got.cif
#   From: 2010.05.17/outbox.cif.g08.bks.cpg/sg11_19_cif.got.tgz:37434.got - 2010.06.03 12:22:45.
