data_PCOD9164854
_publ_section_title
;
Structure prediction by ZEFSAII (Michael W. Deem and Ramdas Pophale) SiO2 
 PCOD9164854
Probable space group: P 21/M
;
_chemical_formula_sum "Si O2"
_cell_formula_units_Z 32
_cell_length_a 8.663354
_cell_length_b 20.739308
_cell_length_c 12.914559
_cell_angle_alpha 90.000000
_cell_angle_beta 132.130445
_cell_angle_gamma 90.000000
_cell_volume 1720.842171
_symmetry_space_group_name_H-M "P 21/M"
_symmetry_group_IT_number 11
_symmetry_cell_setting 'monoclinic'
loop_
_space_group_symop_operation_xyz
x,y,z
-x,1/2+y,-z
-x,-y,-z
x,1/2-y,z
loop_
_atom_site_type_symbol
_atom_site_label
_atom_site_fract_x
_atom_site_fract_y
_atom_site_fract_z
Si Si1 0.476508 0.559673 0.911717
Si Si2 0.667657 0.323928 0.603770
Si Si3 0.155327 0.824760 0.090025
Si Si4 0.960116 0.676072 0.396229
Si Si5 0.846329 0.058931 0.409918
Si Si6 0.473506 0.441069 0.409917
Si Si7 0.153073 0.440327 0.088282
Si Si8 0.475277 0.175240 0.909975
O O1 0.263309 0.555707 0.750710
O O2 0.664540 0.557287 0.914541
O O3 0.500000 0.500000 0.000000
O O4 0.491414 0.625688 0.982514
O O5 0.591338 0.250000 0.570204
O O6 0.744081 0.340801 0.753259
O O7 0.502917 0.374657 0.485898
O O8 0.867917 0.326539 0.617917
O O9 0.084988 0.750000 0.063370
O O10 0.334229 0.829871 0.084229
O O11 0.973614 0.874312 0.982515
O O12 0.950929 0.750000 0.429795
O O13 0.737563 0.659199 0.246740
O O14 0.031121 0.625343 0.514102
O O15 0.660928 0.056173 0.410928
O O16 0.000000 0.000000 0.500000
O O17 0.500000 0.500000 0.500000
O O18 0.261888 0.444293 0.249289
O O19 0.000000 0.500000 0.000000
O O20 0.458248 0.250000 0.936630
#
# Coordination Sequence:
#
# PCOD9164854 Si02
#       8
#     4   4   4   4   4   4   4   4
#     4  11  23  38  57  82 112 146 185 228 274 325
#     4   9  18  35  58  81 106 139 179 222 270 323
#     4  10  21  37  57  83 114 146 182 224 270 323
#     4   9  18  35  58  81 106 139 179 222 270 323
#     4  10  22  37  55  80 108 140 179 225 273 323
#     4  10  22  37  55  80 108 140 179 225 273 323
#     4  11  23  38  57  82 112 146 185 228 274 325
#     4  10  21  37  57  83 114 146 182 224 270 323
#
# _framework density 18.595547
#
# number of rings (size 3 to 8) (size 9 to 14) (size 15 to 20)
#    0.000    2.000    0.000    3.000    0.000    9.500 
#    0.000    2.500    0.000    3.000    0.000    0.000 
#    0.000    0.000    0.000    0.000    0.000    0.000 
#
# Total GULP energy -178763.876511 kJ/mol
# GULP energy per Si atom -5586.371141 kJ/mol
# Density = 1.855322 g / cm^3
# Si number density = 18.595547 Si / 1000 Ang^3
#
#
#
# Elastic Constant Matrix: (Units=GPa)
#
#
# Indices 1 2 3 4 5 6 
#
# 1 28.4499 35.4818 43.8509 0.0000 4.6272 0.0000
# 2 35.4818 121.6546 122.8648 0.0000 5.8996 0.0000
# 3 43.8509 122.8648 199.0789 0.0000 6.8926 0.0000
# 4 0.0000 0.0000 0.0000 42.6164 0.0000 0.5822
# 5 4.6272 5.8996 6.8926 0.0000 26.7214 0.0000
# 6 0.0000 0.0000 0.0000 0.5822 0.0000 33.9936
#
#
#
# Elastic Compliance Matrix: (Units=1/GPa)
#
#
# Indices 1 2 3 4 5 6 
#
# 1 0.059010 -0.010615 -0.006230 0.000000 -0.006268 0.000000
# 2 -0.010615 0.023780 -0.012330 0.000000 -0.000232 0.000000
# 3 -0.006230 -0.012330 0.013998 0.000000 0.000190 0.000000
# 4 0.000000 0.000000 0.000000 0.023471 0.000000 -0.000402
# 5 -0.006268 -0.000232 0.000190 0.000000 0.038511 0.000000
# 6 0.000000 0.000000 0.000000 -0.000402 0.000000 0.029424
#
#
# Mechanical properties :
#
#
# Convention : Reuss Voigt Hill
#
# Bulk Modulus (GPa) = 26.01557 83.73092 54.87325
# Shear Modulus (GPa) = 19.27852 30.46535 24.87193
#
# Velocity S-wave (km/s) = 3.22332 4.05200 3.66118
# Velocity P-wave (km/s) = 5.27955 8.18638 6.88805
#
# Compressibility (1/GPa) = 0.03843852
#
# Stress axis : x y z
#
# Youngs Moduli (GPa) = 16.94627 42.05251 71.43724
#
# Poissons Ratio (x) = 0.44640 0.44503
# Poissons Ratio (y) = 0.17989 0.88081
# Poissons Ratio (z) = 0.10557 0.51850
#
# Static dielectric constant tensor:
#      x y z
#    x 1.633500 0.000000 -0.001360 
#    y 0.000000 1.631090 0.000000 
#    z -0.001360 0.000000 1.613360 
# 
# From -- ./inp_files/19445.got.cif
#   From: 2010.05.17/outbox.cif.g08.bks.cpg/sg11_10_cif.got.tgz:19445.got - 2010.06.03 12:22:45.
