data_PCOD9164497
_publ_section_title
;
Structure prediction by ZEFSAII (Michael W. Deem and Ramdas Pophale) SiO2 
 PCOD9164497
Probable space group: P 21/M
;
_chemical_formula_sum "Si O2"
_cell_formula_units_Z 32
_cell_length_a 14.654592
_cell_length_b 25.518589
_cell_length_c 9.154028
_cell_angle_alpha 90.000000
_cell_angle_beta 32.587413
_cell_angle_gamma 90.000000
_cell_volume 1843.730509
_symmetry_space_group_name_H-M "P 21/M"
_symmetry_group_IT_number 11
_symmetry_cell_setting 'monoclinic'
loop_
_space_group_symop_operation_xyz
x,y,z
-x,1/2+y,-z
-x,-y,-z
x,1/2-y,z
loop_
_atom_site_type_symbol
_atom_site_label
_atom_site_fract_x
_atom_site_fract_y
_atom_site_fract_z
Si Si1 0.006793 0.494302 0.163270
Si Si2 0.655626 0.807700 0.689258
Si Si3 0.336816 0.469159 0.271598
Si Si4 0.830439 0.618874 0.029649
Si Si5 0.817749 0.874925 0.706161
Si Si6 0.005879 0.688529 0.032154
Si Si7 0.144951 0.892844 0.076722
Si Si8 0.528307 0.892738 0.662413
O O1 0.103443 0.440881 0.064687
O O2 0.086173 0.548968 0.109834
O O3 0.819038 0.492807 0.483460
O O4 0.000000 0.500000 0.000000
O O5 0.587710 0.750000 0.791352
O O6 0.712701 0.829940 0.766690
O O7 0.529026 0.844705 0.774326
O O8 0.828210 0.808890 0.360486
O O9 0.270093 0.427924 0.239738
O O10 0.386838 0.438454 0.353221
O O11 0.500000 0.500000 0.000000
O O12 0.810780 0.633198 0.887395
O O13 0.957543 0.657190 0.948670
O O14 0.654918 0.618386 0.357259
O O15 0.010208 0.876006 0.384022
O O16 0.060922 0.750000 0.939679
O O17 0.121324 0.650007 0.977587
O O18 0.337607 0.899336 0.866833
#
# Coordination Sequence:
#
# PCOD9164497 Si02
#       8
#     4   4   4   4   4   4   4   4
#     4  11  20  37  56  77 114 148 178 219 271 326
#     4   8  16  36  59  75 104 145 181 223 270 320
#     4  10  22  37  53  78 109 145 181 217 264 322
#     4  11  21  36  56  83 111 144 181 222 273 322
#     4   9  21  36  53  80 109 139 180 219 268 326
#     4   9  18  36  58  78 106 145 183 222 270 324
#     4  10  21  36  55  81 110 143 182 222 267 324
#     4  10  21  35  54  83 108 138 186 222 263 325
#
# _framework density 17.356116
#
# number of rings (size 3 to 8) (size 9 to 14) (size 15 to 20)
#    0.000    2.250    2.500    1.500    3.500    3.500 
#    0.000    0.000    0.000    1.500    0.000    0.000 
#    0.000    0.000    0.000    0.000    0.000    0.000 
#
# Total GULP energy -178260.026512 kJ/mol
# GULP energy per Si atom -5570.625829 kJ/mol
# Density = 1.731661 g / cm^3
# Si number density = 17.356116 Si / 1000 Ang^3
#
#
#
# Elastic Constant Matrix: (Units=GPa)
#
#
# Indices 1 2 3 4 5 6 
#
# 1 119.4019 39.9290 53.6872 0.0000 20.8222 0.0000
# 2 39.9290 86.0199 30.2423 0.0000 -2.6617 0.0000
# 3 53.6872 30.2423 66.1556 0.0000 5.5009 0.0000
# 4 0.0000 0.0000 0.0000 14.6196 0.0000 -0.1699
# 5 20.8222 -2.6617 5.5009 0.0000 29.5395 0.0000
# 6 0.0000 0.0000 0.0000 -0.1699 0.0000 1.5748
#
#
#
# Elastic Compliance Matrix: (Units=1/GPa)
#
#
# Indices 1 2 3 4 5 6 
#
# 1 0.016146 -0.004145 -0.010392 0.000000 -0.009820 0.000000
# 2 -0.004145 0.015095 -0.003954 0.000000 0.005018 0.000000
# 3 -0.010392 -0.003954 0.025167 0.000000 0.002282 0.000000
# 4 0.000000 0.000000 0.000000 0.068487 0.000000 0.007387
# 5 -0.009820 0.005018 0.002282 0.000000 0.040802 0.000000
# 6 0.000000 0.000000 0.000000 0.007387 0.000000 0.635795
#
#
# Mechanical properties :
#
#
# Convention : Reuss Voigt Hill
#
# Bulk Modulus (GPa) = 51.47637 57.69937 54.58787
# Shear Modulus (GPa) = 5.91752 18.99471 12.45612
#
# Velocity S-wave (km/s) = 1.84848 3.31178 2.68186
# Velocity P-wave (km/s) = 5.85484 6.92390 6.41169
#
# Compressibility (1/GPa) = 0.01942639
#
# Stress axis : x y z
#
# Youngs Moduli (GPa) = 61.93431 66.24872 39.73525
#
# Poissons Ratio (x) = 0.27461 0.41291
# Poissons Ratio (y) = 0.25673 0.15710
# Poissons Ratio (z) = 0.64360 0.26192
#
# Static dielectric constant tensor:
#      x y z
#    x 1.594250 0.000000 0.001340 
#    y 0.000000 1.548740 0.000000 
#    z 0.001340 0.000000 1.571560 
# 
# From -- ./inp_files/23438.got.cif
#   From: 2010.05.17/outbox.cif.g08.bks.cpg/sg11_12_cif.got.tgz:23438.got - 2010.06.03 12:22:45.
