data_PCOD9164743
_publ_section_title
;
Structure prediction by ZEFSAII (Michael W. Deem and Ramdas Pophale) SiO2 
 PCOD9164743
Probable space group: P 21/M
;
_chemical_formula_sum "Si O2"
_cell_formula_units_Z 22
_cell_length_a 11.908350
_cell_length_b 14.332925
_cell_length_c 16.968353
_cell_angle_alpha 90.000000
_cell_angle_beta 159.712989
_cell_angle_gamma 90.000000
_cell_volume 1004.173576
_symmetry_space_group_name_H-M "P 21/M"
_symmetry_group_IT_number 11
_symmetry_cell_setting 'monoclinic'
loop_
_space_group_symop_operation_xyz
x,y,z
-x,1/2+y,-z
-x,-y,-z
x,1/2-y,z
loop_
_atom_site_type_symbol
_atom_site_label
_atom_site_fract_x
_atom_site_fract_y
_atom_site_fract_z
Si Si1 0.892299 0.411581 0.135409
Si Si2 0.176986 0.750000 0.286404
Si Si3 0.262190 0.054083 0.225747
Si Si4 0.762853 0.750000 0.556112
Si Si5 0.990542 0.415642 0.705846
Si Si6 0.961784 0.750000 0.373686
Si Si7 0.511820 0.750000 0.215337
Si Si8 0.284143 0.250000 0.164398
O O1 0.161034 0.451329 0.250466
O O2 0.026313 0.342031 0.290568
O O3 0.779915 0.505572 0.105803
O O4 0.668292 0.343663 0.934783
O O5 0.521676 0.750000 0.471893
O O6 0.117097 0.840512 0.299314
O O7 0.927479 0.750000 0.051681
O O8 0.641842 0.035116 0.455708
O O9 0.218583 0.160870 0.173054
O O10 0.000000 0.000000 0.000000
O O11 0.575269 0.750000 0.350119
O O12 0.137195 0.346974 0.735472
O O13 0.345536 0.750000 0.617767
O O14 0.844817 0.750000 0.385519
#
# Coordination Sequence:
#
# PCOD9164743 Si02
#       8
#     4   2   4   2   4   2   2   2
#     4  11  23  39  63 101 127 162 215 254 328 379
#     4  11  19  38  62  95 131 162 196 258 333 381
#     4  11  21  35  63  99 133 160 199 255 329 390
#     4  11  23  40  63  94 133 166 207 257 322 374
#     4  10  22  39  66  93 128 166 200 271 317 384
#     4   9  23  48  61  84 126 166 231 256 308 367
#     4  11  26  44  64  85 127 180 214 274 298 367
#     4  10  21  36  60  90 121 172 204 255 315 379
#
# _framework density 21.908562
#
# number of rings (size 3 to 8) (size 9 to 14) (size 15 to 20)
#    0.000    1.455    1.818    4.364    5.091    0.727 
#    6.545    0.909    0.000    0.000    0.000    0.000 
#    0.000    0.000    0.000    0.000    0.000    0.000 
#
# Total GULP energy -122844.961113 kJ/mol
# GULP energy per Si atom -5583.861869 kJ/mol
# Density = 2.185870 g / cm^3
# Si number density = 21.908562 Si / 1000 Ang^3
#
#
#
# Elastic Constant Matrix: (Units=GPa)
#
#
# Indices 1 2 3 4 5 6 
#
# 1 53.7582 3.7592 4.6000 0.0000 0.0686 0.0000
# 2 3.7592 104.5992 15.3065 0.0000 0.6536 0.0000
# 3 4.6000 15.3065 40.8185 0.0000 -21.0823 0.0000
# 4 0.0000 0.0000 0.0000 28.4533 0.0000 -6.2033
# 5 0.0686 0.6536 -21.0823 0.0000 33.3361 0.0000
# 6 0.0000 0.0000 0.0000 -6.2033 0.0000 9.8437
#
#
#
# Elastic Compliance Matrix: (Units=1/GPa)
#
#
# Indices 1 2 3 4 5 6 
#
# 1 0.018882 -0.000218 -0.003065 0.000000 -0.001973 0.000000
# 2 -0.000218 0.010463 -0.005947 0.000000 -0.003966 0.000000
# 3 -0.003065 -0.005947 0.040302 0.000000 0.025610 0.000000
# 4 0.000000 0.000000 0.000000 0.040743 0.000000 0.025675
# 5 -0.001973 -0.003966 0.025610 0.000000 0.046276 0.000000
# 6 0.000000 0.000000 0.000000 0.025675 0.000000 0.117768
#
#
# Mechanical properties :
#
#
# Convention : Reuss Voigt Hill
#
# Bulk Modulus (GPa) = 19.53662 27.38971 23.46317
# Shear Modulus (GPa) = 16.13131 26.02731 21.07931
#
# Velocity S-wave (km/s) = 2.71643 3.45047 3.10522
# Velocity P-wave (km/s) = 4.33306 5.32948 4.85689
#
# Compressibility (1/GPa) = 0.05118594
#
# Stress axis : x y z
#
# Youngs Moduli (GPa) = 52.96092 95.57284 24.81275
#
# Poissons Ratio (x) = 0.02081 0.07606
# Poissons Ratio (y) = 0.01153 0.14757
# Poissons Ratio (z) = 0.16234 0.56841
#
# Static dielectric constant tensor:
#      x y z
#    x 1.787840 0.000000 -0.003160 
#    y 0.000000 1.818800 0.000000 
#    z -0.003160 0.000000 1.869020 
# 
# From -- ./inp_files/59363.got.cif
#   From: 2010.05.17/outbox.cif.g08.bks.cpg/sg11_30_cif.got.tgz:59363.got - 2010.06.03 12:22:45.
