data_PCOD9165172
_publ_section_title
;
Structure prediction by ZEFSAII (Michael W. Deem and Ramdas Pophale) SiO2 
 PCOD9165172
Probable space group: P 21/M
;
_chemical_formula_sum "Si O2"
_cell_formula_units_Z 32
_cell_length_a 22.780181
_cell_length_b 8.806330
_cell_length_c 14.943981
_cell_angle_alpha 90.000000
_cell_angle_beta 148.026889
_cell_angle_gamma 90.000000
_cell_volume 1587.456370
_symmetry_space_group_name_H-M "P 21/M"
_symmetry_group_IT_number 11
_symmetry_cell_setting 'monoclinic'
loop_
_space_group_symop_operation_xyz
x,y,z
-x,1/2+y,-z
-x,-y,-z
x,1/2-y,z
loop_
_atom_site_type_symbol
_atom_site_label
_atom_site_fract_x
_atom_site_fract_y
_atom_site_fract_z
Si Si1 0.965633 0.068138 0.359723
Si Si2 0.012784 0.068812 0.116144
Si Si3 0.361772 0.430154 0.483128
Si Si4 0.260583 0.431612 0.897751
Si Si5 0.788759 0.929904 0.882134
Si Si6 0.389437 0.930720 0.213832
Si Si7 0.239833 0.928817 0.484319
Si Si8 0.207789 0.068874 0.623675
O O1 0.950137 0.250000 0.344176
O O2 0.075257 0.038026 0.443801
O O3 0.849734 0.987200 0.191970
O O4 0.000000 0.000000 0.500000
O O5 0.014905 0.250000 0.113462
O O6 0.127169 0.010536 0.306033
O O7 0.905937 0.015189 0.034659
O O8 0.000000 0.000000 0.000000
O O9 0.362153 0.250000 0.503836
O O10 0.267215 0.457341 0.287276
O O11 0.482823 0.469166 0.601418
O O12 0.333196 0.521659 0.534907
O O13 0.268809 0.250000 0.914443
O O14 0.245226 0.472332 0.773026
O O15 0.360910 0.513708 0.076810
O O16 0.806495 0.750000 0.916084
O O17 0.697381 0.987711 0.833650
O O18 0.374773 0.750000 0.202152
O O19 0.222707 0.750000 0.459728
O O20 0.265885 0.982868 0.618362
O O21 0.222330 0.250000 0.633566
#
# Coordination Sequence:
#
# PCOD9165172 Si02
#       8
#     4   4   4   4   4   4   4   4
#     4   9  17  31  53  80 113 153 194 241 300 360
#     4  12  24  41  64  93 130 166 205 253 308 369
#     4  10  23  44  66  88 122 165 208 256 310 369
#     4  10  21  38  59  86 121 161 206 257 307 363
#     4  11  23  41  66  94 125 164 207 254 310 372
#     4  11  24  41  64  93 124 163 207 258 315 366
#     4  12  25  39  63  94 125 165 209 254 310 371
#     4   9  20  38  59  84 120 163 205 252 308 366
#
# _framework density 20.158035000000002
#
# number of rings (size 3 to 8) (size 9 to 14) (size 15 to 20)
#    0.000    1.500    1.250    4.875    1.750    4.500 
#    0.000    0.625    0.000    0.000    0.000    0.000 
#    0.000    0.000    0.000    0.000    0.000    0.000 
#
# Total GULP energy -178855.166868 kJ/mol
# GULP energy per Si atom -5589.223965 kJ/mol
# Density = 2.011215 g / cm^3
# Si number density = 20.158035 Si / 1000 Ang^3
#
#
#
# Elastic Constant Matrix: (Units=GPa)
#
#
# Indices 1 2 3 4 5 6 
#
# 1 104.1739 42.1842 3.5414 0.0000 -2.8840 0.0000
# 2 42.1842 54.6931 6.2482 0.0000 -1.4232 0.0000
# 3 3.5414 6.2482 33.3233 0.0000 6.9025 0.0000
# 4 0.0000 0.0000 0.0000 26.5733 0.0000 0.1885
# 5 -2.8840 -1.4232 6.9025 0.0000 26.6546 0.0000
# 6 0.0000 0.0000 0.0000 0.1885 0.0000 33.3195
#
#
#
# Elastic Compliance Matrix: (Units=1/GPa)
#
#
# Indices 1 2 3 4 5 6 
#
# 1 0.013987 -0.010808 0.000366 0.000000 0.000842 0.000000
# 2 -0.010808 0.027138 -0.004224 0.000000 0.001374 0.000000
# 3 0.000366 -0.004224 0.032547 0.000000 -0.008614 0.000000
# 4 0.000000 0.000000 0.000000 0.037633 0.000000 -0.000213
# 5 0.000842 0.001374 -0.008614 0.000000 0.039912 0.000000
# 6 0.000000 0.000000 0.000000 -0.000213 0.000000 0.030014
#
#
# Mechanical properties :
#
#
# Convention : Reuss Voigt Hill
#
# Bulk Modulus (GPa) = 22.55371 32.90421 27.72896
# Shear Modulus (GPa) = 22.18846 26.65725 24.42286
#
# Velocity S-wave (km/s) = 3.32132 3.64045 3.48454
# Velocity P-wave (km/s) = 5.09126 5.83344 5.47494
#
# Compressibility (1/GPa) = 0.04433860
#
# Stress axis : x y z
#
# Youngs Moduli (GPa) = 71.49685 36.84876 30.72516
#
# Poissons Ratio (x) = 0.39825 -0.01124
# Poissons Ratio (y) = 0.77271 0.12980
# Poissons Ratio (z) = -0.02615 0.15567
#
# Static dielectric constant tensor:
#      x y z
#    x 1.725000 0.000000 -0.005570 
#    y 0.000000 1.666040 0.000000 
#    z -0.005570 0.000000 1.712610 
# 
# From -- ./inp_files/55736.got.cif
#   From: 2010.05.17/outbox.cif.g08.bks.cpg/sg11_28_cif.got.tgz:55736.got - 2010.06.03 12:22:45.
