data_PCOD9165564
_publ_section_title
;
Structure prediction by ZEFSAII (Michael W. Deem and Ramdas Pophale) SiO2 
 PCOD9165564
Probable space group: P 21/M
;
_chemical_formula_sum "Si O2"
_cell_formula_units_Z 32
_cell_length_a 21.299777
_cell_length_b 14.103270
_cell_length_c 14.613211
_cell_angle_alpha 90.000000
_cell_angle_beta 158.175311
_cell_angle_gamma 90.000000
_cell_volume 1631.970891
_symmetry_space_group_name_H-M "P 21/M"
_symmetry_group_IT_number 11
_symmetry_cell_setting 'monoclinic'
loop_
_space_group_symop_operation_xyz
x,y,z
-x,1/2+y,-z
-x,-y,-z
x,1/2-y,z
loop_
_atom_site_type_symbol
_atom_site_label
_atom_site_fract_x
_atom_site_fract_y
_atom_site_fract_z
Si Si1 0.139777 0.860925 0.211652
Si Si2 0.798029 0.951589 0.811415
Si Si3 0.673037 0.636600 0.190289
Si Si4 0.509579 0.638548 0.775547
Si Si5 0.520027 0.362500 0.713838
Si Si6 0.064160 0.512117 0.482982
Si Si7 0.390107 0.637127 0.953105
Si Si8 0.278387 0.474766 0.085221
O O1 0.130042 0.750000 0.170435
O O2 0.307824 0.871903 0.500644
O O3 0.163482 0.939154 0.163773
O O4 0.970759 0.892725 0.034975
O O5 0.660139 0.907084 0.556492
O O6 0.723668 0.946554 0.812293
O O7 0.691237 0.750000 0.216213
O O8 0.851307 0.584841 0.437694
O O9 0.544797 0.608827 0.097057
O O10 0.591201 0.607992 0.981930
O O11 0.546867 0.750000 0.815241
O O12 0.591726 0.583999 0.801831
O O13 0.518305 0.250000 0.696748
O O14 0.564045 0.381816 0.879404
O O15 0.660515 0.417066 0.844742
O O16 0.000000 0.500000 0.500000
O O17 0.217719 0.586200 0.691903
O O18 0.906381 0.539466 0.207447
O O19 0.368169 0.750000 0.913264
#
# Coordination Sequence:
#
# PCOD9165564 Si02
#       8
#     4   4   4   4   4   4   4   4
#     4  10  23  43  66  93 125 165 212 266 317 369
#     4  11  25  43  67  93 129 165 214 265 313 376
#     4  10  22  40  64  94 125 167 212 258 315 378
#     4  10  21  39  63  90 130 167 206 259 315 378
#     4  11  23  42  66  91 129 170 213 263 316 375
#     4  12  23  39  63  91 130 166 204 259 315 376
#     4  10  23  42  66  93 125 167 213 261 317 377
#     4  12  25  42  61  97 128 170 211 255 317 379
#
# _framework density 19.608191999999999
#
# number of rings (size 3 to 8) (size 9 to 14) (size 15 to 20)
#    0.000    1.250    3.750    1.125    1.750    5.000 
#    0.000    1.250    0.000    0.000    0.000    0.000 
#    0.000    0.000    0.000    0.000    0.000    0.000 
#
# Total GULP energy -178855.392989 kJ/mol
# GULP energy per Si atom -5589.231031 kJ/mol
# Density = 1.956356 g / cm^3
# Si number density = 19.608192 Si / 1000 Ang^3
#
#
#
# Elastic Constant Matrix: (Units=GPa)
#
#
# Indices 1 2 3 4 5 6 
#
# 1 56.5033 17.9176 23.5084 0.0000 12.8951 0.0000
# 2 17.9176 86.1490 46.5784 0.0000 -1.6425 0.0000
# 3 23.5084 46.5784 98.8866 0.0000 18.2599 0.0000
# 4 0.0000 0.0000 0.0000 13.8520 0.0000 1.3898
# 5 12.8951 -1.6425 18.2599 0.0000 23.3506 0.0000
# 6 0.0000 0.0000 0.0000 1.3898 0.0000 21.5178
#
#
#
# Elastic Compliance Matrix: (Units=1/GPa)
#
#
# Indices 1 2 3 4 5 6 
#
# 1 0.022167 -0.004222 -0.001129 0.000000 -0.011656 0.000000
# 2 -0.004222 0.017766 -0.009380 0.000000 0.010917 0.000000
# 3 -0.001129 -0.009380 0.017305 0.000000 -0.013569 0.000000
# 4 0.000000 0.000000 0.000000 0.072663 0.000000 -0.004693
# 5 -0.011656 0.010917 -0.013569 0.000000 0.060641 0.000000
# 6 0.000000 0.000000 0.000000 -0.004693 0.000000 0.046776
#
#
# Mechanical properties :
#
#
# Convention : Reuss Voigt Hill
#
# Bulk Modulus (GPa) = 36.00374 46.39421 41.19897
# Shear Modulus (GPa) = 18.11348 21.97970 20.04659
#
# Velocity S-wave (km/s) = 3.04266 3.35168 3.20090
# Velocity P-wave (km/s) = 5.54483 6.22016 5.89218
#
# Compressibility (1/GPa) = 0.02777489
#
# Stress axis : x y z
#
# Youngs Moduli (GPa) = 45.11291 56.28815 57.78759
#
# Poissons Ratio (x) = 0.23767 0.06522
# Poissons Ratio (y) = 0.19048 0.54206
# Poissons Ratio (z) = 0.05091 0.52799
#
# Static dielectric constant tensor:
#      x y z
#    x 1.652140 0.000000 -0.004660 
#    y 0.000000 1.711770 0.000000 
#    z -0.004660 0.000000 1.663410 
# 
# From -- ./inp_files/55037.got.cif
#   From: 2010.05.17/outbox.cif.g08.bks.cpg/sg11_28_cif.got.tgz:55037.got - 2010.06.03 12:22:45.
