data_PCOD9165433
_publ_section_title
;
Structure prediction by ZEFSAII (Michael W. Deem and Ramdas Pophale) SiO2 
 PCOD9165433
Probable space group: P 21/M
;
_chemical_formula_sum "Si O2"
_cell_formula_units_Z 32
_cell_length_a 15.553174
_cell_length_b 8.185182
_cell_length_c 25.045077
_cell_angle_alpha 90.000000
_cell_angle_beta 29.531381
_cell_angle_gamma 90.000000
_cell_volume 1571.551873
_symmetry_space_group_name_H-M "P 21/M"
_symmetry_group_IT_number 11
_symmetry_cell_setting 'monoclinic'
loop_
_space_group_symop_operation_xyz
x,y,z
-x,1/2+y,-z
-x,-y,-z
x,1/2-y,z
loop_
_atom_site_type_symbol
_atom_site_label
_atom_site_fract_x
_atom_site_fract_y
_atom_site_fract_z
Si Si1 0.038601 0.052024 0.232545
Si Si2 0.378951 0.435275 0.712939
Si Si3 0.026429 0.932477 0.927851
Si Si4 0.331319 0.946313 0.622966
Si Si5 0.939125 0.549796 0.656299
Si Si6 0.772191 0.552958 0.974468
Si Si7 0.278873 0.554531 0.407676
Si Si8 0.597296 0.944977 0.776845
O O1 0.053388 0.250000 0.227487
O O2 0.049915 0.994047 0.287832
O O3 0.847756 0.016968 0.311246
O O4 0.179492 0.993921 0.111790
O O5 0.339773 0.250000 0.752555
O O6 0.353879 0.449676 0.663932
O O7 0.569503 0.477144 0.631020
O O8 0.232724 0.558272 0.811038
O O9 0.959963 0.750000 0.964259
O O10 0.922687 0.010022 0.934147
O O11 0.000000 0.000000 0.000000
O O12 0.330605 0.750000 0.634382
O O13 0.500000 0.000000 0.500000
O O14 0.947278 0.750000 0.652399
O O15 0.756086 0.500554 0.729083
O O16 0.097462 0.494382 0.531828
O O17 0.782966 0.750000 0.964796
O O18 0.586359 0.511217 0.101374
O O19 0.262129 0.750000 0.410486
O O20 0.346412 0.489851 0.314143
O O21 0.585316 0.750000 0.785752
#
# Coordination Sequence:
#
# PCOD9165433 Si02
#       8
#     4   4   4   4   4   4   4   4
#     4   9  18  37  61  83 114 157 196 234 287 358
#     4  11  22  36  57  86 115 150 193 236 286 345
#     4  11  22  37  56  83 115 154 196 236 287 347
#     4  11  21  36  58  86 118 156 196 236 285 345
#     4   9  19  37  61  86 114 149 195 244 296 352
#     4  10  21  39  60  82 114 158 200 234 284 360
#     4  10  21  39  61  85 116 157 197 236 291 369
#     4  11  23  37  58  89 117 148 193 253 304 337
#
# _framework density 20.36204
#
# number of rings (size 3 to 8) (size 9 to 14) (size 15 to 20)
#    0.000    1.750    1.250    3.375    0.000    7.500 
#    0.000    0.625    0.000    4.500    0.000    0.000 
#    0.000    0.000    0.000    0.000    0.000    0.000 
#
# Total GULP energy -178415.370132 kJ/mol
# GULP energy per Si atom -5575.480317 kJ/mol
# Density = 2.031569 g / cm^3
# Si number density = 20.362040 Si / 1000 Ang^3
#
#
#
# Elastic Constant Matrix: (Units=GPa)
#
#
# Indices 1 2 3 4 5 6 
#
# 1 16185.4341-2678.892113472.8660 0.0000 3668.6766 0.0000
# 2 -2678.8921 468.7740-2239.9726 0.0000 -617.3460 0.0000
# 3 13472.8660-2239.972611349.9491 0.0000 3070.9635 0.0000
# 4 0.0000 0.0000 0.0000 19.8624 0.0000 3.8624
# 5 3668.6766 -617.3460 3070.9635 0.0000 873.2733 0.0000
# 6 0.0000 0.0000 0.0000 3.8624 0.0000 10.9885
#
#
#
# Elastic Compliance Matrix: (Units=1/GPa)
#
#
# Indices 1 2 3 4 5 6 
#
# 1 0.005822 0.003376 -0.005620 0.000000 -0.002305 0.000000
# 2 0.003376 0.044147 0.002029 0.000000 0.009893 0.000000
# 3 -0.005620 0.002029 0.007905 0.000000 -0.002754 0.000000
# 4 0.000000 0.000000 0.000000 0.054040 0.000000 -0.018995
# 5 -0.002305 0.009893 -0.002754 0.000000 0.027509 0.000000
# 6 0.000000 0.000000 0.000000 -0.018995 0.000000 0.097680
#
#
# Mechanical properties :
#
#
# Convention : Reuss Voigt Hill
#
# Bulk Modulus (GPa) = 17.40862 5012.46221 2514.93541
# Shear Modulus (GPa) = 19.47929 1477.50191 748.49060
#
# Velocity S-wave (km/s) = 3.09633 26.96648 19.19347
# Velocity P-wave (km/s) = 4.62072 58.62254 41.58097
#
# Compressibility (1/GPa) = 0.05744280
#
# Stress axis : x y z
#
# Youngs Moduli (GPa) = 171.77447 22.65135 126.49732
#
# Poissons Ratio (x) = -0.07647 0.71097
# Poissons Ratio (y) = -0.57990 -0.25662
# Poissons Ratio (z) = 0.96544 -0.04595
#
# Static dielectric constant tensor:
#      x y z
#    x 1.769700 0.000000 -0.015850 
#    y 0.000000 1.733040 0.000000 
#    z -0.015850 0.000000 1.604980 
# 
# From -- ./inp_files/69018.got.cif
#   From: 2010.05.17/outbox.cif.g08.bks.cpg/sg11_35_cif.got.tgz:69018.got - 2010.06.03 12:22:45.
