data_PCOD9165642
_publ_section_title
;
Structure prediction by ZEFSAII (Michael W. Deem and Ramdas Pophale) SiO2 
 PCOD9165642
Probable space group: P 21/M
;
_chemical_formula_sum "Si O2"
_cell_formula_units_Z 30
_cell_length_a 29.072890
_cell_length_b 8.912847
_cell_length_c 10.321068
_cell_angle_alpha 90.000000
_cell_angle_beta 32.173482
_cell_angle_gamma 90.000000
_cell_volume 1424.086372
_symmetry_space_group_name_H-M "P 21/M"
_symmetry_group_IT_number 11
_symmetry_cell_setting 'monoclinic'
loop_
_space_group_symop_operation_xyz
x,y,z
-x,1/2+y,-z
-x,-y,-z
x,1/2-y,z
loop_
_atom_site_type_symbol
_atom_site_label
_atom_site_fract_x
_atom_site_fract_y
_atom_site_fract_z
Si Si1 0.996426 0.073935 0.869201
Si Si2 0.401483 0.574427 0.471310
Si Si3 0.169834 0.574337 0.367665
Si Si4 0.649823 0.429579 0.943965
Si Si5 0.231119 0.080695 0.973759
Si Si6 0.629494 0.570595 0.717087
Si Si7 0.170405 0.419865 0.835377
Si Si8 0.500000 0.000000 0.500000
O O1 0.003549 0.250000 0.860933
O O2 0.080268 0.010762 0.597170
O O3 0.904316 0.028990 0.030668
O O4 0.000000 0.000000 0.000000
O O5 0.377382 0.750000 0.520060
O O6 0.420304 0.515945 0.280220
O O7 0.467585 0.555759 0.432492
O O8 0.324716 0.464380 0.698726
O O9 0.155989 0.750000 0.422625
O O10 0.202240 0.539045 0.146721
O O11 0.250058 0.526319 0.268164
O O12 0.645494 0.250000 0.933253
O O13 0.616492 0.510848 0.893671
O O14 0.594816 0.461087 0.205707
O O15 0.232743 0.250000 0.025113
O O16 0.172709 0.080196 0.985531
O O17 0.613449 0.750000 0.747463
O O18 0.732462 0.544349 0.443530
O O19 0.150746 0.250000 0.837219
#
# Coordination Sequence:
#
# PCOD9165642 Si02
#       8
#     4   4   4   4   4   4   4   2
#     4  12  25  40  61  92 127 170 218 269 327 385
#     4  11  23  43  69  98 132 176 220 270 331 394
#     4  11  23  42  66  94 130 171 218 271 324 388
#     4  11  25  45  68  98 130 172 223 271 330 399
#     4  10  21  39  65  96 131 170 213 266 325 387
#     4  10  23  43  69 100 134 175 220 272 331 392
#     4   9  20  40  64  93 130 172 218 265 318 384
#     4  12  26  44  68  98 132 168 216 276 328 394
#
# _framework density 21.066137999999999
#
# number of rings (size 3 to 8) (size 9 to 14) (size 15 to 20)
#    0.000    1.333    1.333    4.800    0.000   10.667 
#    0.000    0.000    0.000    0.000    0.000    0.000 
#    0.000    0.000    0.000    0.000    0.000    0.000 
#
# Total GULP energy -167055.291198 kJ/mol
# GULP energy per Si atom -5568.509707 kJ/mol
# Density = 2.101819 g / cm^3
# Si number density = 21.066138 Si / 1000 Ang^3
#
#
#
# Elastic Constant Matrix: (Units=GPa)
#
#
# Indices 1 2 3 4 5 6 
#
# 1 106.6688 42.2561 18.8545 0.0000 14.4603 0.0000
# 2 42.2561 78.6522 15.5762 0.0000 -16.8236 0.0000
# 3 18.8545 15.5762 56.6923 0.0000 10.4020 0.0000
# 4 0.0000 0.0000 0.0000 112.9433 0.0000 -24.9388
# 5 14.4603 -16.8236 10.4020 0.0000 32.9481 0.0000
# 6 0.0000 0.0000 0.0000 -24.9388 0.0000 37.2166
#
#
#
# Elastic Compliance Matrix: (Units=1/GPa)
#
#
# Indices 1 2 3 4 5 6 
#
# 1 0.015350 -0.010925 0.000166 0.000000 -0.012368 0.000000
# 2 -0.010925 0.023933 -0.006437 0.000000 0.019047 0.000000
# 3 0.000166 -0.006437 0.021197 0.000000 -0.010052 0.000000
# 4 0.000000 0.000000 0.000000 0.010392 0.000000 0.006963
# 5 -0.012368 0.019047 -0.010052 0.000000 0.048678 0.000000
# 6 0.000000 0.000000 0.000000 0.006963 0.000000 0.031536
#
#
# Mechanical properties :
#
#
# Convention : Reuss Voigt Hill
#
# Bulk Modulus (GPa) = 38.33305 43.93186 41.13246
# Shear Modulus (GPa) = 25.75027 47.64337 36.69682
#
# Velocity S-wave (km/s) = 3.50001 4.76080 4.17823
# Velocity P-wave (km/s) = 5.87958 7.14981 6.54558
#
# Compressibility (1/GPa) = 0.02608715
#
# Stress axis : x y z
#
# Youngs Moduli (GPa) = 65.14667 41.78383 47.17705
#
# Poissons Ratio (x) = 0.45649 -0.00783
# Poissons Ratio (y) = 0.71173 0.30368
# Poissons Ratio (z) = -0.01081 0.26896
#
# Static dielectric constant tensor:
#      x y z
#    x 1.733160 0.000000 0.043560 
#    y 0.000000 1.728360 0.000000 
#    z 0.043560 0.000000 1.122250 
# 
# From -- ./inp_files/44999.got.cif
#   From: 2010.05.17/outbox.cif.g08.bks.cpg/sg11_23_cif.got.tgz:44999.got - 2010.06.03 12:22:45.
