data_PCOD9165824
_publ_section_title
;
Structure prediction by ZEFSAII (Michael W. Deem and Ramdas Pophale) SiO2 
 PCOD9165824
Probable space group: P 21/M
;
_chemical_formula_sum "Si O2"
_cell_formula_units_Z 28
_cell_length_a 5.399905
_cell_length_b 27.927319
_cell_length_c 7.690676
_cell_angle_alpha 90.000000
_cell_angle_beta 65.795222
_cell_angle_gamma 90.000000
_cell_volume 1057.829408
_symmetry_space_group_name_H-M "P 21/M"
_symmetry_group_IT_number 11
_symmetry_cell_setting 'monoclinic'
loop_
_space_group_symop_operation_xyz
x,y,z
-x,1/2+y,-z
-x,-y,-z
x,1/2-y,z
loop_
_atom_site_type_symbol
_atom_site_label
_atom_site_fract_x
_atom_site_fract_y
_atom_site_fract_z
Si Si1 0.269131 0.301849 0.050572
Si Si2 0.044072 0.882966 0.998243
Si Si3 0.456911 0.408196 0.370631
Si Si4 0.676470 0.965287 0.244768
Si Si5 0.187222 0.695339 0.245418
Si Si6 0.148309 0.018175 0.286703
Si Si7 0.351900 0.302746 0.415258
O O1 0.139537 0.250000 0.077154
O O2 0.420736 0.303504 0.191037
O O3 0.059269 0.343485 0.105116
O O4 0.487547 0.307626 0.832778
O O5 0.294866 0.908377 0.834792
O O6 0.114538 0.850405 0.146833
O O7 0.806766 0.919835 0.111974
O O8 0.449109 0.444706 0.536386
O O9 0.211455 0.426583 0.315698
O O10 0.445169 0.354679 0.451545
O O11 0.436754 0.990336 0.206020
O O12 0.934028 0.999927 0.207421
O O13 0.150032 0.750000 0.182190
O O14 0.975898 0.695078 0.464100
O O15 0.000000 0.000000 0.500000
O O16 0.439129 0.250000 0.458995
#
# Coordination Sequence:
#
# PCOD9165824 Si02
#       7
#     4   4   4   4   4   4   4
#     4  10  23  40  62  95 135 180 231 286 348 424
#     4  12  25  38  67 101 133 180 232 294 357 414
#     4  11  23  42  68 101 135 185 226 288 356 419
#     4  11  26  47  71 104 143 183 241 295 350 425
#     4  10  21  42  63  91 137 180 224 282 350 421
#     4  10  24  47  73 100 141 190 233 292 359 417
#     4  10  21  40  67  96 132 177 226 282 346 423
#
# _framework density 26.469294999999999
#
# number of rings (size 3 to 8) (size 9 to 14) (size 15 to 20)
#    0.000    1.429    2.857    2.143    2.000    6.286 
#    0.000    0.000    0.000    0.000    0.000    0.000 
#    0.000    0.000    0.000    0.000    0.000    0.000 
#
# Total GULP energy -156520.205703 kJ/mol
# GULP energy per Si atom -5590.007347 kJ/mol
# Density = 2.640905 g / cm^3
# Si number density = 26.469295 Si / 1000 Ang^3
#
#
#
# Elastic Constant Matrix: (Units=GPa)
#
#
# Indices 1 2 3 4 5 6 
#
# 1 88.2685 54.6586 24.1789 0.0000 -19.2213 0.0000
# 2 54.6586 190.4979 27.8051 0.0000 -6.1279 0.0000
# 3 24.1789 27.8051 125.0160 0.0000 -18.0189 0.0000
# 4 0.0000 0.0000 0.0000 39.1128 0.0000 -6.4009
# 5 -19.2213 -6.1279 -18.0189 0.0000 36.1804 0.0000
# 6 0.0000 0.0000 0.0000 -6.4009 0.0000 42.6030
#
#
#
# Elastic Compliance Matrix: (Units=1/GPa)
#
#
# Indices 1 2 3 4 5 6 
#
# 1 0.015733 -0.004125 -0.001100 0.000000 0.007112 0.000000
# 2 -0.004125 0.006511 -0.000870 0.000000 -0.001522 0.000000
# 3 -0.001100 -0.000870 0.008942 0.000000 0.003721 0.000000
# 4 0.000000 0.000000 0.000000 0.026212 0.000000 0.003938
# 5 0.007112 -0.001522 0.003721 0.000000 0.033013 0.000000
# 6 0.000000 0.000000 0.000000 0.003938 0.000000 0.024064
#
#
# Mechanical properties :
#
#
# Convention : Reuss Voigt Hill
#
# Bulk Modulus (GPa) = 52.64296 68.56307 60.60301
# Shear Modulus (GPa) = 37.59485 43.38856 40.49170
#
# Velocity S-wave (km/s) = 3.77280 4.05310 3.91546
# Velocity P-wave (km/s) = 6.23780 6.91828 6.58683
#
# Compressibility (1/GPa) = 0.01899589
#
# Stress axis : x y z
#
# Youngs Moduli (GPa) = 63.55871 153.58788 111.83691
#
# Poissons Ratio (x) = 0.63354 0.12307
# Poissons Ratio (y) = 0.26218 0.09726
# Poissons Ratio (z) = 0.06994 0.13357
#
# Static dielectric constant tensor:
#      x y z
#    x 2.115200 0.000000 0.034520 
#    y 0.000000 2.082280 0.000000 
#    z 0.034520 0.000000 2.036790 
# 
# From -- ./inp_files/10691.got.cif
#   From: 2010.05.17/outbox.cif.g08.bks.cpg/sg11_6_cif.got.tgz:10691.got - 2010.06.03 12:22:45.
