data_PCOD9165654
_publ_section_title
;
Structure prediction by ZEFSAII (Michael W. Deem and Ramdas Pophale) SiO2 
 PCOD9165654
Probable space group: P 21/M
;
_chemical_formula_sum "Si O2"
_cell_formula_units_Z 28
_cell_length_a 22.784274
_cell_length_b 8.954044
_cell_length_c 24.982657
_cell_angle_alpha 90.000000
_cell_angle_beta 16.968766
_cell_angle_gamma 90.000000
_cell_volume 1487.487262
_symmetry_space_group_name_H-M "P 21/M"
_symmetry_group_IT_number 11
_symmetry_cell_setting 'monoclinic'
loop_
_space_group_symop_operation_xyz
x,y,z
-x,1/2+y,-z
-x,-y,-z
x,1/2-y,z
loop_
_atom_site_type_symbol
_atom_site_label
_atom_site_fract_x
_atom_site_fract_y
_atom_site_fract_z
Si Si1 0.872620 0.571502 0.035208
Si Si2 0.291874 0.071147 0.702603
Si Si3 0.814656 0.930345 0.876458
Si Si4 0.056243 0.917592 0.505084
Si Si5 0.376582 0.417519 0.062166
Si Si6 0.244313 0.569706 0.446912
Si Si7 0.657236 0.071647 0.121168
O O1 0.889631 0.750000 0.013497
O O2 0.750802 0.544134 0.196888
O O3 0.756531 0.498315 0.087221
O O4 0.095277 0.500905 0.846278
O O5 0.295378 0.250000 0.691017
O O6 0.500000 0.000000 0.500000
O O7 0.791179 0.750000 0.902430
O O8 0.655886 0.980986 0.968972
O O9 0.039382 0.957652 0.658548
O O10 0.774533 0.011425 0.966738
O O11 0.120981 0.750000 0.434999
O O12 0.209670 0.981164 0.415361
O O13 0.849191 0.908290 0.718500
O O14 0.000000 0.000000 0.500000
O O15 0.457062 0.250000 0.987092
O O16 0.500000 0.500000 0.000000
O O17 0.274666 0.750000 0.418864
O O18 0.431541 0.489438 0.310171
O O19 0.660794 0.250000 0.120478
#
# Coordination Sequence:
#
# PCOD9165654 Si02
#       7
#     4   4   4   4   4   4   4
#     4  10  22  41  63  90 124 163 206 244 285 346
#     4  10  21  39  66  97 129 164 201 243 290 339
#     4   9  20  40  60  78 109 152 196 241 293 358
#     4   9  19  34  52  76 104 135 178 230 287 350
#     4   9  19  34  52  76 104 136 179 231 288 351
#     4   9  20  40  60  78 108 151 196 240 291 358
#     4  12  25  38  59  89 121 156 196 249 302 350
#
# _framework density 18.823691
#
# number of rings (size 3 to 8) (size 9 to 14) (size 15 to 20)
#    0.000    2.286    0.000    3.857    2.000    5.143 
#    0.000    4.286    0.000    0.000    0.000    0.000 
#    0.000    0.000    0.000    0.000    0.000    0.000 
#
# Total GULP energy -156222.667772 kJ/mol
# GULP energy per Si atom -5579.380992 kJ/mol
# Density = 1.878085 g / cm^3
# Si number density = 18.823691 Si / 1000 Ang^3
#
#
#
# Elastic Constant Matrix: (Units=GPa)
#
#
# Indices 1 2 3 4 5 6 
#
# 1 193.5918 91.3466 82.5165 0.0000 -30.1028 0.0000
# 2 91.3466 94.1316 65.9178 0.0000 -10.6416 0.0000
# 3 82.5165 65.9178 138.8491 0.0000 -9.3961 0.0000
# 4 0.0000 0.0000 0.0000 28.5465 0.0000 -3.6713
# 5 -30.1028 -10.6416 -9.3961 0.0000 26.8963 0.0000
# 6 0.0000 0.0000 0.0000 -3.6713 0.0000 33.5352
#
#
#
# Elastic Compliance Matrix: (Units=1/GPa)
#
#
# Indices 1 2 3 4 5 6 
#
# 1 0.011549 -0.008731 -0.002128 0.000000 0.008729 0.000000
# 2 -0.008731 0.022891 -0.005866 0.000000 -0.002764 0.000000
# 3 -0.002128 -0.005866 0.011198 0.000000 -0.000791 0.000000
# 4 0.000000 0.000000 0.000000 0.035531 0.000000 0.003890
# 5 0.008729 -0.002764 -0.000791 0.000000 0.045579 0.000000
# 6 0.000000 0.000000 0.000000 0.003890 0.000000 0.030245
#
#
# Mechanical properties :
#
#
# Convention : Reuss Voigt Hill
#
# Bulk Modulus (GPa) = 82.04044 100.68158 91.36101
# Shear Modulus (GPa) = 25.70608 30.24837 27.97722
#
# Velocity S-wave (km/s) = 3.69944 4.01300 3.85941
# Velocity P-wave (km/s) = 7.86931 8.66458 8.27650
#
# Compressibility (1/GPa) = 0.01218911
#
# Stress axis : x y z
#
# Youngs Moduli (GPa) = 86.58406 43.68525 89.30064
#
# Poissons Ratio (x) = 0.38140 0.19005
# Poissons Ratio (y) = 0.75593 0.52383
# Poissons Ratio (z) = 0.18427 0.25625
#
# Static dielectric constant tensor:
#      x y z
#    x 1.657540 0.000000 0.005450 
#    y 0.000000 1.655010 0.000000 
#    z 0.005450 0.000000 1.660060 
# 
# From -- ./inp_files/69788.got.cif
#   From: 2010.05.17/outbox.cif.g08.bks.cpg/sg11_35_cif.got.tgz:69788.got - 2010.06.03 12:22:45.
