data_PCOD9165444
_publ_section_title
;
Structure prediction by ZEFSAII (Michael W. Deem and Ramdas Pophale) SiO2 
 PCOD9165444
Probable space group: P 21/M
;
_chemical_formula_sum "Si O2"
_cell_formula_units_Z 32
_cell_length_a 14.149961
_cell_length_b 14.470640
_cell_length_c 17.658375
_cell_angle_alpha 90.000000
_cell_angle_beta 157.287486
_cell_angle_gamma 90.000000
_cell_volume 1396.053249
_symmetry_space_group_name_H-M "P 21/M"
_symmetry_group_IT_number 11
_symmetry_cell_setting 'monoclinic'
loop_
_space_group_symop_operation_xyz
x,y,z
-x,1/2+y,-z
-x,-y,-z
x,1/2-y,z
loop_
_atom_site_type_symbol
_atom_site_label
_atom_site_fract_x
_atom_site_fract_y
_atom_site_fract_z
Si Si1 0.406039 0.354798 0.267858
Si Si2 0.487668 0.390522 0.496050
Si Si3 0.887687 0.359411 0.550336
Si Si4 0.120352 0.641782 0.083812
Si Si5 0.767284 0.482002 0.164863
Si Si6 0.956732 0.859652 0.507448
Si Si7 0.523372 0.640303 0.275001
Si Si8 0.941439 0.854733 0.714506
O O1 0.365573 0.250000 0.209410
O O2 0.521571 0.352508 0.437176
O O3 0.616489 0.396250 0.370396
O O4 0.140406 0.399724 0.084651
O O5 0.500000 0.500000 0.500000
O O6 0.692989 0.359652 0.707335
O O7 0.217837 0.365378 0.327454
O O8 0.899756 0.250000 0.578311
O O9 0.089156 0.421778 0.739876
O O10 0.949534 0.369811 0.507879
O O11 0.069568 0.750000 0.028780
O O12 0.274489 0.601511 0.126900
O O13 0.887819 0.421366 0.321176
O O14 0.837380 0.422800 0.141929
O O15 0.500000 0.500000 0.000000
O O16 0.975828 0.750000 0.540748
O O17 0.673831 0.888919 0.312057
O O18 0.478029 0.750000 0.232849
O O19 0.729686 0.630542 0.493874
O O20 0.030238 0.750000 0.774891
#
# Coordination Sequence:
#
# PCOD9165444 Si02
#       8
#     4   4   4   4   4   4   4   4
#     4  10  21  39  60  85 119 161 206 248 295 366
#     4  11  21  36  59  89 128 162 200 252 318 376
#     4  10  22  40  58  84 124 163 201 249 310 378
#     4   9  18  35  59  86 113 154 206 250 298 362
#     4  11  22  38  60  89 120 155 204 261 318 374
#     4   9  18  37  63  86 114 158 201 247 311 372
#     4   7  12  27  55  83 106 138 189 246 296 349
#     4   9  18  36  60  84 116 159 204 254 312 375
#
# _framework density 22.921762000000001
#
# number of rings (size 3 to 8) (size 9 to 14) (size 15 to 20)
#    0.000    2.500    0.000    4.125    0.000    1.500 
#    6.750    0.000    0.000    0.000    0.000    0.000 
#    0.000    0.000    0.000    0.000    0.000    0.000 
#
# Total GULP energy -178637.032201 kJ/mol
# GULP energy per Si atom -5582.407256 kJ/mol
# Density = 2.286959 g / cm^3
# Si number density = 22.921762 Si / 1000 Ang^3
#
#
#
# Elastic Constant Matrix: (Units=GPa)
#
#
# Indices 1 2 3 4 5 6 
#
# 1 120.8381 18.2787 58.8761 0.0000 52.1442 0.0000
# 2 18.2787 86.9577 23.9879 0.0000 18.8200 0.0000
# 3 58.8761 23.9879 150.5145 0.0000 54.9841 0.0000
# 4 0.0000 0.0000 0.0000 21.6445 0.0000 6.6123
# 5 52.1442 18.8200 54.9841 0.0000 53.9026 0.0000
# 6 0.0000 0.0000 0.0000 6.6123 0.0000 10.6466
#
#
#
# Elastic Compliance Matrix: (Units=1/GPa)
#
#
# Indices 1 2 3 4 5 6 
#
# 1 0.014275 0.000038 -0.000861 0.000000 -0.012944 0.000000
# 2 0.000038 0.012478 -0.000635 0.000000 -0.003746 0.000000
# 3 -0.000861 -0.000635 0.010674 0.000000 -0.009833 0.000000
# 4 0.000000 0.000000 0.000000 0.057020 0.000000 -0.035413
# 5 -0.012944 -0.003746 -0.009833 0.000000 0.042412 0.000000
# 6 0.000000 0.000000 0.000000 -0.035413 0.000000 0.115921
#
#
# Mechanical properties :
#
#
# Convention : Reuss Voigt Hill
#
# Bulk Modulus (GPa) = 28.97677 62.28843 45.63260
# Shear Modulus (GPa) = 18.71259 34.38323 26.54791
#
# Velocity S-wave (km/s) = 2.86031 3.87722 3.40692
# Velocity P-wave (km/s) = 4.85567 6.87584 5.95209
#
# Compressibility (1/GPa) = 0.03451040
#
# Stress axis : x y z
#
# Youngs Moduli (GPa) = 70.05189 80.14303 93.68329
#
# Poissons Ratio (x) = -0.00308 0.08071
# Poissons Ratio (y) = -0.00269 0.05952
# Poissons Ratio (z) = 0.06035 0.05091
#
# Static dielectric constant tensor:
#      x y z
#    x 1.920520 0.000000 -0.001140 
#    y 0.000000 1.907660 0.000000 
#    z -0.001140 0.000000 1.894230 
# 
# From -- ./inp_files/65804.got.cif
#   From: 2010.05.17/outbox.cif.g08.bks.cpg/sg11_33_cif.got.tgz:65804.got - 2010.06.03 12:22:45.
