data_PCOD9165150
_publ_section_title
;
Structure prediction by ZEFSAII (Michael W. Deem and Ramdas Pophale) SiO2 
 PCOD9165150
Probable space group: P 21/M
;
_chemical_formula_sum "Si O2"
_cell_formula_units_Z 32
_cell_length_a 13.766355
_cell_length_b 9.140864
_cell_length_c 21.205327
_cell_angle_alpha 90.000000
_cell_angle_beta 145.916231
_cell_angle_gamma 90.000000
_cell_volume 1495.383964
_symmetry_space_group_name_H-M "P 21/M"
_symmetry_group_IT_number 11
_symmetry_cell_setting 'monoclinic'
loop_
_space_group_symop_operation_xyz
x,y,z
-x,1/2+y,-z
-x,-y,-z
x,1/2-y,z
loop_
_atom_site_type_symbol
_atom_site_label
_atom_site_fract_x
_atom_site_fract_y
_atom_site_fract_z
Si Si1 0.630677 0.925594 0.459366
Si Si2 0.252179 0.584857 0.276997
Si Si3 0.595615 0.078626 0.305747
Si Si4 0.657843 0.080269 0.050574
Si Si5 0.911272 0.078485 0.087674
Si Si6 0.012080 0.919417 0.680536
Si Si7 0.739676 0.413600 0.869666
Si Si8 0.873982 0.576559 0.382068
O O1 0.610193 0.750000 0.438390
O O2 0.448009 0.974882 0.391894
O O3 0.812341 0.949447 0.592624
O O4 0.647513 0.003758 0.400423
O O5 0.244381 0.750000 0.297879
O O6 0.231046 0.590416 0.189230
O O7 0.083572 0.496433 0.206168
O O8 0.636275 0.250000 0.328055
O O9 0.393748 0.044088 0.191410
O O10 0.690629 0.995162 0.300410
O O11 0.606281 0.250000 0.016128
O O12 0.732332 0.024068 0.023634
O O13 0.833700 0.071706 0.186572
O O14 0.500000 0.000000 0.000000
O O15 0.923820 0.250000 0.109698
O O16 0.892594 0.066988 0.002051
O O17 0.011271 0.750000 0.656416
O O18 0.062219 0.028927 0.651925
O O19 0.665128 0.250000 0.844817
O O20 0.871969 0.750000 0.388798
O O21 0.000000 0.500000 0.500000
#
# Coordination Sequence:
#
# PCOD9165150 Si02
#       8
#     4   4   4   4   4   4   4   4
#     4   9  18  35  57  81 115 153 185 231 292 349
#     4   9  18  33  56  87 118 151 192 238 295 357
#     4  11  21  32  50  82 118 152 191 233 287 350
#     4  10  24  44  63  86 114 152 203 251 300 349
#     4  10  21  38  59  83 115 156 198 246 300 349
#     4  10  21  39  61  82 112 153 198 245 295 351
#     4   9  19  35  55  82 119 158 194 234 293 353
#     4  12  23  35  54  83 118 152 192 238 293 354
#
# _framework density 21.399187000000001
#
# number of rings (size 3 to 8) (size 9 to 14) (size 15 to 20)
#    0.000    2.000    1.250    3.375    1.750    3.500 
#    0.000    0.625    0.000    0.000    0.000    0.000 
#    0.000    0.000    0.000    0.000    0.000    0.000 
#
# Total GULP energy -178502.801915 kJ/mol
# GULP energy per Si atom -5578.212560 kJ/mol
# Density = 2.135048 g / cm^3
# Si number density = 21.399187 Si / 1000 Ang^3
#
#
#
# Elastic Constant Matrix: (Units=GPa)
#
#
# Indices 1 2 3 4 5 6 
#
# 1 63.1095 23.1204 20.6743 0.0000 20.9597 0.0000
# 2 23.1204 74.4920 24.5003 0.0000 12.2412 0.0000
# 3 20.6743 24.5003 77.2429 0.0000 18.5996 0.0000
# 4 0.0000 0.0000 0.0000 24.6893 0.0000 10.9950
# 5 20.9597 12.2412 18.5996 0.0000 40.0174 0.0000
# 6 0.0000 0.0000 0.0000 10.9950 0.0000 24.8247
#
#
#
# Elastic Compliance Matrix: (Units=1/GPa)
#
#
# Indices 1 2 3 4 5 6 
#
# 1 0.021042 -0.004399 -0.002147 0.000000 -0.008678 0.000000
# 2 -0.004399 0.016166 -0.003732 0.000000 -0.000907 0.000000
# 3 -0.002147 -0.003732 0.015943 0.000000 -0.005144 0.000000
# 4 0.000000 0.000000 0.000000 0.050455 0.000000 -0.022347
# 5 -0.008678 -0.000907 -0.005144 0.000000 0.032202 0.000000
# 6 0.000000 0.000000 0.000000 -0.022347 0.000000 0.050180
#
#
# Mechanical properties :
#
#
# Convention : Reuss Voigt Hill
#
# Bulk Modulus (GPa) = 30.67902 39.04827 34.86365
# Shear Modulus (GPa) = 22.99796 27.67625 25.33711
#
# Velocity S-wave (km/s) = 3.28184 3.60019 3.44469
# Velocity P-wave (km/s) = 5.35988 5.96398 5.66998
#
# Compressibility (1/GPa) = 0.03259556
#
# Stress axis : x y z
#
# Youngs Moduli (GPa) = 47.52306 61.85848 62.72247
#
# Poissons Ratio (x) = 0.27210 0.13468
# Poissons Ratio (y) = 0.20904 0.23408
# Poissons Ratio (z) = 0.10205 0.23085
#
# Static dielectric constant tensor:
#      x y z
#    x 1.832070 0.000000 0.022880 
#    y 0.000000 1.723330 0.000000 
#    z 0.022880 0.000000 1.819080 
# 
# From -- ./inp_files/56157.got.cif
#   From: 2010.05.17/outbox.cif.g08.bks.cpg/sg11_29_cif.got.tgz:56157.got - 2010.06.03 12:22:45.
