data_PCOD9165299
_publ_section_title
;
Structure prediction by ZEFSAII (Michael W. Deem and Ramdas Pophale) SiO2 
 PCOD9165299
Probable space group: P 21/M
;
_chemical_formula_sum "Si O2"
_cell_formula_units_Z 24
_cell_length_a 21.422818
_cell_length_b 13.149837
_cell_length_c 11.992588
_cell_angle_alpha 90.000000
_cell_angle_beta 20.618799
_cell_angle_gamma 90.000000
_cell_volume 1189.696102
_symmetry_space_group_name_H-M "P 21/M"
_symmetry_group_IT_number 11
_symmetry_cell_setting 'monoclinic'
loop_
_space_group_symop_operation_xyz
x,y,z
-x,1/2+y,-z
-x,-y,-z
x,1/2-y,z
loop_
_atom_site_type_symbol
_atom_site_label
_atom_site_fract_x
_atom_site_fract_y
_atom_site_fract_z
Si Si1 0.430417 0.133574 0.795504
Si Si2 0.099633 0.128114 0.725490
Si Si3 0.098859 0.058368 0.475210
Si Si4 0.600436 0.868863 0.411131
Si Si5 0.744673 0.004579 0.347985
Si Si6 0.204605 0.868354 0.166355
O O1 0.488923 0.250000 0.701243
O O2 0.429123 0.102296 0.668056
O O3 0.563271 0.066872 0.646328
O O4 0.234880 0.120689 0.170188
O O5 0.107060 0.250000 0.718984
O O6 0.131126 0.089564 0.547490
O O7 0.233390 0.073712 0.587388
O O8 0.905826 0.084060 0.080906
O O9 0.904883 0.090971 0.757462
O O10 0.141976 0.941699 0.371103
O O11 0.653574 0.750000 0.323688
O O12 0.741147 0.938177 0.240282
O O13 0.412919 0.876784 0.790061
O O14 0.164490 0.750000 0.252778
#
# Coordination Sequence:
#
# PCOD9165299 Si02
#       6
#     4   4   4   4   4   4
#     4  11  22  37  62  94 126 158 202 254 306 360
#     4  11  25  44  63  85 123 166 204 251 308 367
#     4  11  23  39  61  91 128 163 199 247 311 365
#     4  10  21  39  63  92 126 161 200 250 304 358
#     4  11  23  41  64  88 115 161 215 249 297 358
#     4  10  21  38  61  91 126 163 202 248 305 362
#
# _framework density 20.173220000000001
#
# number of rings (size 3 to 8) (size 9 to 14) (size 15 to 20)
#    0.000    1.333    1.667    4.000    4.667    2.000 
#    0.000    4.167    0.000    0.000    0.000    0.000 
#    0.000    0.000    0.000    0.000    0.000    0.000 
#
# Total GULP energy -134174.574982 kJ/mol
# GULP energy per Si atom -5590.607291 kJ/mol
# Density = 2.012730 g / cm^3
# Si number density = 20.173220 Si / 1000 Ang^3
#
#
#
# Elastic Constant Matrix: (Units=GPa)
#
#
# Indices 1 2 3 4 5 6 
#
# 1 126.9131 80.3798 18.4396 0.0000 -3.7277 0.0000
# 2 80.3798 166.8168 13.9764 0.0000 3.2542 0.0000
# 3 18.4396 13.9764 11.8255 0.0000 0.0075 0.0000
# 4 0.0000 0.0000 0.0000 27.5690 0.0000 -1.3959
# 5 -3.7277 3.2542 0.0075 0.0000 27.5121 0.0000
# 6 0.0000 0.0000 0.0000 -1.3959 0.0000 27.7674
#
#
#
# Elastic Compliance Matrix: (Units=1/GPa)
#
#
# Indices 1 2 3 4 5 6 
#
# 1 0.013439 -0.005291 -0.014703 0.000000 0.002451 0.000000
# 2 -0.005291 0.008754 -0.002094 0.000000 -0.001752 0.000000
# 3 -0.014703 -0.002094 0.109966 0.000000 -0.001774 0.000000
# 4 0.000000 0.000000 0.000000 0.036365 0.000000 0.001828
# 5 0.002451 -0.001752 -0.001774 0.000000 0.036887 0.000000
# 6 0.000000 0.000000 0.000000 0.001828 0.000000 0.036105
#
#
# Mechanical properties :
#
#
# Convention : Reuss Voigt Hill
#
# Bulk Modulus (GPa) = 11.36599 59.01630 35.19115
# Shear Modulus (GPa) = 15.87194 29.42034 22.64614
#
# Velocity S-wave (km/s) = 2.80801 3.82302 3.35413
# Velocity P-wave (km/s) = 4.01991 6.98610 5.69935
#
# Compressibility (1/GPa) = 0.08798177
#
# Stress axis : x y z
#
# Youngs Moduli (GPa) = 74.41053 114.23529 9.09371
#
# Poissons Ratio (x) = 0.60447 0.13371
# Poissons Ratio (y) = 0.39374 0.01904
# Poissons Ratio (z) = 1.09407 0.23921
#
# Static dielectric constant tensor:
#      x y z
#    x 1.685010 0.000000 -0.003870 
#    y 0.000000 1.745640 0.000000 
#    z -0.003870 0.000000 1.703490 
# 
# From -- ./inp_files/43415.got.cif
#   From: 2010.05.17/outbox.cif.g08.bks.cpg/sg11_22_cif.got.tgz:43415.got - 2010.06.03 12:22:45.
