data_PCOD9165036
_publ_section_title
;
Structure prediction by ZEFSAII (Michael W. Deem and Ramdas Pophale) SiO2 
 PCOD9165036
Probable space group: P 21/M
;
_chemical_formula_sum "Si O2"
_cell_formula_units_Z 32
_cell_length_a 8.572285
_cell_length_b 15.436753
_cell_length_c 21.870295
_cell_angle_alpha 90.000000
_cell_angle_beta 148.294757
_cell_angle_gamma 90.000000
_cell_volume 1520.970633
_symmetry_space_group_name_H-M "P 21/M"
_symmetry_group_IT_number 11
_symmetry_cell_setting 'monoclinic'
loop_
_space_group_symop_operation_xyz
x,y,z
-x,1/2+y,-z
-x,-y,-z
x,1/2-y,z
loop_
_atom_site_type_symbol
_atom_site_label
_atom_site_fract_x
_atom_site_fract_y
_atom_site_fract_z
Si Si1 0.447868 0.149009 0.233710
Si Si2 0.910116 0.097897 0.486364
Si Si3 0.497569 0.342614 0.744558
Si Si4 0.417460 0.025039 0.404095
Si Si5 0.771256 0.157155 0.710396
Si Si6 0.944902 0.079468 0.159386
Si Si7 0.643328 0.497460 0.882771
Si Si8 0.625551 0.588391 0.085661
O O1 0.386333 0.250000 0.201761
O O2 0.745241 0.138948 0.373350
O O3 0.189267 0.107531 0.191041
O O4 0.463967 0.090219 0.178537
O O5 0.672073 0.084994 0.460909
O O6 0.191729 0.148576 0.605119
O O7 0.000000 0.000000 0.500000
O O8 0.506693 0.250000 0.780761
O O9 0.748018 0.342424 0.775993
O O10 0.534360 0.425277 0.798629
O O11 0.113433 0.073659 0.281033
O O12 0.500000 0.000000 0.500000
O O13 0.394439 0.930045 0.365137
O O14 0.645817 0.250000 0.647121
O O15 0.113318 0.150178 0.804431
O O16 0.814796 0.982096 0.110035
O O17 0.640228 0.129868 0.042592
O O18 0.515685 0.463460 0.904286
O O19 0.000000 0.500000 0.000000
#
# Coordination Sequence:
#
# PCOD9165036 Si02
#       8
#     4   4   4   4   4   4   4   4
#     4  11  23  42  65  94 129 169 216 263 319 383
#     4  11  20  39  68  89 123 170 215 256 327 379
#     4  11  24  43  66  97 129 168 219 270 318 383
#     4  10  21  37  62  93 121 162 209 256 317 382
#     4  10  22  40  62  90 128 166 212 265 316 380
#     4   9  20  40  63  84 121 166 209 254 307 381
#     4  12  24  40  66  95 131 169 207 269 324 372
#     4  10  21  38  66  89 120 171 217 251 323 382
#
# _framework density 21.039196
#
# number of rings (size 3 to 8) (size 9 to 14) (size 15 to 20)
#    0.000    1.500    3.750    1.875    5.250    1.500 
#    0.000    3.125    0.000    0.000    0.000    0.000 
#    0.000    0.000    0.000    0.000    0.000    0.000 
#
# Total GULP energy -178356.160362 kJ/mol
# GULP energy per Si atom -5573.630011 kJ/mol
# Density = 2.099131 g / cm^3
# Si number density = 21.039196 Si / 1000 Ang^3
#
#
#
# Elastic Constant Matrix: (Units=GPa)
#
#
# Indices 1 2 3 4 5 6 
#
# 1 70.0981 30.3520 40.4530 0.0000 -5.4405 0.0000
# 2 30.3520 116.8140 16.0485 0.0000 -3.6226 0.0000
# 3 40.4530 16.0485 106.0453 0.0000 3.5205 0.0000
# 4 0.0000 0.0000 0.0000 9.6637 0.0000 7.0003
# 5 -5.4405 -3.6226 3.5205 0.0000 35.0780 0.0000
# 6 0.0000 0.0000 0.0000 7.0003 0.0000 4.5949
#
#
#
# Elastic Compliance Matrix: (Units=1/GPa)
#
#
# Indices 1 2 3 4 5 6 
#
# 1 0.020605 -0.004238 -0.007335 0.000000 0.003494 0.000000
# 2 -0.004238 0.009652 0.000145 0.000000 0.000325 0.000000
# 3 -0.007335 0.000145 0.012284 0.000000 -0.002355 0.000000
# 4 0.000000 0.000000 0.000000 -0.998704 0.000000 1.521529
# 5 0.003494 0.000325 -0.002355 0.000000 0.029320 0.000000
# 6 0.000000 0.000000 0.000000 1.521529 0.000000 -2.100424
#
#
# Mechanical properties :
#
#
# Convention : Reuss Voigt Hill
#
# Bulk Modulus (GPa) = 50.79759 51.85159 51.32459
# Shear Modulus (GPa) = -1.66786 23.60759 10.96986
#
# Velocity S-wave (km/s) = -0.89133 3.35338 2.28590
# Velocity P-wave (km/s) = 4.81014 6.30018 5.60489
#
# Compressibility (1/GPa) = 0.01968597
#
# Stress axis : x y z
#
# Youngs Moduli (GPa) = 48.53283 103.60708 81.40577
#
# Poissons Ratio (x) = 0.43906 0.59709
# Poissons Ratio (y) = 0.20567 -0.01181
# Poissons Ratio (z) = 0.35597 -0.01503
#
# Static dielectric constant tensor:
#      x y z
#    x 1.782920 0.000000 0.018430 
#    y 0.000000 1.758920 0.000000 
#    z 0.018430 0.000000 1.831260 
# 
# From -- ./inp_files/68152.got.cif
#   From: 2010.05.17/outbox.cif.g08.bks.cpg/sg11_35_cif.got.tgz:68152.got - 2010.06.03 12:22:45.
