data_PCOD9165368
_publ_section_title
;
Structure prediction by ZEFSAII (Michael W. Deem and Ramdas Pophale) SiO2 
 PCOD9165368
Probable space group: P 21/M
;
_chemical_formula_sum "Si O2"
_cell_formula_units_Z 32
_cell_length_a 31.736644
_cell_length_b 8.899037
_cell_length_c 12.239458
_cell_angle_alpha 90.000000
_cell_angle_beta 29.766337
_cell_angle_gamma 90.000000
_cell_volume 1716.145056
_symmetry_space_group_name_H-M "P 21/M"
_symmetry_group_IT_number 11
_symmetry_cell_setting 'monoclinic'
loop_
_space_group_symop_operation_xyz
x,y,z
-x,1/2+y,-z
-x,-y,-z
x,1/2-y,z
loop_
_atom_site_type_symbol
_atom_site_label
_atom_site_fract_x
_atom_site_fract_y
_atom_site_fract_z
Si Si1 0.406503 0.571165 0.208295
Si Si2 0.745885 0.928872 0.322884
Si Si3 0.528009 0.070813 0.552273
Si Si4 0.712141 0.570816 0.155103
Si Si5 0.220658 0.929709 0.217629
Si Si6 0.112765 0.571488 0.841515
Si Si7 0.378369 0.571577 0.021286
Si Si8 0.915889 0.571684 0.326886
O O1 0.411770 0.750000 0.215190
O O2 0.344112 0.495292 0.435412
O O3 0.500000 0.500000 0.000000
O O4 0.367654 0.546459 0.174374
O O5 0.745511 0.750000 0.340907
O O6 0.758131 0.957924 0.166667
O O7 0.818448 0.004511 0.231832
O O8 0.531817 0.250000 0.535155
O O9 0.500000 0.000000 0.500000
O O10 0.619776 0.004038 0.371519
O O11 0.458636 0.020146 0.796726
O O12 0.702586 0.750000 0.162969
O O13 0.757793 0.502374 0.947004
O O14 0.217802 0.750000 0.214338
O O15 0.134414 0.992592 0.462826
O O16 0.296604 0.967273 0.132242
O O17 0.125366 0.750000 0.800747
O O18 0.117727 0.494993 0.711809
O O19 0.017033 0.544674 0.100095
O O20 0.395143 0.750000 0.967990
O O21 0.901523 0.750000 0.362187
#
# Coordination Sequence:
#
# PCOD9165368 Si02
#       8
#     4   4   4   4   4   4   4   4
#     4  11  23  39  59  85 120 156 196 246 295 352
#     4  11  24  41  62  87 119 159 201 245 298 357
#     4  12  23  36  57  83 113 153 198 244 293 348
#     4  11  24  41  59  83 118 157 199 248 297 352
#     4  11  22  37  60  88 117 152 196 245 298 352
#     4  10  21  39  64  93 122 156 197 241 292 353
#     4  10  22  38  56  82 115 150 193 244 295 347
#     4  10  21  38  63  93 125 155 190 241 298 354
#
# _framework density 18.646443000000001
#
# number of rings (size 3 to 8) (size 9 to 14) (size 15 to 20)
#    0.000    1.250    1.250    4.875    0.000    9.000 
#    0.000    0.625    0.000    0.000    0.000    0.000 
#    0.000    0.000    0.000    0.000    0.000    0.000 
#
# Total GULP energy -178988.131461 kJ/mol
# GULP energy per Si atom -5593.379108 kJ/mol
# Density = 1.860400 g / cm^3
# Si number density = 18.646443 Si / 1000 Ang^3
#
#
#
# Elastic Constant Matrix: (Units=GPa)
#
#
# Indices 1 2 3 4 5 6 
#
# 1 93.1627 47.4843 38.9907 0.0000 0.8724 0.0000
# 2 47.4843 78.7462 52.5400 0.0000 7.0668 0.0000
# 3 38.9907 52.5400 91.0512 0.0000 14.6415 0.0000
# 4 0.0000 0.0000 0.0000 35.9253 0.0000 0.9463
# 5 0.8724 7.0668 14.6415 0.0000 26.5630 0.0000
# 6 0.0000 0.0000 0.0000 0.9463 0.0000 31.6746
#
#
#
# Elastic Compliance Matrix: (Units=1/GPa)
#
#
# Indices 1 2 3 4 5 6 
#
# 1 0.015957 -0.008144 -0.002631 0.000000 0.003093 0.000000
# 2 -0.008144 0.024839 -0.010782 0.000000 -0.000398 0.000000
# 3 -0.002631 -0.010782 0.019592 0.000000 -0.007845 0.000000
# 4 0.000000 0.000000 0.000000 0.027857 0.000000 -0.000832
# 5 0.003093 -0.000398 -0.007845 0.000000 0.041975 0.000000
# 6 0.000000 0.000000 0.000000 -0.000832 0.000000 0.031596
#
#
# Mechanical properties :
#
#
# Convention : Reuss Voigt Hill
#
# Bulk Modulus (GPa) = 57.88759 60.11000 58.99879
# Shear Modulus (GPa) = 23.73162 27.09558 25.41360
#
# Velocity S-wave (km/s) = 3.57138 3.81612 3.69578
# Velocity P-wave (km/s) = 6.93676 7.19192 7.06549
#
# Compressibility (1/GPa) = 0.01727486
#
# Stress axis : x y z
#
# Youngs Moduli (GPa) = 62.66757 40.25863 51.04023
#
# Poissons Ratio (x) = 0.32788 0.13429
# Poissons Ratio (y) = 0.51039 0.55030
# Poissons Ratio (z) = 0.16488 0.43405
#
# Static dielectric constant tensor:
#      x y z
#    x 1.636700 0.000000 0.004860 
#    y 0.000000 1.620550 0.000000 
#    z 0.004860 0.000000 1.627750 
# 
# From -- ./inp_files/45190.got.cif
#   From: 2010.05.17/outbox.cif.g08.bks.cpg/sg11_23_cif.got.tgz:45190.got - 2010.06.03 12:22:45.
