data_PCOD9165399
_publ_section_title
;
Structure prediction by ZEFSAII (Michael W. Deem and Ramdas Pophale) SiO2 
 PCOD9165399
Probable space group: P 21/M
;
_chemical_formula_sum "Si O2"
_cell_formula_units_Z 28
_cell_length_a 8.617207
_cell_length_b 15.439449
_cell_length_c 11.744171
_cell_angle_alpha 90.000000
_cell_angle_beta 123.895228
_cell_angle_gamma 90.000000
_cell_volume 1296.968754
_symmetry_space_group_name_H-M "P 21/M"
_symmetry_group_IT_number 11
_symmetry_cell_setting 'monoclinic'
loop_
_space_group_symop_operation_xyz
x,y,z
-x,1/2+y,-z
-x,-y,-z
x,1/2-y,z
loop_
_atom_site_type_symbol
_atom_site_label
_atom_site_fract_x
_atom_site_fract_y
_atom_site_fract_z
Si Si1 0.285796 0.518478 0.951093
Si Si2 0.371068 0.987664 0.233321
Si Si3 0.045593 0.589538 0.653360
Si Si4 0.400536 0.647421 0.650741
Si Si5 0.815711 0.430471 0.623914
Si Si6 0.314158 0.154390 0.610366
Si Si7 0.158819 0.158784 0.805632
O O1 0.164459 0.581366 0.819776
O O2 0.201590 0.423337 0.899365
O O3 0.500000 0.500000 0.000000
O O4 0.286197 0.547916 0.081354
O O5 0.234164 0.983468 0.283834
O O6 0.544738 0.925853 0.338780
O O7 0.440882 0.084742 0.234604
O O8 0.205866 0.624031 0.634298
O O9 0.953352 0.493125 0.607246
O O10 0.860565 0.644712 0.547727
O O11 0.433730 0.750000 0.665063
O O12 0.366549 0.604755 0.513201
O O13 0.937035 0.346428 0.700504
O O14 0.399592 0.250000 0.628180
O O15 0.242333 0.150839 0.712282
O O16 0.224227 0.250000 0.880702
#
# Coordination Sequence:
#
# PCOD9165399 Si02
#       7
#     4   4   4   4   4   4   4
#     4  11  22  41  67  94 133 177 218 267 331 394
#     4  12  25  44  64 100 137 180 214 269 335 399
#     4  11  22  41  67  95 127 169 221 274 320 386
#     4  12  23  39  67  99 129 170 221 274 325 383
#     4  11  23  40  67  95 134 172 218 275 336 388
#     4  11  22  40  67  98 131 171 226 277 323 382
#     4  10  21  38  65  96 127 172 227 272 320 392
#
# _framework density 21.588801
#
# number of rings (size 3 to 8) (size 9 to 14) (size 15 to 20)
#    0.000    0.857    5.714    2.571    0.000    4.000 
#    0.000    2.143    0.000    3.429    0.000    0.000 
#    0.000    0.000    0.000    0.000    0.000    0.000 
#
# Total GULP energy -156107.824627 kJ/mol
# GULP energy per Si atom -5575.279451 kJ/mol
# Density = 2.153966 g / cm^3
# Si number density = 21.588801 Si / 1000 Ang^3
#
#
#
# Elastic Constant Matrix: (Units=GPa)
#
#
# Indices 1 2 3 4 5 6 
#
# 1 46.1965 27.5276 15.3161 0.0000 -7.5434 0.0000
# 2 27.5276 130.6252 15.1973 0.0000 -4.6425 0.0000
# 3 15.3161 15.1973 110.9851 0.0000 -4.8198 0.0000
# 4 0.0000 0.0000 0.0000 16.4327 0.0000 1.5811
# 5 -7.5434 -4.6425 -4.8198 0.0000 23.1380 0.0000
# 6 0.0000 0.0000 0.0000 1.5811 0.0000 4.7573
#
#
#
# Elastic Compliance Matrix: (Units=1/GPa)
#
#
# Indices 1 2 3 4 5 6 
#
# 1 0.026720 -0.005065 -0.002684 0.000000 0.007136 0.000000
# 2 -0.005065 0.008782 -0.000503 0.000000 0.000006 0.000000
# 3 -0.002684 -0.000503 0.009493 0.000000 0.001002 0.000000
# 4 0.000000 0.000000 0.000000 0.062864 0.000000 -0.020893
# 5 0.007136 0.000006 0.001002 0.000000 0.045755 0.000000
# 6 0.000000 0.000000 0.000000 -0.020893 0.000000 0.217147
#
#
# Mechanical properties :
#
#
# Convention : Reuss Voigt Hill
#
# Bulk Modulus (GPa) = 35.09988 44.87654 39.98821
# Shear Modulus (GPa) = 12.60202 24.18333 18.39267
#
# Velocity S-wave (km/s) = 2.41867 3.35054 2.92199
# Velocity P-wave (km/s) = 4.90853 5.98333 5.47238
#
# Compressibility (1/GPa) = 0.02849012
#
# Stress axis : x y z
#
# Youngs Moduli (GPa) = 37.42544 113.87404 105.34074
#
# Poissons Ratio (x) = 0.57677 0.28272
# Poissons Ratio (y) = 0.18956 0.05301
# Poissons Ratio (z) = 0.10045 0.05731
#
# Static dielectric constant tensor:
#      x y z
#    x 1.832280 0.000000 0.038800 
#    y 0.000000 1.812170 0.000000 
#    z 0.038800 0.000000 1.909760 
# 
# From -- ./inp_files/31946.got.cif
#   From: 2010.05.17/outbox.cif.g08.bks.cpg/sg11_16_cif.got.tgz:31946.got - 2010.06.03 12:22:45.
