data_PCOD9165415
_publ_section_title
;
Structure prediction by ZEFSAII (Michael W. Deem and Ramdas Pophale) SiO2 
 PCOD9165415
Probable space group: P 21/M
;
_chemical_formula_sum "Si O2"
_cell_formula_units_Z 18
_cell_length_a 11.575837
_cell_length_b 15.631156
_cell_length_c 8.695269
_cell_angle_alpha 90.000000
_cell_angle_beta 139.257001
_cell_angle_gamma 90.000000
_cell_volume 1026.876693
_symmetry_space_group_name_H-M "P 21/M"
_symmetry_group_IT_number 11
_symmetry_cell_setting 'monoclinic'
loop_
_space_group_symop_operation_xyz
x,y,z
-x,1/2+y,-z
-x,-y,-z
x,1/2-y,z
loop_
_atom_site_type_symbol
_atom_site_label
_atom_site_fract_x
_atom_site_fract_y
_atom_site_fract_z
Si Si1 0.669624 0.250000 0.809755
Si Si2 0.380598 0.250000 0.254256
Si Si3 0.324609 0.593980 0.952016
Si Si4 0.065534 0.348022 0.479749
Si Si5 0.388895 0.401535 0.019282
Si Si6 0.912703 0.750000 0.788310
O O1 0.542714 0.250000 0.536621
O O2 0.638550 0.167192 0.885601
O O3 0.876821 0.250000 0.972771
O O4 0.386661 0.333029 0.152198
O O5 0.203889 0.250000 0.179139
O O6 0.439366 0.610356 0.914946
O O7 0.116088 0.600148 0.703833
O O8 0.377083 0.499584 0.061199
O O9 0.024693 0.250000 0.491807
O O10 0.125941 0.330738 0.364003
O O11 0.220053 0.385363 0.738495
#
# Coordination Sequence:
#
# PCOD9165415 Si02
#       6
#     2   2   4   4   4   2
#     4  10  21  39  57  73 115 156 180 214 272 336
#     4  12  22  34  54  84 116 142 178 228 272 322
#     4  10  21  39  59  81 109 147 186 223 275 327
#     4   9  18  37  61  76 104 149 185 222 274 320
#     4  11  22  34  58  89 110 137 185 236 273 316
#     4   8  19  35  55  77 103 152 186 206 276 330
#
# _framework density 17.528880999999998
#
# number of rings (size 3 to 8) (size 9 to 14) (size 15 to 20)
#    0.667    1.333    2.222    2.667    0.000    2.667 
#    0.000    4.444    0.000    0.000    0.000    0.000 
#    0.000    0.000    0.000    0.000    0.000    0.000 
#
# Total GULP energy -100369.435933 kJ/mol
# GULP energy per Si atom -5576.079774 kJ/mol
# Density = 1.748898 g / cm^3
# Si number density = 17.528881 Si / 1000 Ang^3
#
#
#
# Elastic Constant Matrix: (Units=GPa)
#
#
# Indices 1 2 3 4 5 6 
#
# 1 114.0579 81.1304 64.1032 0.0000 -13.1679 0.0000
# 2 81.1304 120.4554 43.7162 0.0000 -16.7493 0.0000
# 3 64.1032 43.7162 -12.7738 0.0000 2.8064 0.0000
# 4 0.0000 0.0000 0.0000 2.5917 0.0000 8.9643
# 5 -13.1679 -16.7493 2.8064 0.0000 9.0300 0.0000
# 6 0.0000 0.0000 0.0000 8.9643 0.0000 11.6481
#
#
#
# Elastic Compliance Matrix: (Units=1/GPa)
#
#
# Indices 1 2 3 4 5 6 
#
# 1 0.010747 -0.012225 0.009881 0.000000 -0.010075 0.000000
# 2 -0.012225 0.017684 0.002301 0.000000 0.014258 0.000000
# 3 0.009881 0.002301 -0.015656 0.000000 0.023541 0.000000
# 4 0.000000 0.000000 0.000000 -0.232168 0.000000 0.178676
# 5 -0.010075 0.014258 0.023541 0.000000 0.115181 0.000000
# 6 0.000000 0.000000 0.000000 0.178676 0.000000 -0.051657
#
#
# Mechanical properties :
#
#
# Convention : Reuss Voigt Hill
#
# Bulk Modulus (GPa) = 78.82641 66.62658 72.72650
# Shear Modulus (GPa) = -32.99200 6.83992 -13.07604
#
# Velocity S-wave (km/s) = -4.34308 1.97751 -2.73421
# Velocity P-wave (km/s) = 4.46287 6.58074 5.62243
#
# Compressibility (1/GPa) = 0.01268610
#
# Stress axis : x y z
#
# Youngs Moduli (GPa) = 93.04664 56.54925 -63.87248
#
# Poissons Ratio (x) = 0.69134 0.63109
# Poissons Ratio (y) = 1.13754 0.14694
# Poissons Ratio (z) = -0.91935 -0.13010
#
# Static dielectric constant tensor:
#      x y z
#    x 1.578330 0.000000 0.010530 
#    y 0.000000 1.605300 0.000000 
#    z 0.010530 0.000000 1.586910 
# 
# From -- ./inp_files/18456.got.cif
#   From: 2010.05.17/outbox.cif.g08.bks.cpg/sg11_10_cif.got.tgz:18456.got - 2010.06.03 12:22:45.
