data_PCOD9165147
_publ_section_title
;
Structure prediction by ZEFSAII (Michael W. Deem and Ramdas Pophale) SiO2 
 PCOD9165147
Probable space group: P 21/M
;
_chemical_formula_sum "Si O2"
_cell_formula_units_Z 32
_cell_length_a 10.221273
_cell_length_b 18.726662
_cell_length_c 12.466728
_cell_angle_alpha 90.000000
_cell_angle_beta 130.029351
_cell_angle_gamma 90.000000
_cell_volume 1827.195569
_symmetry_space_group_name_H-M "P 21/M"
_symmetry_group_IT_number 11
_symmetry_cell_setting 'monoclinic'
loop_
_space_group_symop_operation_xyz
x,y,z
-x,1/2+y,-z
-x,-y,-z
x,1/2-y,z
loop_
_atom_site_type_symbol
_atom_site_label
_atom_site_fract_x
_atom_site_fract_y
_atom_site_fract_z
Si Si1 0.902931 0.666402 0.107203
Si Si2 0.879265 0.070345 0.933449
Si Si3 0.362068 0.331457 0.199787
Si Si4 0.191477 0.335258 0.499124
Si Si5 0.363262 0.579968 0.533673
Si Si6 0.513308 0.073941 0.640523
Si Si7 0.975249 0.334221 0.595957
Si Si8 0.961589 0.833230 0.810121
O O1 0.934970 0.750000 0.097242
O O2 0.044589 0.619231 0.122380
O O3 0.907886 0.659203 0.236690
O O4 0.723233 0.647850 0.957660
O O5 0.680455 0.057516 0.800782
O O6 0.908476 0.114967 0.058679
O O7 0.000000 0.000000 0.000000
O O8 0.424009 0.250000 0.227269
O O9 0.506692 0.382402 0.317243
O O10 0.207154 0.334317 0.203806
O O11 0.206158 0.250000 0.498740
O O12 0.380463 0.367151 0.610564
O O13 0.075848 0.351946 0.540961
O O14 0.098481 0.358273 0.339179
O O15 0.416213 0.596864 0.439164
O O16 0.395526 0.495997 0.563073
O O17 0.180475 0.612441 0.464878
O O18 0.920384 0.250000 0.561760
O O19 0.019524 0.750000 0.835486
#
# Coordination Sequence:
#
# PCOD9165147 Si02
#       8
#     4   4   4   4   4   4   4   4
#     4   9  18  33  54  81 110 142 182 228 283 329
#     4  11  21  34  56  84 114 146 184 234 279 333
#     4   9  16  30  54  81 108 141 179 231 281 324
#     4  10  22  39  59  83 115 151 188 230 283 337
#     4  11  21  35  54  84 113 144 190 232 277 337
#     4  11  23  35  55  85 114 147 186 236 284 329
#     4  10  21  38  59  83 112 150 190 231 278 336
#     4   9  18  34  55  80 111 146 182 226 282 333
#
# _framework density 17.513178
#
# number of rings (size 3 to 8) (size 9 to 14) (size 15 to 20)
#    0.000    2.000    2.500    3.000    1.750    2.000 
#    0.000    1.250    0.000    6.750    0.000    0.000 
#    0.000    0.000    0.000    0.000    0.000    0.000 
#
# Total GULP energy -178404.249703 kJ/mol
# GULP energy per Si atom -5575.132803 kJ/mol
# Density = 1.747332 g / cm^3
# Si number density = 17.513178 Si / 1000 Ang^3
#
#
#
# Elastic Constant Matrix: (Units=GPa)
#
#
# Indices 1 2 3 4 5 6 
#
# 1 78.9464 39.6708 59.1341 0.0000 -3.6028 0.0000
# 2 39.6708 46.2292 43.1380 0.0000 3.3345 0.0000
# 3 59.1341 43.1380 121.1007 0.0000 -7.1591 0.0000
# 4 0.0000 0.0000 0.0000 20.3589 0.0000 9.4879
# 5 -3.6028 3.3345 -7.1591 0.0000 20.8623 0.0000
# 6 0.0000 0.0000 0.0000 9.4879 0.0000 20.5629
#
#
#
# Elastic Compliance Matrix: (Units=1/GPa)
#
#
# Indices 1 2 3 4 5 6 
#
# 1 0.026204 -0.016743 -0.006538 0.000000 0.004958 0.000000
# 2 -0.016743 0.044981 -0.008618 0.000000 -0.013038 0.000000
# 3 -0.006538 -0.008618 0.014836 0.000000 0.005339 0.000000
# 4 0.000000 0.000000 0.000000 0.062574 0.000000 -0.028872
# 5 0.004958 -0.013038 0.005339 0.000000 0.052706 0.000000
# 6 0.000000 0.000000 0.000000 -0.028872 0.000000 0.061953
#
#
# Mechanical properties :
#
#
# Convention : Reuss Voigt Hill
#
# Bulk Modulus (GPa) = 44.99989 58.90690 51.95340
# Shear Modulus (GPa) = 14.94945 19.31237 17.13091
#
# Velocity S-wave (km/s) = 2.92483 3.32435 3.13097
# Velocity P-wave (km/s) = 6.09564 6.96016 6.54220
#
# Compressibility (1/GPa) = 0.02222228
#
# Stress axis : x y z
#
# Youngs Moduli (GPa) = 38.16225 22.23141 67.40409
#
# Poissons Ratio (x) = 0.37222 0.44071
# Poissons Ratio (y) = 0.63895 0.58090
# Poissons Ratio (z) = 0.24952 0.19160
#
# Static dielectric constant tensor:
#      x y z
#    x 1.558770 0.000000 -0.006160 
#    y 0.000000 1.640060 0.000000 
#    z -0.006160 0.000000 1.623060 
# 
# From -- ./inp_files/32807.got.cif
#   From: 2010.05.17/outbox.cif.g08.bks.cpg/sg11_17_cif.got.tgz:32807.got - 2010.06.03 12:22:45.
