data_PCOD9165412
_publ_section_title
;
Structure prediction by ZEFSAII (Michael W. Deem and Ramdas Pophale) SiO2 
 PCOD9165412
Probable space group: P 21/M
;
_chemical_formula_sum "Si O2"
_cell_formula_units_Z 32
_cell_length_a 8.649911
_cell_length_b 14.128596
_cell_length_c 22.903266
_cell_angle_alpha 90.000000
_cell_angle_beta 148.849349
_cell_angle_gamma 90.000000
_cell_volume 1447.912179
_symmetry_space_group_name_H-M "P 21/M"
_symmetry_group_IT_number 11
_symmetry_cell_setting 'monoclinic'
loop_
_space_group_symop_operation_xyz
x,y,z
-x,1/2+y,-z
-x,-y,-z
x,1/2-y,z
loop_
_atom_site_type_symbol
_atom_site_label
_atom_site_fract_x
_atom_site_fract_y
_atom_site_fract_z
Si Si1 0.670191 0.144139 0.961975
Si Si2 0.823282 0.360143 0.147768
Si Si3 0.318008 0.437470 0.064822
Si Si4 0.793833 0.851454 0.280044
Si Si5 0.772760 0.981917 0.544709
Si Si6 0.416014 0.030347 0.315621
Si Si7 0.784142 0.146073 0.822902
Si Si8 0.678044 0.362067 0.290101
O O1 0.789517 0.250000 0.983993
O O2 0.335725 0.142530 0.827365
O O3 0.794792 0.046195 0.975727
O O4 0.710269 0.137220 0.044090
O O5 0.812440 0.250000 0.163591
O O6 0.606023 0.424416 0.115877
O O7 0.156977 0.401534 0.256671
O O8 0.446155 0.405190 0.168219
O O9 0.070396 0.371483 0.955731
O O10 0.945549 0.750000 0.336690
O O11 0.502646 0.853978 0.227292
O O12 0.997386 0.935581 0.365184
O O13 0.981220 0.889207 0.616666
O O14 0.500000 0.000000 0.500000
O O15 0.639192 0.994169 0.437215
O O16 0.595499 0.087703 0.324223
O O17 0.255797 0.939952 0.234412
O O18 0.804709 0.250000 0.801531
O O19 0.638847 0.250000 0.280776
#
# Coordination Sequence:
#
# PCOD9165412 Si02
#       8
#     4   4   4   4   4   4   4   4
#     4  10  21  38  67  97 134 180 225 277 347 426
#     4  11  24  41  65 103 145 186 230 285 359 428
#     4  12  23  44  69 103 146 182 226 293 353 422
#     4  10  23  44  69  99 135 178 226 282 350 420
#     4  12  27  48  73 101 138 182 237 295 357 415
#     4  12  26  45  71 100 137 188 233 292 347 414
#     4  11  24  41  69 104 139 180 227 284 352 421
#     4  12  27  47  73 104 139 183 239 293 348 420
#
# _framework density 22.100788999999999
#
# number of rings (size 3 to 8) (size 9 to 14) (size 15 to 20)
#    0.000    0.750    3.750    3.000    1.750    3.000 
#    0.000    0.000    0.000    0.000    0.000    0.000 
#    0.000    0.000    0.000    0.000    0.000    0.000 
#
# Total GULP energy -179078.850934 kJ/mol
# GULP energy per Si atom -5596.214092 kJ/mol
# Density = 2.205049 g / cm^3
# Si number density = 22.100789 Si / 1000 Ang^3
#
#
#
# Elastic Constant Matrix: (Units=GPa)
#
#
# Indices 1 2 3 4 5 6 
#
# 1 46.4186 32.2111 24.3137 0.0000 15.2695 0.0000
# 2 32.2111 151.5307 30.1451 0.0000 -8.9934 0.0000
# 3 24.3137 30.1451 114.9876 0.0000 -8.3522 0.0000
# 4 0.0000 0.0000 0.0000 18.4648 0.0000 2.3467
# 5 15.2695 -8.9934 -8.3522 0.0000 34.9221 0.0000
# 6 0.0000 0.0000 0.0000 2.3467 0.0000 17.6703
#
#
#
# Elastic Compliance Matrix: (Units=1/GPa)
#
#
# Indices 1 2 3 4 5 6 
#
# 1 0.037283 -0.007656 -0.007331 0.000000 -0.020027 0.000000
# 2 -0.007656 0.008600 -0.000236 0.000000 0.005506 0.000000
# 3 -0.007331 -0.000236 0.010723 0.000000 0.005709 0.000000
# 4 0.000000 0.000000 0.000000 0.055087 0.000000 -0.007316
# 5 -0.020027 0.005506 0.005709 0.000000 0.040175 0.000000
# 6 0.000000 0.000000 0.000000 -0.007316 0.000000 0.057564
#
#
# Mechanical properties :
#
#
# Convention : Reuss Voigt Hill
#
# Bulk Modulus (GPa) = 38.22382 54.03075 46.12729
# Shear Modulus (GPa) = 20.11271 29.29590 24.70431
#
# Velocity S-wave (km/s) = 3.01997 3.64477 3.34698
# Velocity P-wave (km/s) = 5.43075 6.49715 5.98774
#
# Compressibility (1/GPa) = 0.02616169
#
# Stress axis : x y z
#
# Youngs Moduli (GPa) = 26.82155 116.27365 93.25473
#
# Poissons Ratio (x) = 0.89014 0.68366
# Poissons Ratio (y) = 0.20533 0.02201
# Poissons Ratio (z) = 0.19663 0.02744
#
# Static dielectric constant tensor:
#      x y z
#    x 1.861520 0.000000 0.027770 
#    y 0.000000 1.821440 0.000000 
#    z 0.027770 0.000000 1.773540 
# 
# From -- ./inp_files/68156.got.cif
#   From: 2010.05.17/outbox.cif.g08.bks.cpg/sg11_35_cif.got.tgz:68156.got - 2010.06.03 12:22:45.
