data_PCOD9165709
_publ_section_title
;
Structure prediction by ZEFSAII (Michael W. Deem and Ramdas Pophale) SiO2 
 PCOD9165709
Probable space group: P 21/M
;
_chemical_formula_sum "Si O2"
_cell_formula_units_Z 20
_cell_length_a 10.924503
_cell_length_b 13.657666
_cell_length_c 7.719372
_cell_angle_alpha 90.000000
_cell_angle_beta 60.944971
_cell_angle_gamma 90.000000
_cell_volume 1006.810958
_symmetry_space_group_name_H-M "P 21/M"
_symmetry_group_IT_number 11
_symmetry_cell_setting 'monoclinic'
loop_
_space_group_symop_operation_xyz
x,y,z
-x,1/2+y,-z
-x,-y,-z
x,1/2-y,z
loop_
_atom_site_type_symbol
_atom_site_label
_atom_site_fract_x
_atom_site_fract_y
_atom_site_fract_z
Si Si1 0.409979 0.865658 0.656253
Si Si2 0.844670 0.964915 0.560654
Si Si3 0.558714 0.044658 0.735961
Si Si4 0.701269 0.862475 0.955637
Si Si5 0.839882 0.986601 0.162249
O O1 0.415810 0.750000 0.692375
O O2 0.451231 0.886460 0.428009
O O3 0.510632 0.937208 0.699067
O O4 0.255043 0.914719 0.781241
O O5 0.797090 0.879243 0.721502
O O6 0.834320 0.947473 0.362655
O O7 0.720084 0.043182 0.682813
O O8 0.000000 0.000000 0.500000
O O9 0.449499 0.085629 0.948925
O O10 0.680095 0.750000 0.001051
O O11 0.774040 0.913235 0.069395
O O12 0.000000 0.000000 0.000000
#
# Coordination Sequence:
#
# PCOD9165709 Si02
#       5
#     4   4   4   4   4
#     4   9  18  35  63  91 117 164 215 254 310 374
#     4  11  22  40  64  87 125 165 206 255 314 370
#     4   9  20  37  60  91 127 161 203 268 309 363
#     4  11  23  40  65  92 122 166 211 256 315 374
#     4  10  21  40  62  90 128 163 202 264 315 365
#
# _framework density 19.864702000000001
#
# number of rings (size 3 to 8) (size 9 to 14) (size 15 to 20)
#    0.000    2.000    2.000    2.400    0.000    2.400 
#    0.000    1.000    0.000   10.800    0.000    0.000 
#    0.000    0.000    0.000    0.000    0.000    0.000 
#
# Total GULP energy -111614.082537 kJ/mol
# GULP energy per Si atom -5580.704127 kJ/mol
# Density = 1.981949 g / cm^3
# Si number density = 19.864702 Si / 1000 Ang^3
#
#
#
# Elastic Constant Matrix: (Units=GPa)
#
#
# Indices 1 2 3 4 5 6 
#
# 1 111.5143 39.7324 52.1344 0.0000 -24.7663 0.0000
# 2 39.7324 149.9780 43.3382 0.0000 -6.2688 0.0000
# 3 52.1344 43.3382 131.6874 0.0000 -17.1038 0.0000
# 4 0.0000 0.0000 0.0000 25.0562 0.0000 -0.3922
# 5 -24.7663 -6.2688 -17.1038 0.0000 46.6004 0.0000
# 6 0.0000 0.0000 0.0000 -0.3922 0.0000 0.8712
#
#
#
# Elastic Compliance Matrix: (Units=1/GPa)
#
#
# Indices 1 2 3 4 5 6 
#
# 1 0.012514 -0.002058 -0.003622 0.000000 0.005045 0.000000
# 2 -0.002058 0.007707 -0.001816 0.000000 -0.000723 0.000000
# 3 -0.003622 -0.001816 0.009811 0.000000 0.001432 0.000000
# 4 0.000000 0.000000 0.000000 0.040193 0.000000 0.018094
# 5 0.005045 -0.000723 0.001432 0.000000 0.024568 0.000000
# 6 0.000000 0.000000 0.000000 0.018094 0.000000 1.155979
#
#
# Mechanical properties :
#
#
# Convention : Reuss Voigt Hill
#
# Bulk Modulus (GPa) = 66.48135 73.73217 70.10676
# Shear Modulus (GPa) = 3.93460 31.70387 17.81923
#
# Velocity S-wave (km/s) = 1.40890 3.99932 2.99830
# Velocity P-wave (km/s) = 6.01551 7.65009 6.88150
#
# Compressibility (1/GPa) = 0.01504181
#
# Stress axis : x y z
#
# Youngs Moduli (GPa) = 79.90827 129.74784 101.92482
#
# Poissons Ratio (x) = 0.26700 0.36916
# Poissons Ratio (y) = 0.16444 0.18506
# Poissons Ratio (z) = 0.28942 0.23558
#
# Static dielectric constant tensor:
#      x y z
#    x 2.808930 0.000000 0.674860 
#    y 0.000000 1.667280 0.000000 
#    z 0.674860 0.000000 2.151590 
# 
# From -- ./inp_files/17339.got.cif
#   From: 2010.05.17/outbox.cif.g08.bks.cpg/sg11_9_cif.got.tgz:17339.got - 2010.06.03 12:22:45.
