data_PCOD9165610
_publ_section_title
;
Structure prediction by ZEFSAII (Michael W. Deem and Ramdas Pophale) SiO2 
 PCOD9165610
Probable space group: P 21/M
;
_chemical_formula_sum "Si O2"
_cell_formula_units_Z 24
_cell_length_a 9.077073
_cell_length_b 14.918119
_cell_length_c 8.901657
_cell_angle_alpha 90.000000
_cell_angle_beta 92.691460
_cell_angle_gamma 90.000000
_cell_volume 1204.069097
_symmetry_space_group_name_H-M "P 21/M"
_symmetry_group_IT_number 11
_symmetry_cell_setting 'monoclinic'
loop_
_space_group_symop_operation_xyz
x,y,z
-x,1/2+y,-z
-x,-y,-z
x,1/2-y,z
loop_
_atom_site_type_symbol
_atom_site_label
_atom_site_fract_x
_atom_site_fract_y
_atom_site_fract_z
Si Si1 0.653053 0.024769 0.586904
Si Si2 0.872853 0.355611 0.401823
Si Si3 0.289372 0.344919 0.825098
Si Si4 0.583382 0.418743 0.919854
Si Si5 0.201761 0.347800 0.481919
Si Si6 0.134577 0.968649 0.901139
O O1 0.745855 0.093982 0.489339
O O2 0.621546 0.060213 0.750056
O O3 0.500000 0.000000 0.500000
O O4 0.743497 0.932504 0.606661
O O5 0.838909 0.250000 0.372326
O O6 0.901673 0.412438 0.250909
O O7 0.026930 0.357925 0.500549
O O8 0.216387 0.250000 0.864974
O O9 0.453032 0.346840 0.901851
O O10 0.287876 0.347732 0.643713
O O11 0.208457 0.435973 0.864447
O O12 0.500000 0.500000 0.000000
O O13 0.739409 0.409255 0.010236
O O14 0.223886 0.250000 0.410096
O O15 0.000000 0.000000 0.000000
#
# Coordination Sequence:
#
# PCOD9165610 Si02
#       6
#     4   4   4   4   4   4
#     4  12  21  39  67  93 124 164 212 269 316 374
#     4  11  25  42  63  94 130 168 216 267 319 380
#     4  10  21  40  62  90 125 165 212 260 312 374
#     4  10  22  40  60  91 126 165 208 253 320 381
#     4  10  21  39  64  93 122 160 211 264 314 370
#     4  11  23  41  65  95 130 170 210 260 322 386
#
# _framework density 19.932410000000001
#
# number of rings (size 3 to 8) (size 9 to 14) (size 15 to 20)
#    0.000    1.333    3.333    2.500    2.333    2.667 
#    0.000    5.000    0.000    0.000    0.000    0.000 
#    0.000    0.000    0.000    0.000    0.000    0.000 
#
# Total GULP energy -133794.256836 kJ/mol
# GULP energy per Si atom -5574.760701 kJ/mol
# Density = 1.988704 g / cm^3
# Si number density = 19.932410 Si / 1000 Ang^3
#
#
#
# Elastic Constant Matrix: (Units=GPa)
#
#
# Indices 1 2 3 4 5 6 
#
# 1 79.6159 36.9042 16.4670 0.0000 1.9437 0.0000
# 2 36.9042 146.9784 19.2421 0.0000 -16.9022 0.0000
# 3 16.4670 19.2421 70.0107 0.0000 -4.6698 0.0000
# 4 0.0000 0.0000 0.0000 5.6002 0.0000 10.4187
# 5 1.9437 -16.9022 -4.6698 0.0000 41.1670 0.0000
# 6 0.0000 0.0000 0.0000 10.4187 0.0000 22.7925
#
#
#
# Elastic Compliance Matrix: (Units=1/GPa)
#
#
# Indices 1 2 3 4 5 6 
#
# 1 0.014875 -0.003676 -0.002656 0.000000 -0.002513 0.000000
# 2 -0.003676 0.008277 -0.001181 0.000000 0.003438 0.000000
# 3 -0.002656 -0.001181 0.015325 0.000000 0.001379 0.000000
# 4 0.000000 0.000000 0.000000 1.193692 0.000000 -0.545650
# 5 -0.002513 0.003438 0.001379 0.000000 0.025978 0.000000
# 6 0.000000 0.000000 0.000000 -0.545650 0.000000 0.293297
#
#
# Mechanical properties :
#
#
# Convention : Reuss Voigt Hill
#
# Bulk Modulus (GPa) = 42.64297 49.09240 45.86769
# Shear Modulus (GPa) = 3.17604 28.84473 16.01039
#
# Velocity S-wave (km/s) = 1.26367 3.80824 2.83721
# Velocity P-wave (km/s) = 4.85483 6.63474 5.81331
#
# Compressibility (1/GPa) = 0.02345053
#
# Stress axis : x y z
#
# Youngs Moduli (GPa) = 67.22693 120.82121 65.25395
#
# Poissons Ratio (x) = 0.44416 0.17331
# Poissons Ratio (y) = 0.24714 0.07705
# Poissons Ratio (z) = 0.17855 0.14267
#
# Static dielectric constant tensor:
#      x y z
#    x 1.730700 0.000000 0.040410 
#    y 0.000000 1.716580 0.000000 
#    z 0.040410 0.000000 1.680680 
# 
# From -- ./inp_files/12540.got.cif
#   From: 2010.05.17/outbox.cif.g08.bks.cpg/sg11_7_cif.got.tgz:12540.got - 2010.06.03 12:22:45.
