data_PCOD9165989
_publ_section_title
;
Structure prediction by ZEFSAII (Michael W. Deem and Ramdas Pophale) SiO2 
 PCOD9165989
Probable space group: P 21/M
;
_chemical_formula_sum "Si O2"
_cell_formula_units_Z 30
_cell_length_a 14.786718
_cell_length_b 9.183605
_cell_length_c 12.251812
_cell_angle_alpha 90.000000
_cell_angle_beta 112.376632
_cell_angle_gamma 90.000000
_cell_volume 1538.462143
_symmetry_space_group_name_H-M "P 21/M"
_symmetry_group_IT_number 11
_symmetry_cell_setting 'monoclinic'
loop_
_space_group_symop_operation_xyz
x,y,z
-x,1/2+y,-z
-x,-y,-z
x,1/2-y,z
loop_
_atom_site_type_symbol
_atom_site_label
_atom_site_fract_x
_atom_site_fract_y
_atom_site_fract_z
Si Si1 0.184895 0.919002 0.895193
Si Si2 0.999523 0.421167 0.883342
Si Si3 0.214075 0.578602 0.322099
Si Si4 0.147650 0.473749 0.516474
Si Si5 0.693925 0.584118 0.230642
Si Si6 0.970398 0.250000 0.447372
Si Si7 0.502276 0.424761 0.120888
Si Si8 0.673693 0.079394 0.838718
O O1 0.172458 0.750000 0.856045
O O2 0.081875 0.000666 0.848841
O O3 0.258938 0.002178 0.850886
O O4 0.232227 0.923109 0.037410
O O5 0.022669 0.250000 0.906243
O O6 0.893689 0.433561 0.780757
O O7 0.000000 0.500000 0.000000
O O8 0.231143 0.750000 0.350609
O O9 0.207420 0.495739 0.432310
O O10 0.291268 0.532402 0.265070
O O11 0.221974 0.412801 0.640396
O O12 0.053201 0.374351 0.454440
O O13 0.105553 0.623893 0.544135
O O14 0.665285 0.750000 0.189830
O O15 0.600000 0.489895 0.220626
O O16 0.505618 0.250000 0.113059
O O17 0.409101 0.480131 0.145997
O O18 0.500000 0.500000 0.000000
O O19 0.642249 0.250000 0.821683
#
# Coordination Sequence:
#
# PCOD9165989 Si02
#       8
#     4   4   4   4   4   2   4   4
#     4  11  23  37  61  93 128 167 215 267 328 390
#     4  11  22  37  56  88 130 172 216 262 319 390
#     4  10  22  41  65  88 130 178 218 264 327 395
#     4  11  24  43  66  99 131 178 225 272 325 387
#     4  12  26  43  66  96 132 169 218 277 332 393
#     4  10  24  42  66  92 132 174 228 268 314 380
#     4  12  25  43  69 100 130 168 218 277 336 395
#     4  10  21  43  65  91 128 172 215 265 327 391
#
# _framework density 19.499993
#
# number of rings (size 3 to 8) (size 9 to 14) (size 15 to 20)
#    0.000    1.067    4.000    2.400    5.600    0.533 
#    2.400    0.667    0.000    0.000    0.000    0.000 
#    0.000    0.000    0.000    0.000    0.000    0.000 
#
# Total GULP energy -167144.943162 kJ/mol
# GULP energy per Si atom -5571.498105 kJ/mol
# Density = 1.945561 g / cm^3
# Si number density = 19.499993 Si / 1000 Ang^3
#
#
#
# Elastic Constant Matrix: (Units=GPa)
#
#
# Indices 1 2 3 4 5 6 
#
# 1 121.6095 56.6982 12.8478 0.0000 -16.0975 0.0000
# 2 56.6982 148.1115 14.6639 0.0000 -0.9807 0.0000
# 3 12.8478 14.6639 48.5342 0.0000 -17.1267 0.0000
# 4 0.0000 0.0000 0.0000 -2.6689 0.0000 -2.5373
# 5 -16.0975 -0.9807 -17.1267 0.0000 16.4398 0.0000
# 6 0.0000 0.0000 0.0000 -2.5373 0.0000 34.0452
#
#
#
# Elastic Compliance Matrix: (Units=1/GPa)
#
#
# Indices 1 2 3 4 5 6 
#
# 1 0.012184 -0.004932 0.003749 0.000000 0.015542 0.000000
# 2 -0.004932 0.009040 -0.004648 0.000000 -0.009133 0.000000
# 3 0.003749 -0.004648 0.035127 0.000000 0.039989 0.000000
# 4 0.000000 0.000000 0.000000 -0.349898 0.000000 -0.026077
# 5 0.015542 -0.009133 0.039989 0.000000 0.117162 0.000000
# 6 0.000000 0.000000 0.000000 -0.026077 0.000000 0.027429
#
#
# Mechanical properties :
#
#
# Convention : Reuss Voigt Hill
#
# Bulk Modulus (GPa) = 22.37727 54.07499 38.22613
# Shear Modulus (GPa) = -40.85040 25.16624 -7.84208
#
# Velocity S-wave (km/s) = -4.58197 3.59636 -2.00756
# Velocity P-wave (km/s) = 4.06105 6.71089 3.77782
#
# Compressibility (1/GPa) = 0.04468820
#
# Stress axis : x y z
#
# Youngs Moduli (GPa) = 82.07571 110.62469 28.46788
#
# Poissons Ratio (x) = 0.54564 -0.10674
# Poissons Ratio (y) = 0.40483 0.13233
# Poissons Ratio (z) = -0.30774 0.51422
#
# Static dielectric constant tensor:
#      x y z
#    x 1.672460 0.000000 0.004210 
#    y 0.000000 1.675680 0.000000 
#    z 0.004210 0.000000 1.716960 
# 
# From -- ./inp_files/38343.got.cif
#   From: 2010.05.17/outbox.cif.g08.bks.cpg/sg11_20_cif.got.tgz:38343.got - 2010.06.03 12:22:45.
