data_PCOD9165469
_publ_section_title
;
Structure prediction by ZEFSAII (Michael W. Deem and Ramdas Pophale) SiO2 
 PCOD9165469
Probable space group: P 21/M
;
_chemical_formula_sum "Si O2"
_cell_formula_units_Z 20
_cell_length_a 6.260028
_cell_length_b 10.924244
_cell_length_c 17.117742
_cell_angle_alpha 90.000000
_cell_angle_beta 129.318404
_cell_angle_gamma 90.000000
_cell_volume 905.630874
_symmetry_space_group_name_H-M "P 21/M"
_symmetry_group_IT_number 11
_symmetry_cell_setting 'monoclinic'
loop_
_space_group_symop_operation_xyz
x,y,z
-x,1/2+y,-z
-x,-y,-z
x,1/2-y,z
loop_
_atom_site_type_symbol
_atom_site_label
_atom_site_fract_x
_atom_site_fract_y
_atom_site_fract_z
Si Si1 0.866504 0.615037 0.610791
Si Si2 0.465285 0.533778 0.753066
Si Si3 0.948262 0.042344 0.076308
Si Si4 0.579950 0.389792 0.628400
Si Si5 0.376705 0.115301 0.889243
O O1 0.802871 0.750000 0.631092
O O2 0.779250 0.497748 0.642486
O O3 0.686653 0.605358 0.490317
O O4 0.192189 0.608577 0.669913
O O5 0.494062 0.427438 0.695432
O O6 0.414038 0.477559 0.826852
O O7 0.765512 0.598100 0.827009
O O8 0.871106 0.927427 0.112930
O O9 0.660303 0.114494 0.005681
O O10 0.000000 0.000000 0.000000
O O11 0.686788 0.250000 0.649015
O O12 0.333165 0.250000 0.847863
#
# Coordination Sequence:
#
# PCOD9165469 Si02
#       5
#     4   4   4   4   4
#     4  10  23  41  61  90 128 167 207 253 307 367
#     4  11  21  37  62  92 121 155 204 256 305 360
#     4   9  21  38  55  83 116 148 189 240 299 358
#     4  10  22  41  64  91 125 165 208 255 307 364
#     4  10  21  39  61  85 116 154 199 250 305 366
#
# _framework density 22.084053000000001
#
# number of rings (size 3 to 8) (size 9 to 14) (size 15 to 20)
#    0.000    2.000    0.000    2.400    0.000    8.800 
#    0.000   18.000    0.000    0.000    0.000    0.000 
#    0.000    0.000    0.000    0.000    0.000    0.000 
#
# Total GULP energy -111596.537596 kJ/mol
# GULP energy per Si atom -5579.826880 kJ/mol
# Density = 2.203379 g / cm^3
# Si number density = 22.084053 Si / 1000 Ang^3
#
#
#
# Elastic Constant Matrix: (Units=GPa)
#
#
# Indices 1 2 3 4 5 6 
#
# 1 98.1505 33.4234 46.3367 0.0000 14.2617 0.0000
# 2 33.4234 116.1670 30.5943 0.0000 9.1297 0.0000
# 3 46.3367 30.5943 104.9155 0.0000 32.5212 0.0000
# 4 0.0000 0.0000 0.0000 -4.8945 0.0000 -8.3179
# 5 14.2617 9.1297 32.5212 0.0000 54.0769 0.0000
# 6 0.0000 0.0000 0.0000 -8.3179 0.0000 19.7133
#
#
#
# Elastic Compliance Matrix: (Units=1/GPa)
#
#
# Indices 1 2 3 4 5 6 
#
# 1 0.013516 -0.002509 -0.005241 0.000000 0.000011 0.000000
# 2 -0.002509 0.009791 -0.001769 0.000000 0.000073 0.000000
# 3 -0.005241 -0.001769 0.014554 0.000000 -0.007072 0.000000
# 4 0.000000 0.000000 0.000000 -0.118989 0.000000 -0.050206
# 5 0.000011 0.000073 -0.007072 0.000000 0.022730 0.000000
# 6 0.000000 0.000000 0.000000 -0.050206 0.000000 0.029543
#
#
# Mechanical properties :
#
#
# Convention : Reuss Voigt Hill
#
# Bulk Modulus (GPa) = 53.13169 59.99353 56.56261
# Shear Modulus (GPa) = -1411.34659 27.70438 -691.82111
#
# Velocity S-wave (km/s) = -25.30745 3.54573 -17.71856
# Velocity P-wave (km/s) = 28.80703 6.63234 19.82242
#
# Compressibility (1/GPa) = 0.01882116
#
# Stress axis : x y z
#
# Youngs Moduli (GPa) = 73.98885 102.13969 68.70849
#
# Poissons Ratio (x) = 0.25629 0.36010
# Poissons Ratio (y) = 0.18566 0.12157
# Poissons Ratio (z) = 0.38777 0.18072
#
# Static dielectric constant tensor:
#      x y z
#    x 1.786000 0.000000 0.045640 
#    y 0.000000 1.712090 0.000000 
#    z 0.045640 0.000000 1.844160 
# 
# From -- ./inp_files/6125.got.cif
#   From: 2010.05.17/outbox.cif.g08.bks.cpg/sg11_4_cif.got.tgz:6125.got - 2010.06.03 12:22:45.
