data_PCOD9165017
_publ_section_title
;
Structure prediction by ZEFSAII (Michael W. Deem and Ramdas Pophale) SiO2 
 PCOD9165017
Probable space group: P 21/M
;
_chemical_formula_sum "Si O2"
_cell_formula_units_Z 28
_cell_length_a 13.917417
_cell_length_b 17.432843
_cell_length_c 6.849741
_cell_angle_alpha 90.000000
_cell_angle_beta 58.206488
_cell_angle_gamma 90.000000
_cell_volume 1412.523210
_symmetry_space_group_name_H-M "P 21/M"
_symmetry_group_IT_number 11
_symmetry_cell_setting 'monoclinic'
loop_
_space_group_symop_operation_xyz
x,y,z
-x,1/2+y,-z
-x,-y,-z
x,1/2-y,z
loop_
_atom_site_type_symbol
_atom_site_label
_atom_site_fract_x
_atom_site_fract_y
_atom_site_fract_z
Si Si1 0.343187 0.661901 0.939738
Si Si2 0.131383 0.560318 0.279149
Si Si3 0.706304 0.657708 0.518437
Si Si4 0.966575 0.840503 0.179791
Si Si5 0.006113 0.445025 0.185087
Si Si6 0.509805 0.909985 0.466681
Si Si7 0.449586 0.337270 0.978909
O O1 0.300618 0.750000 0.965484
O O2 0.402065 0.632534 0.678351
O O3 0.249598 0.602110 0.114296
O O4 0.446349 0.663371 0.982186
O O5 0.112886 0.477742 0.193782
O O6 0.042178 0.614267 0.256195
O O7 0.093257 0.553520 0.546083
O O8 0.694092 0.750000 0.512891
O O9 0.835958 0.637590 0.352364
O O10 0.622459 0.619422 0.454438
O O11 0.659261 0.637224 0.782171
O O12 0.980348 0.750000 0.192807
O O13 0.991658 0.864054 0.928303
O O14 0.000000 0.500000 0.000000
O O15 0.520926 0.890112 0.230415
O O16 0.500000 0.000000 0.500000
O O17 0.431742 0.250000 0.927149
#
# Coordination Sequence:
#
# PCOD9165017 Si02
#       7
#     4   4   4   4   4   4   4
#     4  10  22  39  61  89 120 155 202 252 294 356
#     4  10  21  40  61  87 123 162 199 246 306 362
#     4   9  20  38  58  84 118 154 198 246 290 350
#     4  10  21  37  61  91 121 157 203 247 293 358
#     4   9  21  40  57  85 120 162 199 245 299 354
#     4  11  23  38  58  90 118 156 200 246 301 358
#     4   9  19  39  61  82 114 155 193 240 299 349
#
# _framework density 19.822683999999999
#
# number of rings (size 3 to 8) (size 9 to 14) (size 15 to 20)
#    0.000    2.286    0.000    2.571    2.000    6.857 
#   10.286    4.286    0.000    0.000    0.000    0.000 
#    0.000    0.000    0.000    0.000    0.000    0.000 
#
# Total GULP energy -156201.206229 kJ/mol
# GULP energy per Si atom -5578.614508 kJ/mol
# Density = 1.977757 g / cm^3
# Si number density = 19.822684 Si / 1000 Ang^3
#
#
#
# Elastic Constant Matrix: (Units=GPa)
#
#
# Indices 1 2 3 4 5 6 
#
# 1 35.5413 2.1902 25.8859 0.0000 -4.6507 0.0000
# 2 2.1902 24.8499 7.8962 0.0000 9.8017 0.0000
# 3 25.8859 7.8962 105.3114 0.0000 15.0794 0.0000
# 4 0.0000 0.0000 0.0000 90.8038 0.0000 38.3051
# 5 -4.6507 9.8017 15.0794 0.0000 16.7564 0.0000
# 6 0.0000 0.0000 0.0000 38.3051 0.0000 54.8408
#
#
#
# Elastic Compliance Matrix: (Units=1/GPa)
#
#
# Indices 1 2 3 4 5 6 
#
# 1 0.043533 -0.011879 -0.014389 0.000000 0.031980 0.000000
# 2 -0.011879 0.055578 0.004454 0.000000 -0.039815 0.000000
# 3 -0.014389 0.004454 0.015662 0.000000 -0.020693 0.000000
# 4 0.000000 0.000000 0.000000 0.015613 0.000000 -0.010905
# 5 0.031980 -0.039815 -0.020693 0.000000 0.110467 0.000000
# 6 0.000000 0.000000 0.000000 -0.010905 0.000000 0.025852
#
#
# Mechanical properties :
#
#
# Convention : Reuss Voigt Hill
#
# Bulk Modulus (GPa) = 14.05590 26.40524 20.23057
# Shear Modulus (GPa) = 14.96792 41.12891 28.04842
#
# Velocity S-wave (km/s) = 2.75087 4.55998 3.76568
# Velocity P-wave (km/s) = 4.14680 6.40892 5.39769
#
# Compressibility (1/GPa) = 0.07114450
#
# Stress axis : x y z
#
# Youngs Moduli (GPa) = 22.97104 17.99272 63.85035
#
# Poissons Ratio (x) = 0.21373 0.91875
# Poissons Ratio (y) = 0.27287 -0.28438
# Poissons Ratio (z) = 0.33053 -0.08014
#
# Static dielectric constant tensor:
#      x y z
#    x 1.678620 0.000000 -0.008400 
#    y 0.000000 1.729360 0.000000 
#    z -0.008400 0.000000 1.690960 
# 
# From -- ./inp_files/6777.got.cif
#   From: 2010.05.17/outbox.cif.g08.bks.cpg/sg11_4_cif.got.tgz:6777.got - 2010.06.03 12:22:45.
