data_PCOD9165224
_publ_section_title
;
Structure prediction by ZEFSAII (Michael W. Deem and Ramdas Pophale) SiO2 
 PCOD9165224
Probable space group: P 21/M
;
_chemical_formula_sum "Si O2"
_cell_formula_units_Z 32
_cell_length_a 30.391605
_cell_length_b 8.900804
_cell_length_c 13.453104
_cell_angle_alpha 90.000000
_cell_angle_beta 153.358334
_cell_angle_gamma 90.000000
_cell_volume 1631.848715
_symmetry_space_group_name_H-M "P 21/M"
_symmetry_group_IT_number 11
_symmetry_cell_setting 'monoclinic'
loop_
_space_group_symop_operation_xyz
x,y,z
-x,1/2+y,-z
-x,-y,-z
x,1/2-y,z
loop_
_atom_site_type_symbol
_atom_site_label
_atom_site_fract_x
_atom_site_fract_y
_atom_site_fract_z
Si Si1 0.245982 0.432609 0.842727
Si Si2 0.241748 0.069401 0.612108
Si Si3 0.553871 0.419238 0.019446
Si Si4 0.833801 0.570970 0.910979
Si Si5 0.104917 0.068022 0.739987
Si Si6 0.899624 0.429969 0.838330
Si Si7 0.534397 0.925314 0.669358
Si Si8 0.605853 0.916353 0.474540
O O1 0.246110 0.250000 0.842944
O O2 0.207472 0.475690 0.654866
O O3 0.182570 0.479478 0.810745
O O4 0.359052 0.485277 0.081039
O O5 0.234241 0.250000 0.587660
O O6 0.354462 0.017444 0.831120
O O7 0.183183 0.992169 0.404332
O O8 0.588075 0.250000 0.113474
O O9 0.500000 0.500000 0.000000
O O10 0.468905 0.406152 0.766777
O O11 0.853508 0.750000 0.940091
O O12 0.881623 0.485193 0.914984
O O13 0.716416 0.549578 0.667616
O O14 0.865970 0.525543 0.087901
O O15 0.101057 0.250000 0.729972
O O16 0.000000 0.000000 0.500000
O O17 0.902425 0.250000 0.841185
O O18 0.000000 0.500000 0.000000
O O19 0.547254 0.750000 0.681790
O O20 0.500000 0.000000 0.500000
O O21 0.445077 0.959706 0.561825
O O22 0.608075 0.750000 0.529366
#
# Coordination Sequence:
#
# PCOD9165224 Si02
#       8
#     4   4   4   4   4   4   4   4
#     4   9  20  39  63  91 127 169 208 254 318 385
#     4  11  22  41  66  95 131 172 215 262 322 388
#     4  11  22  36  59  92 129 169 214 263 315 376
#     4  10  22  43  67  93 130 171 214 265 322 386
#     4  10  22  41  65  93 124 163 212 264 324 384
#     4  12  27  46  69  97 128 166 216 271 329 388
#     4  11  21  36  59  89 124 167 212 256 310 373
#     4  10  21  38  60  88 124 165 206 253 309 370
#
# _framework density 19.609660999999999
#
# number of rings (size 3 to 8) (size 9 to 14) (size 15 to 20)
#    0.000    1.500    1.250    3.750    1.750    4.500 
#    0.000    3.125    0.000    0.000    0.000    0.000 
#    0.000    0.000    0.000    0.000    0.000    0.000 
#
# Total GULP energy -178610.790486 kJ/mol
# GULP energy per Si atom -5581.587203 kJ/mol
# Density = 1.956503 g / cm^3
# Si number density = 19.609661 Si / 1000 Ang^3
#
#
#
# Elastic Constant Matrix: (Units=GPa)
#
#
# Indices 1 2 3 4 5 6 
#
# 1 152.6128 53.7082 60.5477 0.0000 -12.6145 0.0000
# 2 53.7082 74.2149 35.4032 0.0000 -9.3882 0.0000
# 3 60.5477 35.4032 96.1091 0.0000 -1.5554 0.0000
# 4 0.0000 0.0000 0.0000 28.8269 0.0000 2.6791
# 5 -12.6145 -9.3882 -1.5554 0.0000 35.2213 0.0000
# 6 0.0000 0.0000 0.0000 2.6791 0.0000 31.5458
#
#
#
# Elastic Compliance Matrix: (Units=1/GPa)
#
#
# Indices 1 2 3 4 5 6 
#
# 1 0.010325 -0.004989 -0.004632 0.000000 0.002164 0.000000
# 2 -0.004989 0.019369 -0.003940 0.000000 0.003202 0.000000
# 3 -0.004632 -0.003940 0.014741 0.000000 -0.002058 0.000000
# 4 0.000000 0.000000 0.000000 0.034966 0.000000 -0.002970
# 5 0.002164 0.003202 -0.002058 0.000000 0.029929 0.000000
# 6 0.000000 0.000000 0.000000 -0.002970 0.000000 0.031952
#
#
# Mechanical properties :
#
#
# Convention : Reuss Voigt Hill
#
# Bulk Modulus (GPa) = 57.75854 69.13945 63.44900
# Shear Modulus (GPa) = 28.70680 30.67065 29.68873
#
# Velocity S-wave (km/s) = 3.83026 3.95911 3.89522
# Velocity P-wave (km/s) = 7.00566 7.49892 7.25648
#
# Compressibility (1/GPa) = 0.01731346
#
# Stress axis : x y z
#
# Youngs Moduli (GPa) = 96.85651 51.62805 67.83803
#
# Poissons Ratio (x) = 0.25755 0.31421
# Poissons Ratio (y) = 0.48317 0.26731
# Poissons Ratio (z) = 0.44861 0.20344
#
# Static dielectric constant tensor:
#      x y z
#    x 1.664900 0.000000 -0.030540 
#    y 0.000000 1.680280 0.000000 
#    z -0.030540 0.000000 1.672670 
# 
# From -- ./inp_files/45298.got.cif
#   From: 2010.05.17/outbox.cif.g08.bks.cpg/sg11_23_cif.got.tgz:45298.got - 2010.06.03 12:22:45.
