data_PCOD9165107
_publ_section_title
;
Structure prediction by ZEFSAII (Michael W. Deem and Ramdas Pophale) SiO2 
 PCOD9165107
Probable space group: P 21/M
;
_chemical_formula_sum "Si O2"
_cell_formula_units_Z 28
_cell_length_a 16.917338
_cell_length_b 9.243979
_cell_length_c 9.847317
_cell_angle_alpha 90.000000
_cell_angle_beta 88.285629
_cell_angle_gamma 90.000000
_cell_volume 1539.268763
_symmetry_space_group_name_H-M "P 21/M"
_symmetry_group_IT_number 11
_symmetry_cell_setting 'monoclinic'
loop_
_space_group_symop_operation_xyz
x,y,z
-x,1/2+y,-z
-x,-y,-z
x,1/2-y,z
loop_
_atom_site_type_symbol
_atom_site_label
_atom_site_fract_x
_atom_site_fract_y
_atom_site_fract_z
Si Si1 0.826607 0.421051 0.163727
Si Si2 0.996861 0.922581 0.853548
Si Si3 0.673973 0.919905 0.274169
Si Si4 0.158082 0.576963 0.160789
Si Si5 0.577964 0.580536 0.548836
Si Si6 0.330618 0.582136 0.226771
Si Si7 0.424043 0.918090 0.946211
O O1 0.809011 0.250000 0.178884
O O2 0.759428 0.512807 0.239670
O O3 0.915878 0.447979 0.212008
O O4 0.828133 0.452043 0.001228
O O5 0.987886 0.750000 0.870715
O O6 0.919736 0.991368 0.788818
O O7 0.000000 0.000000 0.000000
O O8 0.673290 0.750000 0.240005
O O9 0.644880 0.936192 0.429625
O O10 0.611537 0.002910 0.182092
O O11 0.145622 0.750000 0.173060
O O12 0.238759 0.537904 0.233762
O O13 0.500000 0.500000 0.500000
O O14 0.560809 0.750000 0.566629
O O15 0.612191 0.512528 0.684091
O O16 0.336646 0.750000 0.270028
O O17 0.359194 0.576634 0.069591
O O18 0.441624 0.750000 0.916836
O O19 0.500000 0.000000 0.000000
#
# Coordination Sequence:
#
# PCOD9165107 Si02
#       7
#     4   4   4   4   4   4   4
#     4   9  17  32  52  78 112 146 180 221 270 322
#     4   9  17  28  46  76 112 146 179 219 266 319
#     4  11  23  37  55  81 111 142 182 228 273 323
#     4   9  17  32  52  79 112 143 178 221 272 324
#     4  11  25  42  58  80 108 143 187 230 273 330
#     4  10  21  38  58  80 110 144 180 227 274 325
#     4  11  22  37  56  81 110 138 176 225 276 328
#
# _framework density 18.190456000000001
#
# number of rings (size 3 to 8) (size 9 to 14) (size 15 to 20)
#    0.000    2.000    1.429    3.429    0.000   10.286 
#    0.000    0.000    0.000    0.857    0.000    0.000 
#    0.000    0.000    0.000    0.000    0.000    0.000 
#
# Total GULP energy -156274.456101 kJ/mol
# GULP energy per Si atom -5581.230575 kJ/mol
# Density = 1.814905 g / cm^3
# Si number density = 18.190456 Si / 1000 Ang^3
#
#
#
# Elastic Constant Matrix: (Units=GPa)
#
#
# Indices 1 2 3 4 5 6 
#
# 1 88.1933 28.1599 -12.8860 0.0000 3.0739 0.0000
# 2 28.1599 62.6651 9.3181 0.0000 -4.8976 0.0000
# 3 -12.8860 9.3181 22.9584 0.0000 3.4354 0.0000
# 4 0.0000 0.0000 0.0000 23.8287 0.0000 0.2335
# 5 3.0739 -4.8976 3.4354 0.0000 19.9405 0.0000
# 6 0.0000 0.0000 0.0000 0.2335 0.0000 39.3186
#
#
#
# Elastic Compliance Matrix: (Units=1/GPa)
#
#
# Indices 1 2 3 4 5 6 
#
# 1 0.017209 -0.010598 0.015137 0.000000 -0.007864 0.000000
# 2 -0.010598 0.024119 -0.017315 0.000000 0.010541 0.000000
# 3 0.015137 -0.017315 0.061656 0.000000 -0.017208 0.000000
# 4 0.000000 0.000000 0.000000 0.041969 0.000000 -0.000249
# 5 -0.007864 0.010541 -0.017208 0.000000 0.056915 0.000000
# 6 0.000000 0.000000 0.000000 -0.000249 0.000000 0.025435
#
#
# Mechanical properties :
#
#
# Convention : Reuss Voigt Hill
#
# Bulk Modulus (GPa) = 12.91485 24.77787 18.84636
# Shear Modulus (GPa) = 17.94271 26.56588 22.25430
#
# Velocity S-wave (km/s) = 3.14408 3.82570 3.50152
# Velocity P-wave (km/s) = 4.50505 5.75896 5.17016
#
# Compressibility (1/GPa) = 0.07743025
#
# Stress axis : x y z
#
# Youngs Moduli (GPa) = 58.11063 41.46113 16.21911
#
# Poissons Ratio (x) = 0.43942 -0.24551
# Poissons Ratio (y) = 0.61588 0.28083
# Poissons Ratio (z) = -0.87962 0.71790
#
# Static dielectric constant tensor:
#      x y z
#    x 1.654270 0.000000 -0.008230 
#    y 0.000000 1.609780 0.000000 
#    z -0.008230 0.000000 1.606750 
# 
# From -- ./inp_files/24076.got.cif
#   From: 2010.05.17/outbox.cif.g08.bks.cpg/sg11_13_cif.got.tgz:24076.got - 2010.06.03 12:22:45.
