data_PCOD9165808
_publ_section_title
;
Structure prediction by ZEFSAII (Michael W. Deem and Ramdas Pophale) SiO2 
 PCOD9165808
Probable space group: P 21/M
;
_chemical_formula_sum "Si O2"
_cell_formula_units_Z 32
_cell_length_a 16.373836
_cell_length_b 8.611122
_cell_length_c 24.830118
_cell_angle_alpha 90.000000
_cell_angle_beta 150.898851
_cell_angle_gamma 90.000000
_cell_volume 1702.709167
_symmetry_space_group_name_H-M "P 21/M"
_symmetry_group_IT_number 11
_symmetry_cell_setting 'monoclinic'
loop_
_space_group_symop_operation_xyz
x,y,z
-x,1/2+y,-z
-x,-y,-z
x,1/2-y,z
loop_
_atom_site_type_symbol
_atom_site_label
_atom_site_fract_x
_atom_site_fract_y
_atom_site_fract_z
Si Si1 0.760802 0.573929 0.759947
Si Si2 0.413750 0.575195 0.501486
Si Si3 0.261099 0.561518 0.663073
Si Si4 0.816565 0.429292 0.900760
Si Si5 0.960479 0.436030 0.563426
Si Si6 0.066578 0.432902 0.332270
Si Si7 0.639451 0.935350 0.901485
Si Si8 0.046580 0.437140 0.845420
O O1 0.814230 0.750000 0.806599
O O2 0.570482 0.585959 0.631085
O O3 0.749341 0.456156 0.802512
O O4 0.892806 0.513151 0.791062
O O5 0.500000 0.500000 0.500000
O O6 0.349569 0.750000 0.453479
O O7 0.261331 0.472007 0.433559
O O8 0.255929 0.750000 0.663059
O O9 0.200469 0.519892 0.567146
O O10 0.446766 0.507491 0.787872
O O11 0.121504 0.492527 0.622413
O O12 0.818548 0.250000 0.916932
O O13 0.718752 0.522896 0.889722
O O14 0.000000 0.500000 0.000000
O O15 0.959888 0.250000 0.567594
O O16 0.967524 0.505637 0.627256
O O17 0.035611 0.250000 0.311929
O O18 0.969806 0.512903 0.226345
O O19 0.629687 0.750000 0.901738
O O20 0.776276 0.987987 0.025017
O O21 0.033941 0.250000 0.842712
#
# Coordination Sequence:
#
# PCOD9165808 Si02
#       8
#     4   4   4   4   4   4   4   4
#     4  11  23  38  56  80 116 158 200 249 302 352
#     4  11  23  38  58  83 116 157 202 247 297 354
#     4   9  20  41  67  93 122 152 186 239 303 360
#     4  12  24  37  56  83 118 160 205 249 293 349
#     4  10  21  40  66  94 122 153 192 239 297 361
#     4  12  25  40  60  87 122 160 203 249 298 354
#     4  10  22  40  62  89 119 156 200 247 301 358
#     4  11  22  38  61  85 118 160 204 248 296 355
#
# _framework density 18.793579000000001
#
# number of rings (size 3 to 8) (size 9 to 14) (size 15 to 20)
#    0.000    1.250    2.500    3.750    1.750    3.000 
#    0.000    0.625    0.000    0.000    0.000    0.000 
#    0.000    0.000    0.000    0.000    0.000    0.000 
#
# Total GULP energy -178553.066094 kJ/mol
# GULP energy per Si atom -5579.783315 kJ/mol
# Density = 1.875080 g / cm^3
# Si number density = 18.793579 Si / 1000 Ang^3
#
#
#
# Elastic Constant Matrix: (Units=GPa)
#
#
# Indices 1 2 3 4 5 6 
#
# 1 97.0238 3.4101 48.5315 0.0000 -14.1712 0.0000
# 2 3.4101 26.5113 17.2780 0.0000 -1.8950 0.0000
# 3 48.5315 17.2780 127.6558 0.0000 -3.1883 0.0000
# 4 0.0000 0.0000 0.0000 23.0645 0.0000 -0.2368
# 5 -14.1712 -1.8950 -3.1883 0.0000 28.1428 0.0000
# 6 0.0000 0.0000 0.0000 -0.2368 0.0000 28.5513
#
#
#
# Elastic Compliance Matrix: (Units=1/GPa)
#
#
# Indices 1 2 3 4 5 6 
#
# 1 0.013893 0.002211 -0.005418 0.000000 0.006531 0.000000
# 2 0.002211 0.041852 -0.006425 0.000000 0.003203 0.000000
# 3 -0.005418 -0.006425 0.010714 0.000000 -0.001947 0.000000
# 4 0.000000 0.000000 0.000000 0.043360 0.000000 0.000360
# 5 0.006531 0.003203 -0.001947 0.000000 0.038817 0.000000
# 6 0.000000 0.000000 0.000000 0.000360 0.000000 0.035028
#
#
# Mechanical properties :
#
#
# Convention : Reuss Voigt Hill
#
# Bulk Modulus (GPa) = 21.18885 43.29222 32.24053
# Shear Modulus (GPa) = 22.86660 28.08314 25.47487
#
# Velocity S-wave (km/s) = 3.49194 3.86980 3.68572
# Velocity P-wave (km/s) = 5.24949 6.56147 5.94180
#
# Compressibility (1/GPa) = 0.04719464
#
# Stress axis : x y z
#
# Youngs Moduli (GPa) = 71.97887 23.89393 93.33335
#
# Poissons Ratio (x) = -0.05282 0.50567
# Poissons Ratio (y) = -0.15913 0.59967
# Poissons Ratio (z) = 0.38997 0.15352
#
# Static dielectric constant tensor:
#      x y z
#    x 1.595630 0.000000 -0.004400 
#    y 0.000000 1.596470 0.000000 
#    z -0.004400 0.000000 1.636820 
# 
# From -- ./inp_files/69086.got.cif
#   From: 2010.05.17/outbox.cif.g08.bks.cpg/sg11_35_cif.got.tgz:69086.got - 2010.06.03 12:22:45.
