data_PCOD9165615
_publ_section_title
;
Structure prediction by ZEFSAII (Michael W. Deem and Ramdas Pophale) SiO2 
 PCOD9165615
Probable space group: P 21/M
;
_chemical_formula_sum "Si O2"
_cell_formula_units_Z 28
_cell_length_a 11.609147
_cell_length_b 14.962405
_cell_length_c 8.423648
_cell_angle_alpha 90.000000
_cell_angle_beta 110.886608
_cell_angle_gamma 90.000000
_cell_volume 1367.044397
_symmetry_space_group_name_H-M "P 21/M"
_symmetry_group_IT_number 11
_symmetry_cell_setting 'monoclinic'
loop_
_space_group_symop_operation_xyz
x,y,z
-x,1/2+y,-z
-x,-y,-z
x,1/2-y,z
loop_
_atom_site_type_symbol
_atom_site_label
_atom_site_fract_x
_atom_site_fract_y
_atom_site_fract_z
Si Si1 0.496396 0.933513 0.646117
Si Si2 0.715091 0.855668 0.932814
Si Si3 0.053582 0.355973 0.144767
Si Si4 0.878442 0.511021 0.544164
Si Si5 0.331058 0.490597 0.817270
Si Si6 0.761709 0.144830 0.995507
Si Si7 0.265466 0.647789 0.376845
O O1 0.625027 0.886135 0.745904
O O2 0.385617 0.866276 0.545385
O O3 0.500000 0.000000 0.500000
O O4 0.455015 0.986562 0.783590
O O5 0.706527 0.750000 0.949913
O O6 0.855615 0.880300 0.955705
O O7 0.670957 0.907789 0.065611
O O8 0.069873 0.250000 0.180402
O O9 0.098118 0.412431 0.316437
O O10 0.908634 0.371287 0.047564
O O11 0.767564 0.529560 0.368997
O O12 0.837706 0.420726 0.614312
O O13 0.000000 0.500000 0.500000
O O14 0.289578 0.577692 0.897987
O O15 0.744011 0.250000 0.028086
O O16 0.704483 0.128327 0.793112
O O17 0.222539 0.750000 0.363443
#
# Coordination Sequence:
#
# PCOD9165615 Si02
#       7
#     4   4   4   4   4   4   4
#     4  11  23  44  65  90 123 163 212 260 312 368
#     4  11  24  41  63  91 126 168 207 251 309 372
#     4  10  22  40  61  89 126 165 202 251 313 376
#     4  11  22  36  58  90 123 164 201 251 309 368
#     4  11  23  39  64  92 123 159 210 258 310 363
#     4  10  21  39  64  94 123 157 205 259 315 369
#     4  10  23  40  62  90 121 163 207 255 309 366
#
# _framework density 20.482142
#
# number of rings (size 3 to 8) (size 9 to 14) (size 15 to 20)
#    0.000    1.429    1.429    4.286    2.000    5.143 
#    0.000    2.857    0.000    0.000    0.000    0.000 
#    0.000    0.000    0.000    0.000    0.000    0.000 
#
# Total GULP energy -156575.430965 kJ/mol
# GULP energy per Si atom -5591.979677 kJ/mol
# Density = 2.043552 g / cm^3
# Si number density = 20.482142 Si / 1000 Ang^3
#
#
#
# Elastic Constant Matrix: (Units=GPa)
#
#
# Indices 1 2 3 4 5 6 
#
# 1 89.1368 34.0483 5.6704 0.0000 -15.8855 0.0000
# 2 34.0483 78.1348 36.2227 0.0000 -15.8028 0.0000
# 3 5.6704 36.2227 73.4570 0.0000 -16.7432 0.0000
# 4 0.0000 0.0000 0.0000 30.2409 0.0000 4.3109
# 5 -15.8855 -15.8028 -16.7432 0.0000 31.3195 0.0000
# 6 0.0000 0.0000 0.0000 4.3109 0.0000 16.4600
#
#
#
# Elastic Compliance Matrix: (Units=1/GPa)
#
#
# Indices 1 2 3 4 5 6 
#
# 1 0.014663 -0.006865 0.003597 0.000000 0.005896 0.000000
# 2 -0.006865 0.020395 -0.009082 0.000000 0.001954 0.000000
# 3 0.003597 -0.009082 0.019570 0.000000 0.007704 0.000000
# 4 0.000000 0.000000 0.000000 0.034350 0.000000 -0.008996
# 5 0.005896 0.001954 0.007704 0.000000 0.040024 0.000000
# 6 0.000000 0.000000 0.000000 -0.008996 0.000000 0.063110
#
#
# Mechanical properties :
#
#
# Convention : Reuss Voigt Hill
#
# Bulk Modulus (GPa) = 33.41185 43.62350 38.51767
# Shear Modulus (GPa) = 22.04705 26.58988 24.31846
#
# Velocity S-wave (km/s) = 3.28442 3.60696 3.44946
# Velocity P-wave (km/s) = 5.54358 6.22024 5.89163
#
# Compressibility (1/GPa) = 0.02992950
#
# Stress axis : x y z
#
# Youngs Moduli (GPa) = 68.19956 49.03110 51.09810
#
# Poissons Ratio (x) = 0.33658 -0.18381
# Poissons Ratio (y) = 0.46816 0.46407
# Poissons Ratio (z) = -0.24532 0.44530
#
# Static dielectric constant tensor:
#      x y z
#    x 1.750370 0.000000 0.026030 
#    y 0.000000 1.709670 0.000000 
#    z 0.026030 0.000000 1.733050 
# 
# From -- ./inp_files/18163.got.cif
#   From: 2010.05.17/outbox.cif.g08.bks.cpg/sg11_10_cif.got.tgz:18163.got - 2010.06.03 12:22:45.
