data_PCOD9165166
_publ_section_title
;
Structure prediction by ZEFSAII (Michael W. Deem and Ramdas Pophale) SiO2 
 PCOD9165166
Probable space group: P 21/M
;
_chemical_formula_sum "Si O2"
_cell_formula_units_Z 32
_cell_length_a 26.806682
_cell_length_b 8.712469
_cell_length_c 21.391840
_cell_angle_alpha 90.000000
_cell_angle_beta 20.727503
_cell_angle_gamma 90.000000
_cell_volume 1768.244266
_symmetry_space_group_name_H-M "P 21/M"
_symmetry_group_IT_number 11
_symmetry_cell_setting 'monoclinic'
loop_
_space_group_symop_operation_xyz
x,y,z
-x,1/2+y,-z
-x,-y,-z
x,1/2-y,z
loop_
_atom_site_type_symbol
_atom_site_label
_atom_site_fract_x
_atom_site_fract_y
_atom_site_fract_z
Si Si1 0.737391 0.565733 0.967459
Si Si2 0.138624 0.565487 0.304949
Si Si3 0.149560 0.933432 0.803502
Si Si4 0.564350 0.433895 0.987083
Si Si5 0.343093 0.065458 0.684671
Si Si6 0.855573 0.564623 0.965193
Si Si7 0.847005 0.565820 0.338355
Si Si8 0.549090 0.565042 0.746770
O O1 0.740048 0.750000 0.960356
O O2 0.828137 0.497724 0.803468
O O3 0.797891 0.520122 0.964377
O O4 0.576968 0.508219 0.145838
O O5 0.131650 0.750000 0.309799
O O6 0.274387 0.521560 0.187808
O O7 0.000000 0.500000 0.500000
O O8 0.148044 0.750000 0.807644
O O9 0.263226 0.999666 0.718134
O O10 0.172003 0.990956 0.707118
O O11 0.000000 0.000000 0.000000
O O12 0.559732 0.250000 0.989009
O O13 0.500000 0.500000 0.000000
O O14 0.478300 0.481787 0.149575
O O15 0.346238 0.250000 0.678424
O O16 0.500000 0.000000 0.500000
O O17 0.254097 0.021290 0.851123
O O18 0.868319 0.750000 0.951684
O O19 0.008059 0.493924 0.801360
O O20 0.854864 0.750000 0.323191
O O21 0.706323 0.525841 0.541683
O O22 0.532726 0.750000 0.761915
#
# Coordination Sequence:
#
# PCOD9165166 Si02
#       8
#     4   4   4   4   4   4   4   4
#     4  10  21  38  60  87 117 154 196 240 291 347
#     4  10  21  38  59  86 118 154 194 240 289 345
#     4  12  24  41  63  88 119 155 196 246 300 356
#     4   9  19  36  57  83 117 150 188 236 281 333
#     4  11  24  42  62  89 121 156 198 247 297 353
#     4  10  23  41  59  84 120 155 195 245 294 348
#     4  11  23  39  62  89 116 155 201 243 295 354
#     4   9  21  40  58  84 118 152 194 239 286 345
#
# _framework density 18.097048000000001
#
# number of rings (size 3 to 8) (size 9 to 14) (size 15 to 20)
#    0.000    1.750    1.250    3.375    1.750    6.000 
#    0.000    2.500    0.000    0.000    0.000    0.000 
#    0.000    0.000    0.000    0.000    0.000    0.000 
#
# Total GULP energy -178741.665062 kJ/mol
# GULP energy per Si atom -5585.677033 kJ/mol
# Density = 1.805586 g / cm^3
# Si number density = 18.097048 Si / 1000 Ang^3
#
#
#
# Elastic Constant Matrix: (Units=GPa)
#
#
# Indices 1 2 3 4 5 6 
#
# 1 203.9922 62.0323 113.7188 0.0000 -11.5053 0.0000
# 2 62.0323 58.9565 66.6582 0.0000 -2.5242 0.0000
# 3 113.7188 66.6582 196.2566 0.0000 -9.7576 0.0000
# 4 0.0000 0.0000 0.0000 32.9498 0.0000 -4.4867
# 5 -11.5053 -2.5242 -9.7576 0.0000 19.8849 0.0000
# 6 0.0000 0.0000 0.0000 -4.4867 0.0000 34.7109
#
#
#
# Elastic Compliance Matrix: (Units=1/GPa)
#
#
# Indices 1 2 3 4 5 6 
#
# 1 0.008270 -0.005389 -0.002826 0.000000 0.002714 0.000000
# 2 -0.005389 0.031073 -0.007575 0.000000 -0.002891 0.000000
# 3 -0.002826 -0.007575 0.009406 0.000000 0.002019 0.000000
# 4 0.000000 0.000000 0.000000 0.030893 0.000000 0.003993
# 5 0.002714 -0.002891 0.002019 0.000000 0.052483 0.000000
# 6 0.000000 0.000000 0.000000 0.003993 0.000000 0.029326
#
#
# Mechanical properties :
#
#
# Convention : Reuss Voigt Hill
#
# Bulk Modulus (GPa) = 58.24907 104.89156 81.57032
# Shear Modulus (GPa) = 25.15682 31.96219 28.55951
#
# Velocity S-wave (km/s) = 3.73246 4.20712 3.97688
# Velocity P-wave (km/s) = 7.12965 9.03805 8.13997
#
# Compressibility (1/GPa) = 0.01716765
#
# Stress axis : x y z
#
# Youngs Moduli (GPa) = 120.92397 32.18278 106.31318
#
# Poissons Ratio (x) = 0.17344 0.30048
# Poissons Ratio (y) = 0.65170 0.80529
# Poissons Ratio (z) = 0.34178 0.24377
#
# Static dielectric constant tensor:
#      x y z
#    x 1.592560 0.000000 0.004230 
#    y 0.000000 1.607260 0.000000 
#    z 0.004230 0.000000 1.606940 
# 
# From -- ./inp_files/66951.got.cif
#   From: 2010.05.17/outbox.cif.g08.bks.cpg/sg11_34_cif.got.tgz:66951.got - 2010.06.03 12:22:45.
