data_PCOD9165379
_publ_section_title
;
Structure prediction by ZEFSAII (Michael W. Deem and Ramdas Pophale) SiO2 
 PCOD9165379
Probable space group: P 21/M
;
_chemical_formula_sum "Si O2"
_cell_formula_units_Z 28
_cell_length_a 8.430828
_cell_length_b 14.014215
_cell_length_c 12.319598
_cell_angle_alpha 90.000000
_cell_angle_beta 122.570290
_cell_angle_gamma 90.000000
_cell_volume 1226.661825
_symmetry_space_group_name_H-M "P 21/M"
_symmetry_group_IT_number 11
_symmetry_cell_setting 'monoclinic'
loop_
_space_group_symop_operation_xyz
x,y,z
-x,1/2+y,-z
-x,-y,-z
x,1/2-y,z
loop_
_atom_site_type_symbol
_atom_site_label
_atom_site_fract_x
_atom_site_fract_y
_atom_site_fract_z
Si Si1 0.159517 0.006852 0.802698
Si Si2 0.779235 0.477430 0.938694
Si Si3 0.814919 0.138515 0.747629
Si Si4 0.235196 0.362924 0.652450
Si Si5 0.427421 0.137973 0.263812
Si Si6 0.872423 0.359015 0.393564
Si Si7 0.575979 0.863988 0.499205
O O1 0.289822 0.074979 0.776170
O O2 0.991833 0.074819 0.781326
O O3 0.089423 0.926528 0.694055
O O4 0.247820 0.961735 0.943409
O O5 0.739411 0.392729 0.838902
O O6 0.664971 0.570437 0.858703
O O7 0.000000 0.500000 0.000000
O O8 0.864957 0.250000 0.766164
O O9 0.645520 0.123658 0.601037
O O10 0.272416 0.250000 0.680219
O O11 0.326215 0.399705 0.573924
O O12 0.012474 0.376913 0.545402
O O13 0.376367 0.250000 0.232087
O O14 0.653417 0.132708 0.341962
O O15 0.365584 0.101796 0.360625
O O16 0.910991 0.250000 0.375223
O O17 0.611037 0.750000 0.513398
#
# Coordination Sequence:
#
# PCOD9165379 Si02
#       7
#     4   4   4   4   4   4   4
#     4  11  23  41  64  94 130 172 212 260 322 385
#     4  10  25  41  62  94 124 168 219 258 310 382
#     4  10  22  43  65  92 127 169 217 268 326 382
#     4  10  21  38  64 100 131 165 213 268 326 379
#     4  10  22  43  67  93 128 171 215 263 319 383
#     4  10  23  42  64  95 131 168 214 268 325 378
#     4   9  20  38  66  97 126 164 214 269 320 375
#
# _framework density 22.826179
#
# number of rings (size 3 to 8) (size 9 to 14) (size 15 to 20)
#    0.000    2.000    0.000    1.714    6.000    6.857 
#    0.000    0.000    0.000    0.000    0.000    0.000 
#    0.000    0.000    0.000    0.000    0.000    0.000 
#
# Total GULP energy -156617.278663 kJ/mol
# GULP energy per Si atom -5593.474238 kJ/mol
# Density = 2.277423 g / cm^3
# Si number density = 22.826179 Si / 1000 Ang^3
#
#
#
# Elastic Constant Matrix: (Units=GPa)
#
#
# Indices 1 2 3 4 5 6 
#
# 1 55.3002 14.7636 4.5323 0.0000 -7.7465 0.0000
# 2 14.7636 105.8471 26.2131 0.0000 -17.8412 0.0000
# 3 4.5323 26.2131 86.4475 0.0000 -29.3201 0.0000
# 4 0.0000 0.0000 0.0000 18.5081 0.0000 -11.8172
# 5 -7.7465 -17.8412 -29.3201 0.0000 43.6686 0.0000
# 6 0.0000 0.0000 0.0000 -11.8172 0.0000 8.5748
#
#
#
# Elastic Compliance Matrix: (Units=1/GPa)
#
#
# Indices 1 2 3 4 5 6 
#
# 1 0.019056 -0.002342 0.000690 0.000000 0.002887 0.000000
# 2 -0.002342 0.010757 -0.002317 0.000000 0.002424 0.000000
# 3 0.000690 -0.002317 0.015480 0.000000 0.009569 0.000000
# 4 0.000000 0.000000 0.000000 0.449961 0.000000 0.620105
# 5 0.002887 0.002424 0.009569 0.000000 0.030827 0.000000
# 6 0.000000 0.000000 0.000000 0.620105 0.000000 0.971206
#
#
# Mechanical properties :
#
#
# Convention : Reuss Voigt Hill
#
# Bulk Modulus (GPa) = 26.77037 37.62366 32.19702
# Shear Modulus (GPa) = 3.29451 27.62268 15.45860
#
# Velocity S-wave (km/s) = 1.20268 3.48247 2.60519
# Velocity P-wave (km/s) = 3.69891 5.71739 4.81511
#
# Compressibility (1/GPa) = 0.03735473
#
# Stress axis : x y z
#
# Youngs Moduli (GPa) = 52.47613 92.96637 64.60109
#
# Poissons Ratio (x) = 0.21776 -0.04460
# Poissons Ratio (y) = 0.12292 0.14967
# Poissons Ratio (z) = -0.03623 0.21539
#
# Static dielectric constant tensor:
#      x y z
#    x 1.915980 0.000000 -0.008940 
#    y 0.000000 1.843040 0.000000 
#    z -0.008940 0.000000 1.826550 
# 
# From -- ./inp_files/17966.got.cif
#   From: 2010.05.17/outbox.cif.g08.bks.cpg/sg11_9_cif.got.tgz:17966.got - 2010.06.03 12:22:45.
