data_PCOD9165813
_publ_section_title
;
Structure prediction by ZEFSAII (Michael W. Deem and Ramdas Pophale) SiO2 
 PCOD9165813
Probable space group: P 21/M
;
_chemical_formula_sum "Si O2"
_cell_formula_units_Z 28
_cell_length_a 18.646199
_cell_length_b 11.972345
_cell_length_c 6.025450
_cell_angle_alpha 90.000000
_cell_angle_beta 106.768072
_cell_angle_gamma 90.000000
_cell_volume 1287.920105
_symmetry_space_group_name_H-M "P 21/M"
_symmetry_group_IT_number 11
_symmetry_cell_setting 'monoclinic'
loop_
_space_group_symop_operation_xyz
x,y,z
-x,1/2+y,-z
-x,-y,-z
x,1/2-y,z
loop_
_atom_site_type_symbol
_atom_site_label
_atom_site_fract_x
_atom_site_fract_y
_atom_site_fract_z
Si Si1 0.819569 0.120372 0.371116
Si Si2 0.183396 0.250000 0.135498
Si Si3 0.553237 0.044770 0.238380
Si Si4 0.259642 0.250000 0.703170
Si Si5 0.966588 0.122325 0.219470
Si Si6 0.888185 0.524891 0.778697
Si Si7 0.686638 0.512051 0.106157
Si Si8 0.414930 0.375591 0.349766
O O1 0.797929 0.250000 0.387072
O O2 0.904110 0.121715 0.353538
O O3 0.823877 0.042858 0.593182
O O4 0.764081 0.054636 0.155423
O O5 0.222482 0.250000 0.421804
O O6 0.139514 0.133087 0.113122
O O7 0.218255 0.250000 0.913975
O O8 0.497920 0.128231 0.313857
O O9 0.632044 0.070979 0.195265
O O10 0.570879 0.942424 0.415425
O O11 0.500000 0.000000 0.000000
O O12 0.301442 0.130699 0.757868
O O13 0.979987 0.250000 0.168073
O O14 0.047889 0.069677 0.333954
O O15 0.929074 0.058786 0.981135
O O16 0.642950 0.551162 0.846991
O O17 0.386144 0.250000 0.348133
#
# Coordination Sequence:
#
# PCOD9165813 Si02
#       8
#     4   2   4   2   4   4   4   4
#     4  11  24  42  62  91 133 178 228 282 349 425
#     4  12  26  44  68 108 144 183 238 298 362 413
#     4   9  22  40  61  96 132 169 224 276 338 413
#     4  12  26  42  70 110 146 183 226 302 356 429
#     4  10  22  41  63  92 126 177 234 290 357 414
#     4  11  22  41  65  92 131 176 233 294 346 424
#     4  11  23  39  64 100 136 176 225 282 350 417
#     4  10  21  40  66  94 130 176 225 282 342 414
#
# _framework density 21.740480999999999
#
# number of rings (size 3 to 8) (size 9 to 14) (size 15 to 20)
#    0.000    1.429    2.857    1.714    3.000    2.286 
#    0.000    5.714    0.000    0.000    0.000    0.000 
#    0.000    0.000    0.000    0.000    0.000    0.000 
#
# Total GULP energy -156054.214345 kJ/mol
# GULP energy per Si atom -5573.364798 kJ/mol
# Density = 2.169100 g / cm^3
# Si number density = 21.740481 Si / 1000 Ang^3
#
#
#
# Elastic Constant Matrix: (Units=GPa)
#
#
# Indices 1 2 3 4 5 6 
#
# 1 63.6522 35.9671 16.5266 0.0000 6.7147 0.0000
# 2 35.9671 152.0940 48.6656 0.0000 16.0151 0.0000
# 3 16.5266 48.6656 87.8813 0.0000 14.1072 0.0000
# 4 0.0000 0.0000 0.0000 26.7960 0.0000 4.7798
# 5 6.7147 16.0151 14.1072 0.0000 20.2940 0.0000
# 6 0.0000 0.0000 0.0000 4.7798 0.0000 29.2658
#
#
#
# Elastic Compliance Matrix: (Units=1/GPa)
#
#
# Indices 1 2 3 4 5 6 
#
# 1 0.018350 -0.003774 -0.000973 0.000000 -0.002417 0.000000
# 2 -0.003774 0.009012 -0.003759 0.000000 -0.003250 0.000000
# 3 -0.000973 -0.003759 0.014763 0.000000 -0.006974 0.000000
# 4 0.000000 0.000000 0.000000 0.038439 0.000000 -0.006278
# 5 -0.002417 -0.003250 -0.006974 0.000000 0.057488 0.000000
# 6 0.000000 0.000000 0.000000 -0.006278 0.000000 0.035195
#
#
# Mechanical properties :
#
#
# Convention : Reuss Voigt Hill
#
# Bulk Modulus (GPa) = 39.81877 56.21624 48.01750
# Shear Modulus (GPa) = 25.17225 28.76904 26.97065
#
# Velocity S-wave (km/s) = 3.40641 3.64166 3.52600
# Velocity P-wave (km/s) = 5.81608 6.60274 6.22186
#
# Compressibility (1/GPa) = 0.02511379
#
# Stress axis : x y z
#
# Youngs Moduli (GPa) = 54.49496 110.95857 67.73554
#
# Poissons Ratio (x) = 0.41871 0.06592
# Poissons Ratio (y) = 0.20564 0.25464
# Poissons Ratio (z) = 0.05304 0.41713
#
# Static dielectric constant tensor:
#      x y z
#    x 1.924240 0.000000 -0.042690 
#    y 0.000000 -1.611310 0.000000 
#    z -0.042690 0.000000 1.800650 
# 
# From -- ./inp_files/8881.got.cif
#   From: 2010.05.17/outbox.cif.g08.bks.cpg/sg11_5_cif.got.tgz:8881.got - 2010.06.03 12:22:45.
