data_PCOD9165717
_publ_section_title
;
Structure prediction by ZEFSAII (Michael W. Deem and Ramdas Pophale) SiO2 
 PCOD9165717
Probable space group: P 21/M
;
_chemical_formula_sum "Si O2"
_cell_formula_units_Z 32
_cell_length_a 24.348423
_cell_length_b 9.530429
_cell_length_c 14.419912
_cell_angle_alpha 90.000000
_cell_angle_beta 30.033733
_cell_angle_gamma 90.000000
_cell_volume 1674.782726
_symmetry_space_group_name_H-M "P 21/M"
_symmetry_group_IT_number 11
_symmetry_cell_setting 'monoclinic'
loop_
_space_group_symop_operation_xyz
x,y,z
-x,1/2+y,-z
-x,-y,-z
x,1/2-y,z
loop_
_atom_site_type_symbol
_atom_site_label
_atom_site_fract_x
_atom_site_fract_y
_atom_site_fract_z
Si Si1 0.596258 0.409391 0.091257
Si Si2 0.594861 0.415377 0.311365
Si Si3 0.542301 0.416405 0.848453
Si Si4 0.005742 0.417056 0.087984
Si Si5 0.208380 0.585816 0.472566
Si Si6 0.154591 0.916992 0.013528
Si Si7 0.923465 0.896870 0.709062
Si Si8 0.169657 0.517899 0.329761
O O1 0.554181 0.250000 0.141818
O O2 0.599946 0.445618 0.194181
O O3 0.520948 0.517126 0.145565
O O4 0.719258 0.412571 0.870097
O O5 0.500000 0.500000 0.500000
O O6 0.573238 0.250000 0.352849
O O7 0.715268 0.442672 0.176562
O O8 0.520728 0.250000 0.888246
O O9 0.673570 0.436406 0.653833
O O10 0.500000 0.500000 0.000000
O O11 0.026214 0.250000 0.045861
O O12 0.890796 0.431714 0.311379
O O13 0.095354 0.493189 0.021261
O O14 0.000000 0.500000 0.000000
O O15 0.206069 0.750000 0.443335
O O16 0.192745 0.489716 0.404366
O O17 0.134753 0.750000 0.033299
O O18 0.108826 0.973619 0.178861
O O19 0.897252 0.750000 0.796782
O O20 0.053515 0.901187 0.500673
O O21 0.859081 0.903676 0.706307
#
# Coordination Sequence:
#
# PCOD9165717 Si02
#       8
#     4   4   4   4   4   4   4   4
#     4  11  22  41  64  89 124 165 206 252 312 370
#     4  10  24  44  66  91 123 166 210 258 311 368
#     4  11  23  39  60  89 122 163 209 256 307 365
#     4  11  24  45  68  94 124 163 212 259 311 370
#     4  10  21  40  63  87 122 167 205 248 310 373
#     4  11  23  42  66  95 128 165 206 256 316 375
#     4  11  23  37  60  97 131 166 207 252 304 374
#     4  11  21  37  61  92 131 167 200 245 316 374
#
# _framework density 19.106956
#
# number of rings (size 3 to 8) (size 9 to 14) (size 15 to 20)
#    0.000    1.250    3.750    2.250    0.000    5.500 
#    0.000    6.250    0.000    0.000    0.000    0.000 
#    0.000    0.000    0.000    0.000    0.000    0.000 
#
# Total GULP energy -178610.779525 kJ/mol
# GULP energy per Si atom -5581.586860 kJ/mol
# Density = 1.906347 g / cm^3
# Si number density = 19.106956 Si / 1000 Ang^3
#
#
#
# Elastic Constant Matrix: (Units=GPa)
#
#
# Indices 1 2 3 4 5 6 
#
# 1 140.6453 83.3558 79.4341 0.0000 -11.4069 0.0000
# 2 83.3558 119.3970 68.6431 0.0000 -8.3603 0.0000
# 3 79.4341 68.6431 128.8152 0.0000 -1.8677 0.0000
# 4 0.0000 0.0000 0.0000 16.3774 0.0000 6.3786
# 5 -11.4069 -8.3603 -1.8677 0.0000 33.1257 0.0000
# 6 0.0000 0.0000 0.0000 6.3786 0.0000 25.9246
#
#
#
# Elastic Compliance Matrix: (Units=1/GPa)
#
#
# Indices 1 2 3 4 5 6 
#
# 1 0.014287 -0.006819 -0.005134 0.000000 0.002909 0.000000
# 2 -0.006819 0.015573 -0.004074 0.000000 0.001352 0.000000
# 3 -0.005134 -0.004074 0.013070 0.000000 -0.002059 0.000000
# 4 0.000000 0.000000 0.000000 0.067531 0.000000 -0.016616
# 5 0.002909 0.001352 -0.002059 0.000000 0.031415 0.000000
# 6 0.000000 0.000000 0.000000 -0.016616 0.000000 0.042662
#
#
# Mechanical properties :
#
#
# Convention : Reuss Voigt Hill
#
# Bulk Modulus (GPa) = 91.94723 94.63594 93.29159
# Shear Modulus (GPa) = 22.70478 25.58050 24.14264
#
# Velocity S-wave (km/s) = 3.45091 3.66294 3.55850
# Velocity P-wave (km/s) = 8.00657 8.21746 8.11270
#
# Compressibility (1/GPa) = 0.01087580
#
# Stress axis : x y z
#
# Youngs Moduli (GPa) = 69.99267 64.21424 76.50958
#
# Poissons Ratio (x) = 0.43787 0.39283
# Poissons Ratio (y) = 0.47727 0.31170
# Poissons Ratio (z) = 0.35937 0.26161
#
# Static dielectric constant tensor:
#      x y z
#    x 1.670780 0.000000 -0.002050 
#    y 0.000000 1.774210 0.000000 
#    z -0.002050 0.000000 1.636580 
# 
# From -- ./inp_files/55539.got.cif
#   From: 2010.05.17/outbox.cif.g08.bks.cpg/sg11_28_cif.got.tgz:55539.got - 2010.06.03 12:22:45.
