data_PCOD9165144
_publ_section_title
;
Structure prediction by ZEFSAII (Michael W. Deem and Ramdas Pophale) SiO2 
 PCOD9165144
Probable space group: P 21/M
;
_chemical_formula_sum "Si O2"
_cell_formula_units_Z 16
_cell_length_a 20.293739
_cell_length_b 8.868622
_cell_length_c 16.086956
_cell_angle_alpha 90.000000
_cell_angle_beta 161.631841
_cell_angle_gamma 90.000000
_cell_volume 912.368657
_symmetry_space_group_name_H-M "P 21/M"
_symmetry_group_IT_number 11
_symmetry_cell_setting 'monoclinic'
loop_
_space_group_symop_operation_xyz
x,y,z
-x,1/2+y,-z
-x,-y,-z
x,1/2-y,z
loop_
_atom_site_type_symbol
_atom_site_label
_atom_site_fract_x
_atom_site_fract_y
_atom_site_fract_z
Si Si1 0.537995 0.929437 0.288071
Si Si2 0.588421 0.569643 0.690026
Si Si3 0.943255 0.071171 0.693175
Si Si4 0.114423 0.069623 0.716053
O O1 0.518961 0.750000 0.269012
O O2 0.521304 0.998218 0.360614
O O3 0.753440 0.978433 0.503458
O O4 0.342495 0.998322 0.003411
O O5 0.500000 0.500000 0.500000
O O6 0.560170 0.750000 0.657639
O O7 0.836401 0.539391 0.997511
O O8 0.899603 0.250000 0.649492
O O9 0.985149 0.039235 0.646052
O O10 0.134319 0.250000 0.731865
O O11 0.000000 0.000000 0.500000
#
# Coordination Sequence:
#
# PCOD9165144 Si02
#       4
#     4   4   4   4
#     4  11  22  36  57  83 111 145 183 225 274 326
#     4  10  21  38  59  82 111 145 183 228 274 324
#     4   9  20  38  57  79 109 145 183 225 272 322
#     4  10  21  38  59  82 111 145 183 228 274 324
#
# _framework density 17.536770000000001
#
# number of rings (size 3 to 8) (size 9 to 14) (size 15 to 20)
#    0.000    2.000    0.000    5.250    0.000    8.000 
#    0.000    0.000    0.000    0.000    0.000    0.000 
#    0.000    0.000    0.000    0.000    0.000    0.000 
#
# Total GULP energy -89372.743848 kJ/mol
# GULP energy per Si atom -5585.796491 kJ/mol
# Density = 1.749686 g / cm^3
# Si number density = 17.536770 Si / 1000 Ang^3
#
#
#
# Elastic Constant Matrix: (Units=GPa)
#
#
# Indices 1 2 3 4 5 6 
#
# 1 129.6211 98.5445 117.6993 0.0000 -17.9999 0.0000
# 2 98.5445 132.9242 98.8054 0.0000 3.3956 0.0000
# 3 117.6993 98.8054 121.3320 0.0000 -8.4681 0.0000
# 4 0.0000 0.0000 0.0000 32.7694 0.0000 -3.6026
# 5 -17.9999 3.3956 -8.4681 0.0000 41.1220 0.0000
# 6 0.0000 0.0000 0.0000 -3.6026 0.0000 33.7208
#
#
#
# Elastic Compliance Matrix: (Units=1/GPa)
#
#
# Indices 1 2 3 4 5 6 
#
# 1 0.079715 -0.008287 -0.069090 0.000000 0.021350 0.000000
# 2 -0.008287 0.020922 -0.009509 0.000000 -0.007313 0.000000
# 3 -0.069090 -0.009509 0.082132 0.000000 -0.012544 0.000000
# 4 0.000000 0.000000 0.000000 0.030879 0.000000 0.003299
# 5 0.021350 -0.007313 -0.012544 0.000000 0.031684 0.000000
# 6 0.000000 0.000000 0.000000 0.003299 0.000000 0.030008
#
#
# Mechanical properties :
#
#
# Convention : Reuss Voigt Hill
#
# Bulk Modulus (GPa) = 111.15574 112.66396 111.90985
# Shear Modulus (GPa) = 11.05924 26.11099 18.58511
#
# Velocity S-wave (km/s) = 2.51396 3.86285 3.25896
# Velocity P-wave (km/s) = 8.48226 9.18038 8.83821
#
# Compressibility (1/GPa) = 0.00899639
#
# Stress axis : x y z
#
# Youngs Moduli (GPa) = 12.54464 47.79745 12.17554
#
# Poissons Ratio (x) = 0.39608 0.84121
# Poissons Ratio (y) = 0.10395 0.11578
# Poissons Ratio (z) = 0.86671 0.45451
#
# Static dielectric constant tensor:
#      x y z
#    x 1.570180 0.000000 -0.000220 
#    y 0.000000 1.585610 0.000000 
#    z -0.000220 0.000000 1.569990 
# 
# From -- ./inp_files/5870.got.cif
#   From: 2010.05.17/outbox.cif.g08.bks.cpg/sg11_3_cif.got.tgz:5870.got - 2010.06.03 12:22:45.
