data_PCOD9165397
_publ_section_title
;
Structure prediction by ZEFSAII (Michael W. Deem and Ramdas Pophale) SiO2 
 PCOD9165397
Probable space group: P 21/M
;
_chemical_formula_sum "Si O2"
_cell_formula_units_Z 22
_cell_length_a 8.903037
_cell_length_b 19.749608
_cell_length_c 5.821437
_cell_angle_alpha 90.000000
_cell_angle_beta 110.135935
_cell_angle_gamma 90.000000
_cell_volume 961.028501
_symmetry_space_group_name_H-M "P 21/M"
_symmetry_group_IT_number 11
_symmetry_cell_setting 'monoclinic'
loop_
_space_group_symop_operation_xyz
x,y,z
-x,1/2+y,-z
-x,-y,-z
x,1/2-y,z
loop_
_atom_site_type_symbol
_atom_site_label
_atom_site_fract_x
_atom_site_fract_y
_atom_site_fract_z
Si Si1 0.709950 0.750000 0.085079
Si Si2 0.985142 0.750000 0.621559
Si Si3 0.581327 0.044335 0.341475
Si Si4 0.252383 0.870227 0.241990
Si Si5 0.913904 0.858828 0.968038
Si Si6 0.664576 0.250000 0.051265
Si Si7 0.739916 0.512855 0.025854
O O1 0.832997 0.750000 0.368677
O O2 0.767188 0.816225 0.982656
O O3 0.520044 0.750000 0.980411
O O4 0.959318 0.819792 0.757214
O O5 0.181023 0.750000 0.694672
O O6 0.641952 0.113679 0.481542
O O7 0.500000 0.000000 0.500000
O O8 0.729030 0.007272 0.289903
O O9 0.431958 0.050351 0.093593
O O10 0.317476 0.814751 0.105199
O O11 0.071891 0.849594 0.206694
O O12 0.247755 0.941404 0.099782
O O13 0.865316 0.936683 0.974443
#
# Coordination Sequence:
#
# PCOD9165397 Si02
#       7
#     2   2   4   4   4   2   4
#     4  11  25  41  66  94 130 176 219 272 323 382
#     4   9  23  47  62  94 136 174 211 280 321 380
#     4   9  21  36  58  91 124 158 207 256 318 377
#     4  10  22  42  62  92 130 170 210 270 323 387
#     4  10  23  41  61  98 130 163 227 264 319 399
#     4  10  24  42  68  92 128 170 228 258 322 396
#     4  10  21  38  65  92 129 167 212 267 324 388
#
# _framework density 22.892143000000001
#
# number of rings (size 3 to 8) (size 9 to 14) (size 15 to 20)
#    0.000    2.182    0.000    1.091   10.182    5.091 
#    0.000    2.727    0.000    0.000    0.000    0.000 
#    0.000    0.000    0.000    0.000    0.000    0.000 
#
# Total GULP energy -122527.908756 kJ/mol
# GULP energy per Si atom -5569.450398 kJ/mol
# Density = 2.284004 g / cm^3
# Si number density = 22.892143 Si / 1000 Ang^3
#
#
#
# Elastic Constant Matrix: (Units=GPa)
#
#
# Indices 1 2 3 4 5 6 
#
# 1 148.9924 34.2928 9.6531 0.0000 19.0072 0.0000
# 2 34.2928 110.5264 -8.0206 0.0000 -3.3413 0.0000
# 3 9.6531 -8.0206 32.7163 0.0000 4.7012 0.0000
# 4 0.0000 0.0000 0.0000 97.1420 0.0000 -14.9542
# 5 19.0072 -3.3413 4.7012 0.0000 21.2684 0.0000
# 6 0.0000 0.0000 0.0000 -14.9542 0.0000 36.7823
#
#
#
# Elastic Compliance Matrix: (Units=1/GPa)
#
#
# Indices 1 2 3 4 5 6 
#
# 1 0.008521 -0.003031 -0.002163 0.000000 -0.007613 0.000000
# 2 -0.003031 0.010309 0.002892 0.000000 0.003689 0.000000
# 3 -0.002163 0.002892 0.032606 0.000000 -0.004820 0.000000
# 4 0.000000 0.000000 0.000000 0.010982 0.000000 0.004465
# 5 -0.007613 0.003689 -0.004820 0.000000 0.055466 0.000000
# 6 0.000000 0.000000 0.000000 0.004465 0.000000 0.029002
#
#
# Mechanical properties :
#
#
# Convention : Reuss Voigt Hill
#
# Bulk Modulus (GPa) = 21.35352 40.45395 30.90374
# Shear Modulus (GPa) = 29.92210 48.12587 39.02399
#
# Velocity S-wave (km/s) = 3.61929 4.59005 4.13327
# Velocity P-wave (km/s) = 5.17821 6.76766 6.02557
#
# Compressibility (1/GPa) = 0.04683069
#
# Stress axis : x y z
#
# Youngs Moduli (GPa) = 117.36180 96.99953 30.66967
#
# Poissons Ratio (x) = 0.29399 0.06634
# Poissons Ratio (y) = 0.35570 -0.08868
# Poissons Ratio (z) = 0.25387 -0.28048
#
# Static dielectric constant tensor:
#      x y z
#    x 1.917160 0.000000 0.000780 
#    y 0.000000 1.505460 0.000000 
#    z 0.000780 0.000000 1.937030 
# 
# From -- ./inp_files/2347.got.cif
#   From: 2010.05.17/outbox.cif.g08.bks.cpg/sg11_2_cif.got.tgz:2347.got - 2010.06.03 12:22:45.
