data_PCOD9165614
_publ_section_title
;
Structure prediction by ZEFSAII (Michael W. Deem and Ramdas Pophale) SiO2 
 PCOD9165614
Probable space group: P 21/M
;
_chemical_formula_sum "Si O2"
_cell_formula_units_Z 24
_cell_length_a 14.552830
_cell_length_b 15.117559
_cell_length_c 8.174869
_cell_angle_alpha 90.000000
_cell_angle_beta 139.196355
_cell_angle_gamma 90.000000
_cell_volume 1175.262181
_symmetry_space_group_name_H-M "P 21/M"
_symmetry_group_IT_number 11
_symmetry_cell_setting 'monoclinic'
loop_
_space_group_symop_operation_xyz
x,y,z
-x,1/2+y,-z
-x,-y,-z
x,1/2-y,z
loop_
_atom_site_type_symbol
_atom_site_label
_atom_site_fract_x
_atom_site_fract_y
_atom_site_fract_z
Si Si1 0.109333 0.601408 0.024309
Si Si2 0.858672 0.892121 0.885608
Si Si3 0.639709 0.347864 0.848465
Si Si4 0.617684 0.517941 0.023400
Si Si5 0.168429 0.352825 0.511695
Si Si6 0.400896 0.151810 0.275493
O O1 0.021417 0.633760 0.065944
O O2 0.994554 0.617750 0.725377
O O3 0.139438 0.497972 0.091931
O O4 0.249882 0.646383 0.152688
O O5 0.786297 0.862976 0.617735
O O6 0.764648 0.855179 0.903923
O O7 0.646270 0.250000 0.930975
O O8 0.668343 0.425795 0.014191
O O9 0.489090 0.360765 0.559998
O O10 0.557203 0.576241 0.793497
O O11 0.500000 0.500000 0.000000
O O12 0.741377 0.578859 0.263057
O O13 0.180791 0.250000 0.577688
O O14 0.431526 0.250000 0.253422
#
# Coordination Sequence:
#
# PCOD9165614 Si02
#       6
#     4   4   4   4   4   4
#     4   9  20  38  66  93 121 157 208 258 312 367
#     4   9  19  38  66  91 119 158 211 254 305 371
#     4  11  24  42  65  91 125 166 215 264 310 365
#     4  12  26  39  63  89 130 166 210 260 313 373
#     4  10  21  39  64  93 129 166 201 253 321 381
#     4  11  23  40  65  94 122 165 215 257 308 375
#
# _framework density 20.420973
#
# number of rings (size 3 to 8) (size 9 to 14) (size 15 to 20)
#    1.000    0.667    1.667    3.000    2.333    3.333 
#    0.000    0.000    0.000    1.000    0.000    0.000 
#    0.000    0.000    0.000    0.000    0.000    0.000 
#
# Total GULP energy -133717.528639 kJ/mol
# GULP energy per Si atom -5571.563693 kJ/mol
# Density = 2.037449 g / cm^3
# Si number density = 20.420973 Si / 1000 Ang^3
#
#
#
# Elastic Constant Matrix: (Units=GPa)
#
#
# Indices 1 2 3 4 5 6 
#
# 1 100.0832 32.5453 6.9617 0.0000 16.7688 0.0000
# 2 32.5453 153.3755 29.7830 0.0000 -9.7132 0.0000
# 3 6.9617 29.7830 33.0724 0.0000 10.7584 0.0000
# 4 0.0000 0.0000 0.0000 27.1982 0.0000 1.9047
# 5 16.7688 -9.7132 10.7584 0.0000 27.3739 0.0000
# 6 0.0000 0.0000 0.0000 1.9047 0.0000 -8.4284
#
#
#
# Elastic Compliance Matrix: (Units=1/GPa)
#
#
# Indices 1 2 3 4 5 6 
#
# 1 0.013033 -0.004478 0.005048 0.000000 -0.011557 0.000000
# 2 -0.004478 0.010565 -0.012249 0.000000 0.011306 0.000000
# 3 0.005048 -0.012249 0.048873 0.000000 -0.026647 0.000000
# 4 0.000000 0.000000 0.000000 0.036194 0.000000 0.008179
# 5 -0.011557 0.011306 -0.026647 0.000000 0.058095 0.000000
# 6 0.000000 0.000000 0.000000 0.008179 0.000000 -0.116798
#
#
# Mechanical properties :
#
#
# Convention : Reuss Voigt Hill
#
# Bulk Modulus (GPa) = 20.36100 47.23456 33.79778
# Shear Modulus (GPa) = 55.74769 23.71146 39.72957
#
# Velocity S-wave (km/s) = 5.23053 3.41124 4.41560
# Velocity P-wave (km/s) = 6.81691 6.22061 6.52558
#
# Compressibility (1/GPa) = 0.04911350
#
# Stress axis : x y z
#
# Youngs Moduli (GPa) = 76.72891 94.65542 20.46124
#
# Poissons Ratio (x) = 0.42384 -0.10329
# Poissons Ratio (y) = 0.34357 0.25063
# Poissons Ratio (z) = -0.38735 1.15944
#
# Static dielectric constant tensor:
#      x y z
#    x 1.751500 0.000000 0.012690 
#    y 0.000000 1.725240 0.000000 
#    z 0.012690 0.000000 1.736280 
# 
# From -- ./inp_files/22333.got.cif
#   From: 2010.05.17/outbox.cif.g08.bks.cpg/sg11_12_cif.got.tgz:22333.got - 2010.06.03 12:22:45.
