data_PCOD9165510
_publ_section_title
;
Structure prediction by ZEFSAII (Michael W. Deem and Ramdas Pophale) SiO2 
 PCOD9165510
Probable space group: P 21/M
;
_chemical_formula_sum "Si O2"
_cell_formula_units_Z 28
_cell_length_a 9.338844
_cell_length_b 9.452685
_cell_length_c 27.256441
_cell_angle_alpha 90.000000
_cell_angle_beta 39.042118
_cell_angle_gamma 90.000000
_cell_volume 1515.595131
_symmetry_space_group_name_H-M "P 21/M"
_symmetry_group_IT_number 11
_symmetry_cell_setting 'monoclinic'
loop_
_space_group_symop_operation_xyz
x,y,z
-x,1/2+y,-z
-x,-y,-z
x,1/2-y,z
loop_
_atom_site_type_symbol
_atom_site_label
_atom_site_fract_x
_atom_site_fract_y
_atom_site_fract_z
Si Si1 0.668059 0.081760 0.991698
Si Si2 0.023180 0.416292 0.282664
Si Si3 0.320746 0.919236 0.711631
Si Si4 0.204450 0.081076 0.840122
Si Si5 0.435765 0.582140 0.868088
Si Si6 0.268755 0.412098 0.562890
Si Si7 0.794628 0.910275 0.534978
O O1 0.622904 0.250000 0.999555
O O2 0.932866 0.056786 0.909617
O O3 0.629426 0.042413 0.058948
O O4 0.500000 0.000000 0.000000
O O5 0.975949 0.250000 0.305614
O O6 0.898157 0.447973 0.264391
O O7 0.908778 0.511810 0.354470
O O8 0.292703 0.436228 0.209029
O O9 0.323516 0.750000 0.721105
O O10 0.545644 0.955751 0.620197
O O11 0.312438 0.007109 0.763710
O O12 0.244250 0.250000 0.830123
O O13 0.305655 0.008983 0.862019
O O14 0.384841 0.750000 0.874920
O O15 0.500000 0.500000 0.500000
O O16 0.307777 0.250000 0.568175
O O17 0.191348 0.410963 0.527269
O O18 0.821647 0.750000 0.545548
O O19 0.000000 0.000000 0.500000
#
# Coordination Sequence:
#
# PCOD9165510 Si02
#       7
#     4   4   4   4   4   4   4
#     4  10  22  41  65  92 121 157 199 241 290 348
#     4  10  21  39  62  87 115 151 201 248 291 351
#     4  10  21  41  62  83 116 159 201 240 292 357
#     4  11  24  39  59  91 126 155 194 246 294 343
#     4  10  22  40  63  89 119 160 199 236 292 356
#     4  11  22  39  61  87 117 153 197 246 299 351
#     4  10  23  40  59  84 116 155 199 245 296 353
#
# _framework density 18.474591
#
# number of rings (size 3 to 8) (size 9 to 14) (size 15 to 20)
#    0.000    1.714    1.429    2.143    2.000    5.714 
#    0.000    0.000    0.000    0.000    0.000    0.000 
#    0.000    0.000    0.000    0.000    0.000    0.000 
#
# Total GULP energy -156389.992832 kJ/mol
# GULP energy per Si atom -5585.356887 kJ/mol
# Density = 1.843254 g / cm^3
# Si number density = 18.474591 Si / 1000 Ang^3
#
#
#
# Elastic Constant Matrix: (Units=GPa)
#
#
# Indices 1 2 3 4 5 6 
#
# 1 123.4255 61.5396 29.1417 0.0000 4.6447 0.0000
# 2 61.5396 64.9177 34.3500 0.0000 6.4969 0.0000
# 3 29.1417 34.3500 63.3566 0.0000 22.2714 0.0000
# 4 0.0000 0.0000 0.0000 28.8289 0.0000 2.0712
# 5 4.6447 6.4969 22.2714 0.0000 30.5601 0.0000
# 6 0.0000 0.0000 0.0000 2.0712 0.0000 38.5643
#
#
#
# Elastic Compliance Matrix: (Units=1/GPa)
#
#
# Indices 1 2 3 4 5 6 
#
# 1 0.015425 -0.015233 0.001142 0.000000 0.000062 0.000000
# 2 -0.015233 0.037302 -0.015116 0.000000 0.005401 0.000000
# 3 0.001142 -0.015116 0.030095 0.000000 -0.018892 0.000000
# 4 0.000000 0.000000 0.000000 0.034822 0.000000 -0.001870
# 5 0.000062 0.005401 -0.018892 0.000000 0.045333 0.000000
# 6 0.000000 0.000000 0.000000 -0.001870 0.000000 0.026031
#
#
# Mechanical properties :
#
#
# Convention : Reuss Voigt Hill
#
# Bulk Modulus (GPa) = 40.96945 55.75137 48.36041
# Shear Modulus (GPa) = 19.56495 28.03523 23.80009
#
# Velocity S-wave (km/s) = 3.25779 3.89974 3.59313
# Velocity P-wave (km/s) = 6.03118 7.10775 6.59148
#
# Compressibility (1/GPa) = 0.02440843
#
# Stress axis : x y z
#
# Youngs Moduli (GPa) = 64.82897 26.80792 33.22807
#
# Poissons Ratio (x) = 0.40837 -0.03795
# Poissons Ratio (y) = 0.98754 0.50228
# Poissons Ratio (z) = -0.07405 0.40524
#
# Static dielectric constant tensor:
#      x y z
#    x 1.587380 0.000000 -0.011850 
#    y 0.000000 1.626680 0.000000 
#    z -0.011850 0.000000 1.619520 
# 
# From -- ./inp_files/28460.got.cif
#   From: 2010.05.17/outbox.cif.g08.bks.cpg/sg11_15_cif.got.tgz:28460.got - 2010.06.03 12:22:45.
