data_PCOD9165255
_publ_section_title
;
Structure prediction by ZEFSAII (Michael W. Deem and Ramdas Pophale) SiO2 
 PCOD9165255
Probable space group: P 21/M
;
_chemical_formula_sum "Si O2"
_cell_formula_units_Z 28
_cell_length_a 8.368376
_cell_length_b 8.859363
_cell_length_c 24.928627
_cell_angle_alpha 90.000000
_cell_angle_beta 42.990757
_cell_angle_gamma 90.000000
_cell_volume 1260.231204
_symmetry_space_group_name_H-M "P 21/M"
_symmetry_group_IT_number 11
_symmetry_cell_setting 'monoclinic'
loop_
_space_group_symop_operation_xyz
x,y,z
-x,1/2+y,-z
-x,-y,-z
x,1/2-y,z
loop_
_atom_site_type_symbol
_atom_site_label
_atom_site_fract_x
_atom_site_fract_y
_atom_site_fract_z
Si Si1 0.946801 0.928989 0.832529
Si Si2 0.808918 0.075712 0.972266
Si Si3 0.587636 0.429803 0.533792
Si Si4 0.575822 0.569316 0.311386
Si Si5 0.942595 0.071986 0.605900
Si Si6 0.342396 0.422998 0.884068
Si Si7 0.801692 0.572354 0.746593
O O1 0.929074 0.750000 0.844713
O O2 0.867533 0.966065 0.791557
O O3 0.215761 0.983137 0.768819
O O4 0.799957 0.011530 0.914700
O O5 0.731228 0.250000 0.994315
O O6 0.083794 0.069881 0.922122
O O7 0.680773 0.977553 0.048837
O O8 0.500000 0.500000 0.500000
O O9 0.578255 0.250000 0.532790
O O10 0.439499 0.475980 0.622281
O O11 0.855840 0.482372 0.474339
O O12 0.618501 0.750000 0.296772
O O13 0.318246 0.540070 0.351167
O O14 0.986939 0.250000 0.590356
O O15 0.942770 0.020981 0.667838
O O16 0.424345 0.250000 0.860479
O O17 0.528509 0.528896 0.809205
O O18 0.839543 0.750000 0.728659
#
# Coordination Sequence:
#
# PCOD9165255 Si02
#       7
#     4   4   4   4   4   4   4
#     4  11  24  39  58  85 117 153 194 239 288 343
#     4  10  21  38  61  87 116 151 192 238 289 346
#     4  11  23  40  62  89 121 156 193 237 289 344
#     4  10  23  41  61  86 117 153 194 239 289 344
#     4  11  23  40  62  88 117 152 195 241 289 343
#     4  10  21  38  61  88 116 150 193 239 289 345
#     4  11  24  40  58  85 119 155 195 239 290 345
#
# _framework density 22.218146999999998
#
# number of rings (size 3 to 8) (size 9 to 14) (size 15 to 20)
#    0.000    1.429    0.000    4.714    0.000   12.571 
#    0.000    0.000    0.000    0.000    0.000    0.000 
#    0.000    0.000    0.000    0.000    0.000    0.000 
#
# Total GULP energy -156785.586205 kJ/mol
# GULP energy per Si atom -5599.485222 kJ/mol
# Density = 2.216758 g / cm^3
# Si number density = 22.218147 Si / 1000 Ang^3
#
#
#
# Elastic Constant Matrix: (Units=GPa)
#
#
# Indices 1 2 3 4 5 6 
#
# 1 66.8622 20.5939 2.0081 0.0000 14.8449 0.0000
# 2 20.5939 26.9293 1.4588 0.0000 12.2013 0.0000
# 3 2.0081 1.4588 69.6642 0.0000 12.1993 0.0000
# 4 0.0000 0.0000 0.0000 26.3289 0.0000 -1.2183
# 5 14.8449 12.2013 12.1993 0.0000 36.8351 0.0000
# 6 0.0000 0.0000 0.0000 -1.2183 0.0000 29.1063
#
#
#
# Elastic Compliance Matrix: (Units=1/GPa)
#
#
# Indices 1 2 3 4 5 6 
#
# 1 0.019951 -0.013626 0.000348 0.000000 -0.003642 0.000000
# 2 -0.013626 0.053192 0.001489 0.000000 -0.012621 0.000000
# 3 0.000348 0.001489 0.015312 0.000000 -0.005705 0.000000
# 4 0.000000 0.000000 0.000000 0.038055 0.000000 0.001593
# 5 -0.003642 -0.012621 -0.005705 0.000000 0.034686 0.000000
# 6 0.000000 0.000000 0.000000 0.001593 0.000000 0.034423
#
#
# Mechanical properties :
#
#
# Convention : Reuss Voigt Hill
#
# Bulk Modulus (GPa) = 15.41351 23.50859 19.46105
# Shear Modulus (GPa) = 20.76204 27.74705 24.25455
#
# Velocity S-wave (km/s) = 3.06022 3.53774 3.30760
# Velocity P-wave (km/s) = 4.40896 5.22410 4.83374
#
# Compressibility (1/GPa) = 0.06487815
#
# Stress axis : x y z
#
# Youngs Moduli (GPa) = 50.12213 18.79968 65.30670
#
# Poissons Ratio (x) = 0.25617 -0.02273
# Poissons Ratio (y) = 0.68297 -0.09724
# Poissons Ratio (z) = -0.01745 -0.02799
#
# Static dielectric constant tensor:
#      x y z
#    x 1.870040 0.000000 -0.015260 
#    y 0.000000 1.733050 0.000000 
#    z -0.015260 0.000000 1.810620 
# 
# From -- ./inp_files/28620.got.cif
#   From: 2010.05.17/outbox.cif.g08.bks.cpg/sg11_15_cif.got.tgz:28620.got - 2010.06.03 12:22:45.
