data_PCOD9165851
_publ_section_title
;
Structure prediction by ZEFSAII (Michael W. Deem and Ramdas Pophale) SiO2 
 PCOD9165851
Probable space group: P 21/M
;
_chemical_formula_sum "Si O2"
_cell_formula_units_Z 32
_cell_length_a 10.222670
_cell_length_b 14.684671
_cell_length_c 8.603192
_cell_angle_alpha 90.000000
_cell_angle_beta 102.217262
_cell_angle_gamma 90.000000
_cell_volume 1262.232228
_symmetry_space_group_name_H-M "P 21/M"
_symmetry_group_IT_number 11
_symmetry_cell_setting 'monoclinic'
loop_
_space_group_symop_operation_xyz
x,y,z
-x,1/2+y,-z
-x,-y,-z
x,1/2-y,z
loop_
_atom_site_type_symbol
_atom_site_label
_atom_site_fract_x
_atom_site_fract_y
_atom_site_fract_z
Si Si1 0.071636 0.568556 0.397472
Si Si2 0.246169 0.848573 0.665798
Si Si3 0.592345 0.643077 0.953753
Si Si4 0.215636 0.151345 0.429635
Si Si5 0.478261 0.890780 0.485357
Si Si6 0.753155 0.979380 0.791544
Si Si7 0.196214 0.445788 0.759299
Si Si8 0.657417 0.147059 0.885265
O O1 0.120664 0.650473 0.514528
O O2 0.210853 0.532605 0.359848
O O3 0.000000 0.500000 0.500000
O O4 0.959727 0.572285 0.235924
O O5 0.247041 0.750000 0.748084
O O6 0.379097 0.855278 0.593802
O O7 0.230158 0.946786 0.746760
O O8 0.611948 0.750000 0.918767
O O9 0.703834 0.608152 0.104479
O O10 0.449292 0.635959 0.002432
O O11 0.619925 0.569446 0.825228
O O12 0.156879 0.250000 0.429370
O O13 0.376222 0.152391 0.456754
O O14 0.203113 0.102321 0.592499
O O15 0.165097 0.108274 0.251915
O O16 0.424560 0.867016 0.298049
O O17 0.500000 0.000000 0.500000
O O18 0.764734 0.064820 0.910499
O O19 0.709987 0.250000 0.894599
#
# Coordination Sequence:
#
# PCOD9165851 Si02
#       8
#     4   4   4   4   4   4   4   4
#     4  10  21  41  62  91 124 159 207 262 313 360
#     4  11  21  36  62  94 126 161 206 261 320 372
#     4  11  25  43  64  91 126 168 207 254 316 376
#     4  12  22  35  61  92 122 160 210 260 311 370
#     4  12  18  34  59  90 126 159 201 261 315 367
#     4  12  23  42  63  91 129 162 208 261 312 367
#     4  11  22  42  62  89 126 165 210 261 311 367
#     4  11  21  38  63  89 122 166 207 246 312 388
#
# _framework density 25.351911000000001
#
# number of rings (size 3 to 8) (size 9 to 14) (size 15 to 20)
#    0.000    0.750    7.500    2.250    0.000    1.500 
#    0.000    1.250    0.000    0.000    0.000    0.000 
#    0.000    0.000    0.000    0.000    0.000    0.000 
#
# Total GULP energy -178177.763666 kJ/mol
# GULP energy per Si atom -5568.055115 kJ/mol
# Density = 2.529421 g / cm^3
# Si number density = 25.351911 Si / 1000 Ang^3
#
#
#
# Elastic Constant Matrix: (Units=GPa)
#
#
# Indices 1 2 3 4 5 6 
#
# 1 92.4751 34.6361 24.7538 0.0000 2.0068 0.0000
# 2 34.6361 212.1627 51.6061 0.0000 -10.3323 0.0000
# 3 24.7538 51.6061 96.9589 0.0000 -16.8740 0.0000
# 4 0.0000 0.0000 0.0000 19.0633 0.0000 6.9370
# 5 2.0068 -10.3323 -16.8740 0.0000 37.7694 0.0000
# 6 0.0000 0.0000 0.0000 6.9370 0.0000 12.6420
#
#
#
# Elastic Compliance Matrix: (Units=1/GPa)
#
#
# Indices 1 2 3 4 5 6 
#
# 1 0.012127 -0.001426 -0.002730 0.000000 -0.002254 0.000000
# 2 -0.001426 0.005583 -0.002525 0.000000 0.000475 0.000000
# 3 -0.002730 -0.002525 0.013293 0.000000 0.005393 0.000000
# 4 0.000000 0.000000 0.000000 0.065544 0.000000 -0.035966
# 5 -0.002254 0.000475 0.005393 0.000000 0.029136 0.000000
# 6 0.000000 0.000000 0.000000 -0.035966 0.000000 0.098837
#
#
# Mechanical properties :
#
#
# Convention : Reuss Voigt Hill
#
# Bulk Modulus (GPa) = 56.67933 69.28765 62.98349
# Shear Modulus (GPa) = 20.51181 33.26833 26.89007
#
# Velocity S-wave (km/s) = 2.84752 3.62644 3.26033
# Velocity P-wave (km/s) = 5.76340 6.70257 6.25065
#
# Compressibility (1/GPa) = 0.01764312
#
# Stress axis : x y z
#
# Youngs Moduli (GPa) = 82.45894 179.10095 75.22701
#
# Poissons Ratio (x) = 0.25533 0.20534
# Poissons Ratio (y) = 0.11756 0.18996
# Poissons Ratio (z) = 0.22508 0.45225
#
# Static dielectric constant tensor:
#      x y z
#    x 2.118860 0.000000 0.087680 
#    y 0.000000 2.122800 0.000000 
#    z 0.087680 0.000000 2.110290 
# 
# From -- ./inp_files/18088.got.cif
#   From: 2010.05.17/outbox.cif.g08.bks.cpg/sg11_10_cif.got.tgz:18088.got - 2010.06.03 12:22:45.
