data_PCOD9165715
_publ_section_title
;
Structure prediction by ZEFSAII (Michael W. Deem and Ramdas Pophale) SiO2 
 PCOD9165715
Probable space group: P 21/M
;
_chemical_formula_sum "Si O2"
_cell_formula_units_Z 28
_cell_length_a 16.148151
_cell_length_b 14.162633
_cell_length_c 7.948529
_cell_angle_alpha 90.000000
_cell_angle_beta 135.263495
_cell_angle_gamma 90.000000
_cell_volume 1279.475863
_symmetry_space_group_name_H-M "P 21/M"
_symmetry_group_IT_number 11
_symmetry_cell_setting 'monoclinic'
loop_
_space_group_symop_operation_xyz
x,y,z
-x,1/2+y,-z
-x,-y,-z
x,1/2-y,z
loop_
_atom_site_type_symbol
_atom_site_label
_atom_site_fract_x
_atom_site_fract_y
_atom_site_fract_z
Si Si1 0.746644 0.976667 0.250013
Si Si2 0.422785 0.941974 0.259205
Si Si3 0.350154 0.362332 0.572898
Si Si4 0.801851 0.138427 0.900728
Si Si5 0.882344 0.640061 0.908785
Si Si6 0.038702 0.359826 0.372921
Si Si7 0.129760 0.635764 0.377484
O O1 0.681467 0.921596 0.307515
O O2 0.864436 0.916780 0.385009
O O3 0.792424 0.078510 0.379673
O O4 0.654075 0.990488 0.969882
O O5 0.517234 0.881706 0.290767
O O6 0.326663 0.881303 0.218878
O O7 0.500000 0.000000 0.500000
O O8 0.331994 0.250000 0.575184
O O9 0.252328 0.393983 0.291050
O O10 0.823341 0.250000 0.926104
O O11 0.822220 0.107645 0.738336
O O12 0.905355 0.102667 0.173373
O O13 0.877317 0.750000 0.948529
O O14 0.922100 0.635326 0.768804
O O15 0.992930 0.602547 0.174294
O O16 0.040981 0.250000 0.428284
O O17 0.135385 0.750000 0.405885
#
# Coordination Sequence:
#
# PCOD9165715 Si02
#       7
#     4   4   4   4   4   4   4
#     4  11  22  37  61  88 112 146 195 246 288 330
#     4  12  26  40  53  78 119 160 197 233 280 343
#     4  10  21  40  63  85 113 151 195 238 278 331
#     4   9  19  38  60  83 116 154 186 225 289 355
#     4   7  13  29  55  86 112 138 179 230 284 334
#     4   8  16  34  60  87 113 142 182 235 291 344
#     4   9  18  34  60  91 117 143 184 239 293 343
#
# _framework density 21.883960999999999
#
# number of rings (size 3 to 8) (size 9 to 14) (size 15 to 20)
#    0.000    2.571    0.000    4.714    0.000    8.000 
#    0.000    4.286    0.000    3.429    0.000    0.000 
#    0.000    0.000    0.000    0.000    0.000    0.000 
#
# Total GULP energy -156395.734508 kJ/mol
# GULP energy per Si atom -5585.561947 kJ/mol
# Density = 2.183415 g / cm^3
# Si number density = 21.883961 Si / 1000 Ang^3
#
#
#
# Elastic Constant Matrix: (Units=GPa)
#
#
# Indices 1 2 3 4 5 6 
#
# 1 68.2936 7.9858 40.2211 0.0000 12.1721 0.0000
# 2 7.9858 86.6727 45.9210 0.0000 -6.2563 0.0000
# 3 40.2211 45.9210 169.9464 0.0000 17.9135 0.0000
# 4 0.0000 0.0000 0.0000 28.2864 0.0000 20.1080
# 5 12.1721 -6.2563 17.9135 0.0000 24.0761 0.0000
# 6 0.0000 0.0000 0.0000 20.1080 0.0000 -1.5718
#
#
#
# Elastic Compliance Matrix: (Units=1/GPa)
#
#
# Indices 1 2 3 4 5 6 
#
# 1 0.017882 -0.000282 -0.003467 0.000000 -0.006534 0.000000
# 2 -0.000282 0.014557 -0.004645 0.000000 0.007381 0.000000
# 3 -0.003467 -0.004645 0.008575 0.000000 -0.005834 0.000000
# 4 0.000000 0.000000 0.000000 0.003502 0.000000 0.044805
# 5 -0.006534 0.007381 -0.005834 0.000000 0.051098 0.000000
# 6 0.000000 0.000000 0.000000 0.044805 0.000000 -0.063028
#
#
# Mechanical properties :
#
#
# Convention : Reuss Voigt Hill
#
# Bulk Modulus (GPa) = 41.27805 57.01872 49.14838
# Shear Modulus (GPa) = 87.03185 25.54378 56.28782
#
# Velocity S-wave (km/s) = 6.31316 3.42019 5.07709
# Velocity P-wave (km/s) = 8.48791 6.45822 7.54165
#
# Compressibility (1/GPa) = 0.02422595
#
# Stress axis : x y z
#
# Youngs Moduli (GPa) = 55.92139 68.69366 116.62105
#
# Poissons Ratio (x) = 0.01939 0.40434
# Poissons Ratio (y) = 0.01579 0.54168
# Poissons Ratio (z) = 0.19389 0.31907
#
# Static dielectric constant tensor:
#      x y z
#    x 1.827830 0.000000 -0.003990 
#    y 0.000000 1.809160 0.000000 
#    z -0.003990 0.000000 1.801430 
# 
# From -- ./inp_files/24968.got.cif
#   From: 2010.05.17/outbox.cif.g08.bks.cpg/sg11_13_cif.got.tgz:24968.got - 2010.06.03 12:22:45.
