data_PCOD9165273
_publ_section_title
;
Structure prediction by ZEFSAII (Michael W. Deem and Ramdas Pophale) SiO2 
 PCOD9165273
Probable space group: P 21/M
;
_chemical_formula_sum "Si O2"
_cell_formula_units_Z 32
_cell_length_a 20.512301
_cell_length_b 8.171551
_cell_length_c 11.850723
_cell_angle_alpha 90.000000
_cell_angle_beta 49.340564
_cell_angle_gamma 90.000000
_cell_volume 1506.864378
_symmetry_space_group_name_H-M "P 21/M"
_symmetry_group_IT_number 11
_symmetry_cell_setting 'monoclinic'
loop_
_space_group_symop_operation_xyz
x,y,z
-x,1/2+y,-z
-x,-y,-z
x,1/2-y,z
loop_
_atom_site_type_symbol
_atom_site_label
_atom_site_fract_x
_atom_site_fract_y
_atom_site_fract_z
Si Si1 0.545048 0.557789 0.619374
Si Si2 0.420877 0.552520 0.168364
Si Si3 0.043827 0.441864 0.130410
Si Si4 0.650514 0.050003 0.154153
Si Si5 0.729104 0.449942 0.826781
Si Si6 0.884544 0.558118 0.191244
Si Si7 0.713139 0.440776 0.315284
Si Si8 0.917658 0.056621 0.662783
O O1 0.548802 0.750000 0.586142
O O2 0.567083 0.532139 0.725515
O O3 0.447462 0.497515 0.714170
O O4 0.617030 0.463573 0.468643
O O5 0.421698 0.750000 0.180939
O O6 0.332313 0.503067 0.206830
O O7 0.500000 0.500000 0.000000
O O8 0.061598 0.250000 0.118008
O O9 0.072533 0.518870 0.215422
O O10 0.942882 0.470619 0.218351
O O11 0.088623 0.505178 0.964509
O O12 0.649782 0.250000 0.155700
O O13 0.710795 0.996637 0.189093
O O14 0.684571 0.997549 0.994332
O O15 0.729683 0.250000 0.827291
O O16 0.827039 0.510097 0.717658
O O17 0.905166 0.750000 0.173297
O O18 0.783121 0.531279 0.312039
O O19 0.735698 0.250000 0.290678
O O20 0.913450 0.250000 0.655337
O O21 0.000000 0.000000 0.500000
#
# Coordination Sequence:
#
# PCOD9165273 Si02
#       8
#     4   4   4   4   4   4   4   4
#     4  11  22  38  58  82 119 158 198 248 298 352
#     4  11  21  38  62  87 116 151 199 249 300 359
#     4  10  21  39  63  89 119 152 195 248 303 361
#     4   9  18  35  59  84 113 151 196 244 296 355
#     4   9  19  37  62  87 113 153 198 242 299 358
#     4  10  21  38  61  89 119 154 196 244 299 361
#     4  11  22  36  57  86 120 156 199 243 296 360
#     4  11  23  40  62  87 121 161 203 252 305 364
#
# _framework density 21.236152000000001
#
# number of rings (size 3 to 8) (size 9 to 14) (size 15 to 20)
#    0.000    1.750    1.250    3.375    0.000    3.500 
#    0.000    8.125    0.000    0.000    0.000    0.000 
#    0.000    0.000    0.000    0.000    0.000    0.000 
#
# Total GULP energy -178833.801342 kJ/mol
# GULP energy per Si atom -5588.556292 kJ/mol
# Density = 2.118782 g / cm^3
# Si number density = 21.236152 Si / 1000 Ang^3
#
#
#
# Elastic Constant Matrix: (Units=GPa)
#
#
# Indices 1 2 3 4 5 6 
#
# 1 124.5032 -4.0828 12.2769 0.0000 -18.6312 0.0000
# 2 -4.0828 28.7865 -6.2858 0.0000 -3.6085 0.0000
# 3 12.2769 -6.2858 31.8823 0.0000 -10.7918 0.0000
# 4 0.0000 0.0000 0.0000 29.0718 0.0000 0.4701
# 5 -18.6312 -3.6085 -10.7918 0.0000 36.5439 0.0000
# 6 0.0000 0.0000 0.0000 0.4701 0.0000 22.1759
#
#
#
# Elastic Compliance Matrix: (Units=1/GPa)
#
#
# Indices 1 2 3 4 5 6 
#
# 1 0.008870 0.001399 -0.001736 0.000000 0.004148 0.000000
# 2 0.001399 0.037890 0.009377 0.000000 0.007224 0.000000
# 3 -0.001736 0.009377 0.037661 0.000000 0.011163 0.000000
# 4 0.000000 0.000000 0.000000 0.034409 0.000000 -0.000729
# 5 0.004148 0.007224 0.011163 0.000000 0.033489 0.000000
# 6 0.000000 0.000000 0.000000 -0.000729 0.000000 0.045109
#
#
# Mechanical properties :
#
#
# Convention : Reuss Voigt Hill
#
# Bulk Modulus (GPa) = 9.75610 20.99874 15.37742
# Shear Modulus (GPa) = 23.41760 29.77592 26.59676
#
# Velocity S-wave (km/s) = 3.32433 3.74857 3.54281
# Velocity P-wave (km/s) = 4.39761 5.35214 4.89818
#
# Compressibility (1/GPa) = 0.10249993
#
# Stress axis : x y z
#
# Youngs Moduli (GPa) = 112.74466 26.39226 26.55282
#
# Poissons Ratio (x) = -0.03692 0.04609
# Poissons Ratio (y) = -0.15772 -0.24898
# Poissons Ratio (z) = 0.19569 -0.24747
#
# Static dielectric constant tensor:
#      x y z
#    x 1.779910 0.000000 -0.035050 
#    y 0.000000 1.673560 0.000000 
#    z -0.035050 0.000000 1.783440 
# 
# From -- ./inp_files/42833.got.cif
#   From: 2010.05.17/outbox.cif.g08.bks.cpg/sg11_22_cif.got.tgz:42833.got - 2010.06.03 12:22:45.
