data_PCOD9165943
_publ_section_title
;
Structure prediction by ZEFSAII (Michael W. Deem and Ramdas Pophale) SiO2 
 PCOD9165943
Probable space group: P 21/M
;
_chemical_formula_sum "Si O2"
_cell_formula_units_Z 32
_cell_length_a 13.172799
_cell_length_b 25.381480
_cell_length_c 8.303282
_cell_angle_alpha 90.000000
_cell_angle_beta 31.943164
_cell_angle_gamma 90.000000
_cell_volume 1468.805541
_symmetry_space_group_name_H-M "P 21/M"
_symmetry_group_IT_number 11
_symmetry_cell_setting 'monoclinic'
loop_
_space_group_symop_operation_xyz
x,y,z
-x,1/2+y,-z
-x,-y,-z
x,1/2-y,z
loop_
_atom_site_type_symbol
_atom_site_label
_atom_site_fract_x
_atom_site_fract_y
_atom_site_fract_z
Si Si1 0.637551 0.537535 0.105789
Si Si2 0.032595 0.577737 0.047440
Si Si3 0.335795 0.309212 0.758974
Si Si4 0.777568 0.485126 0.472329
Si Si5 0.552273 0.095439 0.379302
Si Si6 0.137006 0.189240 0.676086
Si Si7 0.835417 0.636117 0.704027
Si Si8 0.779594 0.433570 0.811403
O O1 0.431730 0.515372 0.327674
O O2 0.610470 0.558563 0.324386
O O3 0.689999 0.587568 0.926732
O O4 0.793199 0.492020 0.875458
O O5 0.867053 0.543717 0.357002
O O6 0.994051 0.639580 0.099425
O O7 0.065017 0.549768 0.834118
O O8 0.242583 0.574359 0.841282
O O9 0.386454 0.250000 0.733824
O O10 0.513638 0.348771 0.511459
O O11 0.266477 0.309809 0.665066
O O12 0.191235 0.330759 0.092781
O O13 0.750534 0.453195 0.671251
O O14 0.588867 0.094531 0.140589
O O15 0.065949 0.250000 0.755897
O O16 0.202207 0.170512 0.407171
O O17 0.043314 0.607016 0.413052
#
# Coordination Sequence:
#
# PCOD9165943 Si02
#       8
#     4   4   4   4   4   4   4   4
#     4  10  23  39  59  93 131 175 203 257 323 385
#     4  10  21  42  59  94 130 168 211 262 321 391
#     4  10  24  45  66  91 122 163 214 270 324 377
#     4  10  23  37  64  93 131 172 213 260 323 386
#     4  10  23  39  61  88 128 165 206 258 315 383
#     4  11  23  41  66  90 122 167 213 267 322 375
#     4  11  23  41  67  94 128 166 218 262 320 388
#     4  12  22  37  59  96 127 166 210 259 312 386
#
# _framework density 21.78641
#
# number of rings (size 3 to 8) (size 9 to 14) (size 15 to 20)
#    0.000    1.500    1.250    3.000    5.250    0.500 
#    0.000    0.000    0.000    0.750    0.000    0.000 
#    0.000    0.000    0.000    0.000    0.000    0.000 
#
# Total GULP energy -178288.666768 kJ/mol
# GULP energy per Si atom -5571.520836 kJ/mol
# Density = 2.173682 g / cm^3
# Si number density = 21.786410 Si / 1000 Ang^3
#
#
#
# Elastic Constant Matrix: (Units=GPa)
#
#
# Indices 1 2 3 4 5 6 
#
# 1 59.0651 30.9686 38.0960 0.0000 15.1114 0.0000
# 2 30.9686 155.8416 60.9959 0.0000 20.5157 0.0000
# 3 38.0960 60.9959 126.0156 0.0000 30.3737 0.0000
# 4 0.0000 0.0000 0.0000 31.9007 0.0000 8.8609
# 5 15.1114 20.5157 30.3737 0.0000 31.9893 0.0000
# 6 0.0000 0.0000 0.0000 8.8609 0.0000 30.3291
#
#
#
# Elastic Compliance Matrix: (Units=1/GPa)
#
#
# Indices 1 2 3 4 5 6 
#
# 1 0.022157 -0.001974 -0.004571 0.000000 -0.004860 0.000000
# 2 -0.001974 0.008179 -0.003012 0.000000 -0.001453 0.000000
# 3 -0.004571 -0.003012 0.012695 0.000000 -0.007962 0.000000
# 4 0.000000 0.000000 0.000000 0.034116 0.000000 -0.009967
# 5 -0.004860 -0.001453 -0.007962 0.000000 0.042049 0.000000
# 6 0.000000 0.000000 0.000000 -0.009967 0.000000 0.035884
#
#
# Mechanical properties :
#
#
# Convention : Reuss Voigt Hill
#
# Bulk Modulus (GPa) = 41.81235 66.78260 54.29748
# Shear Modulus (GPa) = 27.44743 32.90127 30.17435
#
# Velocity S-wave (km/s) = 3.55328 3.89031 3.72561
# Velocity P-wave (km/s) = 6.00566 7.13437 6.59421
#
# Compressibility (1/GPa) = 0.02391638
#
# Stress axis : x y z
#
# Youngs Moduli (GPa) = 45.13148 122.26083 78.77369
#
# Poissons Ratio (x) = 0.24134 0.36011
# Poissons Ratio (y) = 0.08909 0.23727
# Poissons Ratio (z) = 0.20632 0.36825
#
# Static dielectric constant tensor:
#      x y z
#    x 1.947890 0.000000 0.101670 
#    y 0.000000 1.804970 0.000000 
#    z 0.101670 0.000000 1.898450 
# 
# From -- ./inp_files/23368.got.cif
#   From: 2010.05.17/outbox.cif.g08.bks.cpg/sg11_12_cif.got.tgz:23368.got - 2010.06.03 12:22:45.
