data_PCOD9165022
_publ_section_title
;
Structure prediction by ZEFSAII (Michael W. Deem and Ramdas Pophale) SiO2 
 PCOD9165022
Probable space group: P 21/M
;
_chemical_formula_sum "Si O2"
_cell_formula_units_Z 18
_cell_length_a 19.238782
_cell_length_b 7.686784
_cell_length_c 7.054128
_cell_angle_alpha 90.000000
_cell_angle_beta 47.481102
_cell_angle_gamma 90.000000
_cell_volume 768.891692
_symmetry_space_group_name_H-M "P 21/M"
_symmetry_group_IT_number 11
_symmetry_cell_setting 'monoclinic'
loop_
_space_group_symop_operation_xyz
x,y,z
-x,1/2+y,-z
-x,-y,-z
x,1/2-y,z
loop_
_atom_site_type_symbol
_atom_site_label
_atom_site_fract_x
_atom_site_fract_y
_atom_site_fract_z
Si Si1 0.890892 0.045736 0.746867
Si Si2 0.130984 0.250000 0.488729
Si Si3 0.658870 0.952827 0.693753
Si Si4 0.866227 0.057804 0.240703
Si Si5 0.487925 0.956406 0.739956
O O1 0.873441 0.250000 0.735557
O O2 0.836409 0.904859 0.722068
O O3 0.874944 0.023859 0.000351
O O4 0.000000 0.000000 0.500000
O O5 0.094597 0.403565 0.703258
O O6 0.686081 0.750000 0.615515
O O7 0.580403 0.012272 0.687102
O O8 0.754544 0.054748 0.494101
O O9 0.604740 0.965890 0.992417
O O10 0.903187 0.250000 0.217159
O O11 0.481661 0.750000 0.777168
O O12 0.500000 0.000000 0.500000
#
# Coordination Sequence:
#
# PCOD9165022 Si02
#       5
#     4   2   4   4   4
#     4  11  25  47  69 101 140 178 225 281 339 403
#     4  12  24  44  72  98 136 174 228 272 340 410
#     4  10  21  40  63  88 131 172 216 272 330 387
#     4  11  25  45  68 101 135 181 224 279 342 400
#     4  10  21  37  61  93 125 171 220 269 326 390
#
# _framework density 23.410318
#
# number of rings (size 3 to 8) (size 9 to 14) (size 15 to 20)
#    0.000    1.333    2.222    2.667    0.000    5.333 
#    4.000    2.222    0.000    0.000    0.000    0.000 
#    0.000    0.000    0.000    0.000    0.000    0.000 
#
# Total GULP energy -100233.993110 kJ/mol
# GULP energy per Si atom -5568.555173 kJ/mol
# Density = 2.335704 g / cm^3
# Si number density = 23.410318 Si / 1000 Ang^3
#
#
#
# Elastic Constant Matrix: (Units=GPa)
#
#
# Indices 1 2 3 4 5 6 
#
# 1 41.2771 42.6117 54.2679 0.0000 -3.0376 0.0000
# 2 42.6117 195.7961 42.7021 0.0000 24.9557 0.0000
# 3 54.2679 42.7021 151.3905 0.0000 28.9854 0.0000
# 4 0.0000 0.0000 0.0000 45.0334 0.0000 11.1766
# 5 -3.0376 24.9557 28.9854 0.0000 53.6241 0.0000
# 6 0.0000 0.0000 0.0000 11.1766 0.0000 25.7644
#
#
#
# Elastic Compliance Matrix: (Units=1/GPa)
#
#
# Indices 1 2 3 4 5 6 
#
# 1 0.081166 -0.014596 -0.030294 0.000000 0.027765 0.000000
# 2 -0.014596 0.008246 0.004238 0.000000 -0.006955 0.000000
# 3 -0.030294 0.004238 0.018935 0.000000 -0.013923 0.000000
# 4 0.000000 0.000000 0.000000 0.024885 0.000000 -0.010795
# 5 0.027765 -0.006955 -0.013923 0.000000 0.030984 0.000000
# 6 0.000000 0.000000 0.000000 -0.010795 0.000000 0.043496
#
#
# Mechanical properties :
#
#
# Convention : Reuss Voigt Hill
#
# Bulk Modulus (GPa) = 36.97856 74.18081 55.57968
# Shear Modulus (GPa) = 16.77674 41.47651 29.12663
#
# Velocity S-wave (km/s) = 2.67992 4.21375 3.53112
# Velocity P-wave (km/s) = 5.04044 7.44515 6.35753
#
# Compressibility (1/GPa) = 0.02704270
#
# Stress axis : x y z
#
# Youngs Moduli (GPa) = 12.32040 121.26743 52.81201
#
# Poissons Ratio (x) = 1.77007 1.59988
# Poissons Ratio (y) = 0.17983 -0.22381
# Poissons Ratio (z) = 0.37323 -0.51393
#
# Static dielectric constant tensor:
#      x y z
#    x 1.981050 0.000000 0.092760 
#    y 0.000000 1.867880 0.000000 
#    z 0.092760 0.000000 1.731410 
# 
# From -- ./inp_files/8455.got.cif
#   From: 2010.05.17/outbox.cif.g08.bks.cpg/sg11_5_cif.got.tgz:8455.got - 2010.06.03 12:22:45.
