data_PCOD9165340
_publ_section_title
;
Structure prediction by ZEFSAII (Michael W. Deem and Ramdas Pophale) SiO2 
 PCOD9165340
Probable space group: P 21/M
;
_chemical_formula_sum "Si O2"
_cell_formula_units_Z 28
_cell_length_a 9.516031
_cell_length_b 8.847685
_cell_length_c 27.373534
_cell_angle_alpha 90.000000
_cell_angle_beta 41.506091
_cell_angle_gamma 90.000000
_cell_volume 1527.330839
_symmetry_space_group_name_H-M "P 21/M"
_symmetry_group_IT_number 11
_symmetry_cell_setting 'monoclinic'
loop_
_space_group_symop_operation_xyz
x,y,z
-x,1/2+y,-z
-x,-y,-z
x,1/2-y,z
loop_
_atom_site_type_symbol
_atom_site_label
_atom_site_fract_x
_atom_site_fract_y
_atom_site_fract_z
Si Si1 0.567276 0.430937 0.429981
Si Si2 0.866074 0.069481 0.078719
Si Si3 0.606787 0.414592 0.705284
Si Si4 0.226781 0.574599 0.447229
Si Si5 0.037900 0.068617 0.733537
Si Si6 0.368664 0.426370 0.207281
Si Si7 0.100697 0.421920 0.828986
O O1 0.500000 0.500000 0.500000
O O2 0.584651 0.250000 0.429285
O O3 0.378466 0.480366 0.442915
O O4 0.783182 0.496035 0.348646
O O5 0.873774 0.250000 0.075465
O O6 0.616001 0.026692 0.137340
O O7 0.957352 0.014316 0.107326
O O8 0.000000 0.000000 0.000000
O O9 0.676359 0.250000 0.707002
O O10 0.681823 0.428030 0.630975
O O11 0.679950 0.543324 0.722934
O O12 0.354314 0.415304 0.767507
O O13 0.216490 0.750000 0.466256
O O14 0.000000 0.500000 0.500000
O O15 0.068243 0.250000 0.724569
O O16 0.058097 0.019425 0.785299
O O17 0.804255 0.021263 0.776974
O O18 0.349248 0.250000 0.200336
O O19 0.016297 0.250000 0.854334
#
# Coordination Sequence:
#
# PCOD9165340 Si02
#       7
#     4   4   4   4   4   4   4
#     4  12  26  43  62  85 118 160 204 255 310 361
#     4  10  21  38  62  91 123 155 194 240 289 349
#     4   9  18  36  58  79 109 150 193 240 290 348
#     4  11  23  40  59  84 116 152 199 249 302 358
#     4  11  22  40  63  88 120 158 200 245 299 362
#     4  10  22  37  57  89 121 153 196 243 290 347
#     4   9  18  36  61  86 113 150 193 237 288 346
#
# _framework density 18.332636000000001
#
# number of rings (size 3 to 8) (size 9 to 14) (size 15 to 20)
#    0.000    1.714    1.429    3.000    2.000    4.000 
#    0.000    0.714    0.000    0.000    0.000    0.000 
#    0.000    0.000    0.000    0.000    0.000    0.000 
#
# Total GULP energy -156143.517581 kJ/mol
# GULP energy per Si atom -5576.554199 kJ/mol
# Density = 1.829091 g / cm^3
# Si number density = 18.332636 Si / 1000 Ang^3
#
#
#
# Elastic Constant Matrix: (Units=GPa)
#
#
# Indices 1 2 3 4 5 6 
#
# 1 107.8063 47.3273 60.6851 0.0000 12.0557 0.0000
# 2 47.3273 86.8850 55.9803 0.0000 7.8991 0.0000
# 3 60.6851 55.9803 103.6649 0.0000 19.5225 0.0000
# 4 0.0000 0.0000 0.0000 29.6592 0.0000 0.9280
# 5 12.0557 7.8991 19.5225 0.0000 25.0477 0.0000
# 6 0.0000 0.0000 0.0000 0.9280 0.0000 33.2062
#
#
#
# Elastic Compliance Matrix: (Units=1/GPa)
#
#
# Indices 1 2 3 4 5 6 
#
# 1 0.014607 -0.003795 -0.006332 0.000000 -0.000898 0.000000
# 2 -0.003795 0.018739 -0.008355 0.000000 0.002429 0.000000
# 3 -0.006332 -0.008355 0.019684 0.000000 -0.009660 0.000000
# 4 0.000000 0.000000 0.000000 0.033746 0.000000 -0.000943
# 5 -0.000898 0.002429 -0.009660 0.000000 0.047119 0.000000
# 6 0.000000 0.000000 0.000000 -0.000943 0.000000 0.030141
#
#
# Mechanical properties :
#
#
# Convention : Reuss Voigt Hill
#
# Bulk Modulus (GPa) = 62.24582 69.59351 65.91967
# Shear Modulus (GPa) = 24.22990 26.54018 25.38504
#
# Velocity S-wave (km/s) = 3.63944 3.80899 3.72518
# Velocity P-wave (km/s) = 7.18943 7.57552 7.38500
#
# Compressibility (1/GPa) = 0.01606534
#
# Stress axis : x y z
#
# Youngs Moduli (GPa) = 68.46093 53.36437 50.80141
#
# Poissons Ratio (x) = 0.20251 0.32169
# Poissons Ratio (y) = 0.25980 0.42446
# Poissons Ratio (z) = 0.43352 0.44587
#
# Static dielectric constant tensor:
#      x y z
#    x 1.622950 0.000000 0.011690 
#    y 0.000000 1.667130 0.000000 
#    z 0.011690 0.000000 1.621900 
# 
# From -- ./inp_files/29080.got.cif
#   From: 2010.05.17/outbox.cif.g08.bks.cpg/sg11_15_cif.got.tgz:29080.got - 2010.06.03 12:22:45.
