data_PCOD9165296
_publ_section_title
;
Structure prediction by ZEFSAII (Michael W. Deem and Ramdas Pophale) SiO2 
 PCOD9165296
Probable space group: P 21/M
;
_chemical_formula_sum "Si O2"
_cell_formula_units_Z 24
_cell_length_a 11.715007
_cell_length_b 16.342692
_cell_length_c 17.231550
_cell_angle_alpha 90.000000
_cell_angle_beta 20.190773
_cell_angle_gamma 90.000000
_cell_volume 1138.661585
_symmetry_space_group_name_H-M "P 21/M"
_symmetry_group_IT_number 11
_symmetry_cell_setting 'monoclinic'
loop_
_space_group_symop_operation_xyz
x,y,z
-x,1/2+y,-z
-x,-y,-z
x,1/2-y,z
loop_
_atom_site_type_symbol
_atom_site_label
_atom_site_fract_x
_atom_site_fract_y
_atom_site_fract_z
Si Si1 0.309835 0.442203 0.373824
Si Si2 0.951184 0.659566 0.201380
Si Si3 0.734432 0.842706 0.738293
Si Si4 0.395759 0.658962 0.688572
Si Si5 0.032847 0.014030 0.105702
Si Si6 0.863113 0.962386 0.779646
O O1 0.131710 0.406453 0.411426
O O2 0.474738 0.362268 0.308529
O O3 0.100441 0.483178 0.574792
O O4 0.598196 0.502538 0.161796
O O5 0.916994 0.750000 0.186463
O O6 0.702934 0.657743 0.432577
O O7 0.879120 0.577796 0.197973
O O8 0.332286 0.651549 0.987548
O O9 0.832277 0.750000 0.660637
O O10 0.846731 0.873460 0.750673
O O11 0.248911 0.750000 0.778808
O O12 0.158685 0.584725 0.816182
O O13 0.039859 0.034832 0.192671
O O14 0.500000 0.000000 0.000000
#
# Coordination Sequence:
#
# PCOD9165296 Si02
#       6
#     4   4   4   4   4   4
#     4  11  22  39  65  86 121 160 208 250 306 361
#     4   9  18  35  61  88 116 156 203 246 294 357
#     4  10  21  38  61  91 121 157 205 252 304 363
#     4  11  22  39  62  91 122 159 207 253 305 364
#     4  11  23  39  63  89 124 162 200 251 312 357
#     4  12  22  40  65  90 122 161 206 250 303 371
#
# _framework density 21.077376999999998
#
# number of rings (size 3 to 8) (size 9 to 14) (size 15 to 20)
#    0.000    1.333    5.000    2.000    0.000    1.333 
#    0.000    1.667    0.000    0.000    0.000    0.000 
#    0.000    0.000    0.000    0.000    0.000    0.000 
#
# Total GULP energy -134094.629259 kJ/mol
# GULP energy per Si atom -5587.276219 kJ/mol
# Density = 2.102940 g / cm^3
# Si number density = 21.077377 Si / 1000 Ang^3
#
#
#
# Elastic Constant Matrix: (Units=GPa)
#
#
# Indices 1 2 3 4 5 6 
#
# 1 66.8240 33.6141 16.3027 0.0000 13.3202 0.0000
# 2 33.6141 139.7578 29.7318 0.0000 -4.0208 0.0000
# 3 16.3027 29.7318 79.1494 0.0000 27.4430 0.0000
# 4 0.0000 0.0000 0.0000 24.7918 0.0000 -3.0800
# 5 13.3202 -4.0208 27.4430 0.0000 22.0725 0.0000
# 6 0.0000 0.0000 0.0000 -3.0800 0.0000 33.9172
#
#
#
# Elastic Compliance Matrix: (Units=1/GPa)
#
#
# Indices 1 2 3 4 5 6 
#
# 1 0.021239 -0.006858 0.005411 0.000000 -0.020795 0.000000
# 2 -0.006858 0.011124 -0.008619 0.000000 0.016881 0.000000
# 3 0.005411 -0.008619 0.028887 0.000000 -0.040751 0.000000
# 4 0.000000 0.000000 0.000000 0.040796 0.000000 0.003705
# 5 -0.020795 0.016881 -0.040751 0.000000 0.111596 0.000000
# 6 0.000000 0.000000 0.000000 0.003705 0.000000 0.029820
#
#
# Mechanical properties :
#
#
# Convention : Reuss Voigt Hill
#
# Bulk Modulus (GPa) = 24.31987 49.44759 36.88373
# Shear Modulus (GPa) = 18.03101 29.89515 23.96308
#
# Velocity S-wave (km/s) = 2.92801 3.77019 3.37547
# Velocity P-wave (km/s) = 4.79525 6.51639 5.72092
#
# Compressibility (1/GPa) = 0.04111864
#
# Stress axis : x y z
#
# Youngs Moduli (GPa) = 47.08281 89.89597 34.61767
#
# Poissons Ratio (x) = 0.61649 -0.18733
# Poissons Ratio (y) = 0.32289 0.29838
# Poissons Ratio (z) = -0.25478 0.77484
#
# Static dielectric constant tensor:
#      x y z
#    x 1.742710 0.000000 0.002300 
#    y 0.000000 1.792390 0.000000 
#    z 0.002300 0.000000 1.774250 
# 
# From -- ./inp_files/39579.got.cif
#   From: 2010.05.17/outbox.cif.g08.bks.cpg/sg11_20_cif.got.tgz:39579.got - 2010.06.03 12:22:45.
