data_PCOD9165276
_publ_section_title
;
Structure prediction by ZEFSAII (Michael W. Deem and Ramdas Pophale) SiO2 
 PCOD9165276
Probable space group: P 21/M
;
_chemical_formula_sum "Si O2"
_cell_formula_units_Z 32
_cell_length_a 12.031029
_cell_length_b 15.212226
_cell_length_c 14.072209
_cell_angle_alpha 90.000000
_cell_angle_beta 31.245922
_cell_angle_gamma 90.000000
_cell_volume 1335.932320
_symmetry_space_group_name_H-M "P 21/M"
_symmetry_group_IT_number 11
_symmetry_cell_setting 'monoclinic'
loop_
_space_group_symop_operation_xyz
x,y,z
-x,1/2+y,-z
-x,-y,-z
x,1/2-y,z
loop_
_atom_site_type_symbol
_atom_site_label
_atom_site_fract_x
_atom_site_fract_y
_atom_site_fract_z
Si Si1 0.988459 0.022646 0.398465
Si Si2 0.179465 0.349892 0.551752
Si Si3 0.491197 0.899394 0.539367
Si Si4 0.214611 0.977354 0.898465
Si Si5 0.819844 0.153402 0.390279
Si Si6 0.569931 0.899394 0.960633
Si Si7 0.717030 0.650108 0.051753
Si Si8 0.600404 0.346598 0.109720
O O1 0.179131 0.091839 0.244670
O O2 0.801670 0.076311 0.481343
O O3 0.000000 0.000000 0.500000
O O4 0.985168 0.927546 0.350718
O O5 0.099171 0.250000 0.603605
O O6 0.290558 0.364810 0.573569
O O7 0.372113 0.360482 0.332131
O O8 0.331529 0.908161 0.744670
O O9 0.377952 0.848582 0.537737
O O10 0.500000 0.000000 0.500000
O O11 0.235645 0.923690 0.981343
O O12 0.313396 0.072454 0.850718
O O13 0.000000 0.000000 0.000000
O O14 0.837422 0.250000 0.421716
O O15 0.036375 0.139519 0.167868
O O16 0.562303 0.864811 0.073570
O O17 0.453425 0.848581 0.962264
O O18 0.500000 0.000000 0.000000
O O19 0.693616 0.750000 0.103608
O O20 0.680857 0.250000 0.078282
#
# Coordination Sequence:
#
# PCOD9165276 Si02
#       8
#     4   4   4   4   4   4   4   4
#     4  11  22  38  63  90 122 159 201 250 306 360
#     4  10  21  38  61  89 120 159 205 254 303 363
#     4  11  21  38  65  86 122 160 201 250 309 361
#     4  11  22  38  63  90 122 159 201 250 306 360
#     4  10  21  38  64  92 118 159 210 250 298 366
#     4  11  21  38  65  86 122 160 201 250 309 361
#     4  10  21  38  61  89 120 159 205 254 303 363
#     4  10  21  38  64  92 118 159 210 250 298 366
#
# _framework density 23.953309000000001
#
# number of rings (size 3 to 8) (size 9 to 14) (size 15 to 20)
#    0.000    1.500    5.000    0.750    0.000    2.000 
#    0.000    2.500    0.000    0.000    0.000    0.000 
#    0.000    0.000    0.000    0.000    0.000    0.000 
#
# Total GULP energy -178676.014271 kJ/mol
# GULP energy per Si atom -5583.625446 kJ/mol
# Density = 2.389879 g / cm^3
# Si number density = 23.953309 Si / 1000 Ang^3
#
#
#
# Elastic Constant Matrix: (Units=GPa)
#
#
# Indices 1 2 3 4 5 6 
#
# 1 160.8892 59.9290 16.4079 0.0000 3.0177 0.0000
# 2 59.9290 169.7916 -0.9642 0.0000 1.8343 0.0000
# 3 16.4079 -0.9642 44.8190 0.0000 0.4790 0.0000
# 4 0.0000 0.0000 0.0000 18.7442 0.0000 -0.0902
# 5 3.0177 1.8343 0.4790 0.0000 22.2301 0.0000
# 6 0.0000 0.0000 0.0000 -0.0902 0.0000 15.7496
#
#
#
# Elastic Compliance Matrix: (Units=1/GPa)
#
#
# Indices 1 2 3 4 5 6 
#
# 1 0.007504 -0.002656 -0.002796 0.000000 -0.000739 0.000000
# 2 -0.002656 0.006836 0.001122 0.000000 -0.000228 0.000000
# 3 -0.002796 0.001122 0.023362 0.000000 -0.000216 0.000000
# 4 0.000000 0.000000 0.000000 0.053351 0.000000 0.000306
# 5 -0.000739 -0.000228 -0.000216 0.000000 0.045108 0.000000
# 6 0.000000 0.000000 0.000000 0.000306 0.000000 0.063495
#
#
# Mechanical properties :
#
#
# Convention : Reuss Voigt Hill
#
# Bulk Modulus (GPa) = 34.43474 58.47168 46.45321
# Shear Modulus (GPa) = 22.93594 31.35327 27.14461
#
# Velocity S-wave (km/s) = 3.09775 3.62184 3.37000
# Velocity P-wave (km/s) = 5.21553 6.47719 5.88029
#
# Compressibility (1/GPa) = 0.02904044
#
# Stress axis : x y z
#
# Youngs Moduli (GPa) = 133.26217 146.28388 42.80429
#
# Poissons Ratio (x) = 0.38860 0.11970
# Poissons Ratio (y) = 0.35401 -0.04803
# Poissons Ratio (z) = 0.37265 -0.16413
#
# Static dielectric constant tensor:
#      x y z
#    x 1.707280 0.000000 -0.020290 
#    y 0.000000 1.859350 0.000000 
#    z -0.020290 0.000000 2.380240 
# 
# From -- ./inp_files/50367.got.cif
#   From: 2010.05.17/outbox.cif.g08.bks.cpg/sg11_26_cif.got.tgz:50367.got - 2010.06.03 12:22:45.
