data_PCOD9165752
_publ_section_title
;
Structure prediction by ZEFSAII (Michael W. Deem and Ramdas Pophale) SiO2 
 PCOD9165752
Probable space group: P 21/M
;
_chemical_formula_sum "Si O2"
_cell_formula_units_Z 28
_cell_length_a 26.745494
_cell_length_b 8.874692
_cell_length_c 10.201895
_cell_angle_alpha 90.000000
_cell_angle_beta 38.406679
_cell_angle_gamma 90.000000
_cell_volume 1504.331560
_symmetry_space_group_name_H-M "P 21/M"
_symmetry_group_IT_number 11
_symmetry_cell_setting 'monoclinic'
loop_
_space_group_symop_operation_xyz
x,y,z
-x,1/2+y,-z
-x,-y,-z
x,1/2-y,z
loop_
_atom_site_type_symbol
_atom_site_label
_atom_site_fract_x
_atom_site_fract_y
_atom_site_fract_z
Si Si1 0.061906 0.429389 0.771042
Si Si2 0.773607 0.072575 0.477207
Si Si3 0.751897 0.569708 0.986050
Si Si4 0.517146 0.568552 0.821262
Si Si5 0.351221 0.928088 0.032329
Si Si6 0.313676 0.930660 0.612045
Si Si7 0.935029 0.568098 0.535016
O O1 0.054134 0.250000 0.789772
O O2 0.151165 0.476900 0.630034
O O3 0.048369 0.480167 0.648846
O O4 0.000000 0.500000 0.000000
O O5 0.795606 0.250000 0.434164
O O6 0.700399 0.051819 0.728879
O O7 0.743740 0.033666 0.393487
O O8 0.749650 0.750000 0.004262
O O9 0.691920 0.518910 0.993831
O O10 0.843468 0.525219 0.760779
O O11 0.724050 0.492836 0.177365
O O12 0.520108 0.750000 0.825879
O O13 0.600121 0.504615 0.594714
O O14 0.500000 0.500000 0.000000
O O15 0.442472 0.529215 0.879527
O O16 0.349141 0.750000 0.003442
O O17 0.322558 0.750000 0.599485
O O18 0.939521 0.750000 0.530884
O O19 0.000000 0.500000 0.500000
#
# Coordination Sequence:
#
# PCOD9165752 Si02
#       7
#     4   4   4   4   4   4   4
#     4  11  24  42  63  94 126 159 204 254 307 367
#     4  10  21  40  64  91 123 161 207 253 304 365
#     4  11  24  43  63  92 125 162 209 255 306 370
#     4  11  22  39  63  94 128 163 208 258 310 368
#     4  10  21  40  65  91 121 163 207 250 306 369
#     4  11  24  42  63  93 127 165 209 257 310 368
#     4  10  24  43  63  89 123 160 203 249 304 365
#
# _framework density 18.612919999999999
#
# number of rings (size 3 to 8) (size 9 to 14) (size 15 to 20)
#    0.000    1.429    2.857    1.714    2.000    5.143 
#    0.000    0.000    0.000    0.000    0.000    0.000 
#    0.000    0.000    0.000    0.000    0.000    0.000 
#
# Total GULP energy -156513.470833 kJ/mol
# GULP energy per Si atom -5589.766815 kJ/mol
# Density = 1.857056 g / cm^3
# Si number density = 18.612920 Si / 1000 Ang^3
#
#
#
# Elastic Constant Matrix: (Units=GPa)
#
#
# Indices 1 2 3 4 5 6 
#
# 1 169.7416 62.6936 78.5137 0.0000 10.0900 0.0000
# 2 62.6936 50.3294 45.7777 0.0000 4.9844 0.0000
# 3 78.5137 45.7777 129.9697 0.0000 14.6272 0.0000
# 4 0.0000 0.0000 0.0000 34.7192 0.0000 -1.5948
# 5 10.0900 4.9844 14.6272 0.0000 33.1951 0.0000
# 6 0.0000 0.0000 0.0000 -1.5948 0.0000 36.9296
#
#
#
# Elastic Compliance Matrix: (Units=1/GPa)
#
#
# Indices 1 2 3 4 5 6 
#
# 1 0.011580 -0.011865 -0.002758 0.000000 -0.000523 0.000000
# 2 -0.011865 0.041393 -0.007489 0.000000 0.000691 0.000000
# 3 -0.002758 -0.007489 0.012391 0.000000 -0.003497 0.000000
# 4 0.000000 0.000000 0.000000 0.028860 0.000000 0.001246
# 5 -0.000523 0.000691 -0.003497 0.000000 0.031721 0.000000
# 6 0.000000 0.000000 0.000000 0.001246 0.000000 0.027132
#
#
# Mechanical properties :
#
#
# Convention : Reuss Voigt Hill
#
# Bulk Modulus (GPa) = 47.30325 80.44564 63.87445
# Shear Modulus (GPa) = 24.46792 31.83914 28.15353
#
# Velocity S-wave (km/s) = 3.62963 4.14042 3.89341
# Velocity P-wave (km/s) = 6.56011 8.13459 7.38940
#
# Compressibility (1/GPa) = 0.02114020
#
# Stress axis : x y z
#
# Youngs Moduli (GPa) = 86.35375 24.15875 80.70079
#
# Poissons Ratio (x) = 0.28665 0.22253
# Poissons Ratio (y) = 1.02460 0.60441
# Poissons Ratio (z) = 0.23812 0.18094
#
# Static dielectric constant tensor:
#      x y z
#    x 1.616450 0.000000 -0.001020 
#    y 0.000000 1.624330 0.000000 
#    z -0.001020 0.000000 1.624420 
# 
# From -- ./inp_files/28375.got.cif
#   From: 2010.05.17/outbox.cif.g08.bks.cpg/sg11_15_cif.got.tgz:28375.got - 2010.06.03 12:22:45.
