data_PCOD9165689
_publ_section_title
;
Structure prediction by ZEFSAII (Michael W. Deem and Ramdas Pophale) SiO2 
 PCOD9165689
Probable space group: P 21/M
;
_chemical_formula_sum "Si O2"
_cell_formula_units_Z 20
_cell_length_a 12.527228
_cell_length_b 11.232689
_cell_length_c 14.606494
_cell_angle_alpha 90.000000
_cell_angle_beta 151.645025
_cell_angle_gamma 90.000000
_cell_volume 976.150698
_symmetry_space_group_name_H-M "P 21/M"
_symmetry_group_IT_number 11
_symmetry_cell_setting 'monoclinic'
loop_
_space_group_symop_operation_xyz
x,y,z
-x,1/2+y,-z
-x,-y,-z
x,1/2-y,z
loop_
_atom_site_type_symbol
_atom_site_label
_atom_site_fract_x
_atom_site_fract_y
_atom_site_fract_z
Si Si1 0.628522 0.878904 0.405835
Si Si2 0.753058 0.555054 0.302464
Si Si3 0.331756 0.118485 0.967747
Si Si4 0.148409 0.617598 0.123357
Si Si5 0.837632 0.112840 0.655835
O O1 0.697861 0.750000 0.501114
O O2 0.704039 0.874518 0.357849
O O3 0.360750 0.886380 0.216407
O O4 0.725212 0.001619 0.520046
O O5 0.738834 0.615827 0.192543
O O6 0.000000 0.500000 0.500000
O O7 0.546506 0.462712 0.143814
O O8 0.399914 0.250000 0.046661
O O9 0.105727 0.088655 0.852351
O O10 0.038487 0.750000 0.029697
O O11 0.235512 0.613358 0.293782
O O12 0.000000 0.500000 0.000000
O O13 0.802419 0.250000 0.593758
#
# Coordination Sequence:
#
# PCOD9165689 Si02
#       5
#     4   4   4   4   4
#     4  11  23  39  61  92 124 161 208 262 313 371
#     4  11  22  40  60  88 126 165 208 256 319 370
#     4  10  22  39  61  88 120 161 212 258 306 373
#     4  10  22  39  61  88 124 161 206 258 312 373
#     4  10  21  40  61  89 123 161 208 256 309 379
#
# _framework density 20.488638999999999
#
# number of rings (size 3 to 8) (size 9 to 14) (size 15 to 20)
#    0.000    1.600    2.000    2.400    0.000    4.000 
#    0.000    1.000    0.000    0.000    0.000    0.000 
#    0.000    0.000    0.000    0.000    0.000    0.000 
#
# Total GULP energy -111483.894351 kJ/mol
# GULP energy per Si atom -5574.194718 kJ/mol
# Density = 2.044201 g / cm^3
# Si number density = 20.488639 Si / 1000 Ang^3
#
#
#
# Elastic Constant Matrix: (Units=GPa)
#
#
# Indices 1 2 3 4 5 6 
#
# 1 98.4199 17.8676 7.9441 0.0000 14.4568 0.0000
# 2 17.8676 174.2424 71.5942 0.0000 7.0736 0.0000
# 3 7.9441 71.5942 53.9849 0.0000 5.9342 0.0000
# 4 0.0000 0.0000 0.0000 14.6258 0.0000 4.2612
# 5 14.4568 7.0736 5.9342 0.0000 29.5835 0.0000
# 6 0.0000 0.0000 0.0000 4.2612 0.0000 24.1091
#
#
#
# Elastic Compliance Matrix: (Units=1/GPa)
#
#
# Indices 1 2 3 4 5 6 
#
# 1 0.011096 -0.001079 0.000374 0.000000 -0.005239 0.000000
# 2 -0.001079 0.012719 -0.016804 0.000000 0.000856 0.000000
# 3 0.000374 -0.016804 0.041242 0.000000 -0.004437 0.000000
# 4 0.000000 0.000000 0.000000 0.072084 0.000000 -0.012741
# 5 -0.005239 0.000856 -0.004437 0.000000 0.037048 0.000000
# 6 0.000000 0.000000 0.000000 -0.012741 0.000000 0.043730
#
#
# Mechanical properties :
#
#
# Convention : Reuss Voigt Hill
#
# Bulk Modulus (GPa) = 33.29003 57.93990 45.61496
# Shear Modulus (GPa) = 19.01501 28.94643 23.98072
#
# Velocity S-wave (km/s) = 3.04974 3.76281 3.42488
# Velocity P-wave (km/s) = 5.35579 6.87159 6.16049
#
# Compressibility (1/GPa) = 0.03003903
#
# Stress axis : x y z
#
# Youngs Moduli (GPa) = 90.12420 78.61957 24.24738
#
# Poissons Ratio (x) = 0.08480 -0.00906
# Poissons Ratio (y) = 0.09721 0.40745
# Poissons Ratio (z) = -0.03367 1.32111
#
# Static dielectric constant tensor:
#      x y z
#    x 1.722840 0.000000 -0.019330 
#    y 0.000000 1.808020 0.000000 
#    z -0.019330 0.000000 1.708010 
# 
# From -- ./inp_files/39260.got.cif
#   From: 2010.05.17/outbox.cif.g08.bks.cpg/sg11_20_cif.got.tgz:39260.got - 2010.06.03 12:22:45.
