data_PCOD9165305
_publ_section_title
;
Structure prediction by ZEFSAII (Michael W. Deem and Ramdas Pophale) SiO2 
 PCOD9165305
Probable space group: P 21/M
;
_chemical_formula_sum "Si O2"
_cell_formula_units_Z 22
_cell_length_a 16.036716
_cell_length_b 7.585044
_cell_length_c 7.992946
_cell_angle_alpha 90.000000
_cell_angle_beta 65.145446
_cell_angle_gamma 90.000000
_cell_volume 882.202973
_symmetry_space_group_name_H-M "P 21/M"
_symmetry_group_IT_number 11
_symmetry_cell_setting 'monoclinic'
loop_
_space_group_symop_operation_xyz
x,y,z
-x,1/2+y,-z
-x,-y,-z
x,1/2-y,z
loop_
_atom_site_type_symbol
_atom_site_label
_atom_site_fract_x
_atom_site_fract_y
_atom_site_fract_z
Si Si1 0.402371 0.040010 0.003359
Si Si2 0.040434 0.546076 0.279770
Si Si3 0.603959 0.055229 0.368547
Si Si4 0.935669 0.250000 0.147902
Si Si5 0.784687 0.962094 0.685320
Si Si6 0.196504 0.451270 0.709654
O O1 0.394696 0.250000 0.981957
O O2 0.319504 0.984743 0.193049
O O3 0.392469 0.949173 0.834163
O O4 0.500000 0.000000 0.000000
O O5 0.018264 0.750000 0.251747
O O6 0.148328 0.530054 0.228187
O O7 0.000000 0.500000 0.500000
O O8 0.998755 0.405979 0.186813
O O9 0.834910 0.750000 0.239599
O O10 0.500000 0.000000 0.500000
O O11 0.693865 0.951300 0.351934
O O12 0.862743 0.094687 0.143996
O O13 0.789793 0.750000 0.683220
O O14 0.814994 0.013713 0.473991
O O15 0.383354 0.750000 0.572391
#
# Coordination Sequence:
#
# PCOD9165305 Si02
#       6
#     4   4   4   2   4   4
#     4  11  24  43  67  97 132 171 213 268 329 389
#     4  12  20  33  58  92 129 172 220 270 324 377
#     4  12  25  44  67  96 131 173 217 268 324 397
#     4  12  22  36  58  96 132 170 218 276 320 384
#     4  10  21  38  61  94 131 171 214 272 324 382
#     4  11  22  40  64  97 131 172 219 268 329 386
#
# _framework density 24.937570000000001
#
# number of rings (size 3 to 8) (size 9 to 14) (size 15 to 20)
#    0.000    0.727    4.545    3.818    0.000    2.909 
#    0.000    0.000    0.000    1.091    0.000    0.000 
#    0.000    0.000    0.000    0.000    0.000    0.000 
#
# Total GULP energy -122775.695214 kJ/mol
# GULP energy per Si atom -5580.713419 kJ/mol
# Density = 2.488081 g / cm^3
# Si number density = 24.937570 Si / 1000 Ang^3
#
#
#
# Elastic Constant Matrix: (Units=GPa)
#
#
# Indices 1 2 3 4 5 6 
#
# 1 184.7631 29.0385 19.7525 0.0000 3.4300 0.0000
# 2 29.0385 158.6464 19.2220 0.0000 -12.9341 0.0000
# 3 19.7525 19.2220 68.1667 0.0000 -1.8243 0.0000
# 4 0.0000 0.0000 0.0000 16.2236 0.0000 3.1164
# 5 3.4300 -12.9341 -1.8243 0.0000 35.7789 0.0000
# 6 0.0000 0.0000 0.0000 3.1164 0.0000 50.6659
#
#
#
# Elastic Compliance Matrix: (Units=1/GPa)
#
#
# Indices 1 2 3 4 5 6 
#
# 1 0.005732 -0.000956 -0.001417 0.000000 -0.000968 0.000000
# 2 -0.000956 0.006875 -0.001595 0.000000 0.002496 0.000000
# 3 -0.001417 -0.001595 0.015540 0.000000 0.000352 0.000000
# 4 0.000000 0.000000 0.000000 0.062375 0.000000 -0.003837
# 5 -0.000968 0.002496 0.000352 0.000000 0.028962 0.000000
# 6 0.000000 0.000000 0.000000 -0.003837 0.000000 0.019973
#
#
# Mechanical properties :
#
#
# Convention : Reuss Voigt Hill
#
# Bulk Modulus (GPa) = 49.47986 60.84468 55.16227
# Shear Modulus (GPa) = 32.43990 43.43790 37.93890
#
# Velocity S-wave (km/s) = 3.61064 4.17809 3.90469
# Velocity P-wave (km/s) = 6.10466 6.90848 6.51897
#
# Compressibility (1/GPa) = 0.02021024
#
# Stress axis : x y z
#
# Youngs Moduli (GPa) = 174.45570 145.45297 64.35140
#
# Poissons Ratio (x) = 0.13911 0.09120
# Poissons Ratio (y) = 0.16684 0.10262
# Poissons Ratio (z) = 0.24724 0.23196
#
# Static dielectric constant tensor:
#      x y z
#    x 2.032570 0.000000 -0.059960 
#    y 0.000000 1.932260 0.000000 
#    z -0.059960 0.000000 2.128840 
# 
# From -- ./inp_files/20311.got.cif
#   From: 2010.05.17/outbox.cif.g08.bks.cpg/sg11_11_cif.got.tgz:20311.got - 2010.06.03 12:22:45.
