data_PCOD9165517
_publ_section_title
;
Structure prediction by ZEFSAII (Michael W. Deem and Ramdas Pophale) SiO2 
 PCOD9165517
Probable space group: P 21/M
;
_chemical_formula_sum "Si O2"
_cell_formula_units_Z 20
_cell_length_a 12.166607
_cell_length_b 7.740480
_cell_length_c 8.454998
_cell_angle_alpha 90.000000
_cell_angle_beta 84.593241
_cell_angle_gamma 90.000000
_cell_volume 792.709991
_symmetry_space_group_name_H-M "P 21/M"
_symmetry_group_IT_number 11
_symmetry_cell_setting 'monoclinic'
loop_
_space_group_symop_operation_xyz
x,y,z
-x,1/2+y,-z
-x,-y,-z
x,1/2-y,z
loop_
_atom_site_type_symbol
_atom_site_label
_atom_site_fract_x
_atom_site_fract_y
_atom_site_fract_z
Si Si1 0.350219 0.057964 0.945849
Si Si2 0.119186 0.557966 0.922298
Si Si3 0.268782 0.040842 0.280976
Si Si4 0.013677 0.951123 0.320013
Si Si5 0.381440 0.042286 0.588059
O O1 0.400537 0.250000 0.947262
O O2 0.379651 0.974150 0.771045
O O3 0.218016 0.067792 0.942399
O O4 0.351296 0.981503 0.125588
O O5 0.149578 0.750000 0.968943
O O6 0.086356 0.554844 0.745150
O O7 0.000000 0.500000 0.000000
O O8 0.275266 0.250000 0.279024
O O9 0.301143 0.982686 0.454573
O O10 0.141622 0.991393 0.261293
O O11 0.993529 0.750000 0.291602
O O12 0.000000 0.000000 0.500000
O O13 0.364564 0.250000 0.605762
O O14 0.500000 0.000000 0.500000
#
# Coordination Sequence:
#
# PCOD9165517 Si02
#       5
#     4   4   4   4   4
#     4  10  21  39  63  89 123 165 209 257 312 370
#     4  12  23  37  59  90 127 166 207 251 303 366
#     4  10  21  39  62  87 120 161 207 257 313 372
#     4  12  24  38  59  89 125 166 210 256 310 370
#     4  10  23  42  63  89 119 156 204 262 322 378
#
# _framework density 25.229908999999999
#
# number of rings (size 3 to 8) (size 9 to 14) (size 15 to 20)
#    0.000    1.200    2.000    4.800    0.000    4.000 
#    0.000    0.000    0.000    0.000    0.000    0.000 
#    0.000    0.000    0.000    0.000    0.000    0.000 
#
# Total GULP energy -111534.305604 kJ/mol
# GULP energy per Si atom -5576.715280 kJ/mol
# Density = 2.517248 g / cm^3
# Si number density = 25.229909 Si / 1000 Ang^3
#
#
#
# Elastic Constant Matrix: (Units=GPa)
#
#
# Indices 1 2 3 4 5 6 
#
# 1 66.5072 0.9573 7.0421 0.0000 2.2356 0.0000
# 2 0.9573 91.9411 6.1378 0.0000 -2.3509 0.0000
# 3 7.0421 6.1378 184.7247 0.0000 -23.3229 0.0000
# 4 0.0000 0.0000 0.0000 16.7390 0.0000 -5.4212
# 5 2.2356 -2.3509 -23.3229 0.0000 43.1220 0.0000
# 6 0.0000 0.0000 0.0000 -5.4212 0.0000 20.5036
#
#
#
# Elastic Compliance Matrix: (Units=1/GPa)
#
#
# Indices 1 2 3 4 5 6 
#
# 1 0.015154 -0.000140 -0.000723 0.000000 -0.001184 0.000000
# 2 -0.000140 0.010909 -0.000302 0.000000 0.000439 0.000000
# 3 -0.000723 -0.000302 0.005853 0.000000 0.003187 0.000000
# 4 0.000000 0.000000 0.000000 0.065335 0.000000 0.017275
# 5 -0.001184 0.000439 0.003187 0.000000 0.024999 0.000000
# 6 0.000000 0.000000 0.000000 0.017275 0.000000 0.053339
#
#
# Mechanical properties :
#
#
# Convention : Reuss Voigt Hill
#
# Bulk Modulus (GPa) = 33.79662 41.27193 37.53428
# Shear Modulus (GPa) = 26.62664 38.00865 32.31764
#
# Velocity S-wave (km/s) = 3.25215 3.88557 3.58289
# Velocity P-wave (km/s) = 5.24658 6.04351 5.65909
#
# Compressibility (1/GPa) = 0.02958876
#
# Stress axis : x y z
#
# Youngs Moduli (GPa) = 65.98787 91.66454 170.84085
#
# Poissons Ratio (x) = 0.01282 0.12345
# Poissons Ratio (y) = 0.00923 0.05155
# Poissons Ratio (z) = 0.04768 0.02766
#
# Static dielectric constant tensor:
#      x y z
#    x 1.967450 0.000000 0.126540 
#    y 0.000000 1.965050 0.000000 
#    z 0.126540 0.000000 2.538410 
# 
# From -- ./inp_files/15955.got.cif
#   From: 2010.05.17/outbox.cif.g08.bks.cpg/sg11_8_cif.got.tgz:15955.got - 2010.06.03 12:22:45.
