data_PCOD9165038
_publ_section_title
;
Structure prediction by ZEFSAII (Michael W. Deem and Ramdas Pophale) SiO2 
 PCOD9165038
Probable space group: P 21/M
;
_chemical_formula_sum "Si O2"
_cell_formula_units_Z 28
_cell_length_a 9.361889
_cell_length_b 13.506752
_cell_length_c 13.169504
_cell_angle_alpha 90.000000
_cell_angle_beta 128.178768
_cell_angle_gamma 90.000000
_cell_volume 1309.042945
_symmetry_space_group_name_H-M "P 21/M"
_symmetry_group_IT_number 11
_symmetry_cell_setting 'monoclinic'
loop_
_space_group_symop_operation_xyz
x,y,z
-x,1/2+y,-z
-x,-y,-z
x,1/2-y,z
loop_
_atom_site_type_symbol
_atom_site_label
_atom_site_fract_x
_atom_site_fract_y
_atom_site_fract_z
Si Si1 0.030898 0.633995 0.222400
Si Si2 0.253450 0.141459 0.442943
Si Si3 0.801688 0.453514 0.898029
Si Si4 0.338960 0.142987 0.263163
Si Si5 0.847730 0.363287 0.335562
Si Si6 0.290450 0.529055 0.924229
Si Si7 0.706988 0.433765 0.481346
O O1 0.985417 0.750000 0.210189
O O2 0.162961 0.616726 0.182664
O O3 0.145425 0.598511 0.370860
O O4 0.850264 0.564928 0.135552
O O5 0.335964 0.250000 0.495998
O O6 0.207065 0.133187 0.302347
O O7 0.064375 0.136537 0.419131
O O8 0.360211 0.044471 0.522653
O O9 0.678757 0.548150 0.814591
O O10 0.735130 0.416647 0.978024
O O11 0.000000 0.500000 0.000000
O O12 0.309519 0.250000 0.200675
O O13 0.534651 0.137618 0.402165
O O14 0.787792 0.250000 0.326917
O O15 0.766826 0.404396 0.196054
O O16 0.790028 0.427957 0.405884
O O17 0.500000 0.500000 0.000000
#
# Coordination Sequence:
#
# PCOD9165038 Si02
#       7
#     4   4   4   4   4   4   4
#     4  11  24  42  65  95 130 172 216 273 342 398
#     4  10  21  37  62  93 126 164 206 259 323 387
#     4  10  22  42  64  92 129 174 220 272 322 381
#     4  11  22  39  66  97 128 170 216 265 321 392
#     4  11  23  41  65  91 123 172 216 260 328 405
#     4  11  24  43  65  94 131 172 223 279 328 386
#     4  12  22  42  64  96 137 167 211 270 332 398
#
# _framework density 21.389672999999998
#
# number of rings (size 3 to 8) (size 9 to 14) (size 15 to 20)
#    0.000    1.143    2.857    3.857    0.000    3.429 
#    0.000    0.000    0.000    1.714    0.000    0.000 
#    0.000    0.000    0.000    0.000    0.000    0.000 
#
# Total GULP energy -156383.873990 kJ/mol
# GULP energy per Si atom -5585.138357 kJ/mol
# Density = 2.134099 g / cm^3
# Si number density = 21.389673 Si / 1000 Ang^3
#
#
#
# Elastic Constant Matrix: (Units=GPa)
#
#
# Indices 1 2 3 4 5 6 
#
# 1 91.7330 -1.4162 37.2868 0.0000 -14.8163 0.0000
# 2 -1.4162 109.6908 35.9740 0.0000 -3.4190 0.0000
# 3 37.2868 35.9740 90.4924 0.0000 -18.6321 0.0000
# 4 0.0000 0.0000 0.0000 -0.4283 0.0000 7.9196
# 5 -14.8163 -3.4190 -18.6321 0.0000 45.4866 0.0000
# 6 0.0000 0.0000 0.0000 7.9196 0.0000 20.8113
#
#
#
# Elastic Compliance Matrix: (Units=1/GPa)
#
#
# Indices 1 2 3 4 5 6 
#
# 1 0.013774 0.002255 -0.006131 0.000000 0.002145 0.000000
# 2 0.002255 0.010895 -0.005395 0.000000 -0.000657 0.000000
# 3 -0.006131 -0.005395 0.016629 0.000000 0.004409 0.000000
# 4 0.000000 0.000000 0.000000 -0.290527 0.000000 0.110558
# 5 0.002145 -0.000657 0.004409 0.000000 0.024440 0.000000
# 6 0.000000 0.000000 0.000000 0.110558 0.000000 0.005979
#
#
# Mechanical properties :
#
#
# Convention : Reuss Voigt Hill
#
# Bulk Modulus (GPa) = 43.94253 48.40061 46.17157
# Shear Modulus (GPa) = -25.94948 27.84536 0.94794
#
# Velocity S-wave (km/s) = -3.48685 3.61198 0.66644
# Velocity P-wave (km/s) = 2.09227 6.33027 4.71434
#
# Compressibility (1/GPa) = 0.02275699
#
# Stress axis : x y z
#
# Youngs Moduli (GPa) = 72.59865 91.78788 60.13430
#
# Poissons Ratio (x) = -0.20700 0.36865
# Poissons Ratio (y) = -0.16373 0.32445
# Poissons Ratio (z) = 0.44507 0.49524
#
# Static dielectric constant tensor:
#      x y z
#    x 1.813560 0.000000 0.028160 
#    y 0.000000 1.746080 0.000000 
#    z 0.028160 0.000000 1.871800 
# 
# From -- ./inp_files/31973.got.cif
#   From: 2010.05.17/outbox.cif.g08.bks.cpg/sg11_16_cif.got.tgz:31973.got - 2010.06.03 12:22:45.
