data_PCOD9165839
_publ_section_title
;
Structure prediction by ZEFSAII (Michael W. Deem and Ramdas Pophale) SiO2 
 PCOD9165839
Probable space group: P 21/M
;
_chemical_formula_sum "Si O2"
_cell_formula_units_Z 30
_cell_length_a 8.691826
_cell_length_b 14.023465
_cell_length_c 17.071902
_cell_angle_alpha 90.000000
_cell_angle_beta 144.135187
_cell_angle_gamma 90.000000
_cell_volume 1219.138561
_symmetry_space_group_name_H-M "P 21/M"
_symmetry_group_IT_number 11
_symmetry_cell_setting 'monoclinic'
loop_
_space_group_symop_operation_xyz
x,y,z
-x,1/2+y,-z
-x,-y,-z
x,1/2-y,z
loop_
_atom_site_type_symbol
_atom_site_label
_atom_site_fract_x
_atom_site_fract_y
_atom_site_fract_z
Si Si1 0.822945 0.603997 0.667080
Si Si2 0.232776 0.908956 0.435141
Si Si3 0.648138 0.907710 0.024207
Si Si4 0.829194 0.363481 0.854727
Si Si5 0.588147 0.008015 0.330596
Si Si6 0.244211 0.853469 0.722384
Si Si7 0.077817 0.360182 0.120809
Si Si8 0.171417 0.250000 0.778968
O O1 0.808890 0.489878 0.648029
O O2 0.521857 0.636861 0.543971
O O3 0.980918 0.627958 0.811552
O O4 0.974439 0.646947 0.657541
O O5 0.270550 0.962965 0.532178
O O6 0.004228 0.833201 0.337467
O O7 0.936698 0.912838 0.099317
O O8 0.468359 0.866939 0.880151
O O9 0.682762 0.832986 0.108261
O O10 0.500000 0.000000 0.000000
O O11 0.847022 0.250000 0.845697
O O12 0.877044 0.380727 0.967576
O O13 0.538458 0.403703 0.718417
O O14 0.752583 0.051132 0.327843
O O15 0.326421 0.072643 0.212939
O O16 0.278096 0.750000 0.695805
O O17 0.149085 0.250000 0.138750
#
# Coordination Sequence:
#
# PCOD9165839 Si02
#       8
#     4   4   4   4   4   4   4   2
#     4  10  24  44  73 111 151 203 263 319 389 466
#     4  10  26  46  76 104 148 208 267 311 374 472
#     4  12  27  45  77 116 159 200 248 333 410 467
#     4  11  24  46  76 112 158 209 267 328 396 472
#     4  11  25  42  76 110 150 209 257 319 387 460
#     4  12  25  45  74 112 153 200 254 329 406 470
#     4  10  21  40  71 106 146 194 260 319 377 461
#     4  12  26  48  76 110 158 202 258 318 390 476
#
# _framework density 24.60754
#
# number of rings (size 3 to 8) (size 9 to 14) (size 15 to 20)
#    0.000    1.067    2.667    2.000   14.933    0.533 
#    0.000    1.333    7.333    0.000    3.467    0.000 
#    0.000    0.000    0.000    0.000    0.000    0.000 
#
# Total GULP energy -167313.053396 kJ/mol
# GULP energy per Si atom -5577.101780 kJ/mol
# Density = 2.455153 g / cm^3
# Si number density = 24.607540 Si / 1000 Ang^3
#
#
#
# Elastic Constant Matrix: (Units=GPa)
#
#
# Indices 1 2 3 4 5 6 
#
# 1 93.4993 35.6231 42.1535 0.0000 2.6502 0.0000
# 2 35.6231 141.1437 55.8754 0.0000 1.2419 0.0000
# 3 42.1535 55.8754 134.6735 0.0000 -10.4498 0.0000
# 4 0.0000 0.0000 0.0000 39.0680 0.0000 -14.5797
# 5 2.6502 1.2419 -10.4498 0.0000 22.3976 0.0000
# 6 0.0000 0.0000 0.0000 -14.5797 0.0000 8.3078
#
#
#
# Elastic Compliance Matrix: (Units=1/GPa)
#
#
# Indices 1 2 3 4 5 6 
#
# 1 0.013104 -0.001867 -0.003568 0.000000 -0.003112 0.000000
# 2 -0.001867 0.008848 -0.003224 0.000000 -0.001774 0.000000
# 3 -0.003568 -0.003224 0.010299 0.000000 0.005406 0.000000
# 4 0.000000 0.000000 0.000000 0.074176 0.000000 0.130174
# 5 -0.003112 -0.001774 0.005406 0.000000 0.047637 0.000000
# 6 0.000000 0.000000 0.000000 0.130174 0.000000 0.348816
#
#
# Mechanical properties :
#
#
# Convention : Reuss Voigt Hill
#
# Bulk Modulus (GPa) = 66.97115 70.73561 68.85338
# Shear Modulus (GPa) = 9.52061 29.66564 19.59313
#
# Velocity S-wave (km/s) = 1.96911 3.47587 2.82481
# Velocity P-wave (km/s) = 5.69602 6.70200 6.21938
#
# Compressibility (1/GPa) = 0.01493180
#
# Stress axis : x y z
#
# Youngs Moduli (GPa) = 76.31494 113.01628 97.09233
#
# Poissons Ratio (x) = 0.21103 0.34645
# Poissons Ratio (y) = 0.14250 0.31306
# Poissons Ratio (z) = 0.27231 0.36440
#
# Static dielectric constant tensor:
#      x y z
#    x 2.079830 0.000000 0.006410 
#    y 0.000000 1.943820 0.000000 
#    z 0.006410 0.000000 1.909900 
# 
# From -- ./inp_files/58036.got.cif
#   From: 2010.05.17/outbox.cif.g08.bks.cpg/sg11_30_cif.got.tgz:58036.got - 2010.06.03 12:22:45.
