data_PCOD9165322
_publ_section_title
;
Structure prediction by ZEFSAII (Michael W. Deem and Ramdas Pophale) SiO2 
 PCOD9165322
Probable space group: P 21/M
;
_chemical_formula_sum "Si O2"
_cell_formula_units_Z 32
_cell_length_a 16.167559
_cell_length_b 8.022187
_cell_length_c 25.220039
_cell_angle_alpha 90.000000
_cell_angle_beta 152.453543
_cell_angle_gamma 90.000000
_cell_volume 1512.740281
_symmetry_space_group_name_H-M "P 21/M"
_symmetry_group_IT_number 11
_symmetry_cell_setting 'monoclinic'
loop_
_space_group_symop_operation_xyz
x,y,z
-x,1/2+y,-z
-x,-y,-z
x,1/2-y,z
loop_
_atom_site_type_symbol
_atom_site_label
_atom_site_fract_x
_atom_site_fract_y
_atom_site_fract_z
Si Si1 0.198853 0.451173 0.594925
Si Si2 0.549409 0.550989 0.355087
Si Si3 0.401787 0.047295 0.814785
Si Si4 0.205651 0.546438 0.977802
Si Si5 0.400598 0.939230 0.496678
Si Si6 0.196840 0.951100 0.093877
Si Si7 0.299957 0.049847 0.869211
Si Si8 0.972412 0.944392 0.753118
O O1 0.201214 0.250000 0.595100
O O2 0.284881 0.510593 0.587910
O O3 0.327916 0.508031 0.716268
O O4 0.000000 0.500000 0.500000
O O5 0.548002 0.750000 0.347420
O O6 0.563529 0.520929 0.425786
O O7 0.361862 0.487143 0.223624
O O8 0.405331 0.250000 0.815554
O O9 0.605535 0.991938 0.939465
O O10 0.283777 0.000433 0.798122
O O11 0.201360 0.750000 0.973935
O O12 0.211901 0.491788 0.041783
O O13 0.036651 0.492015 0.847218
O O14 0.454500 0.750000 0.534507
O O15 0.500000 0.000000 0.500000
O O16 0.191169 0.958169 0.364795
O O17 0.207862 0.750000 0.099702
O O18 0.000000 0.000000 0.000000
O O19 0.280801 0.250000 0.863137
O O20 0.148692 0.962032 0.817502
O O21 0.500000 0.000000 0.000000
O O22 0.920101 0.750000 0.726872
#
# Coordination Sequence:
#
# PCOD9165322 Si02
#       8
#     4   4   4   4   4   4   4   4
#     4  10  21  38  62  89 122 165 212 260 312 374
#     4  10  22  43  67  94 130 168 212 263 318 385
#     4   9  17  34  58  83 117 161 206 252 311 369
#     4   9  17  35  62  89 119 160 202 249 313 376
#     4  12  28  49  70  92 124 167 218 271 326 387
#     4  10  21  38  64  94 123 157 202 253 313 377
#     4  11  21  35  57  89 127 169 211 256 309 370
#     4  11  23  41  65  93 128 168 213 262 319 385
#
# _framework density 21.153663999999999
#
# number of rings (size 3 to 8) (size 9 to 14) (size 15 to 20)
#    0.000    1.750    2.500    1.875    3.500    1.000 
#    0.000    1.250    0.000    0.000    0.000    0.000 
#    0.000    0.000    0.000    0.000    0.000    0.000 
#
# Total GULP energy -178627.424051 kJ/mol
# GULP energy per Si atom -5582.107002 kJ/mol
# Density = 2.110552 g / cm^3
# Si number density = 21.153664 Si / 1000 Ang^3
#
#
#
# Elastic Constant Matrix: (Units=GPa)
#
#
# Indices 1 2 3 4 5 6 
#
# 1 140.0150 5.2603 73.8156 0.0000 -9.7424 0.0000
# 2 5.2603 27.1937 -0.3892 0.0000 -1.9969 0.0000
# 3 73.8156 -0.3892 110.0898 0.0000 -10.5719 0.0000
# 4 0.0000 0.0000 0.0000 22.8426 0.0000 8.0872
# 5 -9.7424 -1.9969 -10.5719 0.0000 38.0288 0.0000
# 6 0.0000 0.0000 0.0000 8.0872 0.0000 22.7861
#
#
#
# Elastic Compliance Matrix: (Units=1/GPa)
#
#
# Indices 1 2 3 4 5 6 
#
# 1 0.011203 -0.002224 -0.007454 0.000000 0.000681 0.000000
# 2 -0.002224 0.037368 0.001805 0.000000 0.001894 0.000000
# 3 -0.007454 0.001805 0.014295 0.000000 0.002159 0.000000
# 4 0.000000 0.000000 0.000000 0.050069 0.000000 -0.017770
# 5 0.000681 0.001894 0.002159 0.000000 0.027170 0.000000
# 6 0.000000 0.000000 0.000000 -0.017770 0.000000 0.050193
#
#
# Mechanical properties :
#
#
# Convention : Reuss Voigt Hill
#
# Bulk Modulus (GPa) = 21.22201 48.29689 34.75945
# Shear Modulus (GPa) = 22.54781 29.97228 26.26004
#
# Velocity S-wave (km/s) = 3.26836 3.76823 3.52717
# Velocity P-wave (km/s) = 4.92920 6.46636 5.74938
#
# Compressibility (1/GPa) = 0.04712088
#
# Stress axis : x y z
#
# Youngs Moduli (GPa) = 89.26404 26.76067 69.95396
#
# Poissons Ratio (x) = 0.05951 0.52143
# Poissons Ratio (y) = 0.19850 -0.12627
# Poissons Ratio (z) = 0.66537 -0.04830
#
# Static dielectric constant tensor:
#      x y z
#    x 2.477660 0.000000 -0.322810 
#    y 0.000000 1.781930 0.000000 
#    z -0.322810 0.000000 1.895880 
# 
# From -- ./inp_files/69103.got.cif
#   From: 2010.05.17/outbox.cif.g08.bks.cpg/sg11_35_cif.got.tgz:69103.got - 2010.06.03 12:22:45.
