data_PCOD9165222
_publ_section_title
;
Structure prediction by ZEFSAII (Michael W. Deem and Ramdas Pophale) SiO2 
 PCOD9165222
Probable space group: P 21/M
;
_chemical_formula_sum "Si O2"
_cell_formula_units_Z 28
_cell_length_a 15.988977
_cell_length_b 8.835595
_cell_length_c 12.884217
_cell_angle_alpha 90.000000
_cell_angle_beta 51.871478
_cell_angle_gamma 90.000000
_cell_volume 1431.804685
_symmetry_space_group_name_H-M "P 21/M"
_symmetry_group_IT_number 11
_symmetry_cell_setting 'monoclinic'
loop_
_space_group_symop_operation_xyz
x,y,z
-x,1/2+y,-z
-x,-y,-z
x,1/2-y,z
loop_
_atom_site_type_symbol
_atom_site_label
_atom_site_fract_x
_atom_site_fract_y
_atom_site_fract_z
Si Si1 0.940782 0.567840 0.944096
Si Si2 0.369044 0.419111 0.336741
Si Si3 0.707457 0.065779 0.100495
Si Si4 0.159620 0.069171 0.379505
Si Si5 0.567029 0.415181 0.033212
Si Si6 0.486799 0.071262 0.621799
Si Si7 0.979272 0.069738 0.689922
O O1 0.944214 0.750000 0.944924
O O2 0.984181 0.510336 0.798309
O O3 0.820269 0.505632 0.039180
O O4 0.000000 0.500000 0.000000
O O5 0.338106 0.250000 0.399079
O O6 0.276953 0.471699 0.329621
O O7 0.478230 0.401112 0.190488
O O8 0.404837 0.530693 0.399304
O O9 0.710964 0.250000 0.099253
O O10 0.667967 0.017121 0.015043
O O11 0.616732 0.005252 0.246885
O O12 0.156983 0.250000 0.361609
O O13 0.080698 0.038576 0.537359
O O14 0.117713 0.986212 0.308997
O O15 0.596932 0.250000 0.970016
O O16 0.500000 0.500000 0.000000
O O17 0.471542 0.250000 0.631367
O O18 0.500000 0.000000 0.500000
O O19 0.971292 0.250000 0.712697
#
# Coordination Sequence:
#
# PCOD9165222 Si02
#       7
#     4   4   4   4   4   4   4
#     4  12  26  44  65  89 121 164 212 260 312 374
#     4   9  19  36  55  81 115 152 195 245 294 354
#     4  10  22  42  62  87 120 155 198 251 301 357
#     4   9  19  37  61  88 120 159 203 252 309 368
#     4   9  19  33  53  82 117 151 186 231 287 352
#     4  11  22  38  60  87 119 159 200 245 301 361
#     4  10  21  38  60  88 122 158 203 259 312 367
#
# _framework density 19.55574
#
# number of rings (size 3 to 8) (size 9 to 14) (size 15 to 20)
#    0.000    2.000    0.000    4.286    2.000    5.143 
#    0.000    4.286    0.000    0.000    0.000    0.000 
#    0.000    0.000    0.000    0.000    0.000    0.000 
#
# Total GULP energy -156133.658976 kJ/mol
# GULP energy per Si atom -5576.202106 kJ/mol
# Density = 1.951123 g / cm^3
# Si number density = 19.555740 Si / 1000 Ang^3
#
#
#
# Elastic Constant Matrix: (Units=GPa)
#
#
# Indices 1 2 3 4 5 6 
#
# 1 170.3275 59.7806 42.7620 0.0000 16.0731 0.0000
# 2 59.7806 109.3793 41.0759 0.0000 21.9150 0.0000
# 3 42.7620 41.0759 66.8480 0.0000 20.9335 0.0000
# 4 0.0000 0.0000 0.0000 28.9642 0.0000 3.5122
# 5 16.0731 21.9150 20.9335 0.0000 34.8295 0.0000
# 6 0.0000 0.0000 0.0000 3.5122 0.0000 36.4323
#
#
#
# Elastic Compliance Matrix: (Units=1/GPa)
#
#
# Indices 1 2 3 4 5 6 
#
# 1 0.007716 -0.003101 -0.003112 0.000000 0.000261 0.000000
# 2 -0.003101 0.013555 -0.005079 0.000000 -0.004046 0.000000
# 3 -0.003112 -0.005079 0.022938 0.000000 -0.009154 0.000000
# 4 0.000000 0.000000 0.000000 0.034934 0.000000 -0.003368
# 5 0.000261 -0.004046 -0.009154 0.000000 0.036638 0.000000
# 6 0.000000 0.000000 0.000000 -0.003368 0.000000 0.027773
#
#
# Mechanical properties :
#
#
# Convention : Reuss Voigt Hill
#
# Bulk Modulus (GPa) = 46.24223 70.42132 58.33177
# Shear Modulus (GPa) = 28.84414 33.57428 31.20921
#
# Velocity S-wave (km/s) = 3.84470 4.14798 3.99922
# Velocity P-wave (km/s) = 6.58837 7.68308 7.15669
#
# Compressibility (1/GPa) = 0.02162526
#
# Stress axis : x y z
#
# Youngs Moduli (GPa) = 129.60011 73.77388 43.59646
#
# Poissons Ratio (x) = 0.22874 0.13569
# Poissons Ratio (y) = 0.40184 0.22142
# Poissons Ratio (z) = 0.40335 0.37468
#
# Static dielectric constant tensor:
#      x y z
#    x 1.729720 0.000000 0.007040 
#    y 0.000000 1.681330 0.000000 
#    z 0.007040 0.000000 1.689480 
# 
# From -- ./inp_files/37932.got.cif
#   From: 2010.05.17/outbox.cif.g08.bks.cpg/sg11_19_cif.got.tgz:37932.got - 2010.06.03 12:22:45.
