data_PCOD9165233
_publ_section_title
;
Structure prediction by ZEFSAII (Michael W. Deem and Ramdas Pophale) SiO2 
 PCOD9165233
Probable space group: P 21/M
;
_chemical_formula_sum "Si O2"
_cell_formula_units_Z 32
_cell_length_a 11.345412
_cell_length_b 14.929780
_cell_length_c 9.505104
_cell_angle_alpha 90.000000
_cell_angle_beta 71.066144
_cell_angle_gamma 90.000000
_cell_volume 1522.905404
_symmetry_space_group_name_H-M "P 21/M"
_symmetry_group_IT_number 11
_symmetry_cell_setting 'monoclinic'
loop_
_space_group_symop_operation_xyz
x,y,z
-x,1/2+y,-z
-x,-y,-z
x,1/2-y,z
loop_
_atom_site_type_symbol
_atom_site_label
_atom_site_fract_x
_atom_site_fract_y
_atom_site_fract_z
Si Si1 0.595860 0.348640 0.817718
Si Si2 0.265455 0.354292 0.742664
Si Si3 0.979705 0.893475 0.982884
Si Si4 0.151421 0.410924 0.233231
Si Si5 0.492227 0.486925 0.669753
Si Si6 0.094265 0.354150 0.551026
Si Si7 0.144444 0.614590 0.159304
Si Si8 0.435816 0.354182 0.153020
O O1 0.560621 0.250000 0.779315
O O2 0.596581 0.421149 0.694232
O O3 0.729563 0.343093 0.837569
O O4 0.500355 0.375822 0.978465
O O5 0.306388 0.250000 0.731702
O O6 0.146166 0.364255 0.889372
O O7 0.367029 0.428261 0.743499
O O8 0.211764 0.372590 0.607113
O O9 0.096915 0.856010 0.023992
O O10 0.951682 0.869980 0.832690
O O11 0.000000 0.000000 0.000000
O O12 0.098678 0.413070 0.410574
O O13 0.171300 0.508812 0.160473
O O14 0.286887 0.365542 0.191773
O O15 0.500000 0.500000 0.500000
O O16 0.509376 0.578626 0.750499
O O17 0.101633 0.250000 0.504849
O O18 0.970816 0.366684 0.691603
O O19 0.462249 0.250000 0.175402
#
# Coordination Sequence:
#
# PCOD9165233 Si02
#       8
#     4   4   4   4   4   4   4   4
#     4  11  24  43  66  93 130 173 214 260 324 397
#     4  10  22  40  64  92 128 172 220 261 312 387
#     4   9  21  37  62  95 123 160 206 266 314 371
#     4  11  20  37  63  93 121 158 212 269 314 369
#     4  12  25  41  66  96 130 169 217 273 329 383
#     4  10  21  38  60  89 127 168 209 257 312 379
#     4  10  21  39  62  90 126 169 206 251 315 390
#     4  11  25  43  67  97 129 169 220 275 325 384
#
# _framework density 21.012467000000001
#
# number of rings (size 3 to 8) (size 9 to 14) (size 15 to 20)
#    0.000    1.500    1.250    3.375    3.500    4.500 
#    0.000    0.000    0.000    1.500    0.000    0.000 
#    0.000    0.000    0.000    0.000    0.000    0.000 
#
# Total GULP energy -178688.489282 kJ/mol
# GULP energy per Si atom -5584.015290 kJ/mol
# Density = 2.096464 g / cm^3
# Si number density = 21.012467 Si / 1000 Ang^3
#
#
#
# Elastic Constant Matrix: (Units=GPa)
#
#
# Indices 1 2 3 4 5 6 
#
# 1 110.2059 20.0757 43.3696 0.0000 22.1553 0.0000
# 2 20.0757 106.7371 51.0038 0.0000 20.3010 0.0000
# 3 43.3696 51.0038 97.2334 0.0000 36.0265 0.0000
# 4 0.0000 0.0000 0.0000 7.1721 0.0000 -9.4808
# 5 22.1553 20.3010 36.0265 0.0000 30.4467 0.0000
# 6 0.0000 0.0000 0.0000 -9.4808 0.0000 21.9427
#
#
#
# Elastic Compliance Matrix: (Units=1/GPa)
#
#
# Indices 1 2 3 4 5 6 
#
# 1 0.011291 0.000449 -0.003769 0.000000 -0.004056 0.000000
# 2 0.000449 0.012538 -0.006337 0.000000 -0.001189 0.000000
# 3 -0.003769 -0.006337 0.022629 0.000000 -0.019808 0.000000
# 4 0.000000 0.000000 0.000000 0.325129 0.000000 0.140478
# 5 -0.004056 -0.001189 -0.019808 0.000000 0.060026 0.000000
# 6 0.000000 0.000000 0.000000 0.140478 0.000000 0.106270
#
#
# Mechanical properties :
#
#
# Convention : Reuss Voigt Hill
#
# Bulk Modulus (GPa) = 36.84019 60.34164 48.59091
# Shear Modulus (GPa) = 8.83012 25.22745 17.02878
#
# Velocity S-wave (km/s) = 2.05218 3.46872 2.84986
# Velocity P-wave (km/s) = 4.81517 6.69493 5.83129
#
# Compressibility (1/GPa) = 0.02714427
#
# Stress axis : x y z
#
# Youngs Moduli (GPa) = 88.56895 79.75439 44.19179
#
# Poissons Ratio (x) = -0.03578 0.16654
# Poissons Ratio (y) = -0.03973 0.28003
# Poissons Ratio (z) = 0.33378 0.50538
#
# Static dielectric constant tensor:
#      x y z
#    x 1.794780 0.000000 0.030450 
#    y 0.000000 1.790990 0.000000 
#    z 0.030450 0.000000 1.761220 
# 
# From -- ./inp_files/18034.got.cif
#   From: 2010.05.17/outbox.cif.g08.bks.cpg/sg11_10_cif.got.tgz:18034.got - 2010.06.03 12:22:45.
