data_PCOD9165812
_publ_section_title
;
Structure prediction by ZEFSAII (Michael W. Deem and Ramdas Pophale) SiO2 
 PCOD9165812
Probable space group: P 21/M
;
_chemical_formula_sum "Si O2"
_cell_formula_units_Z 28
_cell_length_a 7.583491
_cell_length_b 29.165657
_cell_length_c 5.662962
_cell_angle_alpha 90.000000
_cell_angle_beta 116.232881
_cell_angle_gamma 90.000000
_cell_volume 1123.516302
_symmetry_space_group_name_H-M "P 21/M"
_symmetry_group_IT_number 11
_symmetry_cell_setting 'monoclinic'
loop_
_space_group_symop_operation_xyz
x,y,z
-x,1/2+y,-z
-x,-y,-z
x,1/2-y,z
loop_
_atom_site_type_symbol
_atom_site_label
_atom_site_fract_x
_atom_site_fract_y
_atom_site_fract_z
Si Si1 0.939769 0.961186 0.781304
Si Si2 0.666535 0.606919 0.052325
Si Si3 0.839046 0.699955 0.936294
Si Si4 0.284455 0.009609 0.773733
Si Si5 0.873841 0.634377 0.587596
Si Si6 0.308341 0.801718 0.215110
Si Si7 0.304561 0.851965 0.699032
O O1 0.748606 0.977545 0.520249
O O2 0.921792 0.906319 0.803127
O O3 0.129923 0.968916 0.723306
O O4 0.000000 0.000000 0.000000
O O5 0.766766 0.556976 0.111801
O O6 0.682341 0.617189 0.340200
O O7 0.748660 0.655722 0.008380
O O8 0.450627 0.605203 0.816157
O O9 0.755190 0.750000 0.939165
O O10 0.830147 0.684587 0.658188
O O11 0.072241 0.701190 0.114494
O O12 0.500000 0.000000 0.000000
O O13 0.073112 0.636622 0.552736
O O14 0.388127 0.750000 0.253030
O O15 0.369292 0.826484 0.496244
O O16 0.330190 0.824809 0.966971
#
# Coordination Sequence:
#
# PCOD9165812 Si02
#       7
#     4   4   4   4   4   4   4
#     4  10  21  40  66  94 126 171 217 271 337 400
#     4  11  23  40  64  94 129 170 219 274 332 399
#     4  10  22  40  64  92 127 174 219 271 329 390
#     4  10  22  41  63  95 132 163 217 274 337 406
#     4  10  22  42  62  92 133 169 217 274 333 397
#     4  10  22  42  65  91 129 173 225 279 330 393
#     4  11  23  41  64  94 129 175 219 271 339 395
#
# _framework density 24.921755000000001
#
# number of rings (size 3 to 8) (size 9 to 14) (size 15 to 20)
#    0.000    1.714    1.429    2.143    2.000    2.857 
#    5.143    0.000    0.000    0.000    0.000    0.000 
#    0.000    0.000    0.000    0.000    0.000    0.000 
#
# Total GULP energy -155911.371704 kJ/mol
# GULP energy per Si atom -5568.263275 kJ/mol
# Density = 2.486503 g / cm^3
# Si number density = 24.921755 Si / 1000 Ang^3
#
#
#
# Elastic Constant Matrix: (Units=GPa)
#
#
# Indices 1 2 3 4 5 6 
#
# 1 44.2475 23.6484 18.4026 0.0000 9.0354 0.0000
# 2 23.6484 133.0685 28.7219 0.0000 -9.3768 0.0000
# 3 18.4026 28.7219 96.5589 0.0000 23.0753 0.0000
# 4 0.0000 0.0000 0.0000 20.4167 0.0000 4.3721
# 5 9.0354 -9.3768 23.0753 0.0000 34.7112 0.0000
# 6 0.0000 0.0000 0.0000 4.3721 0.0000 37.4424
#
#
#
# Elastic Compliance Matrix: (Units=1/GPa)
#
#
# Indices 1 2 3 4 5 6 
#
# 1 0.027568 -0.004954 -0.002075 0.000000 -0.007135 0.000000
# 2 -0.004954 0.009549 -0.003354 0.000000 0.006098 0.000000
# 3 -0.002075 -0.003354 0.014072 0.000000 -0.009721 0.000000
# 4 0.000000 0.000000 0.000000 0.050236 0.000000 -0.005866
# 5 -0.007135 0.006098 -0.009721 0.000000 0.038776 0.000000
# 6 0.000000 0.000000 0.000000 -0.005866 0.000000 0.027393
#
#
# Mechanical properties :
#
#
# Convention : Reuss Voigt Hill
#
# Bulk Modulus (GPa) = 32.86965 46.15786 39.51376
# Shear Modulus (GPa) = 25.18882 32.05418 28.62150
#
# Velocity S-wave (km/s) = 3.18262 3.59024 3.39256
# Velocity P-wave (km/s) = 5.16945 5.97895 5.58887
#
# Compressibility (1/GPa) = 0.03042320
#
# Stress axis : x y z
#
# Youngs Moduli (GPa) = 36.27405 104.72388 71.06059
#
# Poissons Ratio (x) = 0.51881 0.14748
# Poissons Ratio (y) = 0.17970 0.23831
# Poissons Ratio (z) = 0.07528 0.35120
#
# Static dielectric constant tensor:
#      x y z
#    x 2.126470 0.000000 -0.147390 
#    y 0.000000 1.997500 0.000000 
#    z -0.147390 0.000000 2.133550 
# 
# From -- ./inp_files/3444.got.cif
#   From: 2010.05.17/outbox.cif.g08.bks.cpg/sg11_2_cif.got.tgz:3444.got - 2010.06.03 12:22:45.
