data_PCOD9165069
_publ_section_title
;
Structure prediction by ZEFSAII (Michael W. Deem and Ramdas Pophale) SiO2 
 PCOD9165069
Probable space group: P 21/M
;
_chemical_formula_sum "Si O2"
_cell_formula_units_Z 20
_cell_length_a 10.403952
_cell_length_b 13.772424
_cell_length_c 8.835382
_cell_angle_alpha 90.000000
_cell_angle_beta 36.387055
_cell_angle_gamma 90.000000
_cell_volume 751.038672
_symmetry_space_group_name_H-M "P 21/M"
_symmetry_group_IT_number 11
_symmetry_cell_setting 'monoclinic'
loop_
_space_group_symop_operation_xyz
x,y,z
-x,1/2+y,-z
-x,-y,-z
x,1/2-y,z
loop_
_atom_site_type_symbol
_atom_site_label
_atom_site_fract_x
_atom_site_fract_y
_atom_site_fract_z
Si Si1 0.808399 0.250000 0.073759
Si Si2 0.869205 0.413224 0.497774
Si Si3 0.686646 0.750000 0.469307
Si Si4 0.455568 0.353185 0.787722
Si Si5 0.835484 0.020709 0.019217
Si Si6 0.737099 0.885493 0.704674
O O1 0.797133 0.135013 0.032355
O O2 0.078192 0.250000 0.838481
O O3 0.553601 0.250000 0.378483
O O4 0.715399 0.353406 0.534917
O O5 0.725920 0.499003 0.701678
O O6 0.042168 0.473035 0.237799
O O7 0.015169 0.359504 0.481622
O O8 0.688525 0.838985 0.589348
O O9 0.356134 0.250000 0.835903
O O10 0.368934 0.446884 0.780306
O O11 0.405058 0.355510 0.016779
O O12 0.000000 0.000000 0.000000
#
# Coordination Sequence:
#
# PCOD9165069 Si02
#       6
#     2   4   2   4   4   4
#     4  12  28  50  75 110 147 194 254 305 368 439
#     4  10  22  41  65 101 140 189 242 296 362 431
#     4  12  24  42  75 110 151 196 240 297 366 445
#     4  11  24  41  67 107 147 188 240 297 374 442
#     4  11  27  49  72  98 142 191 256 311 366 430
#     4  10  21  37  65 104 147 187 231 289 362 441
#
# _framework density 26.629785999999999
#
# number of rings (size 3 to 8) (size 9 to 14) (size 15 to 20)
#    0.000    1.200    3.000    1.800    5.600    1.600 
#    0.000    0.000    0.000    0.000    0.000    0.000 
#    0.000    0.000    0.000    0.000    0.000    0.000 
#
# Total GULP energy -111419.305129 kJ/mol
# GULP energy per Si atom -5570.965256 kJ/mol
# Density = 2.656918 g / cm^3
# Si number density = 26.629786 Si / 1000 Ang^3
#
#
#
# Elastic Constant Matrix: (Units=GPa)
#
#
# Indices 1 2 3 4 5 6 
#
# 1 106.4556 19.2603 19.8557 0.0000 -27.5371 0.0000
# 2 19.2603 202.1993 18.8922 0.0000 -20.3403 0.0000
# 3 19.8557 18.8922 102.6162 0.0000 -27.6545 0.0000
# 4 0.0000 0.0000 0.0000 4.1776 0.0000 -18.3003
# 5 -27.5371 -20.3403 -27.6545 0.0000 49.4988 0.0000
# 6 0.0000 0.0000 0.0000 -18.3003 0.0000 -0.1146
#
#
#
# Elastic Compliance Matrix: (Units=1/GPa)
#
#
# Indices 1 2 3 4 5 6 
#
# 1 0.011036 -0.000432 -0.000529 0.000000 0.005667 0.000000
# 2 -0.000432 0.005193 -0.000426 0.000000 0.001656 0.000000
# 3 -0.000529 -0.000426 0.011536 0.000000 0.005976 0.000000
# 4 0.000000 0.000000 0.000000 0.000342 0.000000 -0.054566
# 5 0.005667 0.001656 0.005976 0.000000 0.027374 0.000000
# 6 0.000000 0.000000 0.000000 -0.054566 0.000000 -0.012456
#
#
# Mechanical properties :
#
#
# Convention : Reuss Voigt Hill
#
# Bulk Modulus (GPa) = 40.01321 58.58751 49.30036
# Shear Modulus (GPa) = 92.37128 34.26323 63.31725
#
# Velocity S-wave (km/s) = 5.89597 3.59088 4.88144
# Velocity P-wave (km/s) = 7.83635 6.26427 7.09399
#
# Compressibility (1/GPa) = 0.02499174
#
# Stress axis : x y z
#
# Youngs Moduli (GPa) = 90.61121 192.56233 86.68267
#
# Poissons Ratio (x) = 0.08315 0.04584
# Poissons Ratio (y) = 0.03912 0.03696
# Poissons Ratio (z) = 0.04791 0.08210
#
# Static dielectric constant tensor:
#      x y z
#    x 2.188780 0.000000 -0.019090 
#    y 0.000000 2.122240 0.000000 
#    z -0.019090 0.000000 2.203600 
# 
# From -- ./inp_files/4261.got.cif
#   From: 2010.05.17/outbox.cif.g08.bks.cpg/sg11_3_cif.got.tgz:4261.got - 2010.06.03 12:22:45.
