data_PCOD9165272
_publ_section_title
;
Structure prediction by ZEFSAII (Michael W. Deem and Ramdas Pophale) SiO2 
 PCOD9165272
Probable space group: P 21/M
;
_chemical_formula_sum "Si O2"
_cell_formula_units_Z 20
_cell_length_a 9.625825
_cell_length_b 13.960190
_cell_length_c 11.715770
_cell_angle_alpha 90.000000
_cell_angle_beta 39.536819
_cell_angle_gamma 90.000000
_cell_volume 1002.187512
_symmetry_space_group_name_H-M "P 21/M"
_symmetry_group_IT_number 11
_symmetry_cell_setting 'monoclinic'
loop_
_space_group_symop_operation_xyz
x,y,z
-x,1/2+y,-z
-x,-y,-z
x,1/2-y,z
loop_
_atom_site_type_symbol
_atom_site_label
_atom_site_fract_x
_atom_site_fract_y
_atom_site_fract_z
Si Si1 0.871113 0.061523 0.916155
Si Si2 0.000069 0.469378 0.369846
Si Si3 0.397055 0.857982 0.306512
Si Si4 0.891246 0.643562 0.023984
Si Si5 0.463609 0.134835 0.041691
O O1 0.963480 0.128814 0.956044
O O2 0.998342 0.059478 0.715955
O O3 0.626929 0.091214 0.033236
O O4 0.914513 0.952470 0.933525
O O5 0.221181 0.408500 0.207601
O O6 0.000000 0.500000 0.500000
O O7 0.774539 0.412698 0.507261
O O8 0.314811 0.750000 0.347853
O O9 0.634135 0.858367 0.213951
O O10 0.442372 0.888996 0.145355
O O11 0.933054 0.750000 0.945687
O O12 0.456813 0.250000 0.054721
#
# Coordination Sequence:
#
# PCOD9165272 Si02
#       5
#     4   4   4   4   4
#     4  11  22  39  65  92 123 167 208 256 314 374
#     4  12  22  36  62  95 126 158 208 260 309 367
#     4  10  21  38  61  88 124 166 207 253 308 367
#     4  10  22  41  63  88 124 166 210 258 311 370
#     4  11  22  40  63  92 129 166 209 256 306 369
#
# _framework density 19.956343
#
# number of rings (size 3 to 8) (size 9 to 14) (size 15 to 20)
#    0.000    1.200    4.000    3.000    0.000    1.600 
#    0.000    0.000    0.000    4.800    0.000    0.000 
#    0.000    0.000    0.000    0.000    0.000    0.000 
#
# Total GULP energy -111451.896382 kJ/mol
# GULP energy per Si atom -5572.594819 kJ/mol
# Density = 1.991092 g / cm^3
# Si number density = 19.956343 Si / 1000 Ang^3
#
#
#
# Elastic Constant Matrix: (Units=GPa)
#
#
# Indices 1 2 3 4 5 6 
#
# 1 112.1018 8.7526 12.7530 0.0000 -11.3038 0.0000
# 2 8.7526 77.4302 1.5900 0.0000 -0.8117 0.0000
# 3 12.7530 1.5900 68.0114 0.0000 -2.8570 0.0000
# 4 0.0000 0.0000 0.0000 28.2635 0.0000 -0.6288
# 5 -11.3038 -0.8117 -2.8570 0.0000 21.3993 0.0000
# 6 0.0000 0.0000 0.0000 -0.6288 0.0000 27.1498
#
#
#
# Elastic Compliance Matrix: (Units=1/GPa)
#
#
# Indices 1 2 3 4 5 6 
#
# 1 0.009669 -0.001010 -0.001585 0.000000 0.004858 0.000000
# 2 -0.001010 0.013031 -0.000118 0.000000 -0.000055 0.000000
# 3 -0.001585 -0.000118 0.015053 0.000000 0.001168 0.000000
# 4 0.000000 0.000000 0.000000 0.035400 0.000000 0.000820
# 5 0.004858 -0.000055 0.001168 0.000000 0.049450 0.000000
# 6 0.000000 0.000000 0.000000 0.000820 0.000000 0.036852
#
#
# Mechanical properties :
#
#
# Convention : Reuss Voigt Hill
#
# Bulk Modulus (GPa) = 30.93342 33.74829 32.34085
# Shear Modulus (GPa) = 28.46480 30.99238 29.72859
#
# Velocity S-wave (km/s) = 3.78081 3.94510 3.86383
# Velocity P-wave (km/s) = 5.88163 6.13999 6.01220
#
# Compressibility (1/GPa) = 0.03232750
#
# Stress axis : x y z
#
# Youngs Moduli (GPa) = 103.41808 76.74117 66.43404
#
# Poissons Ratio (x) = 0.07747 0.10533
# Poissons Ratio (y) = 0.10441 0.00781
# Poissons Ratio (z) = 0.16397 0.00903
#
# Static dielectric constant tensor:
#      x y z
#    x 1.747710 0.000000 -0.004290 
#    y 0.000000 1.804510 0.000000 
#    z -0.004290 0.000000 1.746050 
# 
# From -- ./inp_files/32026.got.cif
#   From: 2010.05.17/outbox.cif.g08.bks.cpg/sg11_17_cif.got.tgz:32026.got - 2010.06.03 12:22:45.
