data_PCOD9165239
_publ_section_title
;
Structure prediction by ZEFSAII (Michael W. Deem and Ramdas Pophale) SiO2 
 PCOD9165239
Probable space group: P 21/M
;
_chemical_formula_sum "Si O2"
_cell_formula_units_Z 32
_cell_length_a 24.180025
_cell_length_b 8.758681
_cell_length_c 14.641073
_cell_angle_alpha 90.000000
_cell_angle_beta 147.869675
_cell_angle_gamma 90.000000
_cell_volume 1649.130265
_symmetry_space_group_name_H-M "P 21/M"
_symmetry_group_IT_number 11
_symmetry_cell_setting 'monoclinic'
loop_
_space_group_symop_operation_xyz
x,y,z
-x,1/2+y,-z
-x,-y,-z
x,1/2-y,z
loop_
_atom_site_type_symbol
_atom_site_label
_atom_site_fract_x
_atom_site_fract_y
_atom_site_fract_z
Si Si1 0.618679 0.067683 0.266707
Si Si2 0.389486 0.933663 0.950982
Si Si3 0.044874 0.431800 0.655916
Si Si4 0.393287 0.432226 0.311857
Si Si5 0.803963 0.933820 0.639357
Si Si6 0.274590 0.933445 0.975350
Si Si7 0.011995 0.067801 0.239233
Si Si8 0.186149 0.432835 0.136443
O O1 0.620113 0.250000 0.274695
O O2 0.648074 0.023020 0.203275
O O3 0.698852 0.997815 0.449674
O O4 0.502506 0.007800 0.121233
O O5 0.401617 0.750000 0.969090
O O6 0.315059 0.974687 0.930619
O O7 0.044561 0.250000 0.651757
O O8 0.162377 0.491830 0.834098
O O9 0.978514 0.488808 0.649474
O O10 0.000000 0.500000 0.500000
O O11 0.500000 0.500000 0.500000
O O12 0.403309 0.250000 0.313842
O O13 0.299351 0.460691 0.251817
O O14 0.355725 0.507482 0.164536
O O15 0.799383 0.750000 0.632369
O O16 0.818404 0.981000 0.764350
O O17 0.899213 0.981309 0.707790
O O18 0.265556 0.750000 0.968942
O O19 0.016467 0.250000 0.256605
O O20 0.901644 0.019211 0.042904
O O21 0.166563 0.250000 0.102953
#
# Coordination Sequence:
#
# PCOD9165239 Si02
#       8
#     4   4   4   4   4   4   4   4
#     4  10  21  38  60  91 121 157 204 251 302 361
#     4   9  21  40  61  85 122 163 197 244 307 365
#     4  12  26  44  66  94 129 167 210 259 314 376
#     4  11  24  41  63  93 128 168 210 257 315 373
#     4  10  23  40  61  90 123 160 205 254 308 366
#     4  11  23  42  67  95 127 165 209 258 316 378
#     4  11  23  41  65  93 123 160 206 255 311 371
#     4  10  22  42  64  87 122 165 204 253 313 366
#
# _framework density 19.404167000000001
#
# number of rings (size 3 to 8) (size 9 to 14) (size 15 to 20)
#    0.000    1.500    1.250    3.000    3.500    3.500 
#    0.000    0.000    0.000    0.000    0.000    0.000 
#    0.000    0.000    0.000    0.000    0.000    0.000 
#
# Total GULP energy -178924.002309 kJ/mol
# GULP energy per Si atom -5591.375072 kJ/mol
# Density = 1.936000 g / cm^3
# Si number density = 19.404167 Si / 1000 Ang^3
#
#
#
# Elastic Constant Matrix: (Units=GPa)
#
#
# Indices 1 2 3 4 5 6 
#
# 1 91.4520 22.8435 -12.3214 0.0000 -23.8263 0.0000
# 2 22.8435 40.1072 4.3109 0.0000 -9.7180 0.0000
# 3 -12.3214 4.3109 48.7616 0.0000 -23.8850 0.0000
# 4 0.0000 0.0000 0.0000 29.1320 0.0000 -4.7199
# 5 -23.8263 -9.7180 -23.8850 0.0000 27.4034 0.0000
# 6 0.0000 0.0000 0.0000 -4.7199 0.0000 28.4950
#
#
#
# Elastic Compliance Matrix: (Units=1/GPa)
#
#
# Indices 1 2 3 4 5 6 
#
# 1 0.034404 -0.009038 0.039393 0.000000 0.061043 0.000000
# 2 -0.009038 0.030120 -0.006219 0.000000 -0.002598 0.000000
# 3 0.039393 -0.006219 0.081508 0.000000 0.103088 0.000000
# 4 0.000000 0.000000 0.000000 0.035273 0.000000 0.005843
# 5 0.061043 -0.002598 0.103088 0.000000 0.178498 0.000000
# 6 0.000000 0.000000 0.000000 0.005843 0.000000 0.036062
#
#
# Mechanical properties :
#
#
# Convention : Reuss Voigt Hill
#
# Bulk Modulus (GPa) = 5.14661 23.33188 14.23925
# Shear Modulus (GPa) = 12.12530 28.03858 20.08194
#
# Velocity S-wave (km/s) = 2.50247 3.80541 3.22052
# Velocity P-wave (km/s) = 3.31782 5.59986 4.60252
#
# Compressibility (1/GPa) = 0.19430262
#
# Stress axis : x y z
#
# Youngs Moduli (GPa) = 29.06678 33.20045 12.26876
#
# Poissons Ratio (x) = 0.30008 -0.48330
# Poissons Ratio (y) = 0.26272 0.07630
# Poissons Ratio (z) = -1.14503 0.20648
#
# Static dielectric constant tensor:
#      x y z
#    x 1.687940 0.000000 -0.004890 
#    y 0.000000 1.647910 0.000000 
#    z -0.004890 0.000000 1.633620 
# 
# From -- ./inp_files/55779.got.cif
#   From: 2010.05.17/outbox.cif.g08.bks.cpg/sg11_28_cif.got.tgz:55779.got - 2010.06.03 12:22:45.
