data_PCOD9165265
_publ_section_title
;
Structure prediction by ZEFSAII (Michael W. Deem and Ramdas Pophale) SiO2 
 PCOD9165265
Probable space group: P 21/M
;
_chemical_formula_sum "Si O2"
_cell_formula_units_Z 28
_cell_length_a 13.779563
_cell_length_b 8.438848
_cell_length_c 12.992029
_cell_angle_alpha 90.000000
_cell_angle_beta 67.946912
_cell_angle_gamma 90.000000
_cell_volume 1400.227665
_symmetry_space_group_name_H-M "P 21/M"
_symmetry_group_IT_number 11
_symmetry_cell_setting 'monoclinic'
loop_
_space_group_symop_operation_xyz
x,y,z
-x,1/2+y,-z
-x,-y,-z
x,1/2-y,z
loop_
_atom_site_type_symbol
_atom_site_label
_atom_site_fract_x
_atom_site_fract_y
_atom_site_fract_z
Si Si1 0.604103 0.439838 0.403568
Si Si2 0.693518 0.560506 0.162792
Si Si3 0.074936 0.560247 0.880457
Si Si4 0.994821 0.056715 0.319630
Si Si5 0.617750 0.558126 0.968164
Si Si6 0.221404 0.941169 0.502070
Si Si7 0.770385 0.941323 0.723350
O O1 0.500000 0.500000 0.500000
O O2 0.603978 0.250000 0.399856
O O3 0.616568 0.504373 0.283586
O O4 0.703661 0.490356 0.433723
O O5 0.695695 0.750000 0.160383
O O6 0.808232 0.498728 0.145961
O O7 0.660387 0.504709 0.062419
O O8 0.075522 0.750000 0.879715
O O9 0.032671 0.508083 0.785852
O O10 0.000000 0.500000 0.000000
O O11 0.995948 0.250000 0.321575
O O12 0.897824 0.004124 0.429237
O O13 0.110308 0.002312 0.304792
O O14 0.618340 0.750000 0.967531
O O15 0.693305 0.504727 0.845041
O O16 0.500000 0.500000 0.000000
O O17 0.221189 0.750000 0.500135
O O18 0.261767 0.002993 0.377040
O O19 0.771176 0.750000 0.724837
#
# Coordination Sequence:
#
# PCOD9165265 Si02
#       7
#     4   4   4   4   4   4   4
#     4  11  24  42  64  92 125 162 205 255 312 370
#     4  11  23  42  65  92 124 160 206 258 312 370
#     4  11  21  37  61  90 125 166 206 252 308 367
#     4   9  18  37  60  84 121 159 193 243 307 361
#     4  10  24  43  62  87 120 160 204 254 308 365
#     4  10  21  39  61  88 122 159 196 244 304 362
#     4  10  21  38  61  88 118 157 202 247 299 360
#
# _framework density 19.996748
#
# number of rings (size 3 to 8) (size 9 to 14) (size 15 to 20)
#    0.000    1.714    1.429    2.571    2.000    5.143 
#    0.000    2.857    0.000    0.000    0.000    0.000 
#    0.000    0.000    0.000    0.000    0.000    0.000 
#
# Total GULP energy -156498.798198 kJ/mol
# GULP energy per Si atom -5589.242793 kJ/mol
# Density = 1.995123 g / cm^3
# Si number density = 19.996748 Si / 1000 Ang^3
#
#
#
# Elastic Constant Matrix: (Units=GPa)
#
#
# Indices 1 2 3 4 5 6 
#
# 1 56.3540 8.4740 31.0309 0.0000 -0.7112 0.0000
# 2 8.4740 19.0412 17.4512 0.0000 1.4861 0.0000
# 3 31.0309 17.4512 170.3033 0.0000 1.0573 0.0000
# 4 0.0000 0.0000 0.0000 33.4097 0.0000 -1.4518
# 5 -0.7112 1.4861 1.0573 0.0000 41.2703 0.0000
# 6 0.0000 0.0000 0.0000 -1.4518 0.0000 30.5854
#
#
#
# Elastic Compliance Matrix: (Units=1/GPa)
#
#
# Indices 1 2 3 4 5 6 
#
# 1 0.020395 -0.006311 -0.003074 0.000000 0.000657 0.000000
# 2 -0.006311 0.060069 -0.004992 0.000000 -0.002144 0.000000
# 3 -0.003074 -0.004992 0.006944 0.000000 -0.000051 0.000000
# 4 0.000000 0.000000 0.000000 0.029993 0.000000 0.001424
# 5 0.000657 -0.002144 -0.000051 0.000000 0.024320 0.000000
# 6 0.000000 0.000000 0.000000 0.001424 0.000000 0.032763
#
#
# Mechanical properties :
#
#
# Convention : Reuss Voigt Hill
#
# Bulk Modulus (GPa) = 17.04901 39.95675 28.50288
# Shear Modulus (GPa) = 22.44283 33.63591 28.03937
#
# Velocity S-wave (km/s) = 3.35374 4.10575 3.74865
# Velocity P-wave (km/s) = 4.85193 6.51930 5.74641
#
# Compressibility (1/GPa) = 0.05865443
#
# Stress axis : x y z
#
# Youngs Moduli (GPa) = 49.03252 16.64753 144.01403
#
# Poissons Ratio (x) = 0.10506 0.44263
# Poissons Ratio (y) = 0.30944 0.71894
# Poissons Ratio (z) = 0.15070 0.08311
#
# Static dielectric constant tensor:
#      x y z
#    x 1.687380 0.000000 0.003320 
#    y 0.000000 1.686170 0.000000 
#    z 0.003320 0.000000 1.690480 
# 
# From -- ./inp_files/37839.got.cif
#   From: 2010.05.17/outbox.cif.g08.bks.cpg/sg11_19_cif.got.tgz:37839.got - 2010.06.03 12:22:45.
