data_PCOD9165536
_publ_section_title
;
Structure prediction by ZEFSAII (Michael W. Deem and Ramdas Pophale) SiO2 
 PCOD9165536
Probable space group: P 21/M
;
_chemical_formula_sum "Si O2"
_cell_formula_units_Z 24
_cell_length_a 15.160798
_cell_length_b 8.547729
_cell_length_c 9.757827
_cell_angle_alpha 90.000000
_cell_angle_beta 81.530576
_cell_angle_gamma 90.000000
_cell_volume 1250.730531
_symmetry_space_group_name_H-M "P 21/M"
_symmetry_group_IT_number 11
_symmetry_cell_setting 'monoclinic'
loop_
_space_group_symop_operation_xyz
x,y,z
-x,1/2+y,-z
-x,-y,-z
x,1/2-y,z
loop_
_atom_site_type_symbol
_atom_site_label
_atom_site_fract_x
_atom_site_fract_y
_atom_site_fract_z
Si Si1 0.251591 0.438303 0.355729
Si Si2 0.915525 0.061525 0.432081
Si Si3 0.760700 0.939551 0.960878
Si Si4 0.550321 0.061983 0.620524
Si Si5 0.433688 0.062225 0.902975
Si Si6 0.080595 0.937249 0.889214
O O1 0.249821 0.250000 0.361748
O O2 0.175161 0.503695 0.473685
O O3 0.231732 0.485261 0.201491
O O4 0.350807 0.494592 0.374797
O O5 0.917109 0.250000 0.433795
O O6 0.920618 0.010266 0.270454
O O7 0.000000 0.000000 0.500000
O O8 0.766177 0.750000 0.963017
O O9 0.665068 0.992508 0.039878
O O10 0.833220 0.007491 0.046960
O O11 0.558049 0.250000 0.616539
O O12 0.480640 0.013337 0.753515
O O13 0.500000 0.000000 0.500000
O O14 0.430647 0.250000 0.906569
O O15 0.500000 0.000000 0.000000
O O16 0.076459 0.750000 0.887371
O O17 0.000000 0.000000 0.000000
#
# Coordination Sequence:
#
# PCOD9165536 Si02
#       6
#     4   4   4   4   4   4
#     4  11  23  41  65  92 124 165 207 256 311 365
#     4  11  25  44  65  94 127 162 204 252 307 370
#     4  10  22  40  63  92 125 161 205 255 305 363
#     4  11  24  40  61  91 127 168 211 257 309 367
#     4  10  21  39  62  90 123 164 209 254 305 361
#     4  11  25  43  65  94 124 158 201 252 306 365
#
# _framework density 19.188784999999999
#
# number of rings (size 3 to 8) (size 9 to 14) (size 15 to 20)
#    0.000    1.333    1.667    3.000    2.333    9.333 
#    0.000    0.000    0.000    0.000    0.000    0.000 
#    0.000    0.000    0.000    0.000    0.000    0.000 
#
# Total GULP energy -134035.022412 kJ/mol
# GULP energy per Si atom -5584.792600 kJ/mol
# Density = 1.914511 g / cm^3
# Si number density = 19.188785 Si / 1000 Ang^3
#
#
#
# Elastic Constant Matrix: (Units=GPa)
#
#
# Indices 1 2 3 4 5 6 
#
# 1 185.8790 36.1805 124.3001 0.0000 -4.1485 0.0000
# 2 36.1805 33.5200 52.1971 0.0000 -1.6437 0.0000
# 3 124.3001 52.1971 236.3766 0.0000 0.7738 0.0000
# 4 0.0000 0.0000 0.0000 27.5191 0.0000 3.4764
# 5 -4.1485 -1.6437 0.7738 0.0000 41.7555 0.0000
# 6 0.0000 0.0000 0.0000 3.4764 0.0000 39.9680
#
#
#
# Elastic Compliance Matrix: (Units=1/GPa)
#
#
# Indices 1 2 3 4 5 6 
#
# 1 0.008569 -0.003337 -0.003772 0.000000 0.000790 0.000000
# 2 -0.003337 0.046931 -0.008614 0.000000 0.001675 0.000000
# 3 -0.003772 -0.008614 0.008119 0.000000 -0.000864 0.000000
# 4 0.000000 0.000000 0.000000 0.036742 0.000000 -0.003196
# 5 0.000790 0.001675 -0.000864 0.000000 0.024109 0.000000
# 6 0.000000 0.000000 0.000000 -0.003196 0.000000 0.025298
#
#
# Mechanical properties :
#
#
# Convention : Reuss Voigt Hill
#
# Bulk Modulus (GPa) = 31.08194 97.90346 64.49270
# Shear Modulus (GPa) = 26.04992 38.05504 32.05248
#
# Velocity S-wave (km/s) = 3.68850 4.45814 4.09146
# Velocity P-wave (km/s) = 5.86287 8.81090 7.48349
#
# Compressibility (1/GPa) = 0.03217303
#
# Stress axis : x y z
#
# Youngs Moduli (GPa) = 116.69439 21.30799 123.16790
#
# Poissons Ratio (x) = 0.07111 0.46458
# Poissons Ratio (y) = 0.38943 1.06096
# Poissons Ratio (z) = 0.44016 0.18355
#
# Static dielectric constant tensor:
#      x y z
#    x 1.567470 0.000000 -0.049060 
#    y 0.000000 1.682030 0.000000 
#    z -0.049060 0.000000 1.634100 
# 
# From -- ./inp_files/20328.got.cif
#   From: 2010.05.17/outbox.cif.g08.bks.cpg/sg11_11_cif.got.tgz:20328.got - 2010.06.03 12:22:45.
