data_PCOD9165550
_publ_section_title
;
Structure prediction by ZEFSAII (Michael W. Deem and Ramdas Pophale) SiO2 
 PCOD9165550
Probable space group: P 21/M
;
_chemical_formula_sum "Si O2"
_cell_formula_units_Z 28
_cell_length_a 20.803709
_cell_length_b 9.037828
_cell_length_c 14.500953
_cell_angle_alpha 90.000000
_cell_angle_beta 31.123809
_cell_angle_gamma 90.000000
_cell_volume 1409.284784
_symmetry_space_group_name_H-M "P 21/M"
_symmetry_group_IT_number 11
_symmetry_cell_setting 'monoclinic'
loop_
_space_group_symop_operation_xyz
x,y,z
-x,1/2+y,-z
-x,-y,-z
x,1/2-y,z
loop_
_atom_site_type_symbol
_atom_site_label
_atom_site_fract_x
_atom_site_fract_y
_atom_site_fract_z
Si Si1 0.274697 0.074937 0.608871
Si Si2 0.536292 0.922387 0.272282
Si Si3 0.244986 0.075147 0.859927
Si Si4 0.933924 0.425827 0.775022
Si Si5 0.633472 0.424113 0.831235
Si Si6 0.245899 0.425495 0.145187
Si Si7 0.172880 0.576526 0.560442
O O1 0.262513 0.250000 0.608917
O O2 0.243594 0.042797 0.753637
O O3 0.416414 0.024324 0.417666
O O4 0.188576 0.988724 0.642820
O O5 0.496802 0.750000 0.317520
O O6 0.618484 0.946180 0.263362
O O7 0.633300 0.946616 0.069599
O O8 0.214822 0.250000 0.911737
O O9 0.151174 0.976514 0.033958
O O10 0.935309 0.250000 0.763728
O O11 0.869501 0.500547 0.765519
O O12 0.068924 0.489956 0.631052
O O13 0.621572 0.250000 0.865247
O O14 0.722047 0.498831 0.798089
O O15 0.696987 0.440558 0.653557
O O16 0.500000 0.500000 0.000000
O O17 0.226394 0.250000 0.178953
O O18 0.141620 0.750000 0.601506
#
# Coordination Sequence:
#
# PCOD9165550 Si02
#       7
#     4   4   4   4   4   4   4
#     4  11  22  35  56  86 117 153 197 243 290 340
#     4   9  18  34  56  84 118 154 190 231 288 350
#     4   9  20  38  58  83 118 156 193 237 290 346
#     4  11  23  40  63  89 114 147 196 244 286 340
#     4  11  24  41  63  91 120 154 194 236 287 344
#     4  10  21  39  63  88 119 157 191 235 293 346
#     4  11  25  43  60  81 116 157 193 236 290 345
#
# _framework density 19.868234000000001
#
# number of rings (size 3 to 8) (size 9 to 14) (size 15 to 20)
#    0.000    1.714    0.000    5.143    0.000   10.857 
#    0.000    0.000    0.000    0.000    0.000    0.000 
#    0.000    0.000    0.000    0.000    0.000    0.000 
#
# Total GULP energy -156584.430568 kJ/mol
# GULP energy per Si atom -5592.301092 kJ/mol
# Density = 1.982301 g / cm^3
# Si number density = 19.868234 Si / 1000 Ang^3
#
#
#
# Elastic Constant Matrix: (Units=GPa)
#
#
# Indices 1 2 3 4 5 6 
#
# 1 102.2275 45.8853 13.7740 0.0000 10.3235 0.0000
# 2 45.8853 99.1859 29.1946 0.0000 2.9026 0.0000
# 3 13.7740 29.1946 25.6440 0.0000 -9.5711 0.0000
# 4 0.0000 0.0000 0.0000 30.2972 0.0000 -5.5180
# 5 10.3235 2.9026 -9.5711 0.0000 26.4910 0.0000
# 6 0.0000 0.0000 0.0000 -5.5180 0.0000 38.7572
#
#
#
# Elastic Compliance Matrix: (Units=1/GPa)
#
#
# Indices 1 2 3 4 5 6 
#
# 1 0.013017 -0.004718 -0.003838 0.000000 -0.005942 0.000000
# 2 -0.004718 0.019059 -0.022258 0.000000 -0.008291 0.000000
# 3 -0.003838 -0.022258 0.078443 0.000000 0.032276 0.000000
# 4 0.000000 0.000000 0.000000 0.033885 0.000000 0.004824
# 5 -0.005942 -0.008291 0.032276 0.000000 0.052634 0.000000
# 6 0.000000 0.000000 0.000000 0.004824 0.000000 0.026489
#
#
# Mechanical properties :
#
#
# Convention : Reuss Voigt Hill
#
# Bulk Modulus (GPa) = 20.45393 44.97389 32.71391
# Shear Modulus (GPa) = 16.58633 28.32264 22.45448
#
# Velocity S-wave (km/s) = 2.89245 3.77971 3.36545
# Velocity P-wave (km/s) = 4.63381 6.46014 5.62164
#
# Compressibility (1/GPa) = 0.04889037
#
# Stress axis : x y z
#
# Youngs Moduli (GPa) = 76.82127 52.46843 12.74806
#
# Poissons Ratio (x) = 0.24757 0.04893
# Poissons Ratio (y) = 0.36248 0.28375
# Poissons Ratio (z) = 0.29484 1.16785
#
# Static dielectric constant tensor:
#      x y z
#    x 1.690210 0.000000 0.007060 
#    y 0.000000 1.657970 0.000000 
#    z 0.007060 0.000000 1.697600 
# 
# From -- ./inp_files/54520.got.cif
#   From: 2010.05.17/outbox.cif.g08.bks.cpg/sg11_28_cif.got.tgz:54520.got - 2010.06.03 12:22:45.
