data_PCOD9165479
_publ_section_title
;
Structure prediction by ZEFSAII (Michael W. Deem and Ramdas Pophale) SiO2 
 PCOD9165479
Probable space group: P 21/M
;
_chemical_formula_sum "Si O2"
_cell_formula_units_Z 28
_cell_length_a 14.736768
_cell_length_b 7.713596
_cell_length_c 12.863918
_cell_angle_alpha 90.000000
_cell_angle_beta 60.699728
_cell_angle_gamma 90.000000
_cell_volume 1275.211515
_symmetry_space_group_name_H-M "P 21/M"
_symmetry_group_IT_number 11
_symmetry_cell_setting 'monoclinic'
loop_
_space_group_symop_operation_xyz
x,y,z
-x,1/2+y,-z
-x,-y,-z
x,1/2-y,z
loop_
_atom_site_type_symbol
_atom_site_label
_atom_site_fract_x
_atom_site_fract_y
_atom_site_fract_z
Si Si1 0.121155 0.957252 0.440877
Si Si2 0.112069 0.959571 0.891017
Si Si3 0.284332 0.452512 0.173646
Si Si4 0.823958 0.449609 0.363792
Si Si5 0.468953 0.462209 0.214869
Si Si6 0.704761 0.048068 0.063350
Si Si7 0.597424 0.543500 0.516846
O O1 0.136000 0.750000 0.429619
O O2 0.157065 0.027562 0.533232
O O3 0.191280 0.029182 0.308429
O O4 0.000000 0.000000 0.500000
O O5 0.121540 0.750000 0.881212
O O6 0.122561 0.027806 0.767497
O O7 0.206493 0.025650 0.910757
O O8 0.000000 0.000000 0.000000
O O9 0.300083 0.250000 0.143381
O O10 0.389441 0.521701 0.170007
O O11 0.262078 0.537043 0.075392
O O12 0.859677 0.250000 0.351337
O O13 0.700716 0.456005 0.415330
O O14 0.468488 0.250000 0.211559
O O15 0.424698 0.512869 0.352382
O O16 0.587550 0.524636 0.137405
O O17 0.694383 0.250000 0.097937
O O18 0.500000 0.500000 0.500000
O O19 0.613651 0.750000 0.508143
#
# Coordination Sequence:
#
# PCOD9165479 Si02
#       7
#     4   4   4   4   4   4   4
#     4  11  24  41  64  93 125 160 203 253 306 365
#     4  10  23  42  63  87 120 159 203 252 305 361
#     4  11  22  39  62  91 124 160 202 250 304 363
#     4  10  22  42  64  89 121 159 201 251 304 361
#     4   9  19  37  60  86 121 159 198 246 304 361
#     4  10  21  39  61  87 120 162 204 248 303 360
#     4  11  21  36  60  90 124 162 202 247 299 360
#
# _framework density 21.957142000000001
#
# number of rings (size 3 to 8) (size 9 to 14) (size 15 to 20)
#    0.000    1.714    1.429    2.571    2.000    4.000 
#    0.000    3.571    0.000    0.000    0.000    0.000 
#    0.000    0.000    0.000    0.000    0.000    0.000 
#
# Total GULP energy -156513.689677 kJ/mol
# GULP energy per Si atom -5589.774631 kJ/mol
# Density = 2.190717 g / cm^3
# Si number density = 21.957142 Si / 1000 Ang^3
#
#
#
# Elastic Constant Matrix: (Units=GPa)
#
#
# Indices 1 2 3 4 5 6 
#
# 1 56.2438 -11.2784 5.0793 0.0000 -19.4360 0.0000
# 2 -11.2784 45.2510 -10.4971 0.0000 4.5432 0.0000
# 3 5.0793 -10.4971 119.4142 0.0000 -14.1477 0.0000
# 4 0.0000 0.0000 0.0000 8.2310 0.0000 -9.8202
# 5 -19.4360 4.5432 -14.1477 0.0000 35.0371 0.0000
# 6 0.0000 0.0000 0.0000 -9.8202 0.0000 18.3986
#
#
#
# Elastic Compliance Matrix: (Units=1/GPa)
#
#
# Indices 1 2 3 4 5 6 
#
# 1 0.022953 0.004679 0.000915 0.000000 0.012496 0.000000
# 2 0.004679 0.023680 0.001918 0.000000 0.000299 0.000000
# 3 0.000915 0.001918 0.008963 0.000000 0.003878 0.000000
# 4 0.000000 0.000000 0.000000 0.334511 0.000000 0.178545
# 5 0.012496 0.000299 0.003878 0.000000 0.037000 0.000000
# 6 0.000000 0.000000 0.000000 0.178545 0.000000 0.149650
#
#
# Mechanical properties :
#
#
# Convention : Reuss Voigt Hill
#
# Bulk Modulus (GPa) = 14.16011 20.83519 17.49765
# Shear Modulus (GPa) = 8.54300 28.17367 18.35834
#
# Velocity S-wave (km/s) = 1.97464 3.58595 2.89467
# Velocity P-wave (km/s) = 3.41496 5.16285 4.37704
#
# Compressibility (1/GPa) = 0.07062091
#
# Stress axis : x y z
#
# Youngs Moduli (GPa) = 43.56659 42.22981 111.56508
#
# Poissons Ratio (x) = -0.19758 -0.10213
# Poissons Ratio (y) = -0.20383 -0.21399
# Poissons Ratio (z) = -0.03988 -0.08100
#
# Static dielectric constant tensor:
#      x y z
#    x 1.768920 0.000000 0.019640 
#    y 0.000000 1.837720 0.000000 
#    z 0.019640 0.000000 1.785680 
# 
# From -- ./inp_files/37853.got.cif
#   From: 2010.05.17/outbox.cif.g08.bks.cpg/sg11_19_cif.got.tgz:37853.got - 2010.06.03 12:22:45.
