data_PCOD9165803
_publ_section_title
;
Structure prediction by ZEFSAII (Michael W. Deem and Ramdas Pophale) SiO2 
 PCOD9165803
Probable space group: P 21/M
;
_chemical_formula_sum "Si O2"
_cell_formula_units_Z 24
_cell_length_a 11.403396
_cell_length_b 13.112483
_cell_length_c 20.214192
_cell_angle_alpha 90.000000
_cell_angle_beta 23.459378
_cell_angle_gamma 90.000000
_cell_volume 1203.279125
_symmetry_space_group_name_H-M "P 21/M"
_symmetry_group_IT_number 11
_symmetry_cell_setting 'monoclinic'
loop_
_space_group_symop_operation_xyz
x,y,z
-x,1/2+y,-z
-x,-y,-z
x,1/2-y,z
loop_
_atom_site_type_symbol
_atom_site_label
_atom_site_fract_x
_atom_site_fract_y
_atom_site_fract_z
Si Si1 0.639361 0.473306 0.729385
Si Si2 0.496746 0.750000 0.196927
Si Si3 0.295887 0.054501 0.435018
Si Si4 0.357574 0.540041 0.005881
Si Si5 0.985015 0.750000 0.836361
Si Si6 0.021120 0.250000 0.642864
Si Si7 0.534198 0.250000 0.005524
Si Si8 0.714333 0.028021 0.329745
O O1 0.574941 0.359832 0.732576
O O2 0.576379 0.557361 0.705748
O O3 0.971348 0.489333 0.585651
O O4 0.446651 0.478315 0.895062
O O5 0.251032 0.750000 0.266789
O O6 0.812369 0.750000 0.996363
O O7 0.213482 0.152661 0.522235
O O8 0.537743 0.999947 0.354648
O O9 0.477985 0.653157 0.941468
O O10 0.009026 0.535598 0.189242
O O11 0.500000 0.500000 0.000000
O O12 0.174598 0.646333 0.730566
O O13 0.730670 0.750000 0.910998
O O14 0.846726 0.250000 0.802762
O O15 0.500000 0.000000 0.500000
#
# Coordination Sequence:
#
# PCOD9165803 Si02
#       8
#     4   2   4   4   2   2   2   4
#     4  10  21  40  66  91 127 169 219 255 320 385
#     4   9  16  38  63  88 115 169 222 246 296 401
#     4  10  22  38  62  94 126 170 204 267 319 382
#     4  12  22  40  64  92 125 167 218 269 314 381
#     4  11  21  40  63  93 116 177 214 253 330 392
#     4   9  17  37  61  85 127 161 216 252 315 383
#     4  11  22  37  67  94 122 171 226 263 315 388
#     4  12  24  38  64  96 130 160 218 273 323 380
#
# _framework density 19.945498000000001
#
# number of rings (size 3 to 8) (size 9 to 14) (size 15 to 20)
#    0.000    1.333    3.333    4.500    0.000    2.000 
#    0.000    2.500    0.000    0.000    0.000    0.000 
#    0.000    0.000    0.000    0.000    0.000    0.000 
#
# Total GULP energy -133640.608476 kJ/mol
# GULP energy per Si atom -5568.358687 kJ/mol
# Density = 1.990010 g / cm^3
# Si number density = 19.945498 Si / 1000 Ang^3
#
#
#
# Elastic Constant Matrix: (Units=GPa)
#
#
# Indices 1 2 3 4 5 6 
#
# 1 109.3968 6.6785 42.5427 0.0000 -14.4553 0.0000
# 2 6.6785 65.8969 -1.1631 0.0000 -8.3851 0.0000
# 3 42.5427 -1.1631 95.8229 0.0000 -11.3297 0.0000
# 4 0.0000 0.0000 0.0000 30.8560 0.0000 -0.7862
# 5 -14.4553 -8.3851 -11.3297 0.0000 28.3494 0.0000
# 6 0.0000 0.0000 0.0000 -0.7862 0.0000 16.1376
#
#
#
# Elastic Compliance Matrix: (Units=1/GPa)
#
#
# Indices 1 2 3 4 5 6 
#
# 1 0.011502 -0.000768 -0.004670 0.000000 0.003771 0.000000
# 2 -0.000768 0.015876 0.001094 0.000000 0.004741 0.000000
# 3 -0.004670 0.001094 0.012888 0.000000 0.003093 0.000000
# 4 0.000000 0.000000 0.000000 0.032449 0.000000 0.001581
# 5 0.003771 0.004741 0.003093 0.000000 0.039836 0.000000
# 6 0.000000 0.000000 0.000000 0.001581 0.000000 0.062044
#
#
# Mechanical properties :
#
#
# Convention : Reuss Voigt Hill
#
# Bulk Modulus (GPa) = 31.66724 40.80362 36.23543
# Shear Modulus (GPa) = 25.79857 29.93918 27.86888
#
# Velocity S-wave (km/s) = 3.60036 3.87854 3.74204
# Velocity P-wave (km/s) = 5.76150 6.36863 6.07265
#
# Compressibility (1/GPa) = 0.03157838
#
# Stress axis : x y z
#
# Youngs Moduli (GPa) = 86.93812 62.98933 77.58953
#
# Poissons Ratio (x) = 0.04839 0.36236
# Poissons Ratio (y) = 0.06679 -0.08491
# Poissons Ratio (z) = 0.40602 -0.06893
#
# Static dielectric constant tensor:
#      x y z
#    x 1.693940 0.000000 0.031770 
#    y 0.000000 1.931450 0.000000 
#    z 0.031770 0.000000 1.778740 
# 
# From -- ./inp_files/64821.got.cif
#   From: 2010.05.17/outbox.cif.g08.bks.cpg/sg11_33_cif.got.tgz:64821.got - 2010.06.03 12:22:45.
