data_PCOD9165185
_publ_section_title
;
Structure prediction by ZEFSAII (Michael W. Deem and Ramdas Pophale) SiO2 
 PCOD9165185
Probable space group: P 21/M
;
_chemical_formula_sum "Si O2"
_cell_formula_units_Z 24
_cell_length_a 5.294180
_cell_length_b 18.987806
_cell_length_c 10.993784
_cell_angle_alpha 90.000000
_cell_angle_beta 86.863248
_cell_angle_gamma 90.000000
_cell_volume 1103.492868
_symmetry_space_group_name_H-M "P 21/M"
_symmetry_group_IT_number 11
_symmetry_cell_setting 'monoclinic'
loop_
_space_group_symop_operation_xyz
x,y,z
-x,1/2+y,-z
-x,-y,-z
x,1/2-y,z
loop_
_atom_site_type_symbol
_atom_site_label
_atom_site_fract_x
_atom_site_fract_y
_atom_site_fract_z
Si Si1 0.543127 0.390208 0.682415
Si Si2 0.018801 0.421958 0.156257
Si Si3 0.680258 0.952070 0.078763
Si Si4 0.252457 0.827336 0.658454
Si Si5 0.065339 0.361866 0.556245
Si Si6 0.351169 0.048436 0.381590
O O1 0.858924 0.588339 0.978873
O O2 0.469907 0.403232 0.824152
O O3 0.320672 0.345093 0.623926
O O4 0.825404 0.362860 0.651648
O O5 0.449363 0.530851 0.376089
O O6 0.864778 0.356190 0.213164
O O7 0.227284 0.438999 0.252461
O O8 0.846739 0.008075 0.150395
O O9 0.500000 0.000000 0.000000
O O10 0.370607 0.750000 0.667303
O O11 0.440203 0.889748 0.612357
O O12 0.035014 0.822563 0.561123
O O13 0.141225 0.435189 0.488712
#
# Coordination Sequence:
#
# PCOD9165185 Si02
#       6
#     4   4   4   4   4   4
#     4  12  22  37  62  96 135 165 200 261 333 396
#     4  10  21  38  59  97 129 167 213 261 330 378
#     4  11  21  36  61  94 137 164 204 262 324 397
#     4  11  24  43  65  89 127 173 221 270 316 384
#     4  11  25  38  60  97 127 167 210 259 328 387
#     4  11  21  38  61  95 132 167 208 267 325 390
#
# _framework density 21.749120999999999
#
# number of rings (size 3 to 8) (size 9 to 14) (size 15 to 20)
#    0.000    1.000    5.000    2.000    4.667    2.667 
#    0.000    0.000    0.000    2.000    0.000    0.000 
#    0.000    0.000    0.000    0.000    0.000    0.000 
#
# Total GULP energy -133987.931132 kJ/mol
# GULP energy per Si atom -5582.830464 kJ/mol
# Density = 2.169962 g / cm^3
# Si number density = 21.749121 Si / 1000 Ang^3
#
#
#
# Elastic Constant Matrix: (Units=GPa)
#
#
# Indices 1 2 3 4 5 6 
#
# 1 113.1420 19.5728 32.2227 0.0000 -5.2000 0.0000
# 2 19.5728 53.3621 -5.8025 0.0000 5.9577 0.0000
# 3 32.2227 -5.8025 98.9115 0.0000 -22.9051 0.0000
# 4 0.0000 0.0000 0.0000 -10.5988 0.0000 2.8213
# 5 -5.2000 5.9577 -22.9051 0.0000 53.6103 0.0000
# 6 0.0000 0.0000 0.0000 2.8213 0.0000 8.1238
#
#
#
# Elastic Compliance Matrix: (Units=1/GPa)
#
#
# Indices 1 2 3 4 5 6 
#
# 1 0.010644 -0.004301 -0.003740 0.000000 -0.000088 0.000000
# 2 -0.004301 0.020756 0.002206 0.000000 -0.001781 0.000000
# 3 -0.003740 0.002206 0.012560 0.000000 0.004758 0.000000
# 4 0.000000 0.000000 0.000000 -0.086366 0.000000 0.029994
# 5 -0.000088 -0.001781 0.004758 0.000000 0.020876 0.000000
# 6 0.000000 0.000000 0.000000 0.029994 0.000000 0.112678
#
#
# Mechanical properties :
#
#
# Convention : Reuss Voigt Hill
#
# Bulk Modulus (GPa) = 30.96902 39.71130 35.34016
# Shear Modulus (GPa) = 44.02186 24.85522 34.43854
#
# Velocity S-wave (km/s) = 4.50385 3.38422 3.98357
# Velocity P-wave (km/s) = 6.42778 5.79388 6.11905
#
# Compressibility (1/GPa) = 0.03229033
#
# Stress axis : x y z
#
# Youngs Moduli (GPa) = 93.95320 48.17835 79.61955
#
# Poissons Ratio (x) = 0.20721 0.29778
# Poissons Ratio (y) = 0.40408 -0.17566
# Poissons Ratio (z) = 0.35138 -0.10629
#
# Static dielectric constant tensor:
#      x y z
#    x 1.884670 0.000000 0.003440 
#    y 0.000000 1.773400 0.000000 
#    z 0.003440 0.000000 1.836810 
# 
# From -- ./inp_files/29837.got.cif
#   From: 2010.05.17/outbox.cif.g08.bks.cpg/sg11_15_cif.got.tgz:29837.got - 2010.06.03 12:22:45.
