data_PCOD9165088
_publ_section_title
;
Structure prediction by ZEFSAII (Michael W. Deem and Ramdas Pophale) SiO2 
 PCOD9165088
Probable space group: P 21/M
;
_chemical_formula_sum "Si O2"
_cell_formula_units_Z 32
_cell_length_a 26.384641
_cell_length_b 7.817959
_cell_length_c 20.645197
_cell_angle_alpha 90.000000
_cell_angle_beta 21.749620
_cell_angle_gamma 90.000000
_cell_volume 1578.017895
_symmetry_space_group_name_H-M "P 21/M"
_symmetry_group_IT_number 11
_symmetry_cell_setting 'monoclinic'
loop_
_space_group_symop_operation_xyz
x,y,z
-x,1/2+y,-z
-x,-y,-z
x,1/2-y,z
loop_
_atom_site_type_symbol
_atom_site_label
_atom_site_fract_x
_atom_site_fract_y
_atom_site_fract_z
Si Si1 0.341807 0.456269 0.696583
Si Si2 0.576253 0.042594 0.006724
Si Si3 0.413307 0.551911 0.861187
Si Si4 0.278315 0.550291 0.516481
Si Si5 0.289216 0.954836 0.282637
Si Si6 0.917845 0.040044 0.367684
Si Si7 0.780528 0.549039 0.023407
Si Si8 0.844726 0.954850 0.201089
O O1 0.500000 0.500000 0.500000
O O2 0.332242 0.250000 0.708827
O O3 0.280913 0.523042 0.836823
O O4 0.253011 0.516909 0.740955
O O5 0.579552 0.250000 0.004140
O O6 0.609770 0.980613 0.038984
O O7 0.422898 0.992165 0.167681
O O8 0.675177 0.980309 0.831567
O O9 0.372371 0.750000 0.909709
O O10 0.575278 0.539809 0.656075
O O11 0.327735 0.466711 0.905847
O O12 0.306605 0.750000 0.470713
O O13 0.179612 0.488349 0.576250
O O14 0.202313 0.530508 0.674846
O O15 0.277449 0.750000 0.291509
O O16 0.155970 0.018323 0.478702
O O17 0.919327 0.250000 0.367156
O O18 0.071762 0.978618 0.172959
O O19 0.803582 0.750000 0.008360
O O20 0.832066 0.750000 0.220816
O O21 0.000000 0.000000 0.000000
#
# Coordination Sequence:
#
# PCOD9165088 Si02
#       8
#     4   4   4   4   4   4   4   4
#     4  10  22  39  58  78 105 140 184 229 273 323
#     4   9  18  31  51  79 113 143 175 223 274 320
#     4  11  22  36  52  80 115 146 179 224 275 326
#     4  11  21  36  59  85 109 140 183 231 275 326
#     4   9  16  31  55  81 106 141 183 223 268 322
#     4   9  18  34  57  82 108 140 185 230 271 321
#     4  10  21  38  57  77 104 143 184 226 270 322
#     4  11  23  39  58  84 114 144 178 226 280 333
#
# _framework density 20.278604000000001
#
# number of rings (size 3 to 8) (size 9 to 14) (size 15 to 20)
#    0.000    2.000    1.250    2.625    0.000    6.000 
#    0.000    3.750    0.000    0.000    0.000    0.000 
#    0.000    0.000    0.000    0.000    0.000    0.000 
#
# Total GULP energy -178716.705624 kJ/mol
# GULP energy per Si atom -5584.897051 kJ/mol
# Density = 2.023245 g / cm^3
# Si number density = 20.278604 Si / 1000 Ang^3
#
#
#
# Elastic Constant Matrix: (Units=GPa)
#
#
# Indices 1 2 3 4 5 6 
#
# 1 71.7108 -11.8848 54.8401 0.0000 15.8114 0.0000
# 2 -11.8848 25.8135 -7.3457 0.0000 1.6713 0.0000
# 3 54.8401 -7.3457 159.6819 0.0000 14.0478 0.0000
# 4 0.0000 0.0000 0.0000 13.1620 0.0000 3.6521
# 5 15.8114 1.6713 14.0478 0.0000 39.7700 0.0000
# 6 0.0000 0.0000 0.0000 3.6521 0.0000 3.6374
#
#
#
# Elastic Compliance Matrix: (Units=1/GPa)
#
#
# Indices 1 2 3 4 5 6 
#
# 1 0.021844 0.008641 -0.006511 0.000000 -0.006748 0.000000
# 2 0.008641 0.042888 -0.000551 0.000000 -0.005043 0.000000
# 3 -0.006511 -0.000551 0.008508 0.000000 -0.000393 0.000000
# 4 0.000000 0.000000 0.000000 0.105316 0.000000 -0.105740
# 5 -0.006748 -0.005043 -0.000393 0.000000 0.028178 0.000000
# 6 0.000000 0.000000 0.000000 -0.105740 0.000000 0.381085
#
#
# Mechanical properties :
#
#
# Convention : Reuss Voigt Hill
#
# Bulk Modulus (GPa) = 13.08929 36.49168 24.79049
# Shear Modulus (GPa) = 8.19503 26.08699 17.14101
#
# Velocity S-wave (km/s) = 2.01246 3.59057 2.91052
# Velocity P-wave (km/s) = 3.44510 5.93497 4.85245
#
# Compressibility (1/GPa) = 0.07639831
#
# Stress axis : x y z
#
# Youngs Moduli (GPa) = 45.77926 23.31669 117.54006
#
# Poissons Ratio (x) = -0.20149 0.76528
# Poissons Ratio (y) = -0.39559 0.06478
# Poissons Ratio (z) = 0.29806 0.01285
#
# Static dielectric constant tensor:
#      x y z
#    x 1.703580 0.000000 0.034330 
#    y 0.000000 1.773470 0.000000 
#    z 0.034330 0.000000 1.700930 
# 
# From -- ./inp_files/66939.got.cif
#   From: 2010.05.17/outbox.cif.g08.bks.cpg/sg11_34_cif.got.tgz:66939.got - 2010.06.03 12:22:45.
