data_PCOD9165033
_publ_section_title
;
Structure prediction by ZEFSAII (Michael W. Deem and Ramdas Pophale) SiO2 
 PCOD9165033
Probable space group: P 21/M
;
_chemical_formula_sum "Si O2"
_cell_formula_units_Z 26
_cell_length_a 6.252774
_cell_length_b 27.961656
_cell_length_c 9.334372
_cell_angle_alpha 90.000000
_cell_angle_beta 134.177766
_cell_angle_gamma 90.000000
_cell_volume 1170.441082
_symmetry_space_group_name_H-M "P 21/M"
_symmetry_group_IT_number 11
_symmetry_cell_setting 'monoclinic'
loop_
_space_group_symop_operation_xyz
x,y,z
-x,1/2+y,-z
-x,-y,-z
x,1/2-y,z
loop_
_atom_site_type_symbol
_atom_site_label
_atom_site_fract_x
_atom_site_fract_y
_atom_site_fract_z
Si Si1 0.225598 0.589884 0.807726
Si Si2 0.340276 0.517098 0.648939
Si Si3 0.112329 0.750000 0.054080
Si Si4 0.490449 0.427344 0.553591
Si Si5 0.226613 0.750000 0.394258
Si Si6 0.091370 0.830312 0.548726
Si Si7 0.578685 0.353857 0.820668
Si Si8 0.136270 0.250000 0.355398
O O1 0.394892 0.543225 0.825874
O O2 0.865423 0.581354 0.637968
O O3 0.283859 0.628552 0.708953
O O4 0.315625 0.612662 0.999971
O O5 0.521678 0.470414 0.684282
O O6 0.374897 0.553600 0.531511
O O7 0.000000 0.500000 0.500000
O O8 0.981926 0.750000 0.154728
O O9 0.279670 0.800961 0.105610
O O10 0.866172 0.750000 0.815348
O O11 0.633286 0.380686 0.693945
O O12 0.523191 0.750000 0.438608
O O13 0.223226 0.796430 0.489757
O O14 0.779311 0.849553 0.341972
O O15 0.013368 0.795944 0.645903
#
# Coordination Sequence:
#
# PCOD9165033 Si02
#       8
#     4   4   2   4   2   4   4   2
#     4  10  21  37  62  92 123 162 203 254 312 372
#     4   9  19  41  66  91 124 162 204 256 318 372
#     4  12  23  38  61  89 122 166 209 251 308 363
#     4   9  21  41  65  91 125 163 204 258 314 368
#     4  11  24  39  61  85 116 169 214 254 308 367
#     4  10  22  40  59  84 120 164 204 258 309 364
#     4  11  22  41  63  89 129 164 207 261 304 369
#     4  11  21  41  58  76 122 161 207 257 308 360
#
# _framework density 22.213850000000001
#
# number of rings (size 3 to 8) (size 9 to 14) (size 15 to 20)
#    0.000    1.846    3.077    0.462    2.154    1.846 
#    2.769    6.923    0.000    0.000    0.000    0.000 
#    0.000    0.000    0.000    0.000    0.000    0.000 
#
# Total GULP energy -145068.890025 kJ/mol
# GULP energy per Si atom -5579.572693 kJ/mol
# Density = 2.216329 g / cm^3
# Si number density = 22.213850 Si / 1000 Ang^3
#
#
#
# Elastic Constant Matrix: (Units=GPa)
#
#
# Indices 1 2 3 4 5 6 
#
# 1 54.0804 33.0100 13.3227 0.0000 -25.4235 0.0000
# 2 33.0100 106.9381 45.2752 0.0000 -15.7639 0.0000
# 3 13.3227 45.2752 91.8241 0.0000 -21.3979 0.0000
# 4 0.0000 0.0000 0.0000 32.2689 0.0000 -3.1298
# 5 -25.4235 -15.7639 -21.3979 0.0000 21.7045 0.0000
# 6 0.0000 0.0000 0.0000 -3.1298 0.0000 22.6067
#
#
#
# Elastic Compliance Matrix: (Units=1/GPa)
#
#
# Indices 1 2 3 4 5 6 
#
# 1 0.056249 -0.013204 0.014889 0.000000 0.070975 0.000000
# 2 -0.013204 0.015149 -0.008561 0.000000 -0.012903 0.000000
# 3 0.014889 -0.008561 0.020209 0.000000 0.031146 0.000000
# 4 0.000000 0.000000 0.000000 0.031411 0.000000 0.004349
# 5 0.070975 -0.012903 0.031146 0.000000 0.150544 0.000000
# 6 0.000000 0.000000 0.000000 0.004349 0.000000 0.044837
#
#
# Mechanical properties :
#
#
# Convention : Reuss Voigt Hill
#
# Bulk Modulus (GPa) = 12.84438 48.45095 30.64767
# Shear Modulus (GPa) = 13.96245 26.06499 20.01372
#
# Velocity S-wave (km/s) = 2.50980 3.42916 3.00485
# Velocity P-wave (km/s) = 3.76743 6.12677 5.08581
#
# Compressibility (1/GPa) = 0.07785506
#
# Stress axis : x y z
#
# Youngs Moduli (GPa) = 17.77825 66.00928 49.48250
#
# Poissons Ratio (x) = 0.87159 -0.73673
# Poissons Ratio (y) = 0.23474 0.42361
# Poissons Ratio (z) = -0.26470 0.56509
#
# Static dielectric constant tensor:
#      x y z
#    x 1.799120 0.000000 -0.028680 
#    y 0.000000 1.887690 0.000000 
#    z -0.028680 0.000000 1.784310 
# 
# From -- ./inp_files/10780.got.cif
#   From: 2010.05.17/outbox.cif.g08.bks.cpg/sg11_6_cif.got.tgz:10780.got - 2010.06.03 12:22:45.
