data_PCOD9165391
_publ_section_title
;
Structure prediction by ZEFSAII (Michael W. Deem and Ramdas Pophale) SiO2 
 PCOD9165391
Probable space group: P 21/M
;
_chemical_formula_sum "Si O2"
_cell_formula_units_Z 30
_cell_length_a 13.684796
_cell_length_b 7.361956
_cell_length_c 27.255940
_cell_angle_alpha 90.000000
_cell_angle_beta 24.519948
_cell_angle_gamma 90.000000
_cell_volume 1139.597009
_symmetry_space_group_name_H-M "P 21/M"
_symmetry_group_IT_number 11
_symmetry_cell_setting 'monoclinic'
loop_
_space_group_symop_operation_xyz
x,y,z
-x,1/2+y,-z
-x,-y,-z
x,1/2-y,z
loop_
_atom_site_type_symbol
_atom_site_label
_atom_site_fract_x
_atom_site_fract_y
_atom_site_fract_z
Si Si1 0.414632 0.530722 0.356111
Si Si2 0.688661 0.041643 0.021422
Si Si3 0.930876 0.029456 0.352600
Si Si4 0.423423 0.468568 0.606831
Si Si5 0.403704 0.750000 0.212880
Si Si6 0.885268 0.955800 0.829129
Si Si7 0.087136 0.032480 0.392597
Si Si8 0.887171 0.965741 0.103828
O O1 0.397358 0.750000 0.363043
O O2 0.503534 0.489548 0.370701
O O3 0.147747 0.468150 0.471408
O O4 0.313644 0.591904 0.293614
O O5 0.636885 0.250000 0.059262
O O6 0.933592 0.979236 0.935441
O O7 0.737971 0.038581 0.940777
O O8 0.502355 0.908208 0.130227
O O9 0.929209 0.250000 0.351271
O O10 0.658490 0.970386 0.470145
O O11 0.101550 0.962822 0.231555
O O12 0.013334 0.982067 0.369366
O O13 0.404061 0.250000 0.611401
O O14 0.165088 0.543948 0.714451
O O15 0.627419 0.043051 0.226888
O O16 0.800467 0.750000 0.863755
O O17 0.119534 0.250000 0.380518
O O18 0.862017 0.750000 0.121054
O O19 0.000000 0.000000 0.000000
#
# Coordination Sequence:
#
# PCOD9165391 Si02
#       8
#     4   4   4   4   2   4   4   4
#     4   8  15  33  60  88 120 156 195 238 306 372
#     4  11  24  42  62  88 123 164 200 244 309 368
#     4   8  17  32  53  78 118 157 202 254 307 351
#     4   9  15  29  50  78 117 161 191 237 305 371
#     4  12  24  42  64  90 114 160 226 254 290 346
#     4  11  19  31  51  82 121 158 203 248 301 369
#     4   9  19  40  64  86 118 162 206 264 301 338
#     4  10  21  38  64  99 130 157 186 237 308 382
#
# _framework density 26.325095000000001
#
# number of rings (size 3 to 8) (size 9 to 14) (size 15 to 20)
#    0.000    2.400    2.000    2.800    0.933    0.000 
#    8.400    0.667    0.000    0.800    0.000    0.000 
#    0.000    0.000    0.000    0.000    0.000    0.000 
#
# Total GULP energy -167375.758759 kJ/mol
# GULP energy per Si atom -5579.191959 kJ/mol
# Density = 2.626518 g / cm^3
# Si number density = 26.325095 Si / 1000 Ang^3
#
#
#
# Elastic Constant Matrix: (Units=GPa)
#
#
# Indices 1 2 3 4 5 6 
#
# 1 79.2067 2.8212 11.6227 0.0000 -2.9566 0.0000
# 2 2.8212 131.2131 39.3776 0.0000 -12.8392 0.0000
# 3 11.6227 39.3776 204.2231 0.0000 -5.4805 0.0000
# 4 0.0000 0.0000 0.0000 25.1868 0.0000 1.2767
# 5 -2.9566 -12.8392 -5.4805 0.0000 24.0914 0.0000
# 6 0.0000 0.0000 0.0000 1.2767 0.0000 -6.6835
#
#
#
# Elastic Compliance Matrix: (Units=1/GPa)
#
#
# Indices 1 2 3 4 5 6 
#
# 1 0.012780 0.000078 -0.000703 0.000000 0.001450 0.000000
# 2 0.000078 0.008488 -0.001529 0.000000 0.004185 0.000000
# 3 -0.000703 -0.001529 0.005239 0.000000 0.000291 0.000000
# 4 0.000000 0.000000 0.000000 0.039323 0.000000 0.007512
# 5 0.001450 0.004185 0.000291 0.000000 0.043983 0.000000
# 6 0.000000 0.000000 0.000000 0.007512 0.000000 -0.148188
#
#
# Mechanical properties :
#
#
# Convention : Reuss Voigt Hill
#
# Bulk Modulus (GPa) = 45.04741 58.03176 51.53959
# Shear Modulus (GPa) = -187.49267 32.57369 -77.45949
#
# Velocity S-wave (km/s) = -8.44847 3.52143 -5.43029
# Velocity P-wave (km/s) = 8.83288 6.21499 4.43811
#
# Compressibility (1/GPa) = 0.02219884
#
# Stress axis : x y z
#
# Youngs Moduli (GPa) = 78.24864 117.81584 190.86842
#
# Poissons Ratio (x) = -0.00922 0.13427
# Poissons Ratio (y) = -0.00612 0.29179
# Poissons Ratio (z) = 0.05505 0.18011
#
# Static dielectric constant tensor:
#      x y z
#    x 2.185020 0.000000 -0.011540 
#    y 0.000000 1.912490 0.000000 
#    z -0.011540 0.000000 2.070880 
# 
# From -- ./inp_files/68739.got.cif
#   From: 2010.05.17/outbox.cif.g08.bks.cpg/sg11_35_cif.got.tgz:68739.got - 2010.06.03 12:22:45.
