data_PCOD9165691
_publ_section_title
;
Structure prediction by ZEFSAII (Michael W. Deem and Ramdas Pophale) SiO2 
 PCOD9165691
Probable space group: P 21/M
;
_chemical_formula_sum "Si O2"
_cell_formula_units_Z 28
_cell_length_a 6.034622
_cell_length_b 28.538337
_cell_length_c 7.325253
_cell_angle_alpha 90.000000
_cell_angle_beta 113.690671
_cell_angle_gamma 90.000000
_cell_volume 1155.228433
_symmetry_space_group_name_H-M "P 21/M"
_symmetry_group_IT_number 11
_symmetry_cell_setting 'monoclinic'
loop_
_space_group_symop_operation_xyz
x,y,z
-x,1/2+y,-z
-x,-y,-z
x,1/2-y,z
loop_
_atom_site_type_symbol
_atom_site_label
_atom_site_fract_x
_atom_site_fract_y
_atom_site_fract_z
Si Si1 0.782408 0.697022 0.805789
Si Si2 0.526210 0.606139 0.701107
Si Si3 0.437667 0.072476 0.699025
Si Si4 0.973842 0.389946 0.622098
Si Si5 0.294859 0.300256 0.644629
Si Si6 0.252486 0.853404 0.081207
Si Si7 0.293309 0.009765 0.093864
O O1 0.781824 0.750000 0.884907
O O2 0.601207 0.656138 0.812520
O O3 0.704954 0.702506 0.572103
O O4 0.042737 0.671476 0.899801
O O5 0.586558 0.600647 0.501679
O O6 0.665435 0.563074 0.834749
O O7 0.236594 0.602749 0.595037
O O8 0.162621 0.067582 0.674626
O O9 0.569300 0.103154 0.902728
O O10 0.593468 0.026423 0.720986
O O11 0.115985 0.341779 0.634688
O O12 0.872045 0.379275 0.787656
O O13 0.213171 0.250000 0.690630
O O14 0.562254 0.312917 0.799151
O O15 0.500000 0.000000 0.000000
O O16 0.000000 0.000000 0.000000
#
# Coordination Sequence:
#
# PCOD9165691 Si02
#       7
#     4   4   4   4   4   4   4
#     4  11  22  40  66  96 136 186 237 296 363 432
#     4  11  24  45  71  97 143 189 239 299 365 439
#     4  10  23  45  70 100 138 186 238 294 369 437
#     4  10  21  40  69  94 131 185 232 300 356 435
#     4  10  21  40  61  93 133 181 238 295 361 430
#     4  10  21  41  65  95 137 180 236 295 367 419
#     4  12  30  47  74 113 149 189 244 306 368 445
#
# _framework density 24.237632999999999
#
# number of rings (size 3 to 8) (size 9 to 14) (size 15 to 20)
#    0.000    1.429    4.286    1.714    8.000    3.429 
#    2.571    0.000    0.000    0.000    0.000    0.000 
#    0.000    0.000    0.000    0.000    0.000    0.000 
#
# Total GULP energy -156118.815477 kJ/mol
# GULP energy per Si atom -5575.671981 kJ/mol
# Density = 2.418247 g / cm^3
# Si number density = 24.237633 Si / 1000 Ang^3
#
#
#
# Elastic Constant Matrix: (Units=GPa)
#
#
# Indices 1 2 3 4 5 6 
#
# 1 112.8976 41.9411 37.2600 0.0000 35.6407 0.0000
# 2 41.9411 148.3641 46.8958 0.0000 22.1798 0.0000
# 3 37.2600 46.8958 70.1863 0.0000 35.1813 0.0000
# 4 0.0000 0.0000 0.0000 253.2470 0.0000 82.0474
# 5 35.6407 22.1798 35.1813 0.0000 57.1292 0.0000
# 6 0.0000 0.0000 0.0000 82.0474 0.0000 49.3406
#
#
#
# Elastic Compliance Matrix: (Units=1/GPa)
#
#
# Indices 1 2 3 4 5 6 
#
# 1 0.012022 -0.001810 -0.002554 0.000000 -0.005225 0.000000
# 2 -0.001810 0.008821 -0.005471 0.000000 0.001074 0.000000
# 3 -0.002554 -0.005471 0.025163 0.000000 -0.011779 0.000000
# 4 0.000000 0.000000 0.000000 0.008561 0.000000 -0.014236
# 5 -0.005225 0.001074 -0.011779 0.000000 0.027600 0.000000
# 6 0.000000 0.000000 0.000000 -0.014236 0.000000 0.043939
#
#
# Mechanical properties :
#
#
# Convention : Reuss Voigt Hill
#
# Bulk Modulus (GPa) = 37.97067 64.84909 51.40988
# Shear Modulus (GPa) = 32.35090 85.63344 58.99217
#
# Velocity S-wave (km/s) = 3.65737 5.95042 4.93882
# Velocity P-wave (km/s) = 5.79095 8.60370 7.33344
#
# Compressibility (1/GPa) = 0.02633611
#
# Stress axis : x y z
#
# Youngs Moduli (GPa) = 83.17836 113.37025 39.74066
#
# Poissons Ratio (x) = 0.20523 0.10149
# Poissons Ratio (y) = 0.15058 0.21742
# Poissons Ratio (z) = 0.21242 0.62024
#
# Static dielectric constant tensor:
#      x y z
#    x 2.124750 0.000000 -0.063450 
#    y 0.000000 1.999310 0.000000 
#    z -0.063450 0.000000 1.965240 
# 
# From -- ./inp_files/3454.got.cif
#   From: 2010.05.17/outbox.cif.g08.bks.cpg/sg11_2_cif.got.tgz:3454.got - 2010.06.03 12:22:45.
