data_PCOD9165565
_publ_section_title
;
Structure prediction by ZEFSAII (Michael W. Deem and Ramdas Pophale) SiO2 
 PCOD9165565
Probable space group: P 21/M
;
_chemical_formula_sum "Si O2"
_cell_formula_units_Z 28
_cell_length_a 22.195441
_cell_length_b 8.784877
_cell_length_c 14.656390
_cell_angle_alpha 90.000000
_cell_angle_beta 149.521435
_cell_angle_gamma 90.000000
_cell_volume 1449.503960
_symmetry_space_group_name_H-M "P 21/M"
_symmetry_group_IT_number 11
_symmetry_cell_setting 'monoclinic'
loop_
_space_group_symop_operation_xyz
x,y,z
-x,1/2+y,-z
-x,-y,-z
x,1/2-y,z
loop_
_atom_site_type_symbol
_atom_site_label
_atom_site_fract_x
_atom_site_fract_y
_atom_site_fract_z
Si Si1 0.257462 0.931298 0.713975
Si Si2 0.858321 0.070101 0.715198
Si Si3 0.637372 0.931652 0.320874
Si Si4 0.214738 0.069164 0.992790
Si Si5 0.884435 0.429768 0.964683
Si Si6 0.993391 0.568170 0.593107
Si Si7 0.617277 0.067716 0.931786
O O1 0.240537 0.750000 0.685749
O O2 0.351565 0.986126 0.762031
O O3 0.133479 0.015450 0.533701
O O4 0.302549 0.967614 0.874555
O O5 0.852061 0.250000 0.686446
O O6 0.751873 0.983481 0.527324
O O7 0.851021 0.049405 0.815117
O O8 0.986532 0.005987 0.853493
O O9 0.637022 0.750000 0.306767
O O10 0.517040 0.972987 0.216944
O O11 0.205539 0.250000 0.980790
O O12 0.207012 0.005114 0.084912
O O13 0.101289 0.998021 0.792437
O O14 0.329065 0.015876 0.085225
O O15 0.893702 0.250000 0.995056
O O16 0.001636 0.750000 0.600556
O O17 0.000000 0.500000 0.500000
O O18 0.623827 0.250000 0.926001
#
# Coordination Sequence:
#
# PCOD9165565 Si02
#       7
#     4   4   4   4   4   4   4
#     4  11  22  38  60  85 116 156 199 244 291 343
#     4  10  21  39  63  91 119 149 191 241 293 347
#     4  11  23  39  60  86 117 155 197 243 293 344
#     4  12  24  38  60  88 119 156 195 239 293 350
#     4  10  21  39  64  90 119 152 188 239 295 349
#     4  12  23  37  57  84 118 153 192 237 288 342
#     4  10  23  41  59  81 116 159 200 243 288 342
#
# _framework density 19.316953000000002
#
# number of rings (size 3 to 8) (size 9 to 14) (size 15 to 20)
#    0.000    1.143    1.429    5.571    0.000    3.429 
#    0.000    0.714    0.000    0.000    0.000    0.000 
#    0.000    0.000    0.000    0.000    0.000    0.000 
#
# Total GULP energy -156665.876450 kJ/mol
# GULP energy per Si atom -5595.209873 kJ/mol
# Density = 1.927299 g / cm^3
# Si number density = 19.316953 Si / 1000 Ang^3
#
#
#
# Elastic Constant Matrix: (Units=GPa)
#
#
# Indices 1 2 3 4 5 6 
#
# 1 135.2701 53.6758 9.8352 0.0000 18.8897 0.0000
# 2 53.6758 84.1055 0.8759 0.0000 5.1302 0.0000
# 3 9.8352 0.8759 21.6443 0.0000 9.8337 0.0000
# 4 0.0000 0.0000 0.0000 24.1173 0.0000 2.5112
# 5 18.8897 5.1302 9.8337 0.0000 23.2165 0.0000
# 6 0.0000 0.0000 0.0000 2.5112 0.0000 38.1343
#
#
#
# Elastic Compliance Matrix: (Units=1/GPa)
#
#
# Indices 1 2 3 4 5 6 
#
# 1 0.011114 -0.006657 -0.001660 0.000000 -0.006868 0.000000
# 2 -0.006657 0.016053 0.001890 0.000000 0.001068 0.000000
# 3 -0.001660 0.001890 0.057526 0.000000 -0.023433 0.000000
# 4 0.000000 0.000000 0.000000 0.041750 0.000000 -0.002749
# 5 -0.006868 0.001068 -0.023433 0.000000 0.058350 0.000000
# 6 0.000000 0.000000 0.000000 -0.002749 0.000000 0.026404
#
#
# Mechanical properties :
#
#
# Convention : Reuss Voigt Hill
#
# Bulk Modulus (GPa) = 13.92010 41.08818 27.50414
# Shear Modulus (GPa) = 20.16149 28.86915 24.51532
#
# Velocity S-wave (km/s) = 3.23417 3.87007 3.56632
# Velocity P-wave (km/s) = 4.60090 6.42547 5.58815
#
# Compressibility (1/GPa) = 0.07183855
#
# Stress axis : x y z
#
# Youngs Moduli (GPa) = 89.97816 62.29298 17.38358
#
# Poissons Ratio (x) = 0.41466 0.02886
# Poissons Ratio (y) = 0.59894 -0.03285
# Poissons Ratio (z) = 0.14938 -0.11772
#
# Static dielectric constant tensor:
#      x y z
#    x 1.695120 0.000000 -0.001410 
#    y 0.000000 1.641080 0.000000 
#    z -0.001410 0.000000 1.650140 
# 
# From -- ./inp_files/49468.got.cif
#   From: 2010.05.17/outbox.cif.g08.bks.cpg/sg11_25_cif.got.tgz:49468.got - 2010.06.03 12:22:45.
