data_PCOD9165089
_publ_section_title
;
Structure prediction by ZEFSAII (Michael W. Deem and Ramdas Pophale) SiO2 
 PCOD9165089
Probable space group: P 21/M
;
_chemical_formula_sum "Si O2"
_cell_formula_units_Z 24
_cell_length_a 14.593255
_cell_length_b 9.451140
_cell_length_c 18.168351
_cell_angle_alpha 90.000000
_cell_angle_beta 153.697194
_cell_angle_gamma 90.000000
_cell_volume 1110.371801
_symmetry_space_group_name_H-M "P 21/M"
_symmetry_group_IT_number 11
_symmetry_cell_setting 'monoclinic'
loop_
_space_group_symop_operation_xyz
x,y,z
-x,1/2+y,-z
-x,-y,-z
x,1/2-y,z
loop_
_atom_site_type_symbol
_atom_site_label
_atom_site_fract_x
_atom_site_fract_y
_atom_site_fract_z
Si Si1 0.791562 0.915266 0.329309
Si Si2 0.655877 0.583623 0.792440
Si Si3 0.287710 0.091510 0.563248
Si Si4 0.150651 0.920271 0.931788
Si Si5 0.211046 0.914844 0.812378
Si Si6 0.291882 0.416860 0.334542
O O1 0.835136 0.750000 0.346149
O O2 0.667600 0.920312 0.316679
O O3 0.706424 0.988607 0.194461
O O4 0.000000 0.000000 0.500000
O O5 0.658659 0.750000 0.809686
O O6 0.421190 0.525686 0.618976
O O7 0.761918 0.558303 0.790114
O O8 0.755857 0.498076 0.930972
O O9 0.349097 0.250000 0.583253
O O10 0.040963 0.081290 0.376283
O O11 0.170797 0.750000 0.953579
O O12 0.247123 0.960012 0.922421
O O13 0.905065 0.952862 0.757455
O O14 0.272945 0.750000 0.847726
O O15 0.500000 0.500000 0.500000
O O16 0.332114 0.250000 0.371993
#
# Coordination Sequence:
#
# PCOD9165089 Si02
#       6
#     4   4   4   4   4   4
#     4   9  17  30  51  78 107 139 176 220 268 314
#     4  11  23  36  53  81 111 139 177 222 263 307
#     4   9  18  34  55  78 106 142 179 215 264 322
#     4  10  21  38  57  77 108 147 178 210 263 325
#     4   9  18  33  55  81 105 136 181 224 263 313
#     4  10  22  39  59  83 108 137 176 219 263 313
#
# _framework density 21.614381999999999
#
# number of rings (size 3 to 8) (size 9 to 14) (size 15 to 20)
#    0.000    2.333    0.000    3.500    0.000    7.333 
#    0.000    0.833    0.000    0.000    0.000    0.000 
#    0.000    0.000    0.000    0.000    0.000    0.000 
#
# Total GULP energy -134091.534514 kJ/mol
# GULP energy per Si atom -5587.147271 kJ/mol
# Density = 2.156519 g / cm^3
# Si number density = 21.614382 Si / 1000 Ang^3
#
#
#
# Elastic Constant Matrix: (Units=GPa)
#
#
# Indices 1 2 3 4 5 6 
#
# 1 108.4966 51.2272 17.3561 0.0000 -15.3065 0.0000
# 2 51.2272 56.5237 21.0964 0.0000 -10.6912 0.0000
# 3 17.3561 21.0964 70.4768 0.0000 -13.2115 0.0000
# 4 0.0000 0.0000 0.0000 30.5915 0.0000 -3.0680
# 5 -15.3065 -10.6912 -13.2115 0.0000 35.1758 0.0000
# 6 0.0000 0.0000 0.0000 -3.0680 0.0000 30.7338
#
#
#
# Elastic Compliance Matrix: (Units=1/GPa)
#
#
# Indices 1 2 3 4 5 6 
#
# 1 0.016411 -0.014639 0.000909 0.000000 0.003033 0.000000
# 2 -0.014639 0.033541 -0.006151 0.000000 0.001514 0.000000
# 3 0.000909 -0.006151 0.016706 0.000000 0.004801 0.000000
# 4 0.000000 0.000000 0.000000 0.033019 0.000000 0.003296
# 5 0.003033 0.001514 0.004801 0.000000 0.032012 0.000000
# 6 0.000000 0.000000 0.000000 0.003296 0.000000 0.032867
#
#
# Mechanical properties :
#
#
# Convention : Reuss Voigt Hill
#
# Bulk Modulus (GPa) = 37.17951 46.09517 41.63734
# Shear Modulus (GPa) = 23.44287 29.02137 26.23212
#
# Velocity S-wave (km/s) = 3.29689 3.66825 3.48752
# Velocity P-wave (km/s) = 5.63305 6.27007 5.96008
#
# Compressibility (1/GPa) = 0.02689654
#
# Stress axis : x y z
#
# Youngs Moduli (GPa) = 60.93371 29.81411 59.85720
#
# Poissons Ratio (x) = 0.43645 -0.05442
# Poissons Ratio (y) = 0.89201 0.36820
# Poissons Ratio (z) = -0.05540 0.18339
#
# Static dielectric constant tensor:
#      x y z
#    x 1.795830 0.000000 -0.013080 
#    y 0.000000 1.719170 0.000000 
#    z -0.013080 0.000000 1.861560 
# 
# From -- ./inp_files/20540.got.cif
#   From: 2010.05.17/outbox.cif.g08.bks.cpg/sg11_11_cif.got.tgz:20540.got - 2010.06.03 12:22:45.
