data_PCOD9165933
_publ_section_title
;
Structure prediction by ZEFSAII (Michael W. Deem and Ramdas Pophale) SiO2 
 PCOD9165933
Probable space group: P 21/M
;
_chemical_formula_sum "Si O2"
_cell_formula_units_Z 28
_cell_length_a 13.971888
_cell_length_b 21.107715
_cell_length_c 9.234097
_cell_angle_alpha 90.000000
_cell_angle_beta 149.481386
_cell_angle_gamma 90.000000
_cell_volume 1382.926381
_symmetry_space_group_name_H-M "P 21/M"
_symmetry_group_IT_number 11
_symmetry_cell_setting 'monoclinic'
loop_
_space_group_symop_operation_xyz
x,y,z
-x,1/2+y,-z
-x,-y,-z
x,1/2-y,z
loop_
_atom_site_type_symbol
_atom_site_label
_atom_site_fract_x
_atom_site_fract_y
_atom_site_fract_z
Si Si1 0.639354 0.176768 0.008229
Si Si2 0.581550 0.177276 0.611134
Si Si3 0.600939 0.063693 0.185472
Si Si4 0.951918 0.405030 0.048955
Si Si5 0.928993 0.821806 0.542374
Si Si6 0.969630 0.951199 0.158846
Si Si7 0.677751 0.624890 0.963321
O O1 0.604562 0.250000 0.010986
O O2 0.593055 0.122172 0.061900
O O3 0.861931 0.172289 0.256009
O O4 0.535289 0.165325 0.719450
O O5 0.645773 0.250000 0.687031
O O6 0.410064 0.166212 0.279536
O O7 0.756384 0.133264 0.794685
O O8 0.491376 0.086151 0.184947
O O9 0.817917 0.050290 0.504818
O O10 0.500000 0.000000 0.000000
O O11 0.916604 0.476758 0.054058
O O12 0.080192 0.370051 0.335605
O O13 0.034848 0.411192 0.996228
O O14 0.907824 0.750000 0.567295
O O15 0.779065 0.836488 0.222689
O O16 0.830415 0.921828 0.093767
#
# Coordination Sequence:
#
# PCOD9165933 Si02
#       7
#     4   4   4   4   4   4   4
#     4   9  21  43  68  94 135 179 223 278 335 397
#     4  10  22  43  70 102 131 173 225 273 333 398
#     4  12  26  43  67 102 135 180 225 276 339 397
#     4  10  22  44  68  94 136 178 220 273 331 398
#     4  10  21  41  69  99 130 177 225 270 332 401
#     4  11  25  45  65 100 136 172 226 273 333 395
#     4  12  25  41  69 100 135 174 217 284 325 394
#
# _framework density 20.246919999999999
#
# number of rings (size 3 to 8) (size 9 to 14) (size 15 to 20)
#    0.000    1.429    2.857    2.571    4.000    6.286 
#    0.000    4.286    0.000    0.000    0.000    0.000 
#    0.000    0.000    0.000    0.000    0.000    0.000 
#
# Total GULP energy -156540.451705 kJ/mol
# GULP energy per Si atom -5590.730418 kJ/mol
# Density = 2.020084 g / cm^3
# Si number density = 20.246920 Si / 1000 Ang^3
#
#
#
# Elastic Constant Matrix: (Units=GPa)
#
#
# Indices 1 2 3 4 5 6 
#
# 1 83.9759 63.0867 31.5819 0.0000 1.8593 0.0000
# 2 63.0867 114.4217 34.7355 0.0000 -6.3992 0.0000
# 3 31.5819 34.7355 130.6477 0.0000 -12.5424 0.0000
# 4 0.0000 0.0000 0.0000 27.9903 0.0000 -9.2452
# 5 1.8593 -6.3992 -12.5424 0.0000 22.0835 0.0000
# 6 0.0000 0.0000 0.0000 -9.2452 0.0000 29.8885
#
#
#
# Elastic Compliance Matrix: (Units=1/GPa)
#
#
# Indices 1 2 3 4 5 6 
#
# 1 0.021794 -0.011530 -0.002856 0.000000 -0.006798 0.000000
# 2 -0.011530 0.015647 -0.000893 0.000000 0.004997 0.000000
# 3 -0.002856 -0.000893 0.009075 0.000000 0.005136 0.000000
# 4 0.000000 0.000000 0.000000 0.039792 0.000000 0.012309
# 5 -0.006798 0.004997 0.005136 0.000000 0.050220 0.000000
# 6 0.000000 0.000000 0.000000 0.012309 0.000000 0.037265
#
#
# Mechanical properties :
#
#
# Convention : Reuss Voigt Hill
#
# Bulk Modulus (GPa) = 62.65882 65.31705 63.98793
# Shear Modulus (GPa) = 23.84698 29.30187 26.57443
#
# Velocity S-wave (km/s) = 3.43564 3.80837 3.62680
# Velocity P-wave (km/s) = 6.83760 7.18808 7.01503
#
# Compressibility (1/GPa) = 0.01595944
#
# Stress axis : x y z
#
# Youngs Moduli (GPa) = 45.88381 63.90957 110.19286
#
# Poissons Ratio (x) = 0.73685 0.31467
# Poissons Ratio (y) = 0.52902 0.09843
# Poissons Ratio (z) = 0.13103 0.05709
#
# Static dielectric constant tensor:
#      x y z
#    x 1.711160 0.000000 -0.009100 
#    y 0.000000 1.688950 0.000000 
#    z -0.009100 0.000000 1.737240 
# 
# From -- ./inp_files/23240.got.cif
#   From: 2010.05.17/outbox.cif.g08.bks.cpg/sg11_12_cif.got.tgz:23240.got - 2010.06.03 12:22:45.
