data_PCOD9165110
_publ_section_title
;
Structure prediction by ZEFSAII (Michael W. Deem and Ramdas Pophale) SiO2 
 PCOD9165110
Probable space group: P 21/M
;
_chemical_formula_sum "Si O2"
_cell_formula_units_Z 28
_cell_length_a 5.437943
_cell_length_b 9.145859
_cell_length_c 28.446095
_cell_angle_alpha 90.000000
_cell_angle_beta 69.399643
_cell_angle_gamma 90.000000
_cell_volume 1324.293549
_symmetry_space_group_name_H-M "P 21/M"
_symmetry_group_IT_number 11
_symmetry_cell_setting 'monoclinic'
loop_
_space_group_symop_operation_xyz
x,y,z
-x,1/2+y,-z
-x,-y,-z
x,1/2-y,z
loop_
_atom_site_type_symbol
_atom_site_label
_atom_site_fract_x
_atom_site_fract_y
_atom_site_fract_z
Si Si1 0.513319 0.409485 0.278212
Si Si2 0.118713 0.587044 0.351685
Si Si3 0.853246 0.918047 0.551198
Si Si4 0.468617 0.078010 0.871566
Si Si5 0.708398 0.426926 0.022545
Si Si6 0.323317 0.907121 0.625607
Si Si7 0.079304 0.420511 0.808693
O O1 0.451586 0.250000 0.262023
O O2 0.270635 0.520038 0.296636
O O3 0.552249 0.393011 0.331323
O O4 0.769977 0.476426 0.237747
O O5 0.206081 0.750000 0.353691
O O6 0.111502 0.499751 0.401587
O O7 0.817086 0.561591 0.359993
O O8 0.940339 0.750000 0.547051
O O9 0.536080 0.914210 0.570025
O O10 0.000000 0.000000 0.500000
O O11 0.462533 0.250000 0.887086
O O12 0.250181 0.062705 0.845301
O O13 0.769265 0.048250 0.835259
O O14 0.397378 0.971792 0.918982
O O15 0.722183 0.250000 0.015121
O O16 0.500000 0.500000 0.000000
O O17 0.000000 0.500000 0.000000
O O18 0.172671 0.750000 0.630674
O O19 0.102762 0.250000 0.793075
#
# Coordination Sequence:
#
# PCOD9165110 Si02
#       7
#     4   4   4   4   4   4   4
#     4  10  22  39  59  83 115 155 199 250 303 362
#     4  11  22  36  58  84 111 146 191 242 296 362
#     4  10  21  38  58  81 112 146 185 235 292 356
#     4  10  22  41  63  93 134 174 218 273 328 389
#     4  12  25  43  70 102 137 181 230 282 339 403
#     4   9  20  38  57  80 110 147 190 240 294 355
#     4  10  22  39  61  91 128 171 215 265 326 385
#
# _framework density 21.143346000000001
#
# number of rings (size 3 to 8) (size 9 to 14) (size 15 to 20)
#    0.000    1.714    0.000    5.143    2.000    6.286 
#    0.000    0.000    0.000    0.000    0.000    0.000 
#    0.000    0.000    0.000    0.000    0.000    0.000 
#
# Total GULP energy -155950.098571 kJ/mol
# GULP energy per Si atom -5569.646378 kJ/mol
# Density = 2.109522 g / cm^3
# Si number density = 21.143346 Si / 1000 Ang^3
#
#
#
# Elastic Constant Matrix: (Units=GPa)
#
#
# Indices 1 2 3 4 5 6 
#
# 1 65.6684 20.7187 9.7081 0.0000 -16.2854 0.0000
# 2 20.7187 116.8859 42.5125 0.0000 -21.2105 0.0000
# 3 9.7081 42.5125 79.7697 0.0000 -26.3104 0.0000
# 4 0.0000 0.0000 0.0000 14.0899 0.0000 -5.1284
# 5 -16.2854 -21.2105 -26.3104 0.0000 25.5437 0.0000
# 6 0.0000 0.0000 0.0000 -5.1284 0.0000 20.6214
#
#
#
# Elastic Compliance Matrix: (Units=1/GPa)
#
#
# Indices 1 2 3 4 5 6 
#
# 1 0.018780 -0.002053 0.003325 0.000000 0.013693 0.000000
# 2 -0.002053 0.011194 -0.004667 0.000000 0.003178 0.000000
# 3 0.003325 -0.004667 0.021264 0.000000 0.020146 0.000000
# 4 0.000000 0.000000 0.000000 0.078037 0.000000 0.019407
# 5 0.013693 0.003178 0.020146 0.000000 0.071269 0.000000
# 6 0.000000 0.000000 0.000000 0.019407 0.000000 0.053320
#
#
# Mechanical properties :
#
#
# Convention : Reuss Voigt Hill
#
# Bulk Modulus (GPa) = 22.49910 45.35584 33.92747
# Shear Modulus (GPa) = 18.15083 24.67664 21.41374
#
# Velocity S-wave (km/s) = 2.93314 3.42001 3.18589
# Velocity P-wave (km/s) = 4.70482 6.09044 5.44191
#
# Compressibility (1/GPa) = 0.04444623
#
# Stress axis : x y z
#
# Youngs Moduli (GPa) = 53.24762 89.33655 47.02843
#
# Poissons Ratio (x) = 0.18345 -0.15638
# Poissons Ratio (y) = 0.10934 0.21950
# Poissons Ratio (z) = -0.17706 0.41697
#
# Static dielectric constant tensor:
#      x y z
#    x 1.972940 0.000000 -0.013200 
#    y 0.000000 1.775690 0.000000 
#    z -0.013200 0.000000 1.716790 
# 
# From -- ./inp_files/9698.got.cif
#   From: 2010.05.17/outbox.cif.g08.bks.cpg/sg11_5_cif.got.tgz:9698.got - 2010.06.03 12:22:45.
