data_PCOD9165034
_publ_section_title
;
Structure prediction by ZEFSAII (Michael W. Deem and Ramdas Pophale) SiO2 
 PCOD9165034
Probable space group: P 21/M
;
_chemical_formula_sum "Si O2"
_cell_formula_units_Z 28
_cell_length_a 16.046674
_cell_length_b 8.862009
_cell_length_c 12.076235
_cell_angle_alpha 90.000000
_cell_angle_beta 121.997536
_cell_angle_gamma 90.000000
_cell_volume 1456.400856
_symmetry_space_group_name_H-M "P 21/M"
_symmetry_group_IT_number 11
_symmetry_cell_setting 'monoclinic'
loop_
_space_group_symop_operation_xyz
x,y,z
-x,1/2+y,-z
-x,-y,-z
x,1/2-y,z
loop_
_atom_site_type_symbol
_atom_site_label
_atom_site_fract_x
_atom_site_fract_y
_atom_site_fract_z
Si Si1 0.072849 0.929013 0.462267
Si Si2 0.608843 0.067760 0.087434
Si Si3 0.158732 0.070560 0.099596
Si Si4 0.025475 0.571451 0.178476
Si Si5 0.710326 0.568015 0.376996
Si Si6 0.533792 0.568271 0.406714
Si Si7 0.348526 0.569321 0.129354
O O1 0.083928 0.750000 0.489307
O O2 0.025246 0.952080 0.308302
O O3 0.179944 0.004806 0.537118
O O4 0.000000 0.000000 0.500000
O O5 0.605101 0.250000 0.094002
O O6 0.662248 0.997351 0.230928
O O7 0.659301 0.027634 0.005372
O O8 0.500000 0.000000 0.000000
O O9 0.166295 0.250000 0.104290
O O10 0.115555 0.014346 0.185141
O O11 0.261733 0.000710 0.139352
O O12 0.075446 0.022985 0.951604
O O13 0.037653 0.750000 0.164973
O O14 0.711190 0.750000 0.371928
O O15 0.639894 0.523912 0.431184
O O16 0.500000 0.500000 0.500000
O O17 0.533581 0.750000 0.417458
O O18 0.452891 0.525767 0.256670
O O19 0.342574 0.750000 0.131173
#
# Coordination Sequence:
#
# PCOD9165034 Si02
#       7
#     4   4   4   4   4   4   4
#     4  11  25  44  65  92 124 165 212 259 314 373
#     4  11  22  40  64  91 122 161 205 251 305 364
#     4  10  21  37  62  93 119 154 201 251 306 363
#     4   9  21  42  62  85 121 159 200 252 308 365
#     4  11  24  44  65  91 127 165 208 263 315 369
#     4  10  23  42  62  89 127 166 206 252 306 366
#     4  10  22  40  60  88 124 160 197 247 306 363
#
# _framework density 19.225476
#
# number of rings (size 3 to 8) (size 9 to 14) (size 15 to 20)
#    0.000    1.714    1.429    1.714    4.000    4.571 
#    0.000    0.000    0.000    0.000    0.000    0.000 
#    0.000    0.000    0.000    0.000    0.000    0.000 
#
# Total GULP energy -156431.121781 kJ/mol
# GULP energy per Si atom -5586.825778 kJ/mol
# Density = 1.918172 g / cm^3
# Si number density = 19.225476 Si / 1000 Ang^3
#
#
#
# Elastic Constant Matrix: (Units=GPa)
#
#
# Indices 1 2 3 4 5 6 
#
# 1 153.6103 47.3900 35.4872 0.0000 -4.0115 0.0000
# 2 47.3900 43.5907 34.0790 0.0000 -10.6389 0.0000
# 3 35.4872 34.0790 57.8403 0.0000 -13.8501 0.0000
# 4 0.0000 0.0000 0.0000 32.9268 0.0000 0.1723
# 5 -4.0115 -10.6389 -13.8501 0.0000 27.6070 0.0000
# 6 0.0000 0.0000 0.0000 0.1723 0.0000 36.2695
#
#
#
# Elastic Compliance Matrix: (Units=1/GPa)
#
#
# Indices 1 2 3 4 5 6 
#
# 1 0.010019 -0.011605 -0.000036 0.000000 -0.003035 0.000000
# 2 -0.011605 0.056436 -0.024239 0.000000 0.007902 0.000000
# 3 -0.000036 -0.024239 0.033363 0.000000 0.007391 0.000000
# 4 0.000000 0.000000 0.000000 0.030371 0.000000 -0.000144
# 5 -0.003035 0.007902 0.007391 0.000000 0.042535 0.000000
# 6 0.000000 0.000000 0.000000 -0.000144 0.000000 0.027572
#
#
# Mechanical properties :
#
#
# Convention : Reuss Voigt Hill
#
# Bulk Modulus (GPa) = 35.64205 54.32819 44.98512
# Shear Modulus (GPa) = 17.76769 28.56633 23.16701
#
# Velocity S-wave (km/s) = 3.04332 3.85886 3.47510
# Velocity P-wave (km/s) = 5.56132 6.94077 6.28898
#
# Compressibility (1/GPa) = 0.02805675
#
# Stress axis : x y z
#
# Youngs Moduli (GPa) = 99.80747 17.71928 29.97335
#
# Poissons Ratio (x) = 0.20563 0.00109
# Poissons Ratio (y) = 1.15823 0.72654
# Poissons Ratio (z) = 0.00364 0.42951
#
# Static dielectric constant tensor:
#      x y z
#    x 1.647060 0.000000 -0.001530 
#    y 0.000000 1.646910 0.000000 
#    z -0.001530 0.000000 1.668380 
# 
# From -- ./inp_files/38407.got.cif
#   From: 2010.05.17/outbox.cif.g08.bks.cpg/sg11_20_cif.got.tgz:38407.got - 2010.06.03 12:22:45.
