data_PCOD9165721
_publ_section_title
;
Structure prediction by ZEFSAII (Michael W. Deem and Ramdas Pophale) SiO2 
 PCOD9165721
Probable space group: P 21/M
;
_chemical_formula_sum "Si O2"
_cell_formula_units_Z 24
_cell_length_a 19.511593
_cell_length_b 8.344166
_cell_length_c 23.878963
_cell_angle_alpha 90.000000
_cell_angle_beta 17.631816
_cell_angle_gamma 90.000000
_cell_volume 1177.576619
_symmetry_space_group_name_H-M "P 21/M"
_symmetry_group_IT_number 11
_symmetry_cell_setting 'monoclinic'
loop_
_space_group_symop_operation_xyz
x,y,z
-x,1/2+y,-z
-x,-y,-z
x,1/2-y,z
loop_
_atom_site_type_symbol
_atom_site_label
_atom_site_fract_x
_atom_site_fract_y
_atom_site_fract_z
Si Si1 0.960494 0.433906 0.695771
Si Si2 0.410829 0.432357 0.942491
Si Si3 0.311443 0.941844 0.498655
Si Si4 0.920010 0.556063 0.892018
Si Si5 0.179307 0.940671 0.906011
Si Si6 0.832385 0.936747 0.677134
O O1 0.910843 0.250000 0.750233
O O2 0.889993 0.461795 0.687131
O O3 0.212677 0.475521 0.519293
O O4 0.811756 0.560233 0.846069
O O5 0.495468 0.250000 0.870569
O O6 0.589123 0.533907 0.838681
O O7 0.309715 0.493262 0.962543
O O8 0.297019 0.750000 0.504775
O O9 0.142268 0.991510 0.681977
O O10 0.572193 0.989620 0.301454
O O11 0.918500 0.750000 0.893975
O O12 0.904369 0.493531 0.967045
O O13 0.193969 0.750000 0.893076
O O14 0.000000 0.000000 0.000000
O O15 0.862944 0.750000 0.666126
O O16 0.000000 0.000000 0.500000
#
# Coordination Sequence:
#
# PCOD9165721 Si02
#       6
#     4   4   4   4   4   4
#     4  11  22  39  62  89 121 161 209 256 308 369
#     4  10  21  40  63  88 120 162 207 255 311 369
#     4  10  22  43  69  96 129 168 212 262 319 379
#     4   9  21  42  68  95 127 167 211 260 318 378
#     4  12  26  43  67  97 131 168 209 258 317 383
#     4  12  25  39  56  84 122 163 209 260 311 366
#
# _framework density 20.380839999999999
#
# number of rings (size 3 to 8) (size 9 to 14) (size 15 to 20)
#    0.000    1.333    0.000    7.000    2.333    4.667 
#    0.000    0.000    0.000    0.000    0.000    0.000 
#    0.000    0.000    0.000    0.000    0.000    0.000 
#
# Total GULP energy -134002.296890 kJ/mol
# GULP energy per Si atom -5583.429037 kJ/mol
# Density = 2.033445 g / cm^3
# Si number density = 20.380840 Si / 1000 Ang^3
#
#
#
# Elastic Constant Matrix: (Units=GPa)
#
#
# Indices 1 2 3 4 5 6 
#
# 1 159.5268 27.1487 53.5763 0.0000 -14.8466 0.0000
# 2 27.1487 92.9023 24.1391 0.0000 -7.7962 0.0000
# 3 53.5763 24.1391 111.0413 0.0000 -24.0684 0.0000
# 4 0.0000 0.0000 0.0000 34.9264 0.0000 -3.0546
# 5 -14.8466 -7.7962 -24.0684 0.0000 31.8793 0.0000
# 6 0.0000 0.0000 0.0000 -3.0546 0.0000 33.6202
#
#
#
# Elastic Compliance Matrix: (Units=1/GPa)
#
#
# Indices 1 2 3 4 5 6 
#
# 1 0.007654 -0.001330 -0.003230 0.000000 0.000800 0.000000
# 2 -0.001330 0.011672 -0.001687 0.000000 0.000961 0.000000
# 3 -0.003230 -0.001687 0.012573 0.000000 0.007575 0.000000
# 4 0.000000 0.000000 0.000000 0.028861 0.000000 0.002622
# 5 0.000800 0.000961 0.007575 0.000000 0.037696 0.000000
# 6 0.000000 0.000000 0.000000 0.002622 0.000000 0.029982
#
#
# Mechanical properties :
#
#
# Convention : Reuss Voigt Hill
#
# Bulk Modulus (GPa) = 51.53729 63.68874 57.61302
# Shear Modulus (GPa) = 33.92094 37.32558 35.62326
#
# Velocity S-wave (km/s) = 4.08408 4.28413 4.18530
# Velocity P-wave (km/s) = 6.89794 7.46920 7.18925
#
# Compressibility (1/GPa) = 0.01940343
#
# Stress axis : x y z
#
# Youngs Moduli (GPa) = 130.64452 85.67682 79.53503
#
# Poissons Ratio (x) = 0.11397 0.25694
# Poissons Ratio (y) = 0.17379 0.13419
# Poissons Ratio (z) = 0.42204 0.14455
#
# Static dielectric constant tensor:
#      x y z
#    x 1.886600 0.000000 -0.177020 
#    y 0.000000 1.685040 0.000000 
#    z -0.177020 0.000000 1.899890 
# 
# From -- ./inp_files/69495.got.cif
#   From: 2010.05.17/outbox.cif.g08.bks.cpg/sg11_35_cif.got.tgz:69495.got - 2010.06.03 12:22:45.
