data_PCOD9165905
_publ_section_title
;
Structure prediction by ZEFSAII (Michael W. Deem and Ramdas Pophale) SiO2 
 PCOD9165905
Probable space group: P 21/M
;
_chemical_formula_sum "Si O2"
_cell_formula_units_Z 28
_cell_length_a 11.349809
_cell_length_b 18.969495
_cell_length_c 5.639295
_cell_angle_alpha 90.000000
_cell_angle_beta 97.482642
_cell_angle_gamma 90.000000
_cell_volume 1203.801843
_symmetry_space_group_name_H-M "P 21/M"
_symmetry_group_IT_number 11
_symmetry_cell_setting 'monoclinic'
loop_
_space_group_symop_operation_xyz
x,y,z
-x,1/2+y,-z
-x,-y,-z
x,1/2-y,z
loop_
_atom_site_type_symbol
_atom_site_label
_atom_site_fract_x
_atom_site_fract_y
_atom_site_fract_z
Si Si1 0.798018 0.633537 0.552169
Si Si2 0.609087 0.429877 0.603438
Si Si3 0.066850 0.855865 0.667315
Si Si4 0.431697 0.169207 0.759563
Si Si5 0.212008 0.511377 0.703541
Si Si6 0.804860 0.173343 0.805214
Si Si7 0.640770 0.929563 0.876884
O O1 0.928477 0.662659 0.618976
O O2 0.708694 0.667533 0.339312
O O3 0.813879 0.551601 0.485046
O O4 0.718104 0.629120 0.763583
O O5 0.503086 0.373121 0.573395
O O6 0.679148 0.443861 0.378222
O O7 0.709169 0.388940 0.784917
O O8 0.582723 0.506993 0.708863
O O9 0.099268 0.938775 0.699623
O O10 0.122395 0.834772 0.424539
O O11 0.121826 0.827963 0.929485
O O12 0.467454 0.250000 0.804295
O O13 0.447259 0.114360 0.979707
O O14 0.262255 0.472069 0.943661
O O15 0.745533 0.250000 0.775135
#
# Coordination Sequence:
#
# PCOD9165905 Si02
#       7
#     4   4   4   4   4   4   4
#     4  10  24  40  62  94 132 175 219 272 336 413
#     4  10  21  42  67  95 130 169 229 290 343 396
#     4  11  23  42  67  99 138 178 227 279 343 411
#     4  11  25  42  62  92 135 181 223 273 341 419
#     4   9  20  39  66  99 124 167 215 288 342 396
#     4  11  24  42  67  99 134 181 233 289 346 399
#     4  10  21  41  66  99 126 169 226 282 339 398
#
# _framework density 23.259640999999998
#
# number of rings (size 3 to 8) (size 9 to 14) (size 15 to 20)
#    0.000    1.714    1.429    1.714    4.000    8.571 
#    0.000    0.000    0.000    0.000    0.000    0.000 
#    0.000    0.000    0.000    0.000    0.000    0.000 
#
# Total GULP energy -156278.388846 kJ/mol
# GULP energy per Si atom -5581.371030 kJ/mol
# Density = 2.320670 g / cm^3
# Si number density = 23.259641 Si / 1000 Ang^3
#
#
#
# Elastic Constant Matrix: (Units=GPa)
#
#
# Indices 1 2 3 4 5 6 
#
# 1 120.5689 28.4619 30.6725 0.0000 13.2147 0.0000
# 2 28.4619 116.3317 17.7594 0.0000 -8.3658 0.0000
# 3 30.6725 17.7594 99.8689 0.0000 3.8471 0.0000
# 4 0.0000 0.0000 0.0000 117.3619 0.0000 -48.8869
# 5 13.2147 -8.3658 3.8471 0.0000 22.8825 0.0000
# 6 0.0000 0.0000 0.0000 -48.8869 0.0000 22.2929
#
#
#
# Elastic Compliance Matrix: (Units=1/GPa)
#
#
# Indices 1 2 3 4 5 6 
#
# 1 0.010233 -0.002596 -0.002433 0.000000 -0.006449 0.000000
# 2 -0.002596 0.009785 -0.001146 0.000000 0.005269 0.000000
# 3 -0.002433 -0.001146 0.010997 0.000000 -0.000863 0.000000
# 4 0.000000 0.000000 0.000000 0.098461 0.000000 0.215917
# 5 -0.006449 0.005269 -0.000863 0.000000 0.049498 0.000000
# 6 0.000000 0.000000 0.000000 0.215917 0.000000 0.518348
#
#
# Mechanical properties :
#
#
# Convention : Reuss Voigt Hill
#
# Bulk Modulus (GPa) = 53.57266 54.50634 54.03950
# Shear Modulus (GPa) = 6.98429 49.83251 28.40840
#
# Velocity S-wave (km/s) = 1.73472 4.63368 3.49859
# Velocity P-wave (km/s) = 5.20527 7.21891 6.29315
#
# Compressibility (1/GPa) = 0.01866624
#
# Stress axis : x y z
#
# Youngs Moduli (GPa) = 97.72731 102.19646 90.93191
#
# Poissons Ratio (x) = 0.26530 0.22120
# Poissons Ratio (y) = 0.25369 0.10418
# Poissons Ratio (z) = 0.23773 0.11709
#
# Static dielectric constant tensor:
#      x y z
#    x 1.876360 0.000000 0.021960 
#    y 0.000000 1.858840 0.000000 
#    z 0.021960 0.000000 1.925280 
# 
# From -- ./inp_files/4898.got.cif
#   From: 2010.05.17/outbox.cif.g08.bks.cpg/sg11_3_cif.got.tgz:4898.got - 2010.06.03 12:22:45.
