data_PCOD9165513
_publ_section_title
;
Structure prediction by ZEFSAII (Michael W. Deem and Ramdas Pophale) SiO2 
 PCOD9165513
Probable space group: P 21/M
;
_chemical_formula_sum "Si O2"
_cell_formula_units_Z 30
_cell_length_a 24.832868
_cell_length_b 9.834966
_cell_length_c 5.447740
_cell_angle_alpha 90.000000
_cell_angle_beta 92.062182
_cell_angle_gamma 90.000000
_cell_volume 1329.642103
_symmetry_space_group_name_H-M "P 21/M"
_symmetry_group_IT_number 11
_symmetry_cell_setting 'monoclinic'
loop_
_space_group_symop_operation_xyz
x,y,z
-x,1/2+y,-z
-x,-y,-z
x,1/2-y,z
loop_
_atom_site_type_symbol
_atom_site_label
_atom_site_fract_x
_atom_site_fract_y
_atom_site_fract_z
Si Si1 0.455412 0.482815 0.206223
Si Si2 0.365139 0.398287 0.821111
Si Si3 0.486402 0.750000 0.466043
Si Si4 0.313596 0.901665 0.495671
Si Si5 0.879410 0.910128 0.496263
Si Si6 0.053024 0.409241 0.994784
Si Si7 0.742094 0.902556 0.901745
Si Si8 0.797037 0.403043 0.239282
O O1 0.402075 0.433276 0.057755
O O2 0.451717 0.629965 0.323553
O O3 0.477076 0.369080 0.393134
O O4 0.500000 0.500000 0.000000
O O5 0.382381 0.250000 0.724987
O O6 0.303413 0.385031 0.896471
O O7 0.363570 0.523445 0.633890
O O8 0.325079 0.750000 0.401841
O O9 0.264043 0.885566 0.677428
O O10 0.289088 0.006757 0.299197
O O11 0.862632 0.750000 0.486722
O O12 0.916431 0.932156 0.259195
O O13 0.831316 0.017024 0.448372
O O14 0.910562 0.934026 0.756665
O O15 0.038293 0.250000 0.999383
O O16 0.000000 0.500000 0.000000
O O17 0.757169 0.750000 0.822288
O O18 0.791353 0.990806 0.014323
O O19 0.817457 0.250000 0.187178
#
# Coordination Sequence:
#
# PCOD9165513 Si02
#       8
#     4   4   2   4   4   4   4   4
#     4  11  23  44  64  88 124 156 199 254 306 370
#     4  10  22  41  60  85 117 152 200 246 296 374
#     4  10  24  40  62  92 116 158 200 246 308 364
#     4  10  22  39  60  90 121 158 197 249 314 370
#     4  10  22  39  61  94 128 171 219 269 324 385
#     4  10  22  40  62  91 129 170 220 273 325 382
#     4  10  21  39  62  87 118 158 198 251 305 373
#     4  10  22  39  60  88 126 159 207 261 311 375
#
# _framework density 22.562460999999999
#
# number of rings (size 3 to 8) (size 9 to 14) (size 15 to 20)
#    0.000    1.867    0.667    2.000    2.800    5.333 
#    2.400    0.000    0.000    0.000    0.000    0.000 
#    0.000    0.000    0.000    0.000    0.000    0.000 
#
# Total GULP energy -167094.778354 kJ/mol
# GULP energy per Si atom -5569.825945 kJ/mol
# Density = 2.251111 g / cm^3
# Si number density = 22.562461 Si / 1000 Ang^3
#
#
#
# Elastic Constant Matrix: (Units=GPa)
#
#
# Indices 1 2 3 4 5 6 
#
# 1 77.6378 41.3540 28.0922 0.0000 3.5819 0.0000
# 2 41.3540 223.0118 56.0565 0.0000 16.3600 0.0000
# 3 28.0922 56.0565 87.8598 0.0000 8.5327 0.0000
# 4 0.0000 0.0000 0.0000 25.0415 0.0000 10.4592
# 5 3.5819 16.3600 8.5327 0.0000 31.9433 0.0000
# 6 0.0000 0.0000 0.0000 10.4592 0.0000 26.3279
#
#
#
# Elastic Compliance Matrix: (Units=1/GPa)
#
#
# Indices 1 2 3 4 5 6 
#
# 1 0.015217 -0.001919 -0.003666 0.000000 0.000256 0.000000
# 2 -0.001919 0.005694 -0.002830 0.000000 -0.001945 0.000000
# 3 -0.003666 -0.002830 0.014557 0.000000 -0.002028 0.000000
# 4 0.000000 0.000000 0.000000 0.047878 0.000000 -0.019020
# 5 0.000256 -0.001945 -0.002028 0.000000 0.032815 0.000000
# 6 0.000000 0.000000 0.000000 -0.019020 0.000000 0.045539
#
#
# Mechanical properties :
#
#
# Convention : Reuss Voigt Hill
#
# Bulk Modulus (GPa) = 53.65657 71.05720 62.35688
# Shear Modulus (GPa) = 27.06469 34.19632 30.63051
#
# Velocity S-wave (km/s) = 3.46720 3.89733 3.68854
# Velocity P-wave (km/s) = 6.31361 7.19821 6.77037
#
# Compressibility (1/GPa) = 0.01863705
#
# Stress axis : x y z
#
# Youngs Moduli (GPa) = 65.71510 175.62101 68.69668
#
# Poissons Ratio (x) = 0.33703 0.25184
# Poissons Ratio (y) = 0.12611 0.19444
# Poissons Ratio (z) = 0.24091 0.49709
#
# Static dielectric constant tensor:
#      x y z
#    x 1.927880 0.000000 -0.050730 
#    y 0.000000 1.882410 0.000000 
#    z -0.050730 0.000000 1.872170 
# 
# From -- ./inp_files/9696.got.cif
#   From: 2010.05.17/outbox.cif.g08.bks.cpg/sg11_5_cif.got.tgz:9696.got - 2010.06.03 12:22:45.
