data_PCOD9165532
_publ_section_title
;
Structure prediction by ZEFSAII (Michael W. Deem and Ramdas Pophale) SiO2 
 PCOD9165532
Probable space group: P 21/M
;
_chemical_formula_sum "Si O2"
_cell_formula_units_Z 28
_cell_length_a 14.846546
_cell_length_b 9.152216
_cell_length_c 11.215736
_cell_angle_alpha 90.000000
_cell_angle_beta 113.726142
_cell_angle_gamma 90.000000
_cell_volume 1395.172487
_symmetry_space_group_name_H-M "P 21/M"
_symmetry_group_IT_number 11
_symmetry_cell_setting 'monoclinic'
loop_
_space_group_symop_operation_xyz
x,y,z
-x,1/2+y,-z
-x,-y,-z
x,1/2-y,z
loop_
_atom_site_type_symbol
_atom_site_label
_atom_site_fract_x
_atom_site_fract_y
_atom_site_fract_z
Si Si1 0.836159 0.415444 0.109248
Si Si2 0.763874 0.581346 0.294749
Si Si3 0.770784 0.080291 0.822912
Si Si4 0.449429 0.574549 0.358263
Si Si5 0.061506 0.418714 0.215291
Si Si6 0.912955 0.077890 0.526329
Si Si7 0.469807 0.422213 0.859847
O O1 0.828345 0.250000 0.155190
O O2 0.815656 0.530755 0.200403
O O3 0.947093 0.429139 0.118246
O O4 0.760674 0.429402 0.960434
O O5 0.786393 0.750000 0.333090
O O6 0.810031 0.480417 0.420718
O O7 0.647797 0.564430 0.216846
O O8 0.798602 0.250000 0.812746
O O9 0.668043 0.048745 0.704258
O O10 0.856687 0.970541 0.832997
O O11 0.500000 0.500000 0.500000
O O12 0.466249 0.750000 0.373756
O O13 0.486350 0.526509 0.245224
O O14 0.078122 0.250000 0.258653
O O15 0.075430 0.525399 0.333521
O O16 0.921043 0.250000 0.517543
O O17 0.000000 0.000000 0.500000
O O18 0.495436 0.250000 0.884684
O O19 0.500000 0.500000 0.000000
#
# Coordination Sequence:
#
# PCOD9165532 Si02
#       7
#     4   4   4   4   4   4   4
#     4  10  21  39  62  89 124 164 202 248 309 372
#     4  11  23  38  62  94 126 161 206 257 309 368
#     4  10  22  40  62  88 120 161 209 254 307 371
#     4  10  23  43  64  90 125 165 212 266 321 378
#     4  11  23  38  60  90 123 162 205 249 307 369
#     4  12  24  40  61  88 124 164 205 252 307 367
#     4  10  23  43  67  96 128 164 212 268 322 379
#
# _framework density 20.069203000000002
#
# number of rings (size 3 to 8) (size 9 to 14) (size 15 to 20)
#    0.000    1.429    1.429    3.429    2.000    4.571 
#    0.000    0.000    0.000    0.000    0.000    0.000 
#    0.000    0.000    0.000    0.000    0.000    0.000 
#
# Total GULP energy -156387.004850 kJ/mol
# GULP energy per Si atom -5585.250173 kJ/mol
# Density = 2.002353 g / cm^3
# Si number density = 20.069203 Si / 1000 Ang^3
#
#
#
# Elastic Constant Matrix: (Units=GPa)
#
#
# Indices 1 2 3 4 5 6 
#
# 1 51.2631 28.2980 11.6064 0.0000 -3.4406 0.0000
# 2 28.2980 106.1793 48.2116 0.0000 8.3211 0.0000
# 3 11.6064 48.2116 114.7141 0.0000 10.1521 0.0000
# 4 0.0000 0.0000 0.0000 35.9746 0.0000 2.6316
# 5 -3.4406 8.3211 10.1521 0.0000 28.5821 0.0000
# 6 0.0000 0.0000 0.0000 2.6316 0.0000 21.5327
#
#
#
# Elastic Compliance Matrix: (Units=1/GPa)
#
#
# Indices 1 2 3 4 5 6 
#
# 1 0.023488 -0.006627 -0.000013 0.000000 0.004761 0.000000
# 2 -0.006627 0.013590 -0.004770 0.000000 -0.003060 0.000000
# 3 -0.000013 -0.004770 0.010945 0.000000 -0.002500 0.000000
# 4 0.000000 0.000000 0.000000 0.028048 0.000000 -0.003428
# 5 0.004761 -0.003060 -0.002500 0.000000 0.037339 0.000000
# 6 0.000000 0.000000 0.000000 -0.003428 0.000000 0.046860
#
#
# Mechanical properties :
#
#
# Convention : Reuss Voigt Hill
#
# Bulk Modulus (GPa) = 39.67845 49.82097 44.74971
# Shear Modulus (GPa) = 26.11095 29.48725 27.79910
#
# Velocity S-wave (km/s) = 3.61091 3.83728 3.72581
# Velocity P-wave (km/s) = 6.09907 6.67169 6.39179
#
# Compressibility (1/GPa) = 0.02520260
#
# Stress axis : x y z
#
# Youngs Moduli (GPa) = 42.57504 73.58323 91.36857
#
# Poissons Ratio (x) = 0.48766 0.00114
# Poissons Ratio (y) = 0.28216 0.43585
# Poissons Ratio (z) = 0.00053 0.35101
#
# Static dielectric constant tensor:
#      x y z
#    x 1.760130 0.000000 -0.020980 
#    y 0.000000 1.686010 0.000000 
#    z -0.020980 0.000000 1.719170 
# 
# From -- ./inp_files/37661.got.cif
#   From: 2010.05.17/outbox.cif.g08.bks.cpg/sg11_19_cif.got.tgz:37661.got - 2010.06.03 12:22:45.
