data_PCOD9165675
_publ_section_title
;
Structure prediction by ZEFSAII (Michael W. Deem and Ramdas Pophale) SiO2 
 PCOD9165675
Probable space group: P 21/M
;
_chemical_formula_sum "Si O2"
_cell_formula_units_Z 24
_cell_length_a 19.928171
_cell_length_b 11.284299
_cell_length_c 4.897402
_cell_angle_alpha 90.000000
_cell_angle_beta 121.906150
_cell_angle_gamma 90.000000
_cell_volume 934.914657
_symmetry_space_group_name_H-M "P 21/M"
_symmetry_group_IT_number 11
_symmetry_cell_setting 'monoclinic'
loop_
_space_group_symop_operation_xyz
x,y,z
-x,1/2+y,-z
-x,-y,-z
x,1/2-y,z
loop_
_atom_site_type_symbol
_atom_site_label
_atom_site_fract_x
_atom_site_fract_y
_atom_site_fract_z
Si Si1 0.425751 0.502347 0.040816
Si Si2 0.726022 0.250000 0.549947
Si Si3 0.618677 0.250000 0.813585
Si Si4 0.273970 0.250000 0.287308
Si Si5 0.381106 0.250000 0.028666
Si Si6 0.754593 0.505336 0.542473
Si Si7 0.893818 0.504973 0.456936
Si Si8 0.953679 0.377450 0.086018
O O1 0.423039 0.625587 0.202074
O O2 0.424346 0.373673 0.184771
O O3 0.339733 0.500389 0.711090
O O4 0.500000 0.500000 0.000000
O O5 0.698190 0.250000 0.173961
O O6 0.769216 0.374231 0.696994
O O7 0.646776 0.250000 0.562892
O O8 0.352761 0.250000 0.651825
O O9 0.230982 0.372743 0.265465
O O10 0.302102 0.250000 0.038301
O O11 0.805118 0.515056 0.373681
O O12 0.912777 0.476415 0.186335
O O13 0.952241 0.610166 0.671389
O O14 0.930263 0.399828 0.723994
O O15 0.927783 0.250000 0.123781
#
# Coordination Sequence:
#
# PCOD9165675 Si02
#       8
#     4   2   2   2   2   4   4   4
#     4  10  21  41  65  93 129 169 213 263 315 374
#     4  10  22  38  61  90 125 158 206 260 307 370
#     4  10  21  40  60  86 123 162 208 258 313 364
#     4  10  22  40  63  88 125 160 210 260 311 372
#     4  10  21  40  62  86 121 166 210 258 313 370
#     4  10  23  41  63  96 127 168 214 261 317 377
#     4  10  23  40  63  97 124 169 209 263 314 387
#     4  10  22  41  66  91 130 163 212 258 326 376
#
# _framework density 25.670793
#
# number of rings (size 3 to 8) (size 9 to 14) (size 15 to 20)
#    0.000    2.000    0.000    2.000    3.500    5.333 
#    0.000   20.000    0.000    0.000    0.000    0.000 
#    0.000    0.000    0.000    0.000    0.000    0.000 
#
# Total GULP energy -134183.752760 kJ/mol
# GULP energy per Si atom -5590.989698 kJ/mol
# Density = 2.561237 g / cm^3
# Si number density = 25.670793 Si / 1000 Ang^3
#
#
#
# Elastic Constant Matrix: (Units=GPa)
#
#
# Indices 1 2 3 4 5 6 
#
# 1 168.6675 55.6416 8.1615 0.0000 -2.5216 0.0000
# 2 55.6416 245.7488 14.1497 0.0000 -3.5881 0.0000
# 3 8.1615 14.1497 55.0315 0.0000 7.7414 0.0000
# 4 0.0000 0.0000 0.0000 -507.9402 0.0000 -102.4384
# 5 -2.5216 -3.5881 7.7414 0.0000 40.2011 0.0000
# 6 0.0000 0.0000 0.0000 -102.4384 0.0000 26.0479
#
#
#
# Elastic Compliance Matrix: (Units=1/GPa)
#
#
# Indices 1 2 3 4 5 6 
#
# 1 0.006432 -0.001413 -0.000647 0.000000 0.000402 0.000000
# 2 -0.001413 0.004454 -0.001006 0.000000 0.000503 0.000000
# 3 -0.000647 -0.001006 0.019061 0.000000 -0.003801 0.000000
# 4 0.000000 0.000000 0.000000 -0.001098 0.000000 -0.004318
# 5 0.000402 0.000503 -0.003801 0.000000 0.025677 0.000000
# 6 0.000000 0.000000 0.000000 -0.004318 0.000000 0.021410
#
#
# Mechanical properties :
#
#
# Convention : Reuss Voigt Hill
#
# Bulk Modulus (GPa) = 41.99210 69.48371 55.73791
# Shear Modulus (GPa) = 55.55037 -62.23856 -3.34410
#
# Velocity S-wave (km/s) = 4.65688 -4.92925 -1.14259
# Velocity P-wave (km/s) = 6.73118 2.29580 4.47426
#
# Compressibility (1/GPa) = 0.02381400
#
# Stress axis : x y z
#
# Youngs Moduli (GPa) = 155.46378 224.49344 52.46355
#
# Poissons Ratio (x) = 0.31727 0.03395
# Poissons Ratio (y) = 0.21971 0.05280
# Poissons Ratio (z) = 0.10060 0.22594
#
# Static dielectric constant tensor:
#      x y z
#    x 1.977180 0.000000 0.085540 
#    y 0.000000 2.043950 0.000000 
#    z 0.085540 0.000000 2.037760 
# 
# From -- ./inp_files/7741.got.cif
#   From: 2010.05.17/outbox.cif.g08.bks.cpg/sg11_4_cif.got.tgz:7741.got - 2010.06.03 12:22:45.
