data_PCOD9165653
_publ_section_title
;
Structure prediction by ZEFSAII (Michael W. Deem and Ramdas Pophale) SiO2 
 PCOD9165653
Probable space group: P 21/M
;
_chemical_formula_sum "Si O2"
_cell_formula_units_Z 24
_cell_length_a 5.573064
_cell_length_b 21.406482
_cell_length_c 12.099216
_cell_angle_alpha 90.000000
_cell_angle_beta 52.231020
_cell_angle_gamma 90.000000
_cell_volume 1141.014442
_symmetry_space_group_name_H-M "P 21/M"
_symmetry_group_IT_number 11
_symmetry_cell_setting 'monoclinic'
loop_
_space_group_symop_operation_xyz
x,y,z
-x,1/2+y,-z
-x,-y,-z
x,1/2-y,z
loop_
_atom_site_type_symbol
_atom_site_label
_atom_site_fract_x
_atom_site_fract_y
_atom_site_fract_z
Si Si1 0.724874 0.893914 0.175259
Si Si2 0.129521 0.401460 0.282936
Si Si3 0.744061 0.469915 0.846942
Si Si4 0.142086 0.318723 0.078856
Si Si5 0.568655 0.322127 0.538828
Si Si6 0.559021 0.682851 0.661739
O O1 0.458702 0.932800 0.186751
O O2 0.578126 0.853329 0.314100
O O3 0.000657 0.932826 0.154288
O O4 0.849238 0.849160 0.043440
O O5 0.090750 0.472681 0.262472
O O6 0.264110 0.365670 0.137316
O O7 0.369156 0.384479 0.308792
O O8 0.841546 0.365402 0.416297
O O9 0.500000 0.500000 0.000000
O O10 0.287448 0.250000 0.038724
O O11 0.797594 0.311888 0.216490
O O12 0.654939 0.250000 0.536596
O O13 0.354674 0.319059 0.491032
O O14 0.680893 0.750000 0.674370
#
# Coordination Sequence:
#
# PCOD9165653 Si02
#       6
#     4   4   4   4   4   4
#     4  12  27  46  68 102 137 182 224 283 349 399
#     4  11  22  40  70  95 135 180 231 277 340 406
#     4  12  27  46  72  98 142 183 232 284 332 408
#     4  10  21  39  66  97 128 172 232 286 340 403
#     4  10  24  44  67 100 140 176 223 287 348 409
#     4   9  19  38  65  95 129 172 224 282 342 402
#
# _framework density 21.033915
#
# number of rings (size 3 to 8) (size 9 to 14) (size 15 to 20)
#    0.000    1.333    1.667    4.500    7.000    1.333 
#    0.000    1.667    0.000    0.000    0.000    0.000 
#    0.000    0.000    0.000    0.000    0.000    0.000 
#
# Total GULP energy -133682.622561 kJ/mol
# GULP energy per Si atom -5570.109273 kJ/mol
# Density = 2.098604 g / cm^3
# Si number density = 21.033915 Si / 1000 Ang^3
#
#
#
# Elastic Constant Matrix: (Units=GPa)
#
#
# Indices 1 2 3 4 5 6 
#
# 1 78.0397 51.4390 37.0394 0.0000 14.4390 0.0000
# 2 51.4390 104.5043 63.5296 0.0000 17.7856 0.0000
# 3 37.0394 63.5296 154.4278 0.0000 26.7199 0.0000
# 4 0.0000 0.0000 0.0000 -688.8442 0.0000 359.4676
# 5 14.4390 17.7856 26.7199 0.0000 26.3245 0.0000
# 6 0.0000 0.0000 0.0000 359.4676 0.0000 -141.4816
#
#
#
# Elastic Compliance Matrix: (Units=1/GPa)
#
#
# Indices 1 2 3 4 5 6 
#
# 1 0.019493 -0.008613 -0.000351 0.000000 -0.004517 0.000000
# 2 -0.008613 0.016922 -0.004530 0.000000 -0.002110 0.000000
# 3 -0.000351 -0.004530 0.009535 0.000000 -0.006425 0.000000
# 4 0.000000 0.000000 0.000000 0.004455 0.000000 0.011319
# 5 -0.004517 -0.002110 -0.006425 0.000000 0.048412 0.000000
# 6 0.000000 0.000000 0.000000 0.011319 0.000000 0.021690
#
#
# Mechanical properties :
#
#
# Convention : Reuss Voigt Hill
#
# Bulk Modulus (GPa) = 52.73743 71.22086 61.97914
# Shear Modulus (GPa) = 32.50624 -148.46934 -57.98155
#
# Velocity S-wave (km/s) = 3.93545 -8.41064 -5.25600
# Velocity P-wave (km/s) = 6.76590 7.77078 2.70256
#
# Compressibility (1/GPa) = 0.01896187
#
# Stress axis : x y z
#
# Youngs Moduli (GPa) = 51.29945 59.09552 104.87592
#
# Poissons Ratio (x) = 0.50900 0.03677
# Poissons Ratio (y) = 0.44185 0.47513
# Poissons Ratio (z) = 0.01799 0.26773
#
# Static dielectric constant tensor:
#      x y z
#    x 1.894160 0.000000 0.010280 
#    y 0.000000 1.977600 0.000000 
#    z 0.010280 0.000000 1.716220 
# 
# From -- ./inp_files/19682.got.cif
#   From: 2010.05.17/outbox.cif.g08.bks.cpg/sg11_10_cif.got.tgz:19682.got - 2010.06.03 12:22:45.
