data_PCOD9165545
_publ_section_title
;
Structure prediction by ZEFSAII (Michael W. Deem and Ramdas Pophale) SiO2 
 PCOD9165545
Probable space group: P 21/M
;
_chemical_formula_sum "Si O2"
_cell_formula_units_Z 24
_cell_length_a 8.242474
_cell_length_b 17.953741
_cell_length_c 9.075216
_cell_angle_alpha 90.000000
_cell_angle_beta 108.285883
_cell_angle_gamma 90.000000
_cell_volume 1275.163191
_symmetry_space_group_name_H-M "P 21/M"
_symmetry_group_IT_number 11
_symmetry_cell_setting 'monoclinic'
loop_
_space_group_symop_operation_xyz
x,y,z
-x,1/2+y,-z
-x,-y,-z
x,1/2-y,z
loop_
_atom_site_type_symbol
_atom_site_label
_atom_site_fract_x
_atom_site_fract_y
_atom_site_fract_z
Si Si1 0.464733 0.927679 0.090546
Si Si2 0.803803 0.165294 0.141314
Si Si3 0.824125 0.979152 0.861518
Si Si4 0.214728 0.337306 0.701382
Si Si5 0.889001 0.832900 0.008523
Si Si6 0.034757 0.430332 0.405837
O O1 0.627305 0.891579 0.215415
O O2 0.317852 0.958539 0.157777
O O3 0.374995 0.863400 0.969858
O O4 0.500000 0.000000 0.000000
O O5 0.798536 0.250000 0.192884
O O6 0.941805 0.163212 0.045140
O O7 0.871401 0.108468 0.283698
O O8 0.772020 0.900294 0.919858
O O9 0.860923 0.961802 0.703173
O O10 0.000000 0.000000 0.000000
O O11 0.262634 0.250000 0.701544
O O12 0.128358 0.367879 0.529471
O O13 0.090326 0.342873 0.809889
O O14 0.816126 0.750000 0.966135
O O15 0.000000 0.500000 0.500000
#
# Coordination Sequence:
#
# PCOD9165545 Si02
#       6
#     4   4   4   4   4   4
#     4  12  22  36  63  89 120 153 201 249 301 348
#     4  10  21  39  63  86 113 160 209 246 283 357
#     4  11  20  39  62  87 113 154 209 249 280 352
#     4  11  23  38  58  91 128 156 188 248 315 360
#     4   9  18  35  60  84 112 155 201 242 290 349
#     4  11  22  37  64  88 119 155 202 244 300 350
#
# _framework density 18.821121999999999
#
# number of rings (size 3 to 8) (size 9 to 14) (size 15 to 20)
#    0.000    1.333    5.000    3.000    0.000    1.333 
#    0.000    0.000    0.000    2.000    0.000    0.000 
#    0.000    0.000    0.000    0.000    0.000    0.000 
#
# Total GULP energy -133858.712637 kJ/mol
# GULP energy per Si atom -5577.446360 kJ/mol
# Density = 1.877828 g / cm^3
# Si number density = 18.821122 Si / 1000 Ang^3
#
#
#
# Elastic Constant Matrix: (Units=GPa)
#
#
# Indices 1 2 3 4 5 6 
#
# 1 28.0240 10.0020 18.0309 0.0000 -6.7435 0.0000
# 2 10.0020 103.4572 17.3197 0.0000 -15.0429 0.0000
# 3 18.0309 17.3197 89.8167 0.0000 -16.5223 0.0000
# 4 0.0000 0.0000 0.0000 42.6295 0.0000 -1.6233
# 5 -6.7435 -15.0429 -16.5223 0.0000 28.6413 0.0000
# 6 0.0000 0.0000 0.0000 -1.6233 0.0000 32.6200
#
#
#
# Elastic Compliance Matrix: (Units=1/GPa)
#
#
# Indices 1 2 3 4 5 6 
#
# 1 0.042216 -0.002203 -0.007198 0.000000 0.004630 0.000000
# 2 -0.002203 0.010683 -0.000762 0.000000 0.004653 0.000000
# 3 -0.007198 -0.000762 0.013805 0.000000 0.005869 0.000000
# 4 0.000000 0.000000 0.000000 0.023502 0.000000 0.001170
# 5 0.004630 0.004653 0.005869 0.000000 0.041834 0.000000
# 6 0.000000 0.000000 0.000000 0.001170 0.000000 0.030714
#
#
# Mechanical properties :
#
#
# Convention : Reuss Voigt Hill
#
# Bulk Modulus (GPa) = 21.56226 34.66700 28.11463
# Shear Modulus (GPa) = 25.18383 32.50786 28.84584
#
# Velocity S-wave (km/s) = 3.66192 4.16047 3.91913
# Velocity P-wave (km/s) = 5.41856 6.44504 5.95396
#
# Compressibility (1/GPa) = 0.04637732
#
# Stress axis : x y z
#
# Youngs Moduli (GPa) = 23.68794 93.60791 72.43526
#
# Poissons Ratio (x) = 0.20622 0.52142
# Poissons Ratio (y) = 0.05218 0.05519
# Poissons Ratio (z) = 0.17051 0.07132
#
# Static dielectric constant tensor:
#      x y z
#    x 1.697700 0.000000 -0.033270 
#    y 0.000000 1.689240 0.000000 
#    z -0.033270 0.000000 1.617410 
# 
# From -- ./inp_files/14111.got.cif
#   From: 2010.05.17/outbox.cif.g08.bks.cpg/sg11_8_cif.got.tgz:14111.got - 2010.06.03 12:22:45.
