data_PCOD9165180
_publ_section_title
;
Structure prediction by ZEFSAII (Michael W. Deem and Ramdas Pophale) SiO2 
 PCOD9165180
Probable space group: P 21/M
;
_chemical_formula_sum "Si O2"
_cell_formula_units_Z 24
_cell_length_a 11.142226
_cell_length_b 8.755762
_cell_length_c 12.550101
_cell_angle_alpha 90.000000
_cell_angle_beta 71.974324
_cell_angle_gamma 90.000000
_cell_volume 1164.276612
_symmetry_space_group_name_H-M "P 21/M"
_symmetry_group_IT_number 11
_symmetry_cell_setting 'monoclinic'
loop_
_space_group_symop_operation_xyz
x,y,z
-x,1/2+y,-z
-x,-y,-z
x,1/2-y,z
loop_
_atom_site_type_symbol
_atom_site_label
_atom_site_fract_x
_atom_site_fract_y
_atom_site_fract_z
Si Si1 0.149528 0.566139 0.254831
Si Si2 0.032027 0.932410 0.875867
Si Si3 0.788622 0.567932 0.541985
Si Si4 0.510656 0.432801 0.659723
Si Si5 0.435291 0.931300 0.120111
Si Si6 0.749401 0.068035 0.335740
O O1 0.141892 0.750000 0.261685
O O2 0.136601 0.501028 0.378020
O O3 0.290921 0.519765 0.178563
O O4 0.057067 0.501372 0.191195
O O5 0.016412 0.750000 0.883785
O O6 0.173043 0.964869 0.793502
O O7 0.000000 0.000000 0.000000
O O8 0.796594 0.750000 0.540909
O O9 0.643184 0.511950 0.596017
O O10 0.822449 0.503001 0.416603
O O11 0.523082 0.250000 0.640470
O O12 0.491507 0.464460 0.790628
O O13 0.389967 0.497607 0.632592
O O14 0.432047 0.750000 0.108440
O O15 0.500000 0.000000 0.000000
O O16 0.741349 0.250000 0.351893
#
# Coordination Sequence:
#
# PCOD9165180 Si02
#       6
#     4   4   4   4   4   4
#     4  10  22  42  64  89 123 161 204 255 307 362
#     4  11  26  45  65  90 122 164 210 255 307 363
#     4  11  22  39  65  95 125 161 203 253 311 367
#     4  10  21  38  59  90 127 163 202 251 308 365
#     4   9  20  35  56  86 118 156 199 246 300 357
#     4  11  24  41  62  90 124 165 208 253 305 367
#
# _framework density 20.613655999999999
#
# number of rings (size 3 to 8) (size 9 to 14) (size 15 to 20)
#    0.000    1.667    0.000    5.000    2.333    7.333 
#    0.000    0.000    0.000    0.000    0.000    0.000 
#    0.000    0.000    0.000    0.000    0.000    0.000 
#
# Total GULP energy -134175.821581 kJ/mol
# GULP energy per Si atom -5590.659233 kJ/mol
# Density = 2.056674 g / cm^3
# Si number density = 20.613656 Si / 1000 Ang^3
#
#
#
# Elastic Constant Matrix: (Units=GPa)
#
#
# Indices 1 2 3 4 5 6 
#
# 1 74.4953 24.4983 32.1032 0.0000 20.2121 0.0000
# 2 24.4983 76.6678 44.3009 0.0000 2.8217 0.0000
# 3 32.1032 44.3009 136.3853 0.0000 -0.4337 0.0000
# 4 0.0000 0.0000 0.0000 41.8836 0.0000 5.8468
# 5 20.2121 2.8217 -0.4337 0.0000 28.7238 0.0000
# 6 0.0000 0.0000 0.0000 5.8468 0.0000 26.1189
#
#
#
# Elastic Compliance Matrix: (Units=1/GPa)
#
#
# Indices 1 2 3 4 5 6 
#
# 1 0.019898 -0.003845 -0.003478 0.000000 -0.013676 0.000000
# 2 -0.003845 0.016879 -0.004575 0.000000 0.000978 0.000000
# 3 -0.003478 -0.004575 0.009646 0.000000 0.003043 0.000000
# 4 0.000000 0.000000 0.000000 0.024646 0.000000 -0.005517
# 5 -0.013676 0.000978 0.003043 0.000000 0.044388 0.000000
# 6 0.000000 0.000000 0.000000 -0.005517 0.000000 0.039521
#
#
# Mechanical properties :
#
#
# Convention : Reuss Voigt Hill
#
# Bulk Modulus (GPa) = 44.19317 54.37258 49.28288
# Shear Modulus (GPa) = 26.83610 31.78833 29.31222
#
# Velocity S-wave (km/s) = 3.61204 3.93122 3.77501
# Velocity P-wave (km/s) = 6.23547 6.85859 6.55444
#
# Compressibility (1/GPa) = 0.02262793
#
# Stress axis : x y z
#
# Youngs Moduli (GPa) = 50.25726 59.24453 103.66472
#
# Poissons Ratio (x) = 0.22779 0.36057
# Poissons Ratio (y) = 0.19323 0.47422
# Poissons Ratio (z) = 0.17480 0.27102
#
# Static dielectric constant tensor:
#      x y z
#    x 1.750200 0.000000 -0.027990 
#    y 0.000000 1.676950 0.000000 
#    z -0.027990 0.000000 1.790390 
# 
# From -- ./inp_files/33807.got.cif
#   From: 2010.05.17/outbox.cif.g08.bks.cpg/sg11_17_cif.got.tgz:33807.got - 2010.06.03 12:22:45.
