data_PCOD9165904
_publ_section_title
;
Structure prediction by ZEFSAII (Michael W. Deem and Ramdas Pophale) SiO2 
 PCOD9165904
Probable space group: P 21/M
;
_chemical_formula_sum "Si O2"
_cell_formula_units_Z 20
_cell_length_a 19.627941
_cell_length_b 9.858337
_cell_length_c 5.336827
_cell_angle_alpha 90.000000
_cell_angle_beta 123.128230
_cell_angle_gamma 90.000000
_cell_volume 864.808960
_symmetry_space_group_name_H-M "P 21/M"
_symmetry_group_IT_number 11
_symmetry_cell_setting 'monoclinic'
loop_
_space_group_symop_operation_xyz
x,y,z
-x,1/2+y,-z
-x,-y,-z
x,1/2-y,z
loop_
_atom_site_type_symbol
_atom_site_label
_atom_site_fract_x
_atom_site_fract_y
_atom_site_fract_z
Si Si1 0.260620 0.099831 0.286905
Si Si2 0.095495 0.750000 0.459901
Si Si3 0.458654 0.097763 0.115923
Si Si4 0.374631 0.598285 0.266007
Si Si5 0.013175 0.250000 0.258366
Si Si6 0.840460 0.953492 0.416804
O O1 0.299372 0.250000 0.347082
O O2 0.322413 0.974662 0.375515
O O3 0.211622 0.089338 0.446422
O O4 0.200315 0.087712 0.927562
O O5 0.148364 0.614378 0.558288
O O6 0.044399 0.750000 0.614895
O O7 0.037279 0.750000 0.099750
O O8 0.439461 0.250000 0.990659
O O9 0.531633 0.113942 0.463022
O O10 0.381346 0.017097 0.067259
O O11 0.500000 0.000000 0.000000
O O12 0.345342 0.750000 0.141851
O O13 0.072496 0.379880 0.388012
#
# Coordination Sequence:
#
# PCOD9165904 Si02
#       6
#     4   2   4   4   2   4
#     4  12  25  46  67  96 141 186 227 274 344 407
#     4  12  26  42  76 104 134 173 226 281 350 390
#     4  10  21  41  66  98 134 169 231 279 336 396
#     4  10  24  41  66  95 129 178 225 286 333 395
#     4  12  22  48  70 104 136 175 226 279 338 412
#     4  12  26  45  70 102 140 177 227 280 337 415
#
# _framework density 23.126493
#
# number of rings (size 3 to 8) (size 9 to 14) (size 15 to 20)
#    0.000    0.800    2.000    4.800    5.600    2.400 
#    0.000    0.000    0.000    0.000    0.000    0.000 
#    0.000    0.000    0.000    0.000    0.000    0.000 
#
# Total GULP energy -111891.301984 kJ/mol
# GULP energy per Si atom -5594.565099 kJ/mol
# Density = 2.307386 g / cm^3
# Si number density = 23.126493 Si / 1000 Ang^3
#
#
#
# Elastic Constant Matrix: (Units=GPa)
#
#
# Indices 1 2 3 4 5 6 
#
# 1 88.5143 42.8100 18.5108 0.0000 -29.4850 0.0000
# 2 42.8100 240.5169 13.0127 0.0000 -6.3847 0.0000
# 3 18.5108 13.0127 112.1865 0.0000 -6.2533 0.0000
# 4 0.0000 0.0000 0.0000 27.6211 0.0000 5.5656
# 5 -29.4850 -6.3847 -6.2533 0.0000 37.5228 0.0000
# 6 0.0000 0.0000 0.0000 5.5656 0.0000 35.6520
#
#
#
# Elastic Compliance Matrix: (Units=1/GPa)
#
#
# Indices 1 2 3 4 5 6 
#
# 1 0.017200 -0.002624 -0.001822 0.000000 0.012766 0.000000
# 2 -0.002624 0.004599 -0.000173 0.000000 -0.001308 0.000000
# 3 -0.001822 -0.000173 0.009239 0.000000 0.000078 0.000000
# 4 0.000000 0.000000 0.000000 0.037380 0.000000 -0.005835
# 5 0.012766 -0.001308 0.000078 0.000000 0.036472 0.000000
# 6 0.000000 0.000000 0.000000 -0.005835 0.000000 0.028960
#
#
# Mechanical properties :
#
#
# Convention : Reuss Voigt Hill
#
# Bulk Modulus (GPa) = 45.87319 65.54275 55.70797
# Shear Modulus (GPa) = 33.25448 44.61814 38.93631
#
# Velocity S-wave (km/s) = 3.79613 4.39715 4.10765
# Velocity P-wave (km/s) = 6.25244 7.36087 6.82918
#
# Compressibility (1/GPa) = 0.02179922
#
# Stress axis : x y z
#
# Youngs Moduli (GPa) = 58.13923 217.41858 108.23844
#
# Poissons Ratio (x) = 0.57051 0.19722
# Poissons Ratio (y) = 0.15256 0.01877
# Poissons Ratio (z) = 0.10594 0.03771
#
# Static dielectric constant tensor:
#      x y z
#    x 1.847730 0.000000 0.007250 
#    y 0.000000 1.908600 0.000000 
#    z 0.007250 0.000000 1.926520 
# 
# From -- ./inp_files/8533.got.cif
#   From: 2010.05.17/outbox.cif.g08.bks.cpg/sg11_5_cif.got.tgz:8533.got - 2010.06.03 12:22:45.
