data_PCOD9165240
_publ_section_title
;
Structure prediction by ZEFSAII (Michael W. Deem and Ramdas Pophale) SiO2 
 PCOD9165240
Probable space group: P 21/M
;
_chemical_formula_sum "Si O2"
_cell_formula_units_Z 28
_cell_length_a 8.509133
_cell_length_b 14.905825
_cell_length_c 17.073339
_cell_angle_alpha 90.000000
_cell_angle_beta 39.464082
_cell_angle_gamma 90.000000
_cell_volume 1376.384704
_symmetry_space_group_name_H-M "P 21/M"
_symmetry_group_IT_number 11
_symmetry_cell_setting 'monoclinic'
loop_
_space_group_symop_operation_xyz
x,y,z
-x,1/2+y,-z
-x,-y,-z
x,1/2-y,z
loop_
_atom_site_type_symbol
_atom_site_label
_atom_site_fract_x
_atom_site_fract_y
_atom_site_fract_z
Si Si1 0.766336 0.433270 0.074524
Si Si2 0.261718 0.012475 0.487039
Si Si3 0.826027 0.009120 0.303700
Si Si4 0.468711 0.598541 0.147533
Si Si5 0.864280 0.353609 0.579234
Si Si6 0.124428 0.644220 0.136191
Si Si7 0.006812 0.349050 0.118713
O O1 0.533159 0.498107 0.152290
O O2 0.786315 0.370363 0.142333
O O3 0.804272 0.379418 0.979935
O O4 0.000000 0.500000 0.000000
O O5 0.544629 0.035983 0.395734
O O6 0.119419 0.096002 0.503482
O O7 0.132210 0.991967 0.619991
O O8 0.249655 0.922629 0.439869
O O9 0.999490 0.075724 0.188243
O O10 0.875370 0.909761 0.251610
O O11 0.309979 0.643954 0.276740
O O12 0.320038 0.604927 0.123498
O O13 0.734131 0.643609 0.027639
O O14 0.892916 0.250000 0.543459
O O15 0.104617 0.750000 0.154906
O O16 0.982248 0.250000 0.161338
#
# Coordination Sequence:
#
# PCOD9165240 Si02
#       7
#     4   4   4   4   4   4   4
#     4  10  21  38  60  91 133 165 198 252 318 383
#     4  10  25  43  64  92 125 171 220 258 323 368
#     4  11  23  44  64  90 130 172 211 270 312 381
#     4  11  22  40  65  96 131 162 205 268 324 376
#     4  11  23  42  67  95 125 164 217 270 315 380
#     4  12  23  38  64  98 128 168 214 258 315 382
#     4  11  23  40  64  97 129 168 211 260 327 385
#
# _framework density 20.343150000000001
#
# number of rings (size 3 to 8) (size 9 to 14) (size 15 to 20)
#    0.000    1.143    4.286    3.000    2.000    1.714 
#    0.000    2.857    0.000    0.857    0.000    0.000 
#    0.000    0.000    0.000    0.000    0.000    0.000 
#
# Total GULP energy -156379.629886 kJ/mol
# GULP energy per Si atom -5584.986782 kJ/mol
# Density = 2.029685 g / cm^3
# Si number density = 20.343150 Si / 1000 Ang^3
#
#
#
# Elastic Constant Matrix: (Units=GPa)
#
#
# Indices 1 2 3 4 5 6 
#
# 1 26.7896 16.2033 6.2742 0.0000 10.4857 0.0000
# 2 16.2033 106.8900 26.7025 0.0000 -3.7062 0.0000
# 3 6.2742 26.7025 40.7456 0.0000 5.2595 0.0000
# 4 0.0000 0.0000 0.0000 15.1798 0.0000 -1.4008
# 5 10.4857 -3.7062 5.2595 0.0000 28.9188 0.0000
# 6 0.0000 0.0000 0.0000 -1.4008 0.0000 14.0171
#
#
#
# Elastic Compliance Matrix: (Units=1/GPa)
#
#
# Indices 1 2 3 4 5 6 
#
# 1 0.049767 -0.008264 0.000223 0.000000 -0.019145 0.000000
# 2 -0.008264 0.012790 -0.007893 0.000000 0.006071 0.000000
# 3 0.000223 -0.007893 0.030539 0.000000 -0.006647 0.000000
# 4 0.000000 0.000000 0.000000 0.066490 0.000000 0.006645
# 5 -0.019145 0.006071 -0.006647 0.000000 0.043508 0.000000
# 6 0.000000 0.000000 0.000000 0.006645 0.000000 0.072005
#
#
# Mechanical properties :
#
#
# Convention : Reuss Voigt Hill
#
# Bulk Modulus (GPa) = 16.33205 30.30948 23.32077
# Shear Modulus (GPa) = 15.27287 19.97281 17.62284
#
# Velocity S-wave (km/s) = 2.74298 3.13676 2.94645
# Velocity P-wave (km/s) = 4.25178 5.29627 4.80250
#
# Compressibility (1/GPa) = 0.06122930
#
# Stress axis : x y z
#
# Youngs Moduli (GPa) = 20.09354 78.18324 32.74507
#
# Poissons Ratio (x) = 0.64609 -0.00732
# Poissons Ratio (y) = 0.16605 0.25847
# Poissons Ratio (z) = -0.00449 0.61713
#
# Static dielectric constant tensor:
#      x y z
#    x 1.740500 0.000000 -0.012930 
#    y 0.000000 1.718700 0.000000 
#    z -0.012930 0.000000 1.739690 
# 
# From -- ./inp_files/58115.got.cif
#   From: 2010.05.17/outbox.cif.g08.bks.cpg/sg11_30_cif.got.tgz:58115.got - 2010.06.03 12:22:45.
