data_PCOD9165073
_publ_section_title
;
Structure prediction by ZEFSAII (Michael W. Deem and Ramdas Pophale) SiO2 
 PCOD9165073
Probable space group: P 21/M
;
_chemical_formula_sum "Si O2"
_cell_formula_units_Z 24
_cell_length_a 21.528684
_cell_length_b 11.559942
_cell_length_c 21.528151
_cell_angle_alpha 90.000000
_cell_angle_beta 14.056090
_cell_angle_gamma 90.000000
_cell_volume 1301.237895
_symmetry_space_group_name_H-M "P 21/M"
_symmetry_group_IT_number 11
_symmetry_cell_setting 'monoclinic'
loop_
_space_group_symop_operation_xyz
x,y,z
-x,1/2+y,-z
-x,-y,-z
x,1/2-y,z
loop_
_atom_site_type_symbol
_atom_site_label
_atom_site_fract_x
_atom_site_fract_y
_atom_site_fract_z
Si Si1 0.660912 0.111561 0.660952
Si Si2 0.932628 0.116158 0.938157
Si Si3 0.155522 0.750000 0.155387
Si Si4 0.696351 0.750000 0.696275
Si Si5 0.475324 0.384814 0.481010
Si Si6 0.728949 0.990685 0.728915
Si Si7 0.871873 0.995573 0.871868
O O1 0.660425 0.250000 0.660224
O O2 0.697348 0.068828 0.697266
O O3 0.892697 0.063612 0.393144
O O4 0.392955 0.063692 0.892949
O O5 0.922038 0.250000 0.923721
O O6 0.202321 0.106748 0.711660
O O7 0.908871 0.014484 0.909810
O O8 0.701220 0.107063 0.211283
O O9 0.923863 0.750000 0.427442
O O10 0.138292 0.628926 0.138102
O O11 0.427553 0.750000 0.923751
O O12 0.716818 0.861868 0.716773
O O13 0.500000 0.500000 0.500000
O O14 0.489944 0.250000 0.493157
O O15 0.000000 0.000000 0.500000
O O16 0.500000 0.000000 0.000000
#
# Coordination Sequence:
#
# PCOD9165073 Si02
#       7
#     4   4   2   2   4   4   4
#     4  12  27  45  62  88 131 171 199 251 324 389
#     4  10  21  37  65  96 123 159 212 266 306 354
#     4  12  20  40  66  96 120 148 196 269 322 353
#     4  12  24  42  62  94 120 150 212 259 308 371
#     4  10  21  39  61  93 132 171 211 256 310 365
#     4  12  26  42  62  88 116 161 205 257 308 373
#     4  12  22  43  67  95 123 159 209 261 316 371
#
# _framework density 18.443975999999999
#
# number of rings (size 3 to 8) (size 9 to 14) (size 15 to 20)
#    0.000    0.667    4.167    4.000    2.333    0.000 
#    0.000    5.000    0.000    0.000    0.000    0.000 
#    0.000    0.000    0.000    0.000    0.000    0.000 
#
# Total GULP energy -133888.867555 kJ/mol
# GULP energy per Si atom -5578.702815 kJ/mol
# Density = 1.840200 g / cm^3
# Si number density = 18.443976 Si / 1000 Ang^3
#
#
#
# Elastic Constant Matrix: (Units=GPa)
#
#
# Indices 1 2 3 4 5 6 
#
# 1 95.9680 68.6273 54.5902 0.0000 -1.4332 0.0000
# 2 68.6273 176.0952 47.7039 0.0000 -0.2854 0.0000
# 3 54.5902 47.7039 162.3394 0.0000 -11.1271 0.0000
# 4 0.0000 0.0000 0.0000 38.9491 0.0000 2.5202
# 5 -1.4332 -0.2854 -11.1271 0.0000 14.0672 0.0000
# 6 0.0000 0.0000 0.0000 2.5202 0.0000 66.5071
#
#
#
# Elastic Compliance Matrix: (Units=1/GPa)
#
#
# Indices 1 2 3 4 5 6 
#
# 1 0.016552 -0.005340 -0.004112 0.000000 -0.001674 0.000000
# 2 -0.005340 0.007918 -0.000589 0.000000 -0.000850 0.000000
# 3 -0.004112 -0.000589 0.008127 0.000000 0.005997 0.000000
# 4 0.000000 0.000000 0.000000 0.025738 0.000000 -0.000975
# 5 -0.001674 -0.000850 0.005997 0.000000 0.075644 0.000000
# 6 0.000000 0.000000 0.000000 -0.000975 0.000000 0.015073
#
#
# Mechanical properties :
#
#
# Convention : Reuss Voigt Hill
#
# Bulk Modulus (GPa) = 79.89976 86.24950 83.07463
# Shear Modulus (GPa) = 28.85085 41.47009 35.16047
#
# Velocity S-wave (km/s) = 3.95934 4.74691 4.37090
# Velocity P-wave (km/s) = 8.01973 8.76976 8.40312
#
# Compressibility (1/GPa) = 0.01251568
#
# Stress axis : x y z
#
# Youngs Moduli (GPa) = 60.41386 126.29499 123.04815
#
# Poissons Ratio (x) = 0.67437 0.50595
# Poissons Ratio (y) = 0.32259 0.07252
# Poissons Ratio (z) = 0.24841 0.07444
#
# Static dielectric constant tensor:
#      x y z
#    x 1.717620 0.000000 0.010170 
#    y 0.000000 1.622660 0.000000 
#    z 0.010170 0.000000 1.631700 
# 
# From -- ./inp_files/9380.got.cif
#   From: 2010.05.17/outbox.cif.g08.bks.cpg/sg11_5_cif.got.tgz:9380.got - 2010.06.03 12:22:45.
