data_PCOD9165651
_publ_section_title
;
Structure prediction by ZEFSAII (Michael W. Deem and Ramdas Pophale) SiO2 
 PCOD9165651
Probable space group: P 21/M
;
_chemical_formula_sum "Si O2"
_cell_formula_units_Z 28
_cell_length_a 8.690519
_cell_length_b 27.558053
_cell_length_c 8.658660
_cell_angle_alpha 90.000000
_cell_angle_beta 43.604624
_cell_angle_gamma 90.000000
_cell_volume 1430.181955
_symmetry_space_group_name_H-M "P 21/M"
_symmetry_group_IT_number 11
_symmetry_cell_setting 'monoclinic'
loop_
_space_group_symop_operation_xyz
x,y,z
-x,1/2+y,-z
-x,-y,-z
x,1/2-y,z
loop_
_atom_site_type_symbol
_atom_site_label
_atom_site_fract_x
_atom_site_fract_y
_atom_site_fract_z
Si Si1 0.245576 0.368697 0.811170
Si Si2 0.034946 0.447383 0.548558
Si Si3 0.370514 0.804427 0.394598
Si Si4 0.926514 0.637792 0.724675
Si Si5 0.493311 0.194314 0.064450
Si Si6 0.214008 0.891851 0.008973
Si Si7 0.470238 0.447556 0.447127
O O1 0.399253 0.321125 0.694407
O O2 0.397926 0.411415 0.635143
O O3 0.183183 0.376845 0.034093
O O4 0.018885 0.368712 0.878485
O O5 0.054104 0.407831 0.400494
O O6 0.000000 0.500000 0.500000
O O7 0.264406 0.448854 0.477561
O O8 0.845439 0.427033 0.803501
O O9 0.312480 0.750000 0.481638
O O10 0.167322 0.839463 0.581006
O O11 0.409975 0.806469 0.180886
O O12 0.764012 0.677585 0.763840
O O13 0.513281 0.250000 0.107001
O O14 0.621927 0.152249 0.064466
O O15 0.321637 0.924862 0.796508
O O16 0.500000 0.500000 0.500000
#
# Coordination Sequence:
#
# PCOD9165651 Si02
#       7
#     4   4   4   4   4   4   4
#     4  10  25  40  65  91 132 166 211 262 318 383
#     4  11  26  39  67  98 126 170 219 267 326 384
#     4  10  21  40  66  96 128 168 211 261 323 383
#     4  11  21  42  65  96 130 163 215 264 316 384
#     4  10  21  39  66  95 125 168 213 266 324 381
#     4  11  23  45  63  96 135 168 215 271 325 390
#     4  11  26  44  64  92 131 174 213 263 332 385
#
# _framework density 19.577929000000001
#
# number of rings (size 3 to 8) (size 9 to 14) (size 15 to 20)
#    0.000    1.429    2.857    1.286    6.000    2.857 
#    0.000    2.143    0.000    0.000    0.000    0.000 
#    0.000    0.000    0.000    0.000    0.000    0.000 
#
# Total GULP energy -156425.180010 kJ/mol
# GULP energy per Si atom -5586.613572 kJ/mol
# Density = 1.953337 g / cm^3
# Si number density = 19.577929 Si / 1000 Ang^3
#
#
#
# Elastic Constant Matrix: (Units=GPa)
#
#
# Indices 1 2 3 4 5 6 
#
# 1 70.8289 53.1214 33.8854 0.0000 -8.2070 0.0000
# 2 53.1214 131.3528 50.5139 0.0000 9.4894 0.0000
# 3 33.8854 50.5139 95.5084 0.0000 -2.6460 0.0000
# 4 0.0000 0.0000 0.0000 24.2923 0.0000 2.1355
# 5 -8.2070 9.4894 -2.6460 0.0000 23.1361 0.0000
# 6 0.0000 0.0000 0.0000 2.1355 0.0000 29.7203
#
#
#
# Elastic Compliance Matrix: (Units=1/GPa)
#
#
# Indices 1 2 3 4 5 6 
#
# 1 0.024087 -0.009352 -0.003267 0.000000 0.012006 0.000000
# 2 -0.009352 0.013682 -0.004179 0.000000 -0.009407 0.000000
# 3 -0.003267 -0.004179 0.013899 0.000000 0.002145 0.000000
# 4 0.000000 0.000000 0.000000 0.041427 0.000000 -0.002977
# 5 0.012006 -0.009407 0.002145 0.000000 0.051585 0.000000
# 6 0.000000 0.000000 0.000000 -0.002977 0.000000 0.033861
#
#
# Mechanical properties :
#
#
# Convention : Reuss Voigt Hill
#
# Bulk Modulus (GPa) = 55.33454 63.63686 59.48570
# Shear Modulus (GPa) = 22.91894 26.10771 24.51332
#
# Velocity S-wave (km/s) = 3.42519 3.65571 3.54233
# Velocity P-wave (km/s) = 6.63081 7.09887 6.86883
#
# Compressibility (1/GPa) = 0.01807189
#
# Stress axis : x y z
#
# Youngs Moduli (GPa) = 41.51669 73.08907 71.94815
#
# Poissons Ratio (x) = 0.68354 0.23504
# Poissons Ratio (y) = 0.38827 0.30066
# Poissons Ratio (z) = 0.13563 0.30543
#
# Static dielectric constant tensor:
#      x y z
#    x 1.687710 0.000000 -0.002450 
#    y 0.000000 1.695050 0.000000 
#    z -0.002450 0.000000 1.680960 
# 
# From -- ./inp_files/15262.got.cif
#   From: 2010.05.17/outbox.cif.g08.bks.cpg/sg11_8_cif.got.tgz:15262.got - 2010.06.03 12:22:45.
