data_PCOD9165859
_publ_section_title
;
Structure prediction by ZEFSAII (Michael W. Deem and Ramdas Pophale) SiO2 
 PCOD9165859
Probable space group: P 21/M
;
_chemical_formula_sum "Si O2"
_cell_formula_units_Z 28
_cell_length_a 5.247205
_cell_length_b 14.929815
_cell_length_c 16.545782
_cell_angle_alpha 90.000000
_cell_angle_beta 58.999330
_cell_angle_gamma 90.000000
_cell_volume 1111.046664
_symmetry_space_group_name_H-M "P 21/M"
_symmetry_group_IT_number 11
_symmetry_cell_setting 'monoclinic'
loop_
_space_group_symop_operation_xyz
x,y,z
-x,1/2+y,-z
-x,-y,-z
x,1/2-y,z
loop_
_atom_site_type_symbol
_atom_site_label
_atom_site_fract_x
_atom_site_fract_y
_atom_site_fract_z
Si Si1 0.763144 0.750000 0.356163
Si Si2 0.274688 0.842605 0.806960
Si Si3 0.661774 0.089837 0.861246
Si Si4 0.189788 0.994439 0.719466
Si Si5 0.057974 0.147511 0.368481
Si Si6 0.262655 0.927003 0.966447
Si Si7 0.473158 0.750000 0.225634
Si Si8 0.394894 0.575513 0.453189
O O1 0.662862 0.750000 0.277062
O O2 0.605274 0.663024 0.422495
O O3 0.120581 0.750000 0.307202
O O4 0.127142 0.750000 0.802550
O O5 0.149176 0.939031 0.806880
O O6 0.266069 0.845657 0.904047
O O7 0.596228 0.847293 0.711001
O O8 0.479183 0.162682 0.839682
O O9 0.529586 0.990410 0.891875
O O10 0.708675 0.111475 0.947879
O O11 0.966330 0.076290 0.762475
O O12 0.092951 0.919498 0.670600
O O13 0.517849 0.031338 0.646805
O O14 0.948261 0.250000 0.380994
O O15 0.938380 0.107501 0.472977
O O16 0.000000 0.000000 0.000000
O O17 0.500000 0.500000 0.500000
#
# Coordination Sequence:
#
# PCOD9165859 Si02
#       8
#     2   4   4   4   4   4   2   4
#     4  12  26  52  74 117 150 197 260 310 370 461
#     4  11  24  40  65 100 135 185 235 305 358 446
#     4  11  25  45  68 104 136 191 239 309 373 447
#     4  11  21  41  67  96 140 180 239 292 376 432
#     4  10  21  41  63  94 141 181 235 291 356 437
#     4  11  24  45  70  97 139 185 244 302 374 451
#     4  12  30  48  82 107 154 197 252 320 380 439
#     4  10  23  44  71 104 146 196 241 304 368 446
#
# _framework density 25.201459
#
# number of rings (size 3 to 8) (size 9 to 14) (size 15 to 20)
#    0.000    1.143    5.000    0.429    5.000    0.571 
#    6.429    0.000    0.000    0.000    0.000    0.000 
#    0.000    0.000    0.000    0.000    0.000    0.000 
#
# Total GULP energy -156323.030266 kJ/mol
# GULP energy per Si atom -5582.965367 kJ/mol
# Density = 2.514410 g / cm^3
# Si number density = 25.201459 Si / 1000 Ang^3
#
#
#
# Elastic Constant Matrix: (Units=GPa)
#
#
# Indices 1 2 3 4 5 6 
#
# 1 55.9953 7.4557 21.5000 0.0000 -5.7335 0.0000
# 2 7.4557 130.3884 43.5673 0.0000 9.2899 0.0000
# 3 21.5000 43.5673 94.0391 0.0000 -6.3440 0.0000
# 4 0.0000 0.0000 0.0000 46.6558 0.0000 3.4562
# 5 -5.7335 9.2899 -6.3440 0.0000 38.0026 0.0000
# 6 0.0000 0.0000 0.0000 3.4562 0.0000 28.4419
#
#
#
# Elastic Compliance Matrix: (Units=1/GPa)
#
#
# Indices 1 2 3 4 5 6 
#
# 1 0.019771 0.000207 -0.004468 0.000000 0.002186 0.000000
# 2 0.000207 0.009416 -0.004615 0.000000 -0.003041 0.000000
# 3 -0.004468 -0.004615 0.013982 0.000000 0.002788 0.000000
# 4 0.000000 0.000000 0.000000 0.021628 0.000000 -0.002628
# 5 0.002186 -0.003041 0.002788 0.000000 0.027853 0.000000
# 6 0.000000 0.000000 0.000000 -0.002628 0.000000 0.035479
#
#
# Mechanical properties :
#
#
# Convention : Reuss Voigt Hill
#
# Bulk Modulus (GPa) = 39.34616 47.27431 43.31024
# Shear Modulus (GPa) = 32.39328 36.48005 34.43666
#
# Velocity S-wave (km/s) = 3.58910 3.80878 3.70057
# Velocity P-wave (km/s) = 5.72905 6.17590 5.95667
#
# Compressibility (1/GPa) = 0.02541544
#
# Stress axis : x y z
#
# Youngs Moduli (GPa) = 50.57997 106.19973 71.52262
#
# Poissons Ratio (x) = -0.02196 0.31960
# Poissons Ratio (y) = -0.01046 0.33007
# Poissons Ratio (z) = 0.22601 0.49010
#
# Static dielectric constant tensor:
#      x y z
#    x 2.152230 0.000000 0.020640 
#    y 0.000000 1.975790 0.000000 
#    z 0.020640 0.000000 2.043840 
# 
# From -- ./inp_files/57024.got.cif
#   From: 2010.05.17/outbox.cif.g08.bks.cpg/sg11_29_cif.got.tgz:57024.got - 2010.06.03 12:22:45.
