data_PCOD9165558
_publ_section_title
;
Structure prediction by ZEFSAII (Michael W. Deem and Ramdas Pophale) SiO2 
 PCOD9165558
Probable space group: P 21/M
;
_chemical_formula_sum "Si O2"
_cell_formula_units_Z 20
_cell_length_a 20.732648
_cell_length_b 8.972339
_cell_length_c 7.003046
_cell_angle_alpha 90.000000
_cell_angle_beta 134.808847
_cell_angle_gamma 90.000000
_cell_volume 924.222466
_symmetry_space_group_name_H-M "P 21/M"
_symmetry_group_IT_number 11
_symmetry_cell_setting 'monoclinic'
loop_
_space_group_symop_operation_xyz
x,y,z
-x,1/2+y,-z
-x,-y,-z
x,1/2-y,z
loop_
_atom_site_type_symbol
_atom_site_label
_atom_site_fract_x
_atom_site_fract_y
_atom_site_fract_z
Si Si1 0.935460 0.578937 0.140804
Si Si2 0.885729 0.919718 0.583715
Si Si3 0.748960 0.074462 0.831959
Si Si4 0.406659 0.426969 0.237010
Si Si5 0.297264 0.922582 0.711401
O O1 0.948359 0.750000 0.228050
O O2 0.027544 0.483942 0.346269
O O3 0.913317 0.582779 0.866115
O O4 0.847311 0.503056 0.049186
O O5 0.863782 0.750000 0.482499
O O6 0.797345 0.023095 0.391666
O O7 0.755396 0.250000 0.891554
O O8 0.716970 0.062613 0.544399
O O9 0.674004 0.991966 0.800564
O O10 0.500000 0.500000 0.500000
O O11 0.411565 0.250000 0.260080
O O12 0.377825 0.478522 0.964737
O O13 0.313892 0.750000 0.791319
#
# Coordination Sequence:
#
# PCOD9165558 Si02
#       5
#     4   4   4   4   4
#     4   9  16  28  50  82 119 158 198 238 284 341
#     4   9  16  28  50  82 119 158 198 238 284 341
#     4  10  21  39  63  90 121 157 197 242 293 350
#     4  12  26  44  65  88 117 152 194 246 300 354
#     4  10  21  39  63  90 121 157 197 242 293 350
#
# _framework density 21.639810000000001
#
# number of rings (size 3 to 8) (size 9 to 14) (size 15 to 20)
#    0.000    2.000    0.000    4.200    0.000    8.000 
#    0.000    1.000    0.000    0.000    0.000    0.000 
#    0.000    0.000    0.000    0.000    0.000    0.000 
#
# Total GULP energy -111965.082363 kJ/mol
# GULP energy per Si atom -5598.254118 kJ/mol
# Density = 2.159056 g / cm^3
# Si number density = 21.639810 Si / 1000 Ang^3
#
#
#
# Elastic Constant Matrix: (Units=GPa)
#
#
# Indices 1 2 3 4 5 6 
#
# 1 66.6781 31.9752 20.4554 0.0000 -1.8486 0.0000
# 2 31.9752 186.4677 45.5903 0.0000 14.0296 0.0000
# 3 20.4554 45.5903 96.6623 0.0000 11.2210 0.0000
# 4 0.0000 0.0000 0.0000 38.3962 0.0000 6.1308
# 5 -1.8486 14.0296 11.2210 0.0000 24.5071 0.0000
# 6 0.0000 0.0000 0.0000 6.1308 0.0000 32.3943
#
#
#
# Elastic Compliance Matrix: (Units=1/GPa)
#
#
# Indices 1 2 3 4 5 6 
#
# 1 0.017229 -0.002549 -0.002919 0.000000 0.004095 0.000000
# 2 -0.002549 0.006562 -0.002215 0.000000 -0.002935 0.000000
# 3 -0.002919 -0.002215 0.012553 0.000000 -0.004700 0.000000
# 4 0.000000 0.000000 0.000000 0.026856 0.000000 -0.005083
# 5 0.004095 -0.002935 -0.004700 0.000000 0.044945 0.000000
# 6 0.000000 0.000000 0.000000 -0.005083 0.000000 0.031832
#
#
# Mechanical properties :
#
#
# Convention : Reuss Voigt Hill
#
# Bulk Modulus (GPa) = 47.66798 60.64997 54.15898
# Shear Modulus (GPa) = 30.80033 35.84534 33.32284
#
# Velocity S-wave (km/s) = 3.77678 4.07437 3.92840
# Velocity P-wave (km/s) = 6.41050 7.08674 6.75708
#
# Compressibility (1/GPa) = 0.02097844
#
# Stress axis : x y z
#
# Youngs Moduli (GPa) = 58.04248 152.38588 79.66006
#
# Poissons Ratio (x) = 0.38839 0.23254
# Poissons Ratio (y) = 0.14794 0.17645
# Poissons Ratio (z) = 0.16944 0.33754
#
# Static dielectric constant tensor:
#      x y z
#    x 1.807010 0.000000 -0.085650 
#    y 0.000000 1.716520 0.000000 
#    z -0.085650 0.000000 1.797670 
# 
# From -- ./inp_files/26001.got.cif
#   From: 2010.05.17/outbox.cif.g08.bks.cpg/sg11_14_cif.got.tgz:26001.got - 2010.06.03 12:22:45.
