data_PCOD9165080
_publ_section_title
;
Structure prediction by ZEFSAII (Michael W. Deem and Ramdas Pophale) SiO2 
 PCOD9165080
Probable space group: P 21/M
;
_chemical_formula_sum "Si O2"
_cell_formula_units_Z 28
_cell_length_a 14.872851
_cell_length_b 7.395357
_cell_length_c 11.472123
_cell_angle_alpha 90.000000
_cell_angle_beta 109.967029
_cell_angle_gamma 90.000000
_cell_volume 1185.970435
_symmetry_space_group_name_H-M "P 21/M"
_symmetry_group_IT_number 11
_symmetry_cell_setting 'monoclinic'
loop_
_space_group_symop_operation_xyz
x,y,z
-x,1/2+y,-z
-x,-y,-z
x,1/2-y,z
loop_
_atom_site_type_symbol
_atom_site_label
_atom_site_fract_x
_atom_site_fract_y
_atom_site_fract_z
Si Si1 0.968191 0.534103 0.355364
Si Si2 0.651567 0.042055 0.502456
Si Si3 0.887051 0.035346 0.964001
Si Si4 0.212807 0.453871 0.842804
Si Si5 0.595285 0.533956 0.970057
Si Si6 0.539630 0.529446 0.690046
Si Si7 0.156392 0.528408 0.309108
O O1 0.962606 0.750000 0.333967
O O2 0.863506 0.460080 0.278640
O O3 0.000000 0.500000 0.500000
O O4 0.053404 0.467872 0.310158
O O5 0.665781 0.250000 0.473434
O O6 0.570207 0.967423 0.380283
O O7 0.756720 0.963689 0.571174
O O8 0.601554 0.035258 0.607776
O O9 0.873389 0.250000 0.969926
O O10 0.835253 0.974434 0.822151
O O11 0.844439 0.947423 0.060142
O O12 0.000000 0.000000 0.000000
O O13 0.233104 0.250000 0.809169
O O14 0.313614 0.540597 0.920016
O O15 0.610049 0.750000 0.966388
O O16 0.581510 0.468183 0.831768
O O17 0.500000 0.500000 0.000000
O O18 0.539517 0.750000 0.685988
O O19 0.157821 0.750000 0.311272
#
# Coordination Sequence:
#
# PCOD9165080 Si02
#       7
#     4   4   4   4   4   4   4
#     4  10  21  38  55  74 106 143 180 222 271 327
#     4   9  17  31  54  78 102 136 174 214 265 323
#     4  11  20  33  56  84 112 144 182 224 275 334
#     4  10  21  39  58  80 113 147 179 231 288 329
#     4  10  22  38  57  80 110 147 187 231 277 323
#     4   9  18  33  51  77 108 136 171 220 272 315
#     4   9  18  33  52  76 106 139 173 215 266 317
#
# _framework density 23.609358
#
# number of rings (size 3 to 8) (size 9 to 14) (size 15 to 20)
#    0.000    2.286    1.429    1.286    0.000    2.857 
#    0.000    2.857    0.000    0.000    0.000    0.000 
#    0.000    0.000    0.000    0.000    0.000    0.000 
#
# Total GULP energy -156471.459324 kJ/mol
# GULP energy per Si atom -5588.266404 kJ/mol
# Density = 2.355562 g / cm^3
# Si number density = 23.609358 Si / 1000 Ang^3
#
#
#
# Elastic Constant Matrix: (Units=GPa)
#
#
# Indices 1 2 3 4 5 6 
#
# 1 82.0618 -10.3870 48.4967 0.0000 44.7374 0.0000
# 2 -10.3870 92.0701 0.0579 0.0000 7.4096 0.0000
# 3 48.4967 0.0579 160.1759 0.0000 45.3874 0.0000
# 4 0.0000 0.0000 0.0000 10.0378 0.0000 -7.7795
# 5 44.7374 7.4096 45.3874 0.0000 52.8304 0.0000
# 6 0.0000 0.0000 0.0000 -7.7795 0.0000 12.2849
#
#
#
# Elastic Compliance Matrix: (Units=1/GPa)
#
#
# Indices 1 2 3 4 5 6 
#
# 1 0.024709 0.004396 -0.001823 0.000000 -0.019974 0.000000
# 2 0.004396 0.011807 0.000250 0.000000 -0.005593 0.000000
# 3 -0.001823 0.000250 0.008416 0.000000 -0.005722 0.000000
# 4 0.000000 0.000000 0.000000 0.195639 0.000000 0.123890
# 5 -0.019974 -0.005593 -0.005722 0.000000 0.041543 0.000000
# 6 0.000000 0.000000 0.000000 0.123890 0.000000 0.159855
#
#
# Mechanical properties :
#
#
# Convention : Reuss Voigt Hill
#
# Bulk Modulus (GPa) = 19.77123 45.62700 32.69912
# Shear Modulus (GPa) = 11.03306 34.77331 22.90319
#
# Velocity S-wave (km/s) = 2.16410 3.84195 3.11800
# Velocity P-wave (km/s) = 3.82582 6.24888 5.18100
#
# Compressibility (1/GPa) = 0.05057854
#
# Stress axis : x y z
#
# Youngs Moduli (GPa) = 40.47098 84.69393 118.81666
#
# Poissons Ratio (x) = -0.37233 0.21658
# Poissons Ratio (y) = -0.17792 -0.02965
# Poissons Ratio (z) = 0.07377 -0.02114
#
# Static dielectric constant tensor:
#      x y z
#    x 1.863650 0.000000 0.064660 
#    y 0.000000 1.857800 0.000000 
#    z 0.064660 0.000000 1.922560 
# 
# From -- ./inp_files/37662.got.cif
#   From: 2010.05.17/outbox.cif.g08.bks.cpg/sg11_19_cif.got.tgz:37662.got - 2010.06.03 12:22:45.
