data_PCOD9165582
_publ_section_title
;
Structure prediction by ZEFSAII (Michael W. Deem and Ramdas Pophale) SiO2 
 PCOD9165582
Probable space group: P 21/M
;
_chemical_formula_sum "Si O2"
_cell_formula_units_Z 28
_cell_length_a 11.696177
_cell_length_b 18.947973
_cell_length_c 5.478776
_cell_angle_alpha 90.000000
_cell_angle_beta 86.450725
_cell_angle_gamma 90.000000
_cell_volume 1211.871090
_symmetry_space_group_name_H-M "P 21/M"
_symmetry_group_IT_number 11
_symmetry_cell_setting 'monoclinic'
loop_
_space_group_symop_operation_xyz
x,y,z
-x,1/2+y,-z
-x,-y,-z
x,1/2-y,z
loop_
_atom_site_type_symbol
_atom_site_label
_atom_site_fract_x
_atom_site_fract_y
_atom_site_fract_z
Si Si1 0.984533 0.063652 0.188728
Si Si2 0.721210 0.613306 0.300122
Si Si3 0.169474 0.634512 0.161588
Si Si4 0.942473 0.668426 0.467725
Si Si5 0.617717 0.831424 0.818267
Si Si6 0.651300 0.327566 0.220661
Si Si7 0.238342 0.961246 0.518950
O O1 0.894726 0.032517 0.392076
O O2 0.077531 0.109740 0.318467
O O3 0.913330 0.122408 0.053863
O O4 0.000000 0.000000 0.000000
O O5 0.852820 0.641561 0.275719
O O6 0.666208 0.625191 0.042387
O O7 0.708560 0.532098 0.386332
O O8 0.666722 0.653616 0.540813
O O9 0.225285 0.559763 0.238430
O O10 0.077179 0.663259 0.370043
O O11 0.276334 0.675418 0.039663
O O12 0.919840 0.750000 0.534183
O O13 0.642054 0.750000 0.875236
O O14 0.481081 0.840980 0.817388
O O15 0.662575 0.250000 0.339544
O O16 0.702025 0.392045 0.372262
#
# Coordination Sequence:
#
# PCOD9165582 Si02
#       7
#     4   4   4   4   4   4   4
#     4  10  21  39  63  93 136 179 224 275 347 419
#     4  12  27  46  73 104 146 187 234 291 352 427
#     4  10  22  40  66  99 135 174 230 284 354 410
#     4  11  24  40  66 102 138 179 230 289 351 421
#     4  11  27  49  72 101 140 190 241 292 350 417
#     4  10  24  45  71  98 135 183 236 294 351 418
#     4  10  24  41  67 103 137 180 231 291 357 416
#
# _framework density 23.104766999999999
#
# number of rings (size 3 to 8) (size 9 to 14) (size 15 to 20)
#    0.000    1.429    0.000    3.429   10.000    9.714 
#    0.000    0.000    0.000    0.000    0.000    0.000 
#    0.000    0.000    0.000    0.000    0.000    0.000 
#
# Total GULP energy -156183.489315 kJ/mol
# GULP energy per Si atom -5577.981761 kJ/mol
# Density = 2.305218 g / cm^3
# Si number density = 23.104767 Si / 1000 Ang^3
#
#
#
# Elastic Constant Matrix: (Units=GPa)
#
#
# Indices 1 2 3 4 5 6 
#
# 1 90.3306 24.7977 23.5578 0.0000 -8.0570 0.0000
# 2 24.7977 112.7040 2.7051 0.0000 12.9956 0.0000
# 3 23.5578 2.7051 67.3861 0.0000 2.5054 0.0000
# 4 0.0000 0.0000 0.0000 13.3189 0.0000 10.0768
# 5 -8.0570 12.9956 2.5054 0.0000 26.6946 0.0000
# 6 0.0000 0.0000 0.0000 10.0768 0.0000 28.2073
#
#
#
# Elastic Compliance Matrix: (Units=1/GPa)
#
#
# Indices 1 2 3 4 5 6 
#
# 1 0.013961 -0.003700 -0.004973 0.000000 0.006482 0.000000
# 2 -0.003700 0.010384 0.001110 0.000000 -0.006276 0.000000
# 3 -0.004973 0.001110 0.016668 0.000000 -0.003606 0.000000
# 4 0.000000 0.000000 0.000000 0.102890 0.000000 -0.036756
# 5 0.006482 -0.006276 -0.003606 0.000000 0.042811 0.000000
# 6 0.000000 0.000000 0.000000 -0.036756 0.000000 0.048583
#
#
# Mechanical properties :
#
#
# Convention : Reuss Voigt Hill
#
# Bulk Modulus (GPa) = 38.62968 41.39354 40.01161
# Shear Modulus (GPa) = 19.30116 28.26817 23.78467
#
# Velocity S-wave (km/s) = 2.89342 3.50162 3.21195
# Velocity P-wave (km/s) = 5.28376 5.85687 5.57768
#
# Compressibility (1/GPa) = 0.02588683
#
# Stress axis : x y z
#
# Youngs Moduli (GPa) = 71.62676 96.30308 59.99523
#
# Poissons Ratio (x) = 0.35631 0.29837
# Poissons Ratio (y) = 0.26501 -0.06659
# Poissons Ratio (z) = 0.35622 -0.10689
#
# Static dielectric constant tensor:
#      x y z
#    x 1.886610 0.000000 -0.028040 
#    y 0.000000 1.439030 0.000000 
#    z -0.028040 0.000000 1.934010 
# 
# From -- ./inp_files/4893.got.cif
#   From: 2010.05.17/outbox.cif.g08.bks.cpg/sg11_3_cif.got.tgz:4893.got - 2010.06.03 12:22:45.
