data_PCOD9165896
_publ_section_title
;
Structure prediction by ZEFSAII (Michael W. Deem and Ramdas Pophale) SiO2 
 PCOD9165896
Probable space group: P 21/M
;
_chemical_formula_sum "Si O2"
_cell_formula_units_Z 32
_cell_length_a 30.673762
_cell_length_b 8.532065
_cell_length_c 12.816912
_cell_angle_alpha 90.000000
_cell_angle_beta 151.570898
_cell_angle_gamma 90.000000
_cell_volume 1596.894692
_symmetry_space_group_name_H-M "P 21/M"
_symmetry_group_IT_number 11
_symmetry_cell_setting 'monoclinic'
loop_
_space_group_symop_operation_xyz
x,y,z
-x,1/2+y,-z
-x,-y,-z
x,1/2-y,z
loop_
_atom_site_type_symbol
_atom_site_label
_atom_site_fract_x
_atom_site_fract_y
_atom_site_fract_z
Si Si1 0.868602 0.437829 0.972503
Si Si2 0.601876 0.939484 0.227537
Si Si3 0.899579 0.562413 0.809182
Si Si4 0.037717 0.060711 0.469744
Si Si5 0.248510 0.440461 0.877453
Si Si6 0.265829 0.440638 0.678676
Si Si7 0.324110 0.062062 0.389954
Si Si8 0.408152 0.563537 0.361340
O O1 0.866537 0.250000 0.967083
O O2 0.864721 0.500895 0.846751
O O3 0.779078 0.499883 0.843915
O O4 0.963948 0.488957 0.226825
O O5 0.603180 0.750000 0.230125
O O6 0.660830 0.994051 0.252305
O O7 0.643785 0.989410 0.426945
O O8 0.500000 0.000000 0.000000
O O9 0.899688 0.750000 0.812801
O O10 0.832334 0.513062 0.574555
O O11 0.000000 0.500000 0.000000
O O12 0.037973 0.250000 0.470642
O O13 0.142741 0.011201 0.672502
O O14 0.000000 0.000000 0.500000
O O15 0.252038 0.250000 0.891081
O O16 0.277752 0.490886 0.822436
O O17 0.319614 0.508929 0.109339
O O18 0.268292 0.250000 0.685287
O O19 0.322169 0.250000 0.382756
O O20 0.391942 0.000519 0.443850
O O21 0.500000 0.500000 0.500000
O O22 0.412826 0.750000 0.374295
#
# Coordination Sequence:
#
# PCOD9165896 Si02
#       8
#     4   4   4   4   4   4   4   4
#     4  11  22  38  61  93 127 164 208 255 307 370
#     4  10  22  40  63  93 125 161 204 254 311 373
#     4  11  21  37  59  88 125 167 210 254 305 366
#     4  10  22  38  59  88 123 164 209 258 309 365
#     4  10  21  41  66  91 123 165 210 258 314 370
#     4   9  19  39  63  88 124 166 204 250 311 371
#     4  11  23  43  67  95 129 165 208 259 313 374
#     4  12  27  46  67  94 125 162 209 262 316 374
#
# _framework density 20.038891
#
# number of rings (size 3 to 8) (size 9 to 14) (size 15 to 20)
#    0.000    1.500    1.250    3.750    1.750    6.500 
#    0.000    2.500    0.000    0.000    0.000    0.000 
#    0.000    0.000    0.000    0.000    0.000    0.000 
#
# Total GULP energy -178882.651762 kJ/mol
# GULP energy per Si atom -5590.082868 kJ/mol
# Density = 1.999328 g / cm^3
# Si number density = 20.038891 Si / 1000 Ang^3
#
#
#
# Elastic Constant Matrix: (Units=GPa)
#
#
# Indices 1 2 3 4 5 6 
#
# 1 135.9362 20.9551 37.0250 0.0000 6.9977 0.0000
# 2 20.9551 43.4917 19.0496 0.0000 2.2897 0.0000
# 3 37.0250 19.0496 96.5531 0.0000 9.6842 0.0000
# 4 0.0000 0.0000 0.0000 31.7245 0.0000 4.1366
# 5 6.9977 2.2897 9.6842 0.0000 41.2649 0.0000
# 6 0.0000 0.0000 0.0000 4.1366 0.0000 33.5400
#
#
#
# Elastic Compliance Matrix: (Units=1/GPa)
#
#
# Indices 1 2 3 4 5 6 
#
# 1 0.008562 -0.002935 -0.002637 0.000000 -0.000670 0.000000
# 2 -0.002935 0.026176 -0.004038 0.000000 -0.000007 0.000000
# 3 -0.002637 -0.004038 0.012389 0.000000 -0.002236 0.000000
# 4 0.000000 0.000000 0.000000 0.032037 0.000000 -0.003951
# 5 -0.000670 -0.000007 -0.002236 0.000000 0.024873 0.000000
# 6 0.000000 0.000000 0.000000 -0.003951 0.000000 0.030302
#
#
# Mechanical properties :
#
#
# Convention : Reuss Voigt Hill
#
# Bulk Modulus (GPa) = 35.83356 47.78227 41.80791
# Shear Modulus (GPa) = 30.70111 34.56931 32.63521
#
# Velocity S-wave (km/s) = 3.91842 4.15795 4.03996
# Velocity P-wave (km/s) = 6.19620 6.85186 6.53226
#
# Compressibility (1/GPa) = 0.02790680
#
# Stress axis : x y z
#
# Youngs Moduli (GPa) = 116.80187 38.20276 80.71569
#
# Poissons Ratio (x) = 0.11212 0.21283
# Poissons Ratio (y) = 0.34280 0.32596
# Poissons Ratio (z) = 0.30798 0.15427
#
# Static dielectric constant tensor:
#      x y z
#    x 1.702540 0.000000 -0.004700 
#    y 0.000000 1.688850 0.000000 
#    z -0.004700 0.000000 1.691620 
# 
# From -- ./inp_files/45251.got.cif
#   From: 2010.05.17/outbox.cif.g08.bks.cpg/sg11_23_cif.got.tgz:45251.got - 2010.06.03 12:22:45.
