data_PCOD9165000
_publ_section_title
;
Structure prediction by ZEFSAII (Michael W. Deem and Ramdas Pophale) SiO2 
 PCOD9165000
Probable space group: P 21/M
;
_chemical_formula_sum "Si O2"
_cell_formula_units_Z 32
_cell_length_a 10.774023
_cell_length_b 19.387256
_cell_length_c 9.026043
_cell_angle_alpha 90.000000
_cell_angle_beta 58.375073
_cell_angle_gamma 90.000000
_cell_volume 1605.372160
_symmetry_space_group_name_H-M "P 21/M"
_symmetry_group_IT_number 11
_symmetry_cell_setting 'monoclinic'
loop_
_space_group_symop_operation_xyz
x,y,z
-x,1/2+y,-z
-x,-y,-z
x,1/2-y,z
loop_
_atom_site_type_symbol
_atom_site_label
_atom_site_fract_x
_atom_site_fract_y
_atom_site_fract_z
Si Si1 0.815381 0.456036 0.448600
Si Si2 0.260137 0.826401 0.308138
Si Si3 0.646615 0.556055 0.041396
Si Si4 0.847086 0.173311 0.954806
Si Si5 0.436555 0.325367 0.723284
Si Si6 0.620153 0.122571 0.334701
Si Si7 0.602174 0.549517 0.745548
Si Si8 0.938995 0.024476 0.882375
O O1 0.814905 0.389752 0.558058
O O2 0.711417 0.433115 0.375412
O O3 0.741819 0.521052 0.573948
O O4 0.970390 0.482116 0.295354
O O5 0.204752 0.750000 0.390562
O O6 0.430137 0.827567 0.242940
O O7 0.241093 0.830906 0.144533
O O8 0.643536 0.583870 0.875488
O O9 0.770712 0.497842 0.973387
O O10 0.665503 0.612831 0.157551
O O11 0.491548 0.519453 0.162186
O O12 0.913136 0.250000 0.921937
O O13 0.740050 0.162639 0.162168
O O14 0.951224 0.107138 0.875591
O O15 0.367284 0.250000 0.767789
O O16 0.522149 0.337229 0.516067
O O17 0.503873 0.091945 0.293268
O O18 0.000000 0.000000 0.000000
#
# Coordination Sequence:
#
# PCOD9165000 Si02
#       8
#     4   4   4   4   4   4   4   4
#     4  11  22  38  61  90 123 165 200 250 296 366
#     4   9  19  36  60  90 123 159 202 252 304 360
#     4  11  22  38  63  88 121 157 206 248 303 359
#     4  11  22  38  61  89 123 159 202 253 304 364
#     4  10  21  37  60  91 125 160 199 250 312 365
#     4  11  20  35  63  91 122 156 202 250 303 359
#     4  11  21  36  62  93 118 154 201 257 301 352
#     4  12  25  41  62  92 124 163 207 251 307 363
#
# _framework density 19.933073
#
# number of rings (size 3 to 8) (size 9 to 14) (size 15 to 20)
#    0.000    1.250    5.000    2.250    1.750    2.500 
#    0.000    1.875    0.000    0.750    0.000    0.000 
#    0.000    0.000    0.000    0.000    0.000    0.000 
#
# Total GULP energy -178571.420027 kJ/mol
# GULP energy per Si atom -5580.356876 kJ/mol
# Density = 1.988770 g / cm^3
# Si number density = 19.933073 Si / 1000 Ang^3
#
#
#
# Elastic Constant Matrix: (Units=GPa)
#
#
# Indices 1 2 3 4 5 6 
#
# 1 31.2949 2.0960 11.9964 0.0000 17.3781 0.0000
# 2 2.0960 94.9455 17.7222 0.0000 -5.4476 0.0000
# 3 11.9964 17.7222 72.1424 0.0000 -2.3368 0.0000
# 4 0.0000 0.0000 0.0000 19.1010 0.0000 -1.8084
# 5 17.3781 -5.4476 -2.3368 0.0000 28.7360 0.0000
# 6 0.0000 0.0000 0.0000 -1.8084 0.0000 11.5099
#
#
#
# Elastic Compliance Matrix: (Units=1/GPa)
#
#
# Indices 1 2 3 4 5 6 
#
# 1 0.054843 -0.001326 -0.009903 0.000000 -0.034223 0.000000
# 2 -0.001326 0.011172 -0.002436 0.000000 0.002722 0.000000
# 3 -0.009903 -0.002436 0.016329 0.000000 0.006855 0.000000
# 4 0.000000 0.000000 0.000000 0.053144 0.000000 0.008350
# 5 -0.034223 0.002722 0.006855 0.000000 0.056569 0.000000
# 6 0.000000 0.000000 0.000000 0.008350 0.000000 0.088194
#
#
# Mechanical properties :
#
#
# Convention : Reuss Voigt Hill
#
# Bulk Modulus (GPa) = 18.17680 29.11243 23.64462
# Shear Modulus (GPa) = 15.34128 22.97393 19.15761
#
# Velocity S-wave (km/s) = 2.77725 3.39861 3.10352
# Velocity P-wave (km/s) = 4.40714 5.48065 4.97295
#
# Compressibility (1/GPa) = 0.05501518
#
# Stress axis : x y z
#
# Youngs Moduli (GPa) = 18.23391 89.50572 61.24224
#
# Poissons Ratio (x) = 0.11867 0.60646
# Poissons Ratio (y) = 0.02418 0.14918
# Poissons Ratio (z) = 0.18056 0.21803
#
# Static dielectric constant tensor:
#      x y z
#    x 1.682580 0.000000 0.033640 
#    y 0.000000 1.755950 0.000000 
#    z 0.033640 0.000000 1.730100 
# 
# From -- ./inp_files/19344.got.cif
#   From: 2010.05.17/outbox.cif.g08.bks.cpg/sg11_10_cif.got.tgz:19344.got - 2010.06.03 12:22:45.
