data_PCOD9165300
_publ_section_title
;
Structure prediction by ZEFSAII (Michael W. Deem and Ramdas Pophale) SiO2 
 PCOD9165300
Probable space group: P 21/M
;
_chemical_formula_sum "Si O2"
_cell_formula_units_Z 32
_cell_length_a 16.822954
_cell_length_b 14.345804
_cell_length_c 10.643440
_cell_angle_alpha 90.000000
_cell_angle_beta 146.641763
_cell_angle_gamma 90.000000
_cell_volume 1412.442669
_symmetry_space_group_name_H-M "P 21/M"
_symmetry_group_IT_number 11
_symmetry_cell_setting 'monoclinic'
loop_
_space_group_symop_operation_xyz
x,y,z
-x,1/2+y,-z
-x,-y,-z
x,1/2-y,z
loop_
_atom_site_type_symbol
_atom_site_label
_atom_site_fract_x
_atom_site_fract_y
_atom_site_fract_z
Si Si1 0.879970 0.357763 0.679216
Si Si2 0.565989 0.362007 0.307621
Si Si3 0.544205 0.637963 0.562287
Si Si4 0.926281 0.353081 0.037972
Si Si5 0.763415 0.643317 0.442545
Si Si6 0.546254 0.359048 0.834069
Si Si7 0.835482 0.959291 0.036074
Si Si8 0.287759 0.027650 0.857090
O O1 0.885150 0.250000 0.644745
O O2 0.717157 0.394160 0.448917
O O3 0.013255 0.411764 0.797935
O O4 0.898031 0.359753 0.853561
O O5 0.557171 0.250000 0.282329
O O6 0.548898 0.381395 0.434731
O O7 0.434236 0.411963 0.066298
O O8 0.564801 0.750000 0.582580
O O9 0.471250 0.609288 0.334558
O O10 0.700023 0.590469 0.788675
O O11 0.879469 0.250000 0.019638
O O12 0.848566 0.434415 0.009670
O O13 0.098420 0.361601 0.285010
O O14 0.760778 0.750000 0.387105
O O15 0.612724 0.629485 0.315253
O O16 0.783597 0.567256 0.361311
O O17 0.583473 0.250000 0.886568
O O18 0.659437 0.421688 0.059098
O O19 0.808012 0.952147 0.147567
#
# Coordination Sequence:
#
# PCOD9165300 Si02
#       8
#     4   4   4   4   4   4   4   4
#     4  10  21  38  61  92 127 161 202 250 304 362
#     4   9  20  36  60  93 129 162 194 248 312 361
#     4   9  19  37  61  92 128 159 198 247 305 367
#     4  10  23  40  62  88 122 167 208 250 299 357
#     4  10  22  43  64  84 114 163 215 254 300 361
#     4  10  22  39  63  91 121 158 204 255 304 360
#     4  11  23  36  62  94 125 162 202 247 306 367
#     4  11  24  38  64  92 125 159 205 253 307 360
#
# _framework density 22.655788000000001
#
# number of rings (size 3 to 8) (size 9 to 14) (size 15 to 20)
#    0.000    2.000    0.000    2.250    5.250    5.500 
#    0.000    0.000    0.000    0.750    0.000    0.000 
#    0.000    0.000    0.000    0.000    0.000    0.000 
#
# Total GULP energy -179228.548870 kJ/mol
# GULP energy per Si atom -5600.892152 kJ/mol
# Density = 2.260422 g / cm^3
# Si number density = 22.655788 Si / 1000 Ang^3
#
#
#
# Elastic Constant Matrix: (Units=GPa)
#
#
# Indices 1 2 3 4 5 6 
#
# 1 67.4324 33.6937 29.5825 0.0000 28.9684 0.0000
# 2 33.6937 84.6269 19.1359 0.0000 19.0824 0.0000
# 3 29.5825 19.1359 24.4716 0.0000 20.6780 0.0000
# 4 0.0000 0.0000 0.0000 29.0744 0.0000 -2.6766
# 5 28.9684 19.0824 20.6780 0.0000 38.1602 0.0000
# 6 0.0000 0.0000 0.0000 -2.6766 0.0000 23.0232
#
#
#
# Elastic Compliance Matrix: (Units=1/GPa)
#
#
# Indices 1 2 3 4 5 6 
#
# 1 0.033939 -0.004902 -0.032272 0.000000 -0.005826 0.000000
# 2 -0.004902 0.015148 -0.004913 0.000000 -0.001192 0.000000
# 3 -0.032272 -0.004913 0.112410 0.000000 -0.033957 0.000000
# 4 0.000000 0.000000 0.000000 0.034767 0.000000 0.004042
# 5 -0.005826 -0.001192 -0.033957 0.000000 0.049624 0.000000
# 6 0.000000 0.000000 0.000000 0.004042 0.000000 0.043904
#
#
# Mechanical properties :
#
#
# Convention : Reuss Voigt Hill
#
# Bulk Modulus (GPa) = 12.93244 37.92834 25.43039
# Shear Modulus (GPa) = 12.50813 24.32614 18.41714
#
# Velocity S-wave (km/s) = 2.35222 3.28033 2.85425
# Velocity P-wave (km/s) = 3.61910 5.57897 4.70227
#
# Compressibility (1/GPa) = 0.07732492
#
# Stress axis : x y z
#
# Youngs Moduli (GPa) = 29.46439 66.01654 8.89598
#
# Poissons Ratio (x) = 0.32359 0.28709
# Poissons Ratio (y) = 0.14443 0.04370
# Poissons Ratio (z) = 0.95087 0.32431
#
# Static dielectric constant tensor:
#      x y z
#    x 1.802520 0.000000 -0.007860 
#    y 0.000000 1.859690 0.000000 
#    z -0.007860 0.000000 1.813460 
# 
# From -- ./inp_files/41708.got.cif
#   From: 2010.05.17/outbox.cif.g08.bks.cpg/sg11_21_cif.got.tgz:41708.got - 2010.06.03 12:22:45.
