data_PCOD9165128
_publ_section_title
;
Structure prediction by ZEFSAII (Michael W. Deem and Ramdas Pophale) SiO2 
 PCOD9165128
Probable space group: P 21/M
;
_chemical_formula_sum "Si O2"
_cell_formula_units_Z 28
_cell_length_a 25.464128
_cell_length_b 8.364969
_cell_length_c 8.579328
_cell_angle_alpha 90.000000
_cell_angle_beta 43.450098
_cell_angle_gamma 90.000000
_cell_volume 1256.781211
_symmetry_space_group_name_H-M "P 21/M"
_symmetry_group_IT_number 11
_symmetry_cell_setting 'monoclinic'
loop_
_space_group_symop_operation_xyz
x,y,z
-x,1/2+y,-z
-x,-y,-z
x,1/2-y,z
loop_
_atom_site_type_symbol
_atom_site_label
_atom_site_fract_x
_atom_site_fract_y
_atom_site_fract_z
Si Si1 0.746458 0.564095 0.683291
Si Si2 0.456822 0.438181 0.374604
Si Si3 0.967644 0.057155 0.905674
Si Si4 0.115043 0.056922 0.415965
Si Si5 0.179671 0.557366 0.949140
Si Si6 0.329049 0.938343 0.462018
Si Si7 0.383358 0.562482 0.846570
O O1 0.750685 0.750000 0.630922
O O2 0.829242 0.507646 0.562011
O O3 0.708216 0.468982 0.625133
O O4 0.689827 0.539888 0.951457
O O5 0.452861 0.250000 0.417075
O O6 0.409021 0.477042 0.324056
O O7 0.415510 0.530121 0.605270
O O8 0.546214 0.479833 0.189788
O O9 0.966253 0.250000 0.910577
O O10 0.883370 0.000104 0.040484
O O11 0.029122 0.006683 0.641771
O O12 0.000000 0.000000 0.000000
O O13 0.117612 0.250000 0.402629
O O14 0.148744 0.990260 0.184029
O O15 0.182615 0.750000 0.934861
O O16 0.264247 0.500819 0.722840
O O17 0.341058 0.750000 0.457342
O O18 0.364705 0.750000 0.902564
#
# Coordination Sequence:
#
# PCOD9165128 Si02
#       7
#     4   4   4   4   4   4   4
#     4  11  23  38  57  83 114 149 189 233 283 336
#     4  10  21  38  60  85 113 147 187 231 280 335
#     4  10  21  38  58  84 116 148 185 228 276 328
#     4  10  22  38  58  84 113 147 188 231 276 330
#     4  10  22  38  58  84 113 147 188 231 276 330
#     4  11  23  38  57  83 114 149 189 233 283 336
#     4  10  21  38  60  85 113 147 187 231 280 335
#
# _framework density 22.279136999999999
#
# number of rings (size 3 to 8) (size 9 to 14) (size 15 to 20)
#    0.000    1.714    0.000    3.857    0.000    8.000 
#    0.000    0.000    0.000    0.000    0.000    0.000 
#    0.000    0.000    0.000    0.000    0.000    0.000 
#
# Total GULP energy -156586.949995 kJ/mol
# GULP energy per Si atom -5592.391071 kJ/mol
# Density = 2.222843 g / cm^3
# Si number density = 22.279137 Si / 1000 Ang^3
#
#
#
# Elastic Constant Matrix: (Units=GPa)
#
#
# Indices 1 2 3 4 5 6 
#
# 1 97.8538 8.4197 -11.6672 0.0000 -13.2495 0.0000
# 2 8.4197 13.7976 0.3286 0.0000 -10.7695 0.0000
# 3 -11.6672 0.3286 34.3765 0.0000 -3.6427 0.0000
# 4 0.0000 0.0000 0.0000 25.2354 0.0000 9.9881
# 5 -13.2495 -10.7695 -3.6427 0.0000 36.9992 0.0000
# 6 0.0000 0.0000 0.0000 9.9881 0.0000 29.9149
#
#
#
# Elastic Compliance Matrix: (Units=1/GPa)
#
#
# Indices 1 2 3 4 5 6 
#
# 1 0.011569 -0.004655 0.004311 0.000000 0.003212 0.000000
# 2 -0.004655 0.095795 0.000285 0.000000 0.026244 0.000000
# 3 0.004311 0.000285 0.031046 0.000000 0.004684 0.000000
# 4 0.000000 0.000000 0.000000 0.045661 0.000000 -0.015245
# 5 0.003212 0.026244 0.004684 0.000000 0.036278 0.000000
# 6 0.000000 0.000000 0.000000 -0.015245 0.000000 0.038518
#
#
# Mechanical properties :
#
#
# Convention : Reuss Voigt Hill
#
# Bulk Modulus (GPa) = 7.23098 15.57667 11.40383
# Shear Modulus (GPa) = 16.38902 28.35969 22.37435
#
# Velocity S-wave (km/s) = 2.71518 3.57168 3.17247
# Velocity P-wave (km/s) = 3.61694 4.90061 4.30687
#
# Compressibility (1/GPa) = 0.13829380
#
# Stress axis : x y z
#
# Youngs Moduli (GPa) = 86.43897 10.43895 32.20980
#
# Poissons Ratio (x) = 0.04859 -0.13887
# Poissons Ratio (y) = 0.40238 -0.00919
# Poissons Ratio (z) = -0.37266 -0.00298
#
# Static dielectric constant tensor:
#      x y z
#    x 1.836570 0.000000 0.002400 
#    y 0.000000 1.748620 0.000000 
#    z 0.002400 0.000000 1.812970 
# 
# From -- ./inp_files/28263.got.cif
#   From: 2010.05.17/outbox.cif.g08.bks.cpg/sg11_15_cif.got.tgz:28263.got - 2010.06.03 12:22:45.
