data_PCOD9165809
_publ_section_title
;
Structure prediction by ZEFSAII (Michael W. Deem and Ramdas Pophale) SiO2 
 PCOD9165809
Probable space group: P 21/M
;
_chemical_formula_sum "Si O2"
_cell_formula_units_Z 32
_cell_length_a 15.823919
_cell_length_b 8.555558
_cell_length_c 12.370503
_cell_angle_alpha 90.000000
_cell_angle_beta 89.870461
_cell_angle_gamma 90.000000
_cell_volume 1674.744808
_symmetry_space_group_name_H-M "P 21/M"
_symmetry_group_IT_number 11
_symmetry_cell_setting 'monoclinic'
loop_
_space_group_symop_operation_xyz
x,y,z
-x,1/2+y,-z
-x,-y,-z
x,1/2-y,z
loop_
_atom_site_type_symbol
_atom_site_label
_atom_site_fract_x
_atom_site_fract_y
_atom_site_fract_z
Si Si1 0.654890 0.437804 0.732747
Si Si2 0.002850 0.562336 0.376899
Si Si3 0.157908 0.434998 0.232109
Si Si4 0.151626 0.436612 0.782784
Si Si5 0.336523 0.560408 0.732703
Si Si6 0.406081 0.562287 0.500252
Si Si7 0.906325 0.065066 0.991043
Si Si8 0.499625 0.562262 0.877421
O O1 0.651372 0.250000 0.738907
O O2 0.749310 0.493671 0.754683
O O3 0.635900 0.490806 0.610481
O O4 0.581972 0.502779 0.811942
O O5 0.005276 0.750000 0.380685
O O6 0.086067 0.503811 0.312382
O O7 0.000000 0.500000 0.500000
O O8 0.919133 0.517266 0.306866
O O9 0.160389 0.250000 0.248345
O O10 0.133495 0.476964 0.109885
O O11 0.142969 0.250000 0.798805
O O12 0.247056 0.480388 0.753061
O O13 0.135128 0.525019 0.894781
O O14 0.327464 0.750000 0.738832
O O15 0.362770 0.514683 0.611452
O O16 0.413267 0.516376 0.813757
O O17 0.500000 0.500000 0.500000
O O18 0.407102 0.750000 0.499388
O O19 0.905240 0.250000 0.970468
O O20 0.000000 0.000000 0.000000
O O21 0.501978 0.750000 0.879143
O O22 0.500000 0.500000 0.000000
#
# Coordination Sequence:
#
# PCOD9165809 Si02
#       8
#     4   4   4   4   4   4   4   4
#     4  11  24  42  66  97 130 168 213 266 324 387
#     4  11  25  45  67  95 133 173 218 269 322 386
#     4  12  26  44  68  97 130 172 217 267 326 387
#     4  11  25  43  66  97 130 170 217 266 323 384
#     4  10  23  42  64  93 128 170 214 263 320 381
#     4  10  21  40  66  94 125 164 210 262 319 376
#     4  12  24  43  70  97 129 168 215 268 323 384
#     4  11  24  43  65  91 129 171 215 265 320 384
#
# _framework density 19.107388
#
# number of rings (size 3 to 8) (size 9 to 14) (size 15 to 20)
#    0.000    1.000    2.500    3.750    3.500    3.500 
#    0.000    0.000    0.000    0.000    0.000    0.000 
#    0.000    0.000    0.000    0.000    0.000    0.000 
#
# Total GULP energy -178850.020503 kJ/mol
# GULP energy per Si atom -5589.063141 kJ/mol
# Density = 1.906390 g / cm^3
# Si number density = 19.107388 Si / 1000 Ang^3
#
#
#
# Elastic Constant Matrix: (Units=GPa)
#
#
# Indices 1 2 3 4 5 6 
#
# 1 163.9346 26.6051 76.8521 0.0000 4.8497 0.0000
# 2 26.6051 49.6765 23.9634 0.0000 -3.2869 0.0000
# 3 76.8521 23.9634 157.4203 0.0000 3.6594 0.0000
# 4 0.0000 0.0000 0.0000 32.5489 0.0000 -4.3749
# 5 4.8497 -3.2869 3.6594 0.0000 39.6299 0.0000
# 6 0.0000 0.0000 0.0000 -4.3749 0.0000 37.8123
#
#
#
# Elastic Compliance Matrix: (Units=1/GPa)
#
#
# Indices 1 2 3 4 5 6 
#
# 1 0.008257 -0.002750 -0.003591 0.000000 -0.000907 0.000000
# 2 -0.002750 0.022819 -0.002188 0.000000 0.002431 0.000000
# 3 -0.003591 -0.002188 0.008451 0.000000 -0.000522 0.000000
# 4 0.000000 0.000000 0.000000 0.031208 0.000000 0.003611
# 5 -0.000907 0.002431 -0.000522 0.000000 0.025594 0.000000
# 6 0.000000 0.000000 0.000000 0.003611 0.000000 0.026864
#
#
# Mechanical properties :
#
#
# Convention : Reuss Voigt Hill
#
# Bulk Modulus (GPa) = 44.50526 69.54141 57.02334
# Shear Modulus (GPa) = 33.84316 38.23895 36.04105
#
# Velocity S-wave (km/s) = 4.21314 4.47840 4.34779
# Velocity P-wave (km/s) = 6.85639 7.95082 7.42380
#
# Compressibility (1/GPa) = 0.02246925
#
# Stress axis : x y z
#
# Youngs Moduli (GPa) = 121.11513 43.82295 118.33172
#
# Poissons Ratio (x) = 0.12050 0.42495
# Poissons Ratio (y) = 0.33302 0.25889
# Poissons Ratio (z) = 0.43495 0.09588
#
# Static dielectric constant tensor:
#      x y z
#    x 1.726640 0.000000 0.005660 
#    y 0.000000 1.653610 0.000000 
#    z 0.005660 0.000000 1.639540 
# 
# From -- ./inp_files/38270.got.cif
#   From: 2010.05.17/outbox.cif.g08.bks.cpg/sg11_20_cif.got.tgz:38270.got - 2010.06.03 12:22:45.
