data_PCOD9165598
_publ_section_title
;
Structure prediction by ZEFSAII (Michael W. Deem and Ramdas Pophale) SiO2 
 PCOD9165598
Probable space group: P 21/M
;
_chemical_formula_sum "Si O2"
_cell_formula_units_Z 24
_cell_length_a 12.605662
_cell_length_b 8.623446
_cell_length_c 9.628345
_cell_angle_alpha 90.000000
_cell_angle_beta 79.398362
_cell_angle_gamma 90.000000
_cell_volume 1028.775895
_symmetry_space_group_name_H-M "P 21/M"
_symmetry_group_IT_number 11
_symmetry_cell_setting 'monoclinic'
loop_
_space_group_symop_operation_xyz
x,y,z
-x,1/2+y,-z
-x,-y,-z
x,1/2-y,z
loop_
_atom_site_type_symbol
_atom_site_label
_atom_site_fract_x
_atom_site_fract_y
_atom_site_fract_z
Si Si1 0.168711 0.427557 0.021171
Si Si2 0.491226 0.930355 0.848900
Si Si3 0.288395 0.572114 0.226139
Si Si4 0.178319 0.436540 0.499163
Si Si5 0.602837 0.565494 0.392354
Si Si6 0.037265 0.066014 0.785445
O O1 0.203672 0.250000 0.034041
O O2 0.252362 0.539130 0.077268
O O3 0.056489 0.460781 0.129287
O O4 0.138026 0.449760 0.868281
O O5 0.469049 0.750000 0.860931
O O6 0.611514 0.962631 0.760874
O O7 0.408946 0.010553 0.763485
O O8 0.500000 0.000000 0.000000
O O9 0.319617 0.750000 0.237132
O O10 0.191034 0.526389 0.352034
O O11 0.178326 0.250000 0.476331
O O12 0.285866 0.480170 0.560658
O O13 0.077991 0.474181 0.622575
O O14 0.500000 0.500000 0.500000
O O15 0.597404 0.750000 0.396218
O O16 0.006330 0.250000 0.798182
#
# Coordination Sequence:
#
# PCOD9165598 Si02
#       6
#     4   4   4   4   4   4
#     4  10  21  39  64  91 123 161 199 253 312 366
#     4  12  26  44  64  91 126 164 208 257 308 367
#     4  12  25  41  62  91 124 162 206 255 307 367
#     4  10  22  40  63  90 122 163 206 252 307 364
#     4  11  22  39  64  92 125 166 206 252 306 365
#     4   9  20  40  64  91 120 157 203 251 306 370
#
# _framework density 23.328696999999998
#
# number of rings (size 3 to 8) (size 9 to 14) (size 15 to 20)
#    0.000    1.333    1.667    4.000    2.333    2.667 
#    0.000    0.000    0.000    0.000    0.000    0.000 
#    0.000    0.000    0.000    0.000    0.000    0.000 
#
# Total GULP energy -134375.295892 kJ/mol
# GULP energy per Si atom -5598.970662 kJ/mol
# Density = 2.327560 g / cm^3
# Si number density = 23.328697 Si / 1000 Ang^3
#
#
#
# Elastic Constant Matrix: (Units=GPa)
#
#
# Indices 1 2 3 4 5 6 
#
# 1 41.4171 -2.3220 -3.6831 0.0000 5.2163 0.0000
# 2 -2.3220 52.2336 10.8992 0.0000 6.5169 0.0000
# 3 -3.6831 10.8992 112.4003 0.0000 2.2036 0.0000
# 4 0.0000 0.0000 0.0000 36.4850 0.0000 3.7649
# 5 5.2163 6.5169 2.2036 0.0000 40.5178 0.0000
# 6 0.0000 0.0000 0.0000 3.7649 0.0000 27.1947
#
#
#
# Elastic Compliance Matrix: (Units=1/GPa)
#
#
# Indices 1 2 3 4 5 6 
#
# 1 0.024722 0.001373 0.000744 0.000000 -0.003444 0.000000
# 2 0.001373 0.019999 -0.001830 0.000000 -0.003294 0.000000
# 3 0.000744 -0.001830 0.009104 0.000000 -0.000297 0.000000
# 4 0.000000 0.000000 0.000000 0.027806 0.000000 -0.003849
# 5 -0.003444 -0.003294 -0.000297 0.000000 0.025670 0.000000
# 6 0.000000 0.000000 0.000000 -0.003849 0.000000 0.037305
#
#
# Mechanical properties :
#
#
# Convention : Reuss Voigt Hill
#
# Bulk Modulus (GPa) = 18.38210 23.98212 21.18211
# Shear Modulus (GPa) = 30.83332 34.24996 32.54164
#
# Velocity S-wave (km/s) = 3.63945 3.83580 3.73891
# Velocity P-wave (km/s) = 5.05544 5.46994 5.26677
#
# Compressibility (1/GPa) = 0.05440074
#
# Stress axis : x y z
#
# Youngs Moduli (GPa) = 40.45054 50.00363 109.83703
#
# Poissons Ratio (x) = -0.06867 -0.08177
# Poissons Ratio (y) = -0.05555 0.20096
# Poissons Ratio (z) = -0.03011 0.09149
#
# Static dielectric constant tensor:
#      x y z
#    x 1.953530 0.000000 -0.019180 
#    y 0.000000 1.781510 0.000000 
#    z -0.019180 0.000000 1.913170 
# 
# From -- ./inp_files/20304.got.cif
#   From: 2010.05.17/outbox.cif.g08.bks.cpg/sg11_11_cif.got.tgz:20304.got - 2010.06.03 12:22:45.
