data_PCOD9165672
_publ_section_title
;
Structure prediction by ZEFSAII (Michael W. Deem and Ramdas Pophale) SiO2 
 PCOD9165672
Probable space group: P 21/M
;
_chemical_formula_sum "Si O2"
_cell_formula_units_Z 32
_cell_length_a 20.084928
_cell_length_b 8.767820
_cell_length_c 26.415258
_cell_angle_alpha 90.000000
_cell_angle_beta 162.208669
_cell_angle_gamma 90.000000
_cell_volume 1421.349282
_symmetry_space_group_name_H-M "P 21/M"
_symmetry_group_IT_number 11
_symmetry_cell_setting 'monoclinic'
loop_
_space_group_symop_operation_xyz
x,y,z
-x,1/2+y,-z
-x,-y,-z
x,1/2-y,z
loop_
_atom_site_type_symbol
_atom_site_label
_atom_site_fract_x
_atom_site_fract_y
_atom_site_fract_z
Si Si1 0.236066 0.922894 0.234621
Si Si2 0.069410 0.564379 0.331157
Si Si3 0.172280 0.428974 0.663156
Si Si4 0.627345 0.074266 0.868416
Si Si5 0.421344 0.432396 0.996631
Si Si6 0.276891 0.420624 0.164375
Si Si7 0.922089 0.066282 0.773742
Si Si8 0.794410 0.070495 0.462516
O O1 0.325344 0.750000 0.299530
O O2 0.335902 0.029416 0.263755
O O3 0.983970 0.910197 0.033255
O O4 0.215520 0.986932 0.276904
O O5 0.071315 0.750000 0.331946
O O6 0.204994 0.518999 0.478668
O O7 0.819071 0.517155 0.160112
O O8 0.145724 0.512534 0.331044
O O9 0.205641 0.250000 0.677640
O O10 0.399408 0.514360 0.833033
O O11 0.000000 0.500000 0.500000
O O12 0.039741 0.445835 0.620056
O O13 0.651671 0.250000 0.898768
O O14 0.655847 0.042136 0.829013
O O15 0.825044 0.980637 0.036084
O O16 0.382050 0.016849 0.698997
O O17 0.419174 0.250000 0.990973
O O18 0.500000 0.500000 0.000000
O O19 0.362427 0.250000 0.215849
O O20 0.911990 0.250000 0.768689
O O21 0.744960 0.250000 0.422815
#
# Coordination Sequence:
#
# PCOD9165672 Si02
#       8
#     4   4   4   4   4   4   4   4
#     4   8  14  25  45  75 107 135 169 218 269 317
#     4   9  19  37  60  81 104 142 185 221 268 330
#     4  11  24  41  60  85 114 147 185 232 283 334
#     4  11  22  34  51  80 113 142 179 228 273 316
#     4  11  21  38  61  86 112 146 189 232 277 331
#     4   9  16  28  48  73 103 143 180 215 265 322
#     4   9  18  34  56  81 108 141 180 221 271 328
#     4  10  21  40  59  76 106 148 185 219 269 333
#
# _framework density 22.513819000000002
#
# number of rings (size 3 to 8) (size 9 to 14) (size 15 to 20)
#    0.000    2.250    1.250    3.000    1.750    4.000 
#    0.000    1.250    0.000    0.750    0.000    0.000 
#    0.000    0.000    0.000    0.000    0.000    0.000 
#
# Total GULP energy -178709.185336 kJ/mol
# GULP energy per Si atom -5584.662042 kJ/mol
# Density = 2.246258 g / cm^3
# Si number density = 22.513819 Si / 1000 Ang^3
#
#
#
# Elastic Constant Matrix: (Units=GPa)
#
#
# Indices 1 2 3 4 5 6 
#
# 1 83.1126 1.3806 -1.8000 0.0000 -31.0872 0.0000
# 2 1.3806 22.7067 -8.9249 0.0000 -4.6129 0.0000
# 3 -1.8000 -8.9249 63.4058 0.0000 -12.6101 0.0000
# 4 0.0000 0.0000 0.0000 16.0982 0.0000 -2.2922
# 5 -31.0872 -4.6129 -12.6101 0.0000 31.2592 0.0000
# 6 0.0000 0.0000 0.0000 -2.2922 0.0000 22.7612
#
#
#
# Elastic Compliance Matrix: (Units=1/GPa)
#
#
# Indices 1 2 3 4 5 6 
#
# 1 0.021296 0.006229 0.006389 0.000000 0.024676 0.000000
# 2 0.006229 0.051744 0.011102 0.000000 0.018309 0.000000
# 3 0.006389 0.011102 0.020771 0.000000 0.016371 0.000000
# 4 0.000000 0.000000 0.000000 0.063022 0.000000 0.006347
# 5 0.024676 0.018309 0.016371 0.000000 0.065837 0.000000
# 6 0.000000 0.000000 0.000000 0.006347 0.000000 0.044574
#
#
# Mechanical properties :
#
#
# Convention : Reuss Voigt Hill
#
# Bulk Modulus (GPa) = 7.07955 16.72629 11.90292
# Shear Modulus (GPa) = 18.73436 25.92835 22.33135
#
# Velocity S-wave (km/s) = 2.88779 3.39730 3.15285
# Velocity P-wave (km/s) = 3.77763 4.77853 4.30725
#
# Compressibility (1/GPa) = 0.14125188
#
# Stress axis : x y z
#
# Youngs Moduli (GPa) = 46.95617 19.32580 48.14320
#
# Poissons Ratio (x) = -0.12039 -0.30758
# Poissons Ratio (y) = -0.29250 -0.53447
# Poissons Ratio (z) = -0.30000 -0.21455
#
# Static dielectric constant tensor:
#      x y z
#    x 1.941970 0.000000 0.032780 
#    y 0.000000 1.758770 0.000000 
#    z 0.032780 0.000000 1.887550 
# 
# From -- ./inp_files/72179.got.cif
#   From: 2010.05.17/outbox.cif.g08.bks.cpg/sg11_37_cif.got.tgz:72179.got - 2010.06.03 12:22:45.
