data_PCOD9165338
_publ_section_title
;
Structure prediction by ZEFSAII (Michael W. Deem and Ramdas Pophale) SiO2 
 PCOD9165338
Probable space group: P 21/M
;
_chemical_formula_sum "Si O2"
_cell_formula_units_Z 32
_cell_length_a 12.115455
_cell_length_b 8.902767
_cell_length_c 31.505009
_cell_angle_alpha 90.000000
_cell_angle_beta 149.592620
_cell_angle_gamma 90.000000
_cell_volume 1719.963267
_symmetry_space_group_name_H-M "P 21/M"
_symmetry_group_IT_number 11
_symmetry_cell_setting 'monoclinic'
loop_
_space_group_symop_operation_xyz
x,y,z
-x,1/2+y,-z
-x,-y,-z
x,1/2-y,z
loop_
_atom_site_type_symbol
_atom_site_label
_atom_site_fract_x
_atom_site_fract_y
_atom_site_fract_z
Si Si1 0.374754 0.570694 0.895813
Si Si2 0.186631 0.929415 0.925798
Si Si3 0.721354 0.429627 0.774492
Si Si4 0.707624 0.572625 0.591902
Si Si5 0.473539 0.072535 0.375540
Si Si6 0.170344 0.071764 0.744526
Si Si7 0.674126 0.571500 0.294551
Si Si8 0.939165 0.571137 0.525208
O O1 0.395607 0.750000 0.899898
O O2 0.237343 0.536522 0.892976
O O3 0.258513 0.507118 0.815827
O O4 0.611155 0.496852 0.981153
O O5 0.180103 0.750000 0.928437
O O6 0.957175 0.001517 0.861743
O O7 0.736186 0.250000 0.775302
O O8 0.631985 0.498160 0.700854
O O9 0.546495 0.464228 0.753374
O O10 0.500000 0.500000 0.500000
O O11 0.718242 0.750000 0.585696
O O12 0.672330 0.555454 0.630858
O O13 0.931792 0.491993 0.654270
O O14 0.504605 0.250000 0.378129
O O15 0.706558 0.996227 0.461207
O O16 0.155109 0.250000 0.746444
O O17 0.326260 0.044523 0.755823
O O18 0.718612 0.750000 0.315806
O O19 0.871072 0.478592 0.380157
O O20 0.924943 0.750000 0.517066
O O21 0.000000 0.500000 0.500000
#
# Coordination Sequence:
#
# PCOD9165338 Si02
#       8
#     4   4   4   4   4   4   4   4
#     4  10  21  39  63  91 120 152 191 235 288 352
#     4  10  21  38  62  91 122 150 185 239 294 346
#     4  11  22  37  59  86 116 151 192 239 293 348
#     4  11  24  40  58  84 118 154 195 244 293 346
#     4  11  23  38  57  83 116 151 193 244 295 346
#     4  11  23  40  62  86 118 158 198 241 292 349
#     4  10  23  41  58  82 117 156 199 245 289 341
#     4  12  23  36  57  83 113 152 197 243 291 345
#
# _framework density 18.605046999999999
#
# number of rings (size 3 to 8) (size 9 to 14) (size 15 to 20)
#    0.000    1.250    1.250    4.875    0.000   11.000 
#    0.000    0.625    0.000    0.000    0.000    0.000 
#    0.000    0.000    0.000    0.000    0.000    0.000 
#
# Total GULP energy -178972.303985 kJ/mol
# GULP energy per Si atom -5592.884500 kJ/mol
# Density = 1.856270 g / cm^3
# Si number density = 18.605047 Si / 1000 Ang^3
#
#
#
# Elastic Constant Matrix: (Units=GPa)
#
#
# Indices 1 2 3 4 5 6 
#
# 1 77.5591 49.4445 45.8971 0.0000 8.4556 0.0000
# 2 49.4445 78.1802 42.2807 0.0000 5.4297 0.0000
# 3 45.8971 42.2807 105.6727 0.0000 7.0986 0.0000
# 4 0.0000 0.0000 0.0000 39.7380 0.0000 1.3546
# 5 8.4556 5.4297 7.0986 0.0000 32.7722 0.0000
# 6 0.0000 0.0000 0.0000 1.3546 0.0000 28.1145
#
#
#
# Elastic Compliance Matrix: (Units=1/GPa)
#
#
# Indices 1 2 3 4 5 6 
#
# 1 0.024187 -0.012142 -0.005442 0.000000 -0.003050 0.000000
# 2 -0.012142 0.022474 -0.003733 0.000000 0.000218 0.000000
# 3 -0.005442 -0.003733 0.013379 0.000000 -0.000875 0.000000
# 4 0.000000 0.000000 0.000000 0.025206 0.000000 -0.001214
# 5 -0.003050 0.000218 -0.000875 0.000000 0.031454 0.000000
# 6 0.000000 0.000000 0.000000 -0.001214 0.000000 0.035627
#
#
# Mechanical properties :
#
#
# Convention : Reuss Voigt Hill
#
# Bulk Modulus (GPa) = 57.45183 59.62849 58.54016
# Shear Modulus (GPa) = 24.90490 28.37759 26.64125
#
# Velocity S-wave (km/s) = 3.66267 3.90970 3.78820
# Velocity P-wave (km/s) = 6.98811 7.24570 7.11807
#
# Compressibility (1/GPa) = 0.01740589
#
# Stress axis : x y z
#
# Youngs Moduli (GPa) = 41.34458 44.49647 74.74219
#
# Poissons Ratio (x) = 0.54027 0.40676
# Poissons Ratio (y) = 0.50200 0.27901
# Poissons Ratio (z) = 0.22501 0.16610
#
# Static dielectric constant tensor:
#      x y z
#    x 1.649880 0.000000 -0.001590 
#    y 0.000000 1.619700 0.000000 
#    z -0.001590 0.000000 1.607410 
# 
# From -- ./inp_files/45192.got.cif
#   From: 2010.05.17/outbox.cif.g08.bks.cpg/sg11_23_cif.got.tgz:45192.got - 2010.06.03 12:22:45.
