data_PCOD9165490
_publ_section_title
;
Structure prediction by ZEFSAII (Michael W. Deem and Ramdas Pophale) SiO2 
 PCOD9165490
Probable space group: P 21/M
;
_chemical_formula_sum "Si O2"
_cell_formula_units_Z 28
_cell_length_a 14.848894
_cell_length_b 9.016485
_cell_length_c 12.782015
_cell_angle_alpha 90.000000
_cell_angle_beta 58.421362
_cell_angle_gamma 90.000000
_cell_volume 1457.909777
_symmetry_space_group_name_H-M "P 21/M"
_symmetry_group_IT_number 11
_symmetry_cell_setting 'monoclinic'
loop_
_space_group_symop_operation_xyz
x,y,z
-x,1/2+y,-z
-x,-y,-z
x,1/2-y,z
loop_
_atom_site_type_symbol
_atom_site_label
_atom_site_fract_x
_atom_site_fract_y
_atom_site_fract_z
Si Si1 0.104102 0.926829 0.483526
Si Si2 0.115423 0.928415 0.921914
Si Si3 0.278535 0.427366 0.232503
Si Si4 0.799128 0.427199 0.360188
Si Si5 0.505011 0.426173 0.176540
Si Si6 0.730331 0.926724 0.001960
Si Si7 0.575390 0.574823 0.538452
O O1 0.098962 0.750000 0.475122
O O2 0.118005 0.961385 0.598088
O O3 0.205352 0.988727 0.359459
O O4 0.000000 0.000000 0.500000
O O5 0.109052 0.750000 0.933560
O O6 0.162341 0.966397 0.778997
O O7 0.192130 0.991490 0.964951
O O8 0.000000 0.000000 0.000000
O O9 0.271605 0.250000 0.256819
O O10 0.402090 0.468046 0.170950
O O11 0.241959 0.456158 0.136342
O O12 0.780748 0.250000 0.373196
O O13 0.691170 0.507814 0.454916
O O14 0.525733 0.250000 0.148931
O O15 0.610663 0.516688 0.090394
O O16 0.469455 0.449595 0.318060
O O17 0.735805 0.750000 0.015606
O O18 0.500000 0.500000 0.500000
O O19 0.579047 0.750000 0.518419
#
# Coordination Sequence:
#
# PCOD9165490 Si02
#       7
#     4   4   4   4   4   4   4
#     4  11  24  41  65  95 125 161 206 257 312 369
#     4  11  25  45  66  90 123 163 208 256 309 368
#     4  10  22  42  64  91 128 165 206 255 308 365
#     4  10  23  43  64  89 123 160 202 255 307 360
#     4  10  21  39  61  89 125 164 204 251 307 366
#     4  11  24  40  63  93 126 165 208 257 307 363
#     4  11  22  36  60  90 124 163 204 250 302 363
#
# _framework density 19.205579
#
# number of rings (size 3 to 8) (size 9 to 14) (size 15 to 20)
#    0.000    1.429    1.429    3.000    2.000    8.000 
#    0.000    0.000    0.000    0.000    0.000    0.000 
#    0.000    0.000    0.000    0.000    0.000    0.000 
#
# Total GULP energy -156559.082691 kJ/mol
# GULP energy per Si atom -5591.395810 kJ/mol
# Density = 1.916187 g / cm^3
# Si number density = 19.205579 Si / 1000 Ang^3
#
#
#
# Elastic Constant Matrix: (Units=GPa)
#
#
# Indices 1 2 3 4 5 6 
#
# 1 131.1871 39.7767 34.4774 0.0000 23.6540 0.0000
# 2 39.7767 36.0186 37.0811 0.0000 16.1602 0.0000
# 3 34.4774 37.0811 66.0352 0.0000 18.4779 0.0000
# 4 0.0000 0.0000 0.0000 31.0509 0.0000 -5.3705
# 5 23.6540 16.1602 18.4779 0.0000 33.5431 0.0000
# 6 0.0000 0.0000 0.0000 -5.3705 0.0000 40.1514
#
#
#
# Elastic Compliance Matrix: (Units=1/GPa)
#
#
# Indices 1 2 3 4 5 6 
#
# 1 0.011867 -0.014867 0.002944 0.000000 -0.002827 0.000000
# 2 -0.014867 0.089968 -0.039680 0.000000 -0.011002 0.000000
# 3 0.002944 -0.039680 0.036791 0.000000 -0.003226 0.000000
# 4 0.000000 0.000000 0.000000 0.032968 0.000000 0.004410
# 5 -0.002827 -0.011002 -0.003226 0.000000 0.038884 0.000000
# 6 0.000000 0.000000 0.000000 0.004410 0.000000 0.025496
#
#
# Mechanical properties :
#
#
# Convention : Reuss Voigt Hill
#
# Bulk Modulus (GPa) = 28.23268 50.65681 39.44475
# Shear Modulus (GPa) = 14.24566 29.07613 21.66089
#
# Velocity S-wave (km/s) = 2.72646 3.89516 3.36198
# Velocity P-wave (km/s) = 4.96423 6.83104 5.97104
#
# Compressibility (1/GPa) = 0.03541994
#
# Stress axis : x y z
#
# Youngs Moduli (GPa) = 84.27064 11.11508 27.18075
#
# Poissons Ratio (x) = 0.16525 -0.08001
# Poissons Ratio (y) = 1.25284 1.07852
# Poissons Ratio (z) = -0.24807 0.44104
#
# Static dielectric constant tensor:
#      x y z
#    x 1.653050 0.000000 0.019890 
#    y 0.000000 1.639580 0.000000 
#    z 0.019890 0.000000 1.649990 
# 
# From -- ./inp_files/37852.got.cif
#   From: 2010.05.17/outbox.cif.g08.bks.cpg/sg11_19_cif.got.tgz:37852.got - 2010.06.03 12:22:45.
