data_PCOD9165944
_publ_section_title
;
Structure prediction by ZEFSAII (Michael W. Deem and Ramdas Pophale) SiO2 
 PCOD9165944
Probable space group: P 21/M
;
_chemical_formula_sum "Si O2"
_cell_formula_units_Z 28
_cell_length_a 8.204281
_cell_length_b 30.718861
_cell_length_c 4.989009
_cell_angle_alpha 90.000000
_cell_angle_beta 99.309295
_cell_angle_gamma 90.000000
_cell_volume 1240.800731
_symmetry_space_group_name_H-M "P 21/M"
_symmetry_group_IT_number 11
_symmetry_cell_setting 'monoclinic'
loop_
_space_group_symop_operation_xyz
x,y,z
-x,1/2+y,-z
-x,-y,-z
x,1/2-y,z
loop_
_atom_site_type_symbol
_atom_site_label
_atom_site_fract_x
_atom_site_fract_y
_atom_site_fract_z
Si Si1 0.125081 0.951671 0.308331
Si Si2 0.672535 0.124384 0.410152
Si Si3 0.310376 0.129212 0.462211
Si Si4 0.896146 0.951325 0.757543
Si Si5 0.111900 0.296404 0.210436
Si Si6 0.766972 0.173531 0.948610
Si Si7 0.418258 0.202933 0.886655
O O1 0.273481 0.918962 0.415135
O O2 0.037323 0.955659 0.572182
O O3 0.174278 0.999854 0.220652
O O4 0.985331 0.936002 0.056619
O O5 0.475413 0.127264 0.323534
O O6 0.732054 0.161573 0.632516
O O7 0.761037 0.132218 0.149965
O O8 0.236331 0.081363 0.406172
O O9 0.149269 0.159606 0.376994
O O10 0.384851 0.157222 0.728112
O O11 0.097886 0.250000 0.352795
O O12 0.276544 0.294948 0.071980
O O13 0.941821 0.303331 0.012262
O O14 0.610075 0.200524 0.016502
O O15 0.404336 0.250000 0.732149
#
# Coordination Sequence:
#
# PCOD9165944 Si02
#       7
#     4   4   4   4   4   4   4
#     4  10  21  42  59  98 122 171 205 266 310 384
#     4  11  23  40  65  91 134 160 214 259 321 371
#     4  11  23  39  63  93 125 170 210 270 315 380
#     4  10  23  38  68  87 131 161 217 256 320 374
#     4  11  23  40  64  90 122 170 215 262 318 377
#     4  11  24  42  64  94 125 173 206 264 311 384
#     4  10  23  43  61  91 131 165 214 268 315 377
#
# _framework density 22.566075000000001
#
# number of rings (size 3 to 8) (size 9 to 14) (size 15 to 20)
#    0.000    1.429    1.429    3.429    6.000    0.571 
#    0.000    1.429    0.000    7.714    0.000    0.000 
#    0.000    0.000    0.000    0.000    0.000    0.000 
#
# Total GULP energy -155900.216681 kJ/mol
# GULP energy per Si atom -5567.864881 kJ/mol
# Density = 2.251471 g / cm^3
# Si number density = 22.566075 Si / 1000 Ang^3
#
#
#
# Elastic Constant Matrix: (Units=GPa)
#
#
# Indices 1 2 3 4 5 6 
#
# 1 81.3904 20.1871 5.4130 0.0000 33.4709 0.0000
# 2 20.1871 97.1065 16.4645 0.0000 24.7885 0.0000
# 3 5.4130 16.4645 73.4067 0.0000 9.8438 0.0000
# 4 0.0000 0.0000 0.0000 86.3324 0.0000 171.9766
# 5 33.4709 24.7885 9.8438 0.0000 36.5646 0.0000
# 6 0.0000 0.0000 0.0000 171.9766 0.0000 682.1061
#
#
#
# Elastic Compliance Matrix: (Units=1/GPa)
#
#
# Indices 1 2 3 4 5 6 
#
# 1 0.019795 0.000503 0.000937 0.000000 -0.018714 0.000000
# 2 0.000503 0.012680 -0.001729 0.000000 -0.008591 0.000000
# 3 0.000937 -0.001729 0.014420 0.000000 -0.003568 0.000000
# 4 0.000000 0.000000 0.000000 0.023271 0.000000 -0.005867
# 5 -0.018714 -0.008591 -0.003568 0.000000 0.051264 0.000000
# 6 0.000000 0.000000 0.000000 -0.005867 0.000000 0.002945
#
#
# Mechanical properties :
#
#
# Convention : Reuss Voigt Hill
#
# Bulk Modulus (GPa) = 21.59052 37.33698 29.46375
# Shear Modulus (GPa) = 35.61481 174.98988 105.30235
#
# Velocity S-wave (km/s) = 3.97702 8.81555 6.83852
# Velocity P-wave (km/s) = 5.53872 10.96358 8.68555
#
# Compressibility (1/GPa) = 0.04631662
#
# Stress axis : x y z
#
# Youngs Moduli (GPa) = 50.51749 78.86692 69.34887
#
# Poissons Ratio (x) = -0.03967 -0.06498
# Poissons Ratio (y) = -0.02541 0.11990
# Poissons Ratio (z) = -0.04733 0.13636
#
# Static dielectric constant tensor:
#      x y z
#    x 1.816700 0.000000 0.008580 
#    y 0.000000 1.918790 0.000000 
#    z 0.008580 0.000000 1.899160 
# 
# From -- ./inp_files/3194.got.cif
#   From: 2010.05.17/outbox.cif.g08.bks.cpg/sg11_2_cif.got.tgz:3194.got - 2010.06.03 12:22:45.
