data_PCOD9165170
_publ_section_title
;
Structure prediction by ZEFSAII (Michael W. Deem and Ramdas Pophale) SiO2 
 PCOD9165170
Probable space group: P 21/M
;
_chemical_formula_sum "Si O2"
_cell_formula_units_Z 20
_cell_length_a 12.514284
_cell_length_b 13.819993
_cell_length_c 11.347299
_cell_angle_alpha 90.000000
_cell_angle_beta 23.945007
_cell_angle_gamma 90.000000
_cell_volume 796.493397
_symmetry_space_group_name_H-M "P 21/M"
_symmetry_group_IT_number 11
_symmetry_cell_setting 'monoclinic'
loop_
_space_group_symop_operation_xyz
x,y,z
-x,1/2+y,-z
-x,-y,-z
x,1/2-y,z
loop_
_atom_site_type_symbol
_atom_site_label
_atom_site_fract_x
_atom_site_fract_y
_atom_site_fract_z
Si Si1 0.938194 0.133404 0.654264
Si Si2 0.553316 0.632908 0.993255
Si Si3 0.498454 0.934138 0.307842
Si Si4 0.994904 0.894240 0.950411
Si Si5 0.730347 0.642336 0.453502
O O1 0.933389 0.250000 0.659329
O O2 0.152722 0.104182 0.340137
O O3 0.061102 0.108630 0.656765
O O4 0.648249 0.103195 0.907366
O O5 0.547565 0.750000 0.008222
O O6 0.461243 0.590183 0.209233
O O7 0.780472 0.894962 0.063539
O O8 0.464616 0.050295 0.363369
O O9 0.719856 0.120924 0.392810
O O10 0.882602 0.842672 0.178048
O O11 0.000000 0.000000 0.000000
O O12 0.618785 0.750000 0.599605
#
# Coordination Sequence:
#
# PCOD9165170 Si02
#       5
#     4   4   4   4   4
#     4   9  20  37  58  86 119 156 197 240 290 347
#     4  10  21  38  59  86 121 157 197 244 290 343
#     4  11  23  40  63  89 118 154 198 243 292 350
#     4  10  22  41  60  84 117 152 193 244 293 345
#     4  10  22  40  62  88 120 156 195 242 294 349
#
# _framework density 25.110063
#
# number of rings (size 3 to 8) (size 9 to 14) (size 15 to 20)
#    0.000    2.000    0.000    3.600    0.000    8.000 
#    0.000   14.000    0.000    0.000    0.000    0.000 
#    0.000    0.000    0.000    0.000    0.000    0.000 
#
# Total GULP energy -111907.411386 kJ/mol
# GULP energy per Si atom -5595.370569 kJ/mol
# Density = 2.505291 g / cm^3
# Si number density = 25.110063 Si / 1000 Ang^3
#
#
#
# Elastic Constant Matrix: (Units=GPa)
#
#
# Indices 1 2 3 4 5 6 
#
# 1 85.5118 1.9119 2.0668 0.0000 12.2822 0.0000
# 2 1.9119 96.2873 17.2152 0.0000 18.6627 0.0000
# 3 2.0668 17.2152 96.2158 0.0000 1.2044 0.0000
# 4 0.0000 0.0000 0.0000 21.6911 0.0000 -0.6813
# 5 12.2822 18.6627 1.2044 0.0000 43.3775 0.0000
# 6 0.0000 0.0000 0.0000 -0.6813 0.0000 47.2528
#
#
#
# Elastic Compliance Matrix: (Units=1/GPa)
#
#
# Indices 1 2 3 4 5 6 
#
# 1 0.012218 0.000526 -0.000310 0.000000 -0.003677 0.000000
# 2 0.000526 0.011738 -0.002047 0.000000 -0.005142 0.000000
# 3 -0.000310 -0.002047 0.010758 0.000000 0.000670 0.000000
# 4 0.000000 0.000000 0.000000 0.046123 0.000000 0.000665
# 5 -0.003677 -0.005142 0.000670 0.000000 0.026288 0.000000
# 6 0.000000 0.000000 0.000000 0.000665 0.000000 0.021172
#
#
# Mechanical properties :
#
#
# Convention : Reuss Voigt Hill
#
# Bulk Modulus (GPa) = 32.20619 35.60028 33.90323
# Shear Modulus (GPa) = 35.13429 39.58568 37.35999
#
# Velocity S-wave (km/s) = 3.74466 3.97481 3.86145
# Velocity P-wave (km/s) = 5.61698 5.93919 5.78033
#
# Compressibility (1/GPa) = 0.03104993
#
# Stress axis : x y z
#
# Youngs Moduli (GPa) = 81.84518 85.19488 92.95534
#
# Poissons Ratio (x) = -0.04478 0.02886
# Poissons Ratio (y) = -0.04302 0.19029
# Poissons Ratio (z) = 0.02541 0.17440
#
# Static dielectric constant tensor:
#      x y z
#    x 2.008110 0.000000 -0.016540 
#    y 0.000000 2.087710 0.000000 
#    z -0.016540 0.000000 1.968650 
# 
# From -- ./inp_files/35661.got.cif
#   From: 2010.05.17/outbox.cif.g08.bks.cpg/sg11_18_cif.got.tgz:35661.got - 2010.06.03 12:22:45.
