data_PCOD9165555
_publ_section_title
;
Structure prediction by ZEFSAII (Michael W. Deem and Ramdas Pophale) SiO2 
 PCOD9165555
Probable space group: P 21/M
;
_chemical_formula_sum "Si O2"
_cell_formula_units_Z 28
_cell_length_a 15.492834
_cell_length_b 9.058095
_cell_length_c 19.266494
_cell_angle_alpha 90.000000
_cell_angle_beta 149.297338
_cell_angle_gamma 90.000000
_cell_volume 1380.500816
_symmetry_space_group_name_H-M "P 21/M"
_symmetry_group_IT_number 11
_symmetry_cell_setting 'monoclinic'
loop_
_space_group_symop_operation_xyz
x,y,z
-x,1/2+y,-z
-x,-y,-z
x,1/2-y,z
loop_
_atom_site_type_symbol
_atom_site_label
_atom_site_fract_x
_atom_site_fract_y
_atom_site_fract_z
Si Si1 0.449440 0.080869 0.163888
Si Si2 0.498770 0.075009 0.424391
Si Si3 0.028539 0.073061 0.668635
Si Si4 0.940247 0.924651 0.146213
Si Si5 0.316474 0.424370 0.569953
Si Si6 0.110555 0.075905 0.136081
Si Si7 0.367018 0.921995 0.857185
O O1 0.463334 0.250000 0.200959
O O2 0.553862 0.073012 0.164676
O O3 0.532061 0.968087 0.274040
O O4 0.253683 0.052518 0.011682
O O5 0.531379 0.250000 0.451836
O O6 0.310409 0.053172 0.263319
O O7 0.500000 0.000000 0.500000
O O8 0.634463 0.997390 0.469279
O O9 0.025450 0.250000 0.659592
O O10 0.044704 0.036785 0.762226
O O11 0.189872 0.005354 0.741818
O O12 0.855255 0.000987 0.523049
O O13 0.977371 0.750000 0.165494
O O14 0.058334 0.012137 0.174933
O O15 0.295790 0.250000 0.549745
O O16 0.078124 0.250000 0.112310
O O17 0.000000 0.000000 0.000000
O O18 0.346660 0.750000 0.862484
O O19 0.500000 0.000000 0.000000
#
# Coordination Sequence:
#
# PCOD9165555 Si02
#       7
#     4   4   4   4   4   4   4
#     4  10  22  42  64  90 126 168 208 255 312 374
#     4  11  24  43  65  90 124 167 210 259 312 374
#     4  11  23  42  66  93 125 165 207 256 313 372
#     4  10  21  39  63  90 120 158 206 253 307 367
#     4  12  26  42  62  94 127 164 211 260 316 377
#     4  11  24  39  59  89 122 158 203 253 309 366
#     4  11  22  40  66  96 129 164 209 259 311 373
#
# _framework density 20.282494
#
# number of rings (size 3 to 8) (size 9 to 14) (size 15 to 20)
#    0.000    1.143    1.429    4.714    0.000   11.429 
#    0.000    0.000    0.000    0.000    0.000    0.000 
#    0.000    0.000    0.000    0.000    0.000    0.000 
#
# Total GULP energy -156718.601196 kJ/mol
# GULP energy per Si atom -5597.092900 kJ/mol
# Density = 2.023633 g / cm^3
# Si number density = 20.282494 Si / 1000 Ang^3
#
#
#
# Elastic Constant Matrix: (Units=GPa)
#
#
# Indices 1 2 3 4 5 6 
#
# 1 47.4052 25.8942 -2.7931 0.0000 20.1579 0.0000
# 2 25.8942 101.2569 36.3599 0.0000 12.6938 0.0000
# 3 -2.7931 36.3599 53.7300 0.0000 11.3345 0.0000
# 4 0.0000 0.0000 0.0000 29.9527 0.0000 1.2530
# 5 20.1579 12.6938 11.3345 0.0000 38.1210 0.0000
# 6 0.0000 0.0000 0.0000 1.2530 0.0000 37.8333
#
#
#
# Elastic Compliance Matrix: (Units=1/GPa)
#
#
# Indices 1 2 3 4 5 6 
#
# 1 0.036941 -0.012096 0.014272 0.000000 -0.019749 0.000000
# 2 -0.012096 0.017128 -0.013193 0.000000 0.004615 0.000000
# 3 0.014272 -0.013193 0.030884 0.000000 -0.012336 0.000000
# 4 0.000000 0.000000 0.000000 0.033432 0.000000 -0.001107
# 5 -0.019749 0.004615 -0.012336 0.000000 0.038807 0.000000
# 6 0.000000 0.000000 0.000000 -0.001107 0.000000 0.026468
#
#
# Mechanical properties :
#
#
# Convention : Reuss Voigt Hill
#
# Bulk Modulus (GPa) = 15.89358 35.70157 25.79757
# Shear Modulus (GPa) = 22.05882 30.71014 26.38448
#
# Velocity S-wave (km/s) = 3.30142 3.89539 3.61064
# Velocity P-wave (km/s) = 4.73135 6.15406 5.48899
#
# Compressibility (1/GPa) = 0.06291851
#
# Stress axis : x y z
#
# Youngs Moduli (GPa) = 27.07042 58.38401 32.37935
#
# Poissons Ratio (x) = 0.70620 -0.46212
# Poissons Ratio (y) = 0.32744 0.42719
# Poissons Ratio (z) = -0.38635 0.77027
#
# Static dielectric constant tensor:
#      x y z
#    x 1.712590 0.000000 -0.004620 
#    y 0.000000 1.680080 0.000000 
#    z -0.004620 0.000000 1.725130 
# 
# From -- ./inp_files/65441.got.cif
#   From: 2010.05.17/outbox.cif.g08.bks.cpg/sg11_33_cif.got.tgz:65441.got - 2010.06.03 12:22:45.
