data_PCOD9165248
_publ_section_title
;
Structure prediction by ZEFSAII (Michael W. Deem and Ramdas Pophale) SiO2 
 PCOD9165248
Probable space group: P 21/M
;
_chemical_formula_sum "Si O2"
_cell_formula_units_Z 32
_cell_length_a 12.259574
_cell_length_b 13.824215
_cell_length_c 13.874609
_cell_angle_alpha 90.000000
_cell_angle_beta 137.923735
_cell_angle_gamma 90.000000
_cell_volume 1575.754914
_symmetry_space_group_name_H-M "P 21/M"
_symmetry_group_IT_number 11
_symmetry_cell_setting 'monoclinic'
loop_
_space_group_symop_operation_xyz
x,y,z
-x,1/2+y,-z
-x,-y,-z
x,1/2-y,z
loop_
_atom_site_type_symbol
_atom_site_label
_atom_site_fract_x
_atom_site_fract_y
_atom_site_fract_z
Si Si1 0.745020 0.633281 0.142692
Si Si2 0.204578 0.010255 0.340969
Si Si3 0.007005 0.362477 0.542329
Si Si4 0.043311 0.634418 0.706355
Si Si5 0.049593 0.134048 0.909810
Si Si6 0.654099 0.087060 0.379500
Si Si7 0.689098 0.639091 0.755876
Si Si8 0.390856 0.867564 0.862602
O O1 0.752800 0.750000 0.152151
O O2 0.856415 0.593808 0.300379
O O3 0.826532 0.608378 0.095163
O O4 0.557877 0.608403 0.023682
O O5 0.312491 0.068611 0.335962
O O6 0.057485 0.078762 0.280270
O O7 0.116413 0.921457 0.226842
O O8 0.303179 0.983040 0.502722
O O9 0.044827 0.250000 0.553458
O O10 0.008770 0.401225 0.435140
O O11 0.832919 0.364305 0.481872
O O12 0.015831 0.750000 0.696481
O O13 0.236897 0.618915 0.830408
O O14 0.021382 0.250000 0.890656
O O15 0.154805 0.111587 0.074696
O O16 0.483722 0.134933 0.301487
O O17 0.619968 0.071046 0.243105
O O18 0.714022 0.750000 0.742001
O O19 0.390277 0.750000 0.835784
#
# Coordination Sequence:
#
# PCOD9165248 Si02
#       8
#     4   4   4   4   4   4   4   4
#     4   9  15  30  55  86 111 139 189 242 284 321
#     4  12  24  38  57  87 122 150 189 230 287 352
#     4   9  17  31  57  86 112 148 192 235 280 330
#     4   9  20  38  57  82 119 160 190 225 278 346
#     4  10  21  38  61  86 112 146 192 242 288 329
#     4  11  20  33  55  84 113 140 189 244 282 321
#     4  11  23  41  63  83 111 153 192 237 287 339
#     4   9  17  32  58  85 112 149 195 237 279 333
#
# _framework density 20.307727
#
# number of rings (size 3 to 8) (size 9 to 14) (size 15 to 20)
#    0.000    2.000    2.500    3.000    0.000    3.000 
#    0.000    1.875    0.000    0.000    0.000    5.250 
#    0.000    0.000    0.000    0.000    0.000    0.000 
#
# Total GULP energy -178368.606412 kJ/mol
# GULP energy per Si atom -5574.018950 kJ/mol
# Density = 2.026151 g / cm^3
# Si number density = 20.307727 Si / 1000 Ang^3
#
#
#
# Elastic Constant Matrix: (Units=GPa)
#
#
# Indices 1 2 3 4 5 6 
#
# 1 69.9216 20.7507 7.0631 0.0000 4.9052 0.0000
# 2 20.7507 61.5512 15.8491 0.0000 -7.9036 0.0000
# 3 7.0631 15.8491 94.8029 0.0000 9.4279 0.0000
# 4 0.0000 0.0000 0.0000 23.5568 0.0000 -1.3159
# 5 4.9052 -7.9036 9.4279 0.0000 18.3376 0.0000
# 6 0.0000 0.0000 0.0000 -1.3159 0.0000 26.2419
#
#
#
# Elastic Compliance Matrix: (Units=1/GPa)
#
#
# Indices 1 2 3 4 5 6 
#
# 1 0.016810 -0.006838 0.000665 0.000000 -0.007786 0.000000
# 2 -0.006838 0.021391 -0.004390 0.000000 0.013306 0.000000
# 3 0.000665 -0.004390 0.012055 0.000000 -0.008268 0.000000
# 4 0.000000 0.000000 0.000000 0.042570 0.000000 0.002135
# 5 -0.007786 0.013306 -0.008268 0.000000 0.066601 0.000000
# 6 0.000000 0.000000 0.000000 0.002135 0.000000 0.038214
#
#
# Mechanical properties :
#
#
# Convention : Reuss Voigt Hill
#
# Bulk Modulus (GPa) = 34.32910 34.84461 34.58686
# Shear Modulus (GPa) = 21.88411 25.80145 23.84278
#
# Velocity S-wave (km/s) = 3.28628 3.56831 3.43019
# Velocity P-wave (km/s) = 5.59827 5.84574 5.72334
#
# Compressibility (1/GPa) = 0.02912980
#
# Stress axis : x y z
#
# Youngs Moduli (GPa) = 59.48791 46.74886 82.95493
#
# Poissons Ratio (x) = 0.31968 -0.05517
# Poissons Ratio (y) = 0.40679 0.36416
# Poissons Ratio (z) = -0.03956 0.20522
#
# Static dielectric constant tensor:
#      x y z
#    x 1.672160 0.000000 -0.007430 
#    y 0.000000 1.781100 0.000000 
#    z -0.007430 0.000000 1.755610 
# 
# From -- ./inp_files/50405.got.cif
#   From: 2010.05.17/outbox.cif.g08.bks.cpg/sg11_26_cif.got.tgz:50405.got - 2010.06.03 12:22:45.
