data_PCOD9165413
_publ_section_title
;
Structure prediction by ZEFSAII (Michael W. Deem and Ramdas Pophale) SiO2 
 PCOD9165413
Probable space group: P 21/M
;
_chemical_formula_sum "Si O2"
_cell_formula_units_Z 18
_cell_length_a 21.994005
_cell_length_b 7.380412
_cell_length_c 8.117458
_cell_angle_alpha 90.000000
_cell_angle_beta 146.529291
_cell_angle_gamma 90.000000
_cell_volume 726.706171
_symmetry_space_group_name_H-M "P 21/M"
_symmetry_group_IT_number 11
_symmetry_cell_setting 'monoclinic'
loop_
_space_group_symop_operation_xyz
x,y,z
-x,1/2+y,-z
-x,-y,-z
x,1/2-y,z
loop_
_atom_site_type_symbol
_atom_site_label
_atom_site_fract_x
_atom_site_fract_y
_atom_site_fract_z
Si Si1 0.879520 0.965183 0.659574
Si Si2 0.126056 0.465674 0.731186
Si Si3 0.310573 0.750000 0.202181
Si Si4 0.343137 0.468251 0.705393
Si Si5 0.459101 0.041089 0.630225
O O1 0.865873 0.750000 0.622987
O O2 0.866718 0.026324 0.443548
O O3 0.780729 0.034631 0.549227
O O4 0.000000 0.000000 0.000000
O O5 0.148136 0.250000 0.798850
O O6 0.000000 0.500000 0.500000
O O7 0.216658 0.589863 0.021709
O O8 0.405887 0.592254 0.379858
O O9 0.346210 0.250000 0.702546
O O10 0.398850 0.535007 0.663429
O O11 0.414921 0.523548 0.025946
O O12 0.431111 0.250000 0.541859
#
# Coordination Sequence:
#
# PCOD9165413 Si02
#       5
#     4   4   2   4   4
#     4  10  24  41  67  97 130 171 215 270 329 383
#     4  11  25  45  66  95 133 171 219 268 325 397
#     4  12  24  42  68  90 136 176 220 262 330 394
#     4   9  19  40  64  96 137 165 220 274 320 382
#     4  10  21  38  68 101 128 174 217 268 324 385
#
# _framework density 24.769292
#
# number of rings (size 3 to 8) (size 9 to 14) (size 15 to 20)
#    0.000    1.778    2.222    0.667    6.222    0.889 
#    0.000    1.111    0.000    0.000    0.000    0.000 
#    0.000    0.000    0.000    0.000    0.000    0.000 
#
# Total GULP energy -100252.762795 kJ/mol
# GULP energy per Si atom -5569.597933 kJ/mol
# Density = 2.471292 g / cm^3
# Si number density = 24.769292 Si / 1000 Ang^3
#
#
#
# Elastic Constant Matrix: (Units=GPa)
#
#
# Indices 1 2 3 4 5 6 
#
# 1 60.6128 -12.0935 17.4897 0.0000 2.9303 0.0000
# 2 -12.0935 169.2845 15.3020 0.0000 8.9783 0.0000
# 3 17.4897 15.3020 124.7816 0.0000 31.5966 0.0000
# 4 0.0000 0.0000 0.0000 12.4666 0.0000 20.1635
# 5 2.9303 8.9783 31.5966 0.0000 47.6604 0.0000
# 6 0.0000 0.0000 0.0000 20.1635 0.0000 11.7870
#
#
#
# Elastic Compliance Matrix: (Units=1/GPa)
#
#
# Indices 1 2 3 4 5 6 
#
# 1 0.017568 0.001480 -0.002764 0.000000 0.000473 0.000000
# 2 0.001480 0.006122 -0.000773 0.000000 -0.000732 0.000000
# 3 -0.002764 -0.000773 0.010114 0.000000 -0.006390 0.000000
# 4 0.000000 0.000000 0.000000 -0.045401 0.000000 0.077665
# 5 0.000473 -0.000732 -0.006390 0.000000 0.025327 0.000000
# 6 0.000000 0.000000 0.000000 0.077665 0.000000 -0.048018
#
#
# Mechanical properties :
#
#
# Convention : Reuss Voigt Hill
#
# Bulk Modulus (GPa) = 33.68110 44.00836 38.84473
# Shear Modulus (GPa) = -246.56936 36.64819 -104.96059
#
# Velocity S-wave (km/s) = -9.98812 3.85071 -6.51669
# Velocity P-wave (km/s) = 10.92654 6.12996 6.39581
#
# Compressibility (1/GPa) = 0.02969024
#
# Stress axis : x y z
#
# Youngs Moduli (GPa) = 56.92179 163.35610 98.87200
#
# Poissons Ratio (x) = -0.24173 0.27325
# Poissons Ratio (y) = -0.08423 0.07641
# Poissons Ratio (z) = 0.15731 0.12624
#
# Static dielectric constant tensor:
#      x y z
#    x 2.102050 0.000000 -0.100050 
#    y 0.000000 1.922230 0.000000 
#    z -0.100050 0.000000 1.952050 
# 
# From -- ./inp_files/27430.got.cif
#   From: 2010.05.17/outbox.cif.g08.bks.cpg/sg11_14_cif.got.tgz:27430.got - 2010.06.03 12:22:45.
