data_PCOD9165533
_publ_section_title
;
Structure prediction by ZEFSAII (Michael W. Deem and Ramdas Pophale) SiO2 
 PCOD9165533
Probable space group: P 21/M
;
_chemical_formula_sum "Si O2"
_cell_formula_units_Z 20
_cell_length_a 4.886820
_cell_length_b 14.423383
_cell_length_c 14.056559
_cell_angle_alpha 90.000000
_cell_angle_beta 66.081436
_cell_angle_gamma 90.000000
_cell_volume 905.684559
_symmetry_space_group_name_H-M "P 21/M"
_symmetry_group_IT_number 11
_symmetry_cell_setting 'monoclinic'
loop_
_space_group_symop_operation_xyz
x,y,z
-x,1/2+y,-z
-x,-y,-z
x,1/2-y,z
loop_
_atom_site_type_symbol
_atom_site_label
_atom_site_fract_x
_atom_site_fract_y
_atom_site_fract_z
Si Si1 0.941538 0.853608 0.656020
Si Si2 0.386961 0.646069 0.877361
Si Si3 0.507307 0.966136 0.606211
Si Si4 0.569822 0.357150 0.904252
Si Si5 0.162488 0.459781 0.823660
O O1 0.948028 0.750000 0.616405
O O2 0.380830 0.038508 0.701458
O O3 0.265517 0.617351 0.646907
O O4 0.822831 0.926390 0.595589
O O5 0.281229 0.387855 0.885753
O O6 0.187144 0.561097 0.868247
O O7 0.694572 0.642548 0.774151
O O8 0.255165 0.750000 0.882401
O O9 0.500000 0.000000 0.500000
O O10 0.643631 0.250000 0.872994
O O11 0.834998 0.427705 0.838981
O O12 0.540427 0.366026 0.021861
#
# Coordination Sequence:
#
# PCOD9165533 Si02
#       5
#     4   4   4   4   4
#     4  10  21  39  62  90 117 148 194 248 298 353
#     4   9  20  37  62  92 122 154 194 244 300 356
#     4  11  23  41  61  85 116 155 198 249 301 348
#     4  11  23  39  59  88 124 162 198 236 288 360
#     4  11  22  40  60  85 119 159 199 245 296 353
#
# _framework density 22.082740999999999
#
# number of rings (size 3 to 8) (size 9 to 14) (size 15 to 20)
#    0.000    1.600    0.000    5.400    0.000    4.000 
#    0.000   19.000    0.000    0.000    0.000    0.000 
#    0.000    0.000    0.000    0.000    0.000    0.000 
#
# Total GULP energy -111963.529357 kJ/mol
# GULP energy per Si atom -5598.176468 kJ/mol
# Density = 2.203248 g / cm^3
# Si number density = 22.082741 Si / 1000 Ang^3
#
#
#
# Elastic Constant Matrix: (Units=GPa)
#
#
# Indices 1 2 3 4 5 6 
#
# 1 63.9299 1.5686 -8.6985 0.0000 2.6065 0.0000
# 2 1.5686 93.5225 33.2094 0.0000 -3.2716 0.0000
# 3 -8.6985 33.2094 99.3866 0.0000 18.4466 0.0000
# 4 0.0000 0.0000 0.0000 18.1750 0.0000 1.0596
# 5 2.6065 -3.2716 18.4466 0.0000 22.3393 0.0000
# 6 0.0000 0.0000 0.0000 1.0596 0.0000 29.7577
#
#
#
# Elastic Compliance Matrix: (Units=1/GPa)
#
#
# Indices 1 2 3 4 5 6 
#
# 1 0.016215 -0.001373 0.002677 0.000000 -0.004303 0.000000
# 2 -0.001373 0.012983 -0.005717 0.000000 0.006783 0.000000
# 3 0.002677 -0.005717 0.014668 0.000000 -0.013261 0.000000
# 4 0.000000 0.000000 0.000000 0.055135 0.000000 -0.001963
# 5 -0.004303 0.006783 -0.013261 0.000000 0.057210 0.000000
# 6 0.000000 0.000000 0.000000 -0.001963 0.000000 0.033675
#
#
# Mechanical properties :
#
#
# Convention : Reuss Voigt Hill
#
# Bulk Modulus (GPa) = 28.53946 34.33310 31.43628
# Shear Modulus (GPa) = 23.76503 29.43836 26.60170
#
# Velocity S-wave (km/s) = 3.28408 3.65512 3.47455
# Velocity P-wave (km/s) = 5.22802 5.77879 5.51029
#
# Compressibility (1/GPa) = 0.03503921
#
# Stress axis : x y z
#
# Youngs Moduli (GPa) = 61.66951 77.02336 68.17674
#
# Poissons Ratio (x) = 0.10575 -0.18249
# Poissons Ratio (y) = 0.08467 0.38978
# Poissons Ratio (z) = -0.16507 0.44036
#
# Static dielectric constant tensor:
#      x y z
#    x 1.768050 0.000000 -0.014020 
#    y 0.000000 1.812970 0.000000 
#    z -0.014020 0.000000 1.808950 
# 
# From -- ./inp_files/45578.got.cif
#   From: 2010.05.17/outbox.cif.g08.bks.cpg/sg11_23_cif.got.tgz:45578.got - 2010.06.03 12:22:45.
