data_PCOD9165374
_publ_section_title
;
Structure prediction by ZEFSAII (Michael W. Deem and Ramdas Pophale) SiO2 
 PCOD9165374
Probable space group: P 21/M
;
_chemical_formula_sum "Si O2"
_cell_formula_units_Z 24
_cell_length_a 5.202905
_cell_length_b 12.041849
_cell_length_c 18.079691
_cell_angle_alpha 90.000000
_cell_angle_beta 98.684585
_cell_angle_gamma 90.000000
_cell_volume 1119.752210
_symmetry_space_group_name_H-M "P 21/M"
_symmetry_group_IT_number 11
_symmetry_cell_setting 'monoclinic'
loop_
_space_group_symop_operation_xyz
x,y,z
-x,1/2+y,-z
-x,-y,-z
x,1/2-y,z
loop_
_atom_site_type_symbol
_atom_site_label
_atom_site_fract_x
_atom_site_fract_y
_atom_site_fract_z
Si Si1 0.776177 0.979212 0.050021
Si Si2 0.331619 0.750000 0.239528
Si Si3 0.779350 0.750000 0.136228
Si Si4 0.912740 0.118707 0.199887
Si Si5 0.529411 0.619492 0.704656
Si Si6 0.018234 0.626820 0.468389
Si Si7 0.473488 0.909547 0.375909
O O1 0.780292 0.856666 0.083969
O O2 0.829819 0.058022 0.122201
O O3 0.500000 0.000000 0.000000
O O4 0.000000 0.000000 0.000000
O O5 0.532289 0.750000 0.180180
O O6 0.382304 0.854892 0.295061
O O7 0.040111 0.750000 0.196602
O O8 0.876710 0.250000 0.188017
O O9 0.722118 0.085705 0.258556
O O10 0.210566 0.100046 0.235976
O O11 0.516188 0.750000 0.686806
O O12 0.539060 0.542129 0.633890
O O13 0.013825 0.750000 0.508938
O O14 0.763722 0.627899 0.405665
O O15 0.000000 0.500000 0.500000
O O16 0.279381 0.626089 0.431620
#
# Coordination Sequence:
#
# PCOD9165374 Si02
#       7
#     4   2   2   4   4   4   4
#     4  12  26  41  62  87 124 168 217 261 324 397
#     4  12  22  42  72  96 136 160 219 280 335 388
#     4  12  26  42  66 100 128 170 219 284 331 382
#     4  10  21  39  61  87 125 165 205 261 329 380
#     4  10  21  38  63  96 126 159 210 264 321 389
#     4  12  26  46  67 100 137 182 222 263 320 393
#     4  12  23  42  71  98 133 171 217 267 334 381
#
# _framework density 21.433312000000001
#
# number of rings (size 3 to 8) (size 9 to 14) (size 15 to 20)
#    0.000    0.667    1.667    6.500    2.333    1.333 
#    0.000    0.000    0.000    0.000    0.000    0.000 
#    0.000    0.000    0.000    0.000    0.000    0.000 
#
# Total GULP energy -134229.264748 kJ/mol
# GULP energy per Si atom -5592.886031 kJ/mol
# Density = 2.138453 g / cm^3
# Si number density = 21.433312 Si / 1000 Ang^3
#
#
#
# Elastic Constant Matrix: (Units=GPa)
#
#
# Indices 1 2 3 4 5 6 
#
# 1 55.7347 -5.3704 -0.8441 0.0000 -4.2282 0.0000
# 2 -5.3704 118.8947 42.3144 0.0000 -4.0174 0.0000
# 3 -0.8441 42.3144 32.6068 0.0000 -2.7722 0.0000
# 4 0.0000 0.0000 0.0000 60.0645 0.0000 -22.3257
# 5 -4.2282 -4.0174 -2.7722 0.0000 39.2238 0.0000
# 6 0.0000 0.0000 0.0000 -22.3257 0.0000 23.8848
#
#
#
# Elastic Compliance Matrix: (Units=1/GPa)
#
#
# Indices 1 2 3 4 5 6 
#
# 1 0.018199 0.001229 -0.000952 0.000000 0.002020 0.000000
# 2 0.001229 0.015713 -0.020334 0.000000 0.000305 0.000000
# 3 -0.000952 -0.020334 0.057189 0.000000 0.001857 0.000000
# 4 0.000000 0.000000 0.000000 0.025513 0.000000 0.023847
# 5 0.002020 0.000305 0.001857 0.000000 0.025875 0.000000
# 6 0.000000 0.000000 0.000000 0.023847 0.000000 0.064158
#
#
# Mechanical properties :
#
#
# Convention : Reuss Voigt Hill
#
# Bulk Modulus (GPa) = 19.61236 31.04844 25.33040
# Shear Modulus (GPa) = 18.95683 36.04373 27.50028
#
# Velocity S-wave (km/s) = 2.97721 4.10526 3.58587
# Velocity P-wave (km/s) = 4.58133 6.08181 5.38410
#
# Compressibility (1/GPa) = 0.05098826
#
# Stress axis : x y z
#
# Youngs Moduli (GPa) = 54.94679 63.64013 17.48589
#
# Poissons Ratio (x) = -0.07823 0.01665
# Poissons Ratio (y) = -0.06754 0.35555
# Poissons Ratio (z) = 0.05232 1.29404
#
# Static dielectric constant tensor:
#      x y z
#    x 1.750510 0.000000 0.015430 
#    y 0.000000 1.833030 0.000000 
#    z 0.015430 0.000000 1.781620 
# 
# From -- ./inp_files/56812.got.cif
#   From: 2010.05.17/outbox.cif.g08.bks.cpg/sg11_29_cif.got.tgz:56812.got - 2010.06.03 12:22:45.
