data_PCOD9165573
_publ_section_title
;
Structure prediction by ZEFSAII (Michael W. Deem and Ramdas Pophale) SiO2 
 PCOD9165573
Probable space group: P 21/M
;
_chemical_formula_sum "Si O2"
_cell_formula_units_Z 32
_cell_length_a 11.118127
_cell_length_b 15.347239
_cell_length_c 9.134276
_cell_angle_alpha 90.000000
_cell_angle_beta 70.213988
_cell_angle_gamma 90.000000
_cell_volume 1466.590159
_symmetry_space_group_name_H-M "P 21/M"
_symmetry_group_IT_number 11
_symmetry_cell_setting 'monoclinic'
loop_
_space_group_symop_operation_xyz
x,y,z
-x,1/2+y,-z
-x,-y,-z
x,1/2-y,z
loop_
_atom_site_type_symbol
_atom_site_label
_atom_site_fract_x
_atom_site_fract_y
_atom_site_fract_z
Si Si1 0.607741 0.347464 0.826483
Si Si2 0.269993 0.350486 0.792091
Si Si3 0.997453 0.849288 0.928941
Si Si4 0.138444 0.409417 0.276546
Si Si5 0.497246 0.484470 0.675341
Si Si6 0.095437 0.347418 0.592609
Si Si7 0.144541 0.594165 0.122778
Si Si8 0.426560 0.348543 0.170148
O O1 0.609192 0.250000 0.763912
O O2 0.604946 0.420380 0.701452
O O3 0.726394 0.357794 0.887982
O O4 0.486757 0.358816 0.984058
O O5 0.316485 0.250000 0.798165
O O6 0.144511 0.362103 0.944225
O O7 0.370160 0.428405 0.765102
O O8 0.217229 0.353818 0.647844
O O9 0.035069 0.750000 0.943615
O O10 0.100373 0.907308 0.972181
O O11 0.974999 0.864145 0.767618
O O12 0.100902 0.415862 0.460781
O O13 0.157446 0.499439 0.185820
O O14 0.274112 0.360166 0.220657
O O15 0.500000 0.500000 0.500000
O O16 0.515027 0.576196 0.751198
O O17 0.092628 0.250000 0.529485
O O18 0.972731 0.360243 0.744711
O O19 0.455071 0.250000 0.209272
#
# Coordination Sequence:
#
# PCOD9165573 Si02
#       8
#     4   4   4   4   4   4   4   4
#     4  11  24  44  68  93 130 176 213 257 325 394
#     4   9  20  38  63  90 123 165 211 255 308 378
#     4  10  21  39  63  92 121 160 207 258 313 372
#     4  12  22  38  64  97 122 156 215 271 312 363
#     4  12  24  39  63  95 129 165 214 272 320 379
#     4  10  21  40  64  90 126 169 207 256 314 379
#     4  11  23  40  63  92 130 169 207 252 316 389
#     4  11  25  44  67  95 127 170 222 273 320 377
#
# _framework density 21.819319
#
# number of rings (size 3 to 8) (size 9 to 14) (size 15 to 20)
#    0.000    1.250    1.250    6.000    1.750    4.000 
#    0.000    0.000    0.000    1.500    0.000    0.000 
#    0.000    0.000    0.000    0.000    0.000    0.000 
#
# Total GULP energy -178862.136125 kJ/mol
# GULP energy per Si atom -5589.441754 kJ/mol
# Density = 2.176966 g / cm^3
# Si number density = 21.819319 Si / 1000 Ang^3
#
#
#
# Elastic Constant Matrix: (Units=GPa)
#
#
# Indices 1 2 3 4 5 6 
#
# 1 79.3201 15.1343 15.5840 0.0000 18.5852 0.0000
# 2 15.1343 146.7347 34.3651 0.0000 21.4639 0.0000
# 3 15.5840 34.3651 72.2437 0.0000 32.1809 0.0000
# 4 0.0000 0.0000 0.0000 10.1768 0.0000 11.8219
# 5 18.5852 21.4639 32.1809 0.0000 27.8127 0.0000
# 6 0.0000 0.0000 0.0000 11.8219 0.0000 18.5677
#
#
#
# Elastic Compliance Matrix: (Units=1/GPa)
#
#
# Indices 1 2 3 4 5 6 
#
# 1 0.015185 -0.000286 0.002646 0.000000 -0.012988 0.000000
# 2 -0.000286 0.007844 -0.002184 0.000000 -0.003336 0.000000
# 3 0.002646 -0.002184 0.029606 0.000000 -0.034339 0.000000
# 4 0.000000 0.000000 0.000000 0.377376 0.000000 -0.240272
# 5 -0.012988 -0.003336 -0.034339 0.000000 0.086940 0.000000
# 6 0.000000 0.000000 0.000000 -0.240272 0.000000 0.206836
#
#
# Mechanical properties :
#
#
# Convention : Reuss Voigt Hill
#
# Bulk Modulus (GPa) = 18.87244 47.60726 33.23985
# Shear Modulus (GPa) = 6.74675 26.85912 16.80293
#
# Velocity S-wave (km/s) = 1.76034 3.51234 2.77807
# Velocity P-wave (km/s) = 3.57770 6.18990 5.05544
#
# Compressibility (1/GPa) = 0.05298731
#
# Stress axis : x y z
#
# Youngs Moduli (GPa) = 65.85449 127.48841 33.77657
#
# Poissons Ratio (x) = 0.03647 -0.08936
# Poissons Ratio (y) = 0.01884 0.07376
# Poissons Ratio (z) = -0.17423 0.27839
#
# Static dielectric constant tensor:
#      x y z
#    x 1.820620 0.000000 0.029650 
#    y 0.000000 1.819100 0.000000 
#    z 0.029650 0.000000 1.806740 
# 
# From -- ./inp_files/18033.got.cif
#   From: 2010.05.17/outbox.cif.g08.bks.cpg/sg11_10_cif.got.tgz:18033.got - 2010.06.03 12:22:45.
