data_PCOD9165081
_publ_section_title
;
Structure prediction by ZEFSAII (Michael W. Deem and Ramdas Pophale) SiO2 
 PCOD9165081
Probable space group: P 21/M
;
_chemical_formula_sum "Si O2"
_cell_formula_units_Z 22
_cell_length_a 11.098079
_cell_length_b 9.188538
_cell_length_c 26.352588
_cell_angle_alpha 90.000000
_cell_angle_beta 20.002969
_cell_angle_gamma 90.000000
_cell_volume 919.244438
_symmetry_space_group_name_H-M "P 21/M"
_symmetry_group_IT_number 11
_symmetry_cell_setting 'monoclinic'
loop_
_space_group_symop_operation_xyz
x,y,z
-x,1/2+y,-z
-x,-y,-z
x,1/2-y,z
loop_
_atom_site_type_symbol
_atom_site_label
_atom_site_fract_x
_atom_site_fract_y
_atom_site_fract_z
Si Si1 0.952068 0.082500 0.271622
Si Si2 0.676226 0.750000 0.645331
Si Si3 0.007857 0.088548 0.048795
Si Si4 0.005926 0.082572 0.847405
Si Si5 0.858665 0.436004 0.513439
Si Si6 0.094364 0.083003 0.608791
O O1 0.063561 0.250000 0.230544
O O2 0.523283 0.082558 0.439301
O O3 0.078878 0.007607 0.169708
O O4 0.037786 0.991950 0.287788
O O5 0.391572 0.626424 0.777047
O O6 0.902467 0.607926 0.526355
O O7 0.175536 0.250000 0.977179
O O8 0.140089 0.994869 0.044331
O O9 0.000000 0.000000 0.000000
O O10 0.897340 0.250000 0.886602
O O11 0.435074 0.080525 0.681149
O O12 0.970660 0.250000 0.457026
O O13 0.002797 0.494164 0.402422
O O14 0.986643 0.250000 0.648360
#
# Coordination Sequence:
#
# PCOD9165081 Si02
#       6
#     4   2   4   4   4   4
#     4   9  18  31  47  71 105 148 187 222 262 311
#     4  10  22  34  52  78 116 142 186 224 272 336
#     4  10  21  38  55  77 109 144 188 232 267 316
#     4  11  20  31  55  80 113 144 179 224 274 329
#     4  11  20  32  50  79 117 149 174 214 280 337
#     4   9  19  30  46  70 109 149 184 219 261 325
#
# _framework density 23.932699
#
# number of rings (size 3 to 8) (size 9 to 14) (size 15 to 20)
#    0.545    1.455    2.727    1.636    2.545    2.909 
#    0.000    0.000    0.000    0.000    0.000    1.273 
#    0.000    0.000    0.000    0.000    0.000    0.000 
#
# Total GULP energy -122540.712756 kJ/mol
# GULP energy per Si atom -5570.032398 kJ/mol
# Density = 2.387823 g / cm^3
# Si number density = 23.932699 Si / 1000 Ang^3
#
#
#
# Elastic Constant Matrix: (Units=GPa)
#
#
# Indices 1 2 3 4 5 6 
#
# 1 74.7949 62.3102 66.4718 0.0000 31.3879 0.0000
# 2 62.3102 262.8910 69.8797 0.0000 61.2123 0.0000
# 3 66.4718 69.8797 94.6560 0.0000 33.7577 0.0000
# 4 0.0000 0.0000 0.0000 12.4643 0.0000 21.2055
# 5 31.3879 61.2123 33.7577 0.0000 78.2329 0.0000
# 6 0.0000 0.0000 0.0000 21.2055 0.0000 35.4269
#
#
#
# Elastic Compliance Matrix: (Units=1/GPa)
#
#
# Indices 1 2 3 4 5 6 
#
# 1 0.037316 -0.001760 -0.023706 0.000000 -0.003366 0.000000
# 2 -0.001760 0.005307 -0.001718 0.000000 -0.002706 0.000000
# 3 -0.023706 -0.001718 0.029084 0.000000 -0.001695 0.000000
# 4 0.000000 0.000000 0.000000 -4.373078 0.000000 2.617595
# 5 -0.003366 -0.002706 -0.001695 0.000000 0.016981 0.000000
# 6 0.000000 0.000000 0.000000 2.617595 0.000000 -1.538587
#
#
# Mechanical properties :
#
#
# Convention : Reuss Voigt Hill
#
# Bulk Modulus (GPa) = 57.66349 92.18503 74.92426
# Shear Modulus (GPa) = -0.86763 40.80349 19.96793
#
# Velocity S-wave (km/s) = -0.60276 4.13356 2.89162
# Velocity P-wave (km/s) = 4.86435 7.83478 6.52095
#
# Compressibility (1/GPa) = 0.01734199
#
# Stress axis : x y z
#
# Youngs Moduli (GPa) = 26.79819 188.41351 34.38281
#
# Poissons Ratio (x) = 0.33155 0.81507
# Poissons Ratio (y) = 0.04716 0.05906
# Poissons Ratio (z) = 0.63527 0.32362
#
# Static dielectric constant tensor:
#      x y z
#    x 1.907160 0.000000 -0.063820 
#    y 0.000000 2.081150 0.000000 
#    z -0.063820 0.000000 1.855120 
# 
# From -- ./inp_files/55977.got.cif
#   From: 2010.05.17/outbox.cif.g08.bks.cpg/sg11_28_cif.got.tgz:55977.got - 2010.06.03 12:22:45.
