data_PCOD9165167
_publ_section_title
;
Structure prediction by ZEFSAII (Michael W. Deem and Ramdas Pophale) SiO2 
 PCOD9165167
Probable space group: P 21/M
;
_chemical_formula_sum "Si O2"
_cell_formula_units_Z 32
_cell_length_a 9.914347
_cell_length_b 11.529090
_cell_length_c 14.748259
_cell_angle_alpha 90.000000
_cell_angle_beta 96.650957
_cell_angle_gamma 90.000000
_cell_volume 1674.431113
_symmetry_space_group_name_H-M "P 21/M"
_symmetry_group_IT_number 11
_symmetry_cell_setting 'monoclinic'
loop_
_space_group_symop_operation_xyz
x,y,z
-x,1/2+y,-z
-x,-y,-z
x,1/2-y,z
loop_
_atom_site_type_symbol
_atom_site_label
_atom_site_fract_x
_atom_site_fract_y
_atom_site_fract_z
Si Si1 0.865008 0.885448 0.410981
Si Si2 0.201746 0.380989 0.237388
Si Si3 0.447785 0.045236 0.134418
Si Si4 0.167712 0.537009 0.411140
Si Si5 0.381077 0.118271 0.723922
Si Si6 0.328542 0.875455 0.979883
Si Si7 0.980075 0.386249 0.062928
Si Si8 0.458656 0.876506 0.452411
O O1 0.834376 0.750000 0.421554
O O2 0.835962 0.952397 0.501844
O O3 0.763632 0.927388 0.323895
O O4 0.021513 0.902482 0.397789
O O5 0.189788 0.250000 0.271015
O O6 0.343920 0.395185 0.195210
O O7 0.191102 0.467351 0.320374
O O8 0.081292 0.400281 0.155321
O O9 0.544685 0.958225 0.196571
O O10 0.357494 0.974463 0.055104
O O11 0.551476 0.121022 0.083909
O O12 0.296318 0.619347 0.434021
O O13 0.363646 0.250000 0.756093
O O14 0.475264 0.121008 0.641857
O O15 0.330257 0.750000 0.027083
O O16 0.179737 0.889489 0.925395
O O17 0.004155 0.250000 0.030524
O O18 0.000000 0.500000 0.000000
O O19 0.499595 0.750000 0.497197
O O20 0.500000 0.000000 0.500000
#
# Coordination Sequence:
#
# PCOD9165167 Si02
#       8
#     4   4   4   4   4   4   4   4
#     4  10  22  40  60  84 121 162 200 249 306 363
#     4  11  23  38  61  91 122 158 207 261 311 367
#     4  11  21  38  62  87 123 152 206 245 315 369
#     4  11  22  39  62  87 122 160 207 250 305 368
#     4  10  21  38  59  86 119 154 199 252 304 362
#     4  10  22  39  61  86 121 162 200 251 310 371
#     4  10  21  41  62  89 125 162 204 252 308 368
#     4  11  22  39  62  92 124 162 207 255 307 365
#
# _framework density 19.110969000000001
#
# number of rings (size 3 to 8) (size 9 to 14) (size 15 to 20)
#    0.000    1.500    3.750    1.500    1.750    0.500 
#    0.000    1.875    0.000    0.000    0.000    0.000 
#    0.000    0.000    0.000    0.000    0.000    0.000 
#
# Total GULP energy -178439.821538 kJ/mol
# GULP energy per Si atom -5576.244423 kJ/mol
# Density = 1.906747 g / cm^3
# Si number density = 19.110969 Si / 1000 Ang^3
#
#
#
# Elastic Constant Matrix: (Units=GPa)
#
#
# Indices 1 2 3 4 5 6 
#
# 1 114.2566 17.6951 11.0562 0.0000 12.2427 0.0000
# 2 17.6951 101.9020 29.0673 0.0000 8.2072 0.0000
# 3 11.0562 29.0673 44.4396 0.0000 8.9696 0.0000
# 4 0.0000 0.0000 0.0000 -12.4423 0.0000 20.1042
# 5 12.2427 8.2072 8.9696 0.0000 31.9316 0.0000
# 6 0.0000 0.0000 0.0000 20.1042 0.0000 17.7920
#
#
#
# Elastic Compliance Matrix: (Units=1/GPa)
#
#
# Indices 1 2 3 4 5 6 
#
# 1 0.009342 -0.001094 -0.000999 0.000000 -0.003020 0.000000
# 2 -0.001094 0.012219 -0.007602 0.000000 -0.000586 0.000000
# 3 -0.000999 -0.007602 0.028890 0.000000 -0.005778 0.000000
# 4 0.000000 0.000000 0.000000 -0.028442 0.000000 0.032138
# 5 -0.003020 -0.000586 -0.005778 0.000000 0.034248 0.000000
# 6 0.000000 0.000000 0.000000 0.032138 0.000000 0.019890
#
#
# Mechanical properties :
#
#
# Convention : Reuss Voigt Hill
#
# Bulk Modulus (GPa) = 32.19514 41.80392 36.99953
# Shear Modulus (GPa) = 47.21873 20.97490 34.09682
#
# Velocity S-wave (km/s) = 4.97607 3.31650 4.22850
# Velocity P-wave (km/s) = 7.06386 6.04875 6.57592
#
# Compressibility (1/GPa) = 0.03106059
#
# Stress axis : x y z
#
# Youngs Moduli (GPa) = 107.04429 81.84046 34.61459
#
# Poissons Ratio (x) = 0.08953 0.03458
# Poissons Ratio (y) = 0.11711 0.26313
# Poissons Ratio (z) = 0.10695 0.62214
#
# Static dielectric constant tensor:
#      x y z
#    x 1.666080 0.000000 0.013080 
#    y 0.000000 1.695950 0.000000 
#    z 0.013080 0.000000 1.627580 
# 
# From -- ./inp_files/47209.got.cif
#   From: 2010.05.17/outbox.cif.g08.bks.cpg/sg11_24_cif.got.tgz:47209.got - 2010.06.03 12:22:45.
