data_PCOD9165257
_publ_section_title
;
Structure prediction by ZEFSAII (Michael W. Deem and Ramdas Pophale) SiO2 
 PCOD9165257
Probable space group: P 21/M
;
_chemical_formula_sum "Si O2"
_cell_formula_units_Z 20
_cell_length_a 17.217334
_cell_length_b 8.536103
_cell_length_c 15.535034
_cell_angle_alpha 90.000000
_cell_angle_beta 25.373304
_cell_angle_gamma 90.000000
_cell_volume 978.369646
_symmetry_space_group_name_H-M "P 21/M"
_symmetry_group_IT_number 11
_symmetry_cell_setting 'monoclinic'
loop_
_space_group_symop_operation_xyz
x,y,z
-x,1/2+y,-z
-x,-y,-z
x,1/2-y,z
loop_
_atom_site_type_symbol
_atom_site_label
_atom_site_fract_x
_atom_site_fract_y
_atom_site_fract_z
Si Si1 0.004625 0.937778 0.898772
Si Si2 0.281102 0.565925 0.122402
Si Si3 0.285235 0.065170 0.482725
Si Si4 0.311801 0.562612 0.277561
Si Si5 0.689000 0.935439 0.085742
O O1 0.016474 0.750000 0.887325
O O2 0.170984 0.005924 0.677763
O O3 0.823841 0.982015 0.026742
O O4 0.000000 0.000000 0.000000
O O5 0.249764 0.750000 0.140422
O O6 0.215451 0.521290 0.283969
O O7 0.497585 0.530585 0.911230
O O8 0.223497 0.474546 0.094923
O O9 0.265529 0.250000 0.492110
O O10 0.221396 0.982091 0.458104
O O11 0.496375 0.021578 0.283940
O O12 0.347543 0.750000 0.239980
O O13 0.655028 0.750000 0.123679
#
# Coordination Sequence:
#
# PCOD9165257 Si02
#       5
#     4   4   4   4   4
#     4  11  25  44  64  86 113 147 190 241 294 345
#     4   9  16  27  49  81 115 152 191 231 277 330
#     4  11  22  37  61  89 118 154 192 234 285 340
#     4   9  16  28  49  79 116 154 191 231 275 329
#     4  10  21  38  61  87 117 153 191 235 286 340
#
# _framework density 20.442170999999998
#
# number of rings (size 3 to 8) (size 9 to 14) (size 15 to 20)
#    0.000    2.000    0.000    6.600    0.000    6.400 
#    0.000    1.000    0.000    0.000    0.000    0.000 
#    0.000    0.000    0.000    0.000    0.000    0.000 
#
# Total GULP energy -111692.511541 kJ/mol
# GULP energy per Si atom -5584.625577 kJ/mol
# Density = 2.039564 g / cm^3
# Si number density = 20.442171 Si / 1000 Ang^3
#
#
#
# Elastic Constant Matrix: (Units=GPa)
#
#
# Indices 1 2 3 4 5 6 
#
# 1 171.8675 35.9353 49.0134 0.0000 28.3725 0.0000
# 2 35.9353 52.4794 14.7964 0.0000 4.4009 0.0000
# 3 49.0134 14.7964 109.2567 0.0000 26.9099 0.0000
# 4 0.0000 0.0000 0.0000 35.0763 0.0000 -1.3423
# 5 28.3725 4.4009 26.9099 0.0000 42.7249 0.0000
# 6 0.0000 0.0000 0.0000 -1.3423 0.0000 49.8626
#
#
#
# Elastic Compliance Matrix: (Units=1/GPa)
#
#
# Indices 1 2 3 4 5 6 
#
# 1 0.007943 -0.004558 -0.002086 0.000000 -0.003491 0.000000
# 2 -0.004558 0.022433 -0.001385 0.000000 0.001588 0.000000
# 3 -0.002086 -0.001385 0.011717 0.000000 -0.005852 0.000000
# 4 0.000000 0.000000 0.000000 0.028539 0.000000 0.000768
# 5 -0.003491 0.001588 -0.005852 0.000000 0.029246 0.000000
# 6 0.000000 0.000000 0.000000 0.000768 0.000000 0.020076
#
#
# Mechanical properties :
#
#
# Convention : Reuss Voigt Hill
#
# Bulk Modulus (GPa) = 38.40739 59.23266 48.82003
# Shear Modulus (GPa) = 34.55667 41.12333 37.84000
#
# Velocity S-wave (km/s) = 4.11598 4.49005 4.30708
# Velocity P-wave (km/s) = 6.43564 7.47793 6.97628
#
# Compressibility (1/GPa) = 0.02603666
#
# Stress axis : x y z
#
# Youngs Moduli (GPa) = 125.90275 44.57663 85.34262
#
# Poissons Ratio (x) = 0.20317 0.17802
# Poissons Ratio (y) = 0.57384 0.11816
# Poissons Ratio (z) = 0.26263 0.06172
#
# Static dielectric constant tensor:
#      x y z
#    x 1.747920 0.000000 -0.001580 
#    y 0.000000 1.680780 0.000000 
#    z -0.001580 0.000000 1.755340 
# 
# From -- ./inp_files/20265.got.cif
#   From: 2010.05.17/outbox.cif.g08.bks.cpg/sg11_11_cif.got.tgz:20265.got - 2010.06.03 12:22:45.
