data_PCOD9165315
_publ_section_title
;
Structure prediction by ZEFSAII (Michael W. Deem and Ramdas Pophale) SiO2 
 PCOD9165315
Probable space group: P 21/M
;
_chemical_formula_sum "Si O2"
_cell_formula_units_Z 14
_cell_length_a 8.107171
_cell_length_b 14.397908
_cell_length_c 7.222502
_cell_angle_alpha 90.000000
_cell_angle_beta 133.989115
_cell_angle_gamma 90.000000
_cell_volume 606.554947
_symmetry_space_group_name_H-M "P 21/M"
_symmetry_group_IT_number 11
_symmetry_cell_setting 'monoclinic'
loop_
_space_group_symop_operation_xyz
x,y,z
-x,1/2+y,-z
-x,-y,-z
x,1/2-y,z
loop_
_atom_site_type_symbol
_atom_site_label
_atom_site_fract_x
_atom_site_fract_y
_atom_site_fract_z
Si Si1 0.664394 0.065413 0.251121
Si Si2 0.404589 0.250000 0.160460
Si Si3 0.135519 0.407850 0.396549
Si Si4 0.535095 0.750000 0.346469
Si Si5 0.995491 0.250000 0.019502
O O1 0.529622 0.158817 0.188000
O O2 0.901824 0.086425 0.330214
O O3 0.744585 0.008199 0.497724
O O4 0.500000 0.000000 0.000000
O O5 0.436760 0.250000 0.408454
O O6 0.126317 0.250000 0.924263
O O7 0.329158 0.337897 0.626746
O O8 0.069564 0.351991 0.159860
O O9 0.266579 0.750000 0.122677
#
# Coordination Sequence:
#
# PCOD9165315 Si02
#       5
#     4   2   4   2   2
#     4  11  22  39  63  89 121 156 198 252 299 350
#     4  10  24  39  57  89 117 154 203 242 300 364
#     4   9  21  38  60  90 116 155 202 239 293 359
#     4  10  21  41  61  83 125 160 194 244 294 356
#     4  10  21  38  62  88 122 160 193 244 296 348
#
# _framework density 23.081174000000001
#
# number of rings (size 3 to 8) (size 9 to 14) (size 15 to 20)
#    0.000    2.286    0.000    3.429    0.000   11.429 
#    0.000    8.571    0.000    0.000    0.000    0.000 
#    0.000    0.000    0.000    0.000    0.000    0.000 
#
# Total GULP energy -77949.257632 kJ/mol
# GULP energy per Si atom -5567.804117 kJ/mol
# Density = 2.302864 g / cm^3
# Si number density = 23.081174 Si / 1000 Ang^3
#
#
#
# Elastic Constant Matrix: (Units=GPa)
#
#
# Indices 1 2 3 4 5 6 
#
# 1 116.0207 81.6227 44.7724 0.0000 48.3294 0.0000
# 2 81.6227 169.4351 36.1229 0.0000 31.8860 0.0000
# 3 44.7724 36.1229 60.1718 0.0000 33.9252 0.0000
# 4 0.0000 0.0000 0.0000 31.0939 0.0000 25.8741
# 5 48.3294 31.8860 33.9252 0.0000 56.8974 0.0000
# 6 0.0000 0.0000 0.0000 25.8741 0.0000 244.0820
#
#
#
# Elastic Compliance Matrix: (Units=1/GPa)
#
#
# Indices 1 2 3 4 5 6 
#
# 1 0.018933 -0.006262 -0.004881 0.000000 -0.009663 0.000000
# 2 -0.006262 0.009004 -0.001356 0.000000 0.001081 0.000000
# 3 -0.004881 -0.001356 0.027566 0.000000 -0.011531 0.000000
# 4 0.000000 0.000000 0.000000 0.035272 0.000000 -0.003739
# 5 -0.009663 0.001081 -0.011531 0.000000 0.032052 0.000000
# 6 0.000000 0.000000 0.000000 -0.003739 0.000000 0.004493
#
#
# Mechanical properties :
#
#
# Convention : Reuss Voigt Hill
#
# Bulk Modulus (GPa) = 32.78009 74.51819 53.64914
# Shear Modulus (GPa) = 30.77213 78.62198 54.69706
#
# Velocity S-wave (km/s) = 3.65528 5.84270 4.87331
# Velocity P-wave (km/s) = 5.66107 8.82449 7.41348
#
# Compressibility (1/GPa) = 0.03050632
#
# Stress axis : x y z
#
# Youngs Moduli (GPa) = 52.81841 111.06171 36.27718
#
# Poissons Ratio (x) = 0.69543 0.17705
# Poissons Ratio (y) = 0.33073 0.04918
# Poissons Ratio (z) = 0.25778 0.15058
#
# Static dielectric constant tensor:
#      x y z
#    x 1.918060 0.000000 0.077020 
#    y 0.000000 1.859030 0.000000 
#    z 0.077020 0.000000 2.170740 
# 
# From -- ./inp_files/1456.got.cif
#   From: 2010.05.17/outbox.cif.g08.bks.cpg/sg11_1_cif.got.tgz:1456.got - 2010.06.03 12:22:45.
