data_PCOD9165512
_publ_section_title
;
Structure prediction by ZEFSAII (Michael W. Deem and Ramdas Pophale) SiO2 
 PCOD9165512
Probable space group: P 21/M
;
_chemical_formula_sum "Si O2"
_cell_formula_units_Z 20
_cell_length_a 14.967743
_cell_length_b 8.888754
_cell_length_c 7.055916
_cell_angle_alpha 90.000000
_cell_angle_beta 90.850723
_cell_angle_gamma 90.000000
_cell_volume 938.647942
_symmetry_space_group_name_H-M "P 21/M"
_symmetry_group_IT_number 11
_symmetry_cell_setting 'monoclinic'
loop_
_space_group_symop_operation_xyz
x,y,z
-x,1/2+y,-z
-x,-y,-z
x,1/2-y,z
loop_
_atom_site_type_symbol
_atom_site_label
_atom_site_fract_x
_atom_site_fract_y
_atom_site_fract_z
Si Si1 0.301901 0.925897 0.607835
Si Si2 0.263765 0.927118 0.160655
Si Si3 0.073296 0.930997 0.271887
Si Si4 0.412164 0.426537 0.909679
Si Si5 0.879825 0.572962 0.324010
O O1 0.313810 0.750000 0.640921
O O2 0.288288 0.949774 0.383451
O O3 0.384375 0.012504 0.702453
O O4 0.210144 0.979329 0.705843
O O5 0.277662 0.750000 0.117610
O O6 0.157953 0.960847 0.140585
O O7 0.329208 0.026993 0.039898
O O8 0.078528 0.750000 0.319273
O O9 0.970876 0.960120 0.211506
O O10 0.092070 0.030257 0.459260
O O11 0.423854 0.250000 0.903207
O O12 0.500000 0.500000 0.000000
O O13 0.859707 0.750000 0.306888
#
# Coordination Sequence:
#
# PCOD9165512 Si02
#       5
#     4   4   4   4   4
#     4  10  21  39  62  87 118 155 192 234 285 339
#     4   9  19  38  62  87 117 153 192 235 284 337
#     4   8  15  28  49  79 116 156 192 229 276 330
#     4  12  26  43  63  86 113 146 188 240 294 347
#     4   9  15  26  49  82 117 152 192 233 275 329
#
# _framework density 21.307241000000001
#
# number of rings (size 3 to 8) (size 9 to 14) (size 15 to 20)
#    0.000    2.400    0.000    4.200    0.000    5.600 
#    0.000    1.000    0.000    0.000    0.000    0.000 
#    0.000    0.000    0.000    0.000    0.000    0.000 
#
# Total GULP energy -111683.929497 kJ/mol
# GULP energy per Si atom -5584.196475 kJ/mol
# Density = 2.125874 g / cm^3
# Si number density = 21.307241 Si / 1000 Ang^3
#
#
#
# Elastic Constant Matrix: (Units=GPa)
#
#
# Indices 1 2 3 4 5 6 
#
# 1 76.7426 41.9001 8.4069 0.0000 26.2226 0.0000
# 2 41.9001 88.8643 16.9804 0.0000 12.9808 0.0000
# 3 8.4069 16.9804 53.2242 0.0000 7.1866 0.0000
# 4 0.0000 0.0000 0.0000 23.4777 0.0000 -2.2229
# 5 26.2226 12.9808 7.1866 0.0000 29.4498 0.0000
# 6 0.0000 0.0000 0.0000 -2.2229 0.0000 40.2998
#
#
#
# Elastic Compliance Matrix: (Units=1/GPa)
#
#
# Indices 1 2 3 4 5 6 
#
# 1 0.023734 -0.008905 0.001464 0.000000 -0.017565 0.000000
# 2 -0.008905 0.015930 -0.003928 0.000000 0.001866 0.000000
# 3 0.001464 -0.003928 0.020426 0.000000 -0.004557 0.000000
# 4 0.000000 0.000000 0.000000 0.042817 0.000000 0.002362
# 5 -0.017565 0.001866 -0.004557 0.000000 0.049886 0.000000
# 6 0.000000 0.000000 0.000000 0.002362 0.000000 0.024944
#
#
# Mechanical properties :
#
#
# Convention : Reuss Voigt Hill
#
# Bulk Modulus (GPa) = 26.77198 39.26734 33.01966
# Shear Modulus (GPa) = 23.48255 28.74838 26.11547
#
# Velocity S-wave (km/s) = 3.32338 3.67717 3.50474
# Velocity P-wave (km/s) = 5.22671 6.04135 5.64873
#
# Compressibility (1/GPa) = 0.03735248
#
# Stress axis : x y z
#
# Youngs Moduli (GPa) = 42.13371 62.77616 48.95839
#
# Poissons Ratio (x) = 0.55899 -0.07167
# Poissons Ratio (y) = 0.37518 0.19229
# Poissons Ratio (z) = -0.06168 0.24656
#
# Static dielectric constant tensor:
#      x y z
#    x 1.782580 0.000000 0.003070 
#    y 0.000000 1.706230 0.000000 
#    z 0.003070 0.000000 1.814360 
# 
# From -- ./inp_files/20121.got.cif
#   From: 2010.05.17/outbox.cif.g08.bks.cpg/sg11_11_cif.got.tgz:20121.got - 2010.06.03 12:22:45.
