data_PCOD9165946
_publ_section_title
;
Structure prediction by ZEFSAII (Michael W. Deem and Ramdas Pophale) SiO2 
 PCOD9165946
Probable space group: P 21/M
;
_chemical_formula_sum "Si O2"
_cell_formula_units_Z 32
_cell_length_a 23.575827
_cell_length_b 9.224516
_cell_length_c 14.360518
_cell_angle_alpha 90.000000
_cell_angle_beta 31.823175
_cell_angle_gamma 90.000000
_cell_volume 1646.789176
_symmetry_space_group_name_H-M "P 21/M"
_symmetry_group_IT_number 11
_symmetry_cell_setting 'monoclinic'
loop_
_space_group_symop_operation_xyz
x,y,z
-x,1/2+y,-z
-x,-y,-z
x,1/2-y,z
loop_
_atom_site_type_symbol
_atom_site_label
_atom_site_fract_x
_atom_site_fract_y
_atom_site_fract_z
Si Si1 0.872157 0.577562 0.578542
Si Si2 0.523567 0.078811 0.244172
Si Si3 0.103008 0.576605 0.812131
Si Si4 0.898996 0.921670 0.752507
Si Si5 0.221789 0.578462 0.461652
Si Si6 0.471763 0.920759 0.134844
Si Si7 0.676455 0.420119 0.386423
Si Si8 0.278560 0.581132 0.892915
O O1 0.876165 0.750000 0.560397
O O2 0.848316 0.548402 0.720702
O O3 0.793944 0.506960 0.612118
O O4 0.989010 0.506772 0.398568
O O5 0.515250 0.250000 0.237396
O O6 0.622560 0.053989 0.175576
O O7 0.534089 0.992949 0.133208
O O8 0.416199 0.019461 0.442807
O O9 0.085445 0.750000 0.835230
O O10 0.137087 0.531928 0.659596
O O11 0.208331 0.548866 0.728051
O O12 0.000000 0.500000 0.000000
O O13 0.918565 0.750000 0.732145
O O14 0.818713 0.978495 0.942477
O O15 0.206040 0.750000 0.466468
O O16 0.343161 0.560893 0.329825
O O17 0.494352 0.750000 0.097284
O O18 0.500000 0.000000 0.000000
O O19 0.651234 0.250000 0.441373
O O20 0.685511 0.439411 0.263211
O O21 0.245532 0.750000 0.949665
#
# Coordination Sequence:
#
# PCOD9165946 Si02
#       8
#     4   4   4   4   4   4   4   4
#     4  10  22  39  61  87 119 158 198 244 301 359
#     4  11  23  40  62  92 123 158 203 251 305 364
#     4  10  22  40  61  89 122 159 202 249 307 362
#     4  10  22  40  60  88 120 156 200 247 300 359
#     4  10  22  41  63  89 122 161 201 250 307 361
#     4  11  24  43  65  91 125 165 206 255 309 366
#     4  10  21  42  64  85 119 161 201 249 307 361
#     4  10  23  39  61  90 121 157 202 252 304 358
#
# _framework density 19.431753
#
# number of rings (size 3 to 8) (size 9 to 14) (size 15 to 20)
#    0.000    1.750    1.250    1.875    3.500    5.000 
#    0.000    0.000    0.000    0.000    0.000    0.000 
#    0.000    0.000    0.000    0.000    0.000    0.000 
#
# Total GULP energy -178864.579522 kJ/mol
# GULP energy per Si atom -5589.518110 kJ/mol
# Density = 1.938753 g / cm^3
# Si number density = 19.431753 Si / 1000 Ang^3
#
#
#
# Elastic Constant Matrix: (Units=GPa)
#
#
# Indices 1 2 3 4 5 6 
#
# 1 72.0786 23.9308 -19.3717 0.0000 11.4281 0.0000
# 2 23.9308 43.4497 14.5683 0.0000 5.0080 0.0000
# 3 -19.3717 14.5683 45.1106 0.0000 10.3552 0.0000
# 4 0.0000 0.0000 0.0000 34.9557 0.0000 4.2096
# 5 11.4281 5.0080 10.3552 0.0000 19.0529 0.0000
# 6 0.0000 0.0000 0.0000 4.2096 0.0000 32.4073
#
#
#
# Elastic Compliance Matrix: (Units=1/GPa)
#
#
# Indices 1 2 3 4 5 6 
#
# 1 0.036442 -0.027019 0.031719 0.000000 -0.031996 0.000000
# 2 -0.027019 0.045953 -0.031295 0.000000 0.021136 0.000000
# 3 0.031719 -0.031295 0.055270 0.000000 -0.040839 0.000000
# 4 0.000000 0.000000 0.000000 0.029062 0.000000 -0.003775
# 5 -0.031996 0.021136 -0.040839 0.000000 0.088317 0.000000
# 6 0.000000 0.000000 0.000000 -0.003775 0.000000 0.031348
#
#
# Mechanical properties :
#
#
# Convention : Reuss Voigt Hill
#
# Bulk Modulus (GPa) = 11.83750 22.09930 16.96840
# Shear Modulus (GPa) = 13.59663 26.71729 20.15696
#
# Velocity S-wave (km/s) = 2.64808 3.71203 3.22424
# Velocity P-wave (km/s) = 3.93126 5.45616 4.75523
#
# Compressibility (1/GPa) = 0.08447730
#
# Stress axis : x y z
#
# Youngs Moduli (GPa) = 27.44091 21.76146 18.09301
#
# Poissons Ratio (x) = 0.58796 -0.57390
# Poissons Ratio (y) = 0.74141 0.56621
# Poissons Ratio (z) = -0.87041 0.68101
#
# Static dielectric constant tensor:
#      x y z
#    x 1.679630 0.000000 0.006010 
#    y 0.000000 1.646660 0.000000 
#    z 0.006010 0.000000 1.661010 
# 
# From -- ./inp_files/55510.got.cif
#   From: 2010.05.17/outbox.cif.g08.bks.cpg/sg11_28_cif.got.tgz:55510.got - 2010.06.03 12:22:45.
