data_PCOD9165310
_publ_section_title
;
Structure prediction by ZEFSAII (Michael W. Deem and Ramdas Pophale) SiO2 
 PCOD9165310
Probable space group: P 21/M
;
_chemical_formula_sum "Si O2"
_cell_formula_units_Z 32
_cell_length_a 9.466120
_cell_length_b 14.092453
_cell_length_c 14.738836
_cell_angle_alpha 90.000000
_cell_angle_beta 119.771804
_cell_angle_gamma 90.000000
_cell_volume 1706.657892
_symmetry_space_group_name_H-M "P 21/M"
_symmetry_group_IT_number 11
_symmetry_cell_setting 'monoclinic'
loop_
_space_group_symop_operation_xyz
x,y,z
-x,1/2+y,-z
-x,-y,-z
x,1/2-y,z
loop_
_atom_site_type_symbol
_atom_site_label
_atom_site_fract_x
_atom_site_fract_y
_atom_site_fract_z
Si Si1 0.463114 0.474589 0.231430
Si Si2 0.309560 0.139621 0.697680
Si Si3 0.333877 0.473264 0.999755
Si Si4 0.917032 0.637009 0.206227
Si Si5 0.866904 0.139021 0.126377
Si Si6 0.220220 0.638525 0.690657
Si Si7 0.824364 0.971219 0.720911
Si Si8 0.147008 0.363535 0.453008
O O1 0.532993 0.578246 0.231005
O O2 0.627637 0.416060 0.300975
O O3 0.339178 0.477589 0.274194
O O4 0.377906 0.436611 0.113265
O O5 0.345920 0.250000 0.719259
O O6 0.165320 0.117653 0.722203
O O7 0.247740 0.121702 0.576210
O O8 0.219317 0.400380 0.908238
O O9 0.230646 0.570644 0.971298
O O10 0.500000 0.500000 0.000000
O O11 0.946783 0.750000 0.206379
O O12 0.075689 0.570339 0.248846
O O13 0.854353 0.250000 0.102969
O O14 0.795905 0.120832 0.205801
O O15 0.051849 0.103391 0.192106
O O16 0.244992 0.750000 0.686443
O O17 0.044237 0.613825 0.593766
O O18 0.795930 0.928416 0.611910
O O19 0.153687 0.250000 0.431433
#
# Coordination Sequence:
#
# PCOD9165310 Si02
#       8
#     4   4   4   4   4   4   4   4
#     4  12  23  35  54  87 118 146 188 232 285 334
#     4  10  21  38  62  86 108 144 193 237 279 334
#     4  11  20  36  57  83 114 149 188 237 280 327
#     4  10  22  40  59  82 113 152 194 232 276 331
#     4   9  18  35  57  78 105 148 192 229 276 329
#     4   9  18  33  55  81 106 139 189 238 274 322
#     4  10  22  37  56  82 119 150 182 231 283 341
#     4   9  19  39  63  84 110 147 188 231 282 339
#
# _framework density 18.750095999999999
#
# number of rings (size 3 to 8) (size 9 to 14) (size 15 to 20)
#    0.000    2.000    2.500    2.625    0.000    7.500 
#    0.000    1.250    0.000    3.000    0.000    0.000 
#    0.000    0.000    0.000    0.000    0.000    0.000 
#
# Total GULP energy -178615.472616 kJ/mol
# GULP energy per Si atom -5581.733519 kJ/mol
# Density = 1.870742 g / cm^3
# Si number density = 18.750096 Si / 1000 Ang^3
#
#
#
# Elastic Constant Matrix: (Units=GPa)
#
#
# Indices 1 2 3 4 5 6 
#
# 1 115.0748 32.8409 6.0588 0.0000 -8.8898 0.0000
# 2 32.8409 73.7212 9.0117 0.0000 -5.9715 0.0000
# 3 6.0588 9.0117 41.6316 0.0000 -9.7355 0.0000
# 4 0.0000 0.0000 0.0000 23.0098 0.0000 -1.1614
# 5 -8.8898 -5.9715 -9.7355 0.0000 9.8402 0.0000
# 6 0.0000 0.0000 0.0000 -1.1614 0.0000 4.4808
#
#
#
# Elastic Compliance Matrix: (Units=1/GPa)
#
#
# Indices 1 2 3 4 5 6 
#
# 1 0.010438 -0.004144 0.001295 0.000000 0.008195 0.000000
# 2 -0.004144 0.015973 -0.001904 0.000000 0.004066 0.000000
# 3 0.001295 -0.001904 0.031546 0.000000 0.031224 0.000000
# 4 0.000000 0.000000 0.000000 0.044036 0.000000 0.011414
# 5 0.008195 0.004066 0.031224 0.000000 0.142386 0.000000
# 6 0.000000 0.000000 0.000000 0.011414 0.000000 0.226132
#
#
# Mechanical properties :
#
#
# Convention : Reuss Voigt Hill
#
# Bulk Modulus (GPa) = 20.64005 36.25004 28.44505
# Shear Modulus (GPa) = 10.07726 19.63392 14.85559
#
# Velocity S-wave (km/s) = 2.32081 3.23946 2.81783
# Velocity P-wave (km/s) = 4.26772 5.77645 5.07843
#
# Compressibility (1/GPa) = 0.04844949
#
# Stress axis : x y z
#
# Youngs Moduli (GPa) = 95.80720 62.60673 31.70013
#
# Poissons Ratio (x) = 0.25945 -0.04104
# Poissons Ratio (y) = 0.39703 0.06035
# Poissons Ratio (z) = -0.12402 0.11918
#
# Static dielectric constant tensor:
#      x y z
#    x 1.624340 0.000000 -0.004450 
#    y 0.000000 1.676660 0.000000 
#    z -0.004450 0.000000 1.644390 
# 
# From -- ./inp_files/47608.got.cif
#   From: 2010.05.17/outbox.cif.g08.bks.cpg/sg11_24_cif.got.tgz:47608.got - 2010.06.03 12:22:45.
