data_PCOD9165035
_publ_section_title
;
Structure prediction by ZEFSAII (Michael W. Deem and Ramdas Pophale) SiO2 
 PCOD9165035
Probable space group: P 21/M
;
_chemical_formula_sum "Si O2"
_cell_formula_units_Z 32
_cell_length_a 28.200537
_cell_length_b 9.376293
_cell_length_c 11.798339
_cell_angle_alpha 90.000000
_cell_angle_beta 147.998175
_cell_angle_gamma 90.000000
_cell_volume 1653.260402
_symmetry_space_group_name_H-M "P 21/M"
_symmetry_group_IT_number 11
_symmetry_cell_setting 'monoclinic'
loop_
_space_group_symop_operation_xyz
x,y,z
-x,1/2+y,-z
-x,-y,-z
x,1/2-y,z
loop_
_atom_site_type_symbol
_atom_site_label
_atom_site_fract_x
_atom_site_fract_y
_atom_site_fract_z
Si Si1 0.575604 0.086624 0.718851
Si Si2 0.064423 0.918591 0.467022
Si Si3 0.871997 0.582596 0.190263
Si Si4 0.711924 0.091256 0.796506
Si Si5 0.738415 0.916584 0.462121
Si Si6 0.411042 0.085088 0.027275
Si Si7 0.080315 0.577087 0.230811
Si Si8 0.394641 0.915858 0.646666
O O1 0.547075 0.250000 0.674699
O O2 0.662754 0.083230 0.816749
O O3 0.500000 0.000000 0.500000
O O4 0.593908 0.015380 0.875476
O O5 0.083495 0.750000 0.517668
O O6 0.074697 0.954648 0.355098
O O7 0.962800 0.944196 0.303642
O O8 0.122501 0.004039 0.676962
O O9 0.864288 0.750000 0.194056
O O10 0.789407 0.523601 0.951318
O O11 0.751460 0.250000 0.862549
O O12 0.637365 0.074958 0.548669
O O13 0.759560 0.750000 0.528218
O O14 0.827137 0.010660 0.627827
O O15 0.671832 0.983240 0.419897
O O16 0.678494 0.922851 0.227143
O O17 0.424901 0.250000 0.091333
O O18 0.500403 0.046875 0.137174
O O19 0.076843 0.750000 0.210281
O O20 0.000000 0.500000 0.000000
O O21 0.384284 0.750000 0.662377
#
# Coordination Sequence:
#
# PCOD9165035 Si02
#       8
#     4   4   4   4   4   4   4   4
#     4  11  22  38  60  87 123 163 203 247 303 364
#     4   9  21  42  63  87 121 156 196 248 305 365
#     4  10  21  37  62  93 121 155 198 249 301 361
#     4  10  22  38  58  87 124 163 200 247 303 362
#     4  11  25  42  64  94 125 160 208 262 311 366
#     4  10  22  42  64  90 127 164 206 260 309 364
#     4  11  25  45  67  91 124 164 207 257 311 370
#     4  10  21  41  64  88 124 167 210 255 308 365
#
# _framework density 19.355692000000001
#
# number of rings (size 3 to 8) (size 9 to 14) (size 15 to 20)
#    0.000    1.750    1.250    1.875    3.500    4.500 
#    0.000    0.000    0.000    0.000    0.000    0.000 
#    0.000    0.000    0.000    0.000    0.000    0.000 
#
# Total GULP energy -178717.228089 kJ/mol
# GULP energy per Si atom -5584.913378 kJ/mol
# Density = 1.931164 g / cm^3
# Si number density = 19.355692 Si / 1000 Ang^3
#
#
#
# Elastic Constant Matrix: (Units=GPa)
#
#
# Indices 1 2 3 4 5 6 
#
# 1 55.2555 44.2609 5.5748 0.0000 -8.4132 0.0000
# 2 44.2609 75.5249 32.6252 0.0000 4.7542 0.0000
# 3 5.5748 32.6252 67.9666 0.0000 15.4275 0.0000
# 4 0.0000 0.0000 0.0000 33.4417 0.0000 -1.6843
# 5 -8.4132 4.7542 15.4275 0.0000 23.3520 0.0000
# 6 0.0000 0.0000 0.0000 -1.6843 0.0000 31.9836
#
#
#
# Elastic Compliance Matrix: (Units=1/GPa)
#
#
# Indices 1 2 3 4 5 6 
#
# 1 0.043862 -0.029698 0.006704 0.000000 0.017420 0.000000
# 2 -0.029698 0.036911 -0.013114 0.000000 -0.009550 0.000000
# 3 0.006704 -0.013114 0.022710 0.000000 -0.009918 0.000000
# 4 0.000000 0.000000 0.000000 0.029982 0.000000 0.001579
# 5 0.017420 -0.009550 -0.009918 0.000000 0.057596 0.000000
# 6 0.000000 0.000000 0.000000 0.001579 0.000000 0.031349
#
#
# Mechanical properties :
#
#
# Convention : Reuss Voigt Hill
#
# Bulk Modulus (GPa) = 31.98346 40.40767 36.19556
# Shear Modulus (GPa) = 16.39082 25.50785 20.94934
#
# Velocity S-wave (km/s) = 2.91318 3.63416 3.29345
# Velocity P-wave (km/s) = 5.27972 6.20735 5.76223
#
# Compressibility (1/GPa) = 0.03126616
#
# Stress axis : x y z
#
# Youngs Moduli (GPa) = 22.79867 27.09217 44.03423
#
# Poissons Ratio (x) = 0.80457 -0.29518
# Poissons Ratio (y) = 0.67706 0.57748
# Poissons Ratio (z) = -0.15283 0.35530
#
# Static dielectric constant tensor:
#      x y z
#    x 1.667110 0.000000 0.000890 
#    y 0.000000 1.665130 0.000000 
#    z 0.000890 0.000000 1.667910 
# 
# From -- ./inp_files/45286.got.cif
#   From: 2010.05.17/outbox.cif.g08.bks.cpg/sg11_23_cif.got.tgz:45286.got - 2010.06.03 12:22:45.
