data_PCOD9165230
_publ_section_title
;
Structure prediction by ZEFSAII (Michael W. Deem and Ramdas Pophale) SiO2 
 PCOD9165230
Probable space group: P 21/M
;
_chemical_formula_sum "Si O2"
_cell_formula_units_Z 28
_cell_length_a 19.886780
_cell_length_b 12.114576
_cell_length_c 5.586265
_cell_angle_alpha 90.000000
_cell_angle_beta 112.756920
_cell_angle_gamma 90.000000
_cell_volume 1241.074346
_symmetry_space_group_name_H-M "P 21/M"
_symmetry_group_IT_number 11
_symmetry_cell_setting 'monoclinic'
loop_
_space_group_symop_operation_xyz
x,y,z
-x,1/2+y,-z
-x,-y,-z
x,1/2-y,z
loop_
_atom_site_type_symbol
_atom_site_label
_atom_site_fract_x
_atom_site_fract_y
_atom_site_fract_z
Si Si1 0.361937 0.918900 0.314187
Si Si2 0.323164 0.124267 0.510368
Si Si3 0.175448 0.449684 0.495808
Si Si4 0.090757 0.869532 0.079859
Si Si5 0.972692 0.622749 0.561178
Si Si6 0.781848 0.366590 0.105963
Si Si7 0.418375 0.544967 0.888536
O O1 0.401178 0.888493 0.617652
O O2 0.350529 0.050862 0.326340
O O3 0.280001 0.873551 0.181729
O O4 0.400731 0.895991 0.115525
O O5 0.344007 0.250000 0.522578
O O6 0.235945 0.113019 0.425298
O O7 0.365009 0.060564 0.781058
O O8 0.114966 0.380875 0.554558
O O9 0.221689 0.529364 0.730497
O O10 0.124603 0.532686 0.275509
O O11 0.101445 0.750000 0.212493
O O12 0.139126 0.868326 0.905172
O O13 0.008403 0.878302 0.876044
O O14 0.992161 0.750000 0.496011
O O15 0.000000 0.500000 0.500000
O O16 0.770752 0.250000 0.219463
O O17 0.500000 0.500000 0.000000
#
# Coordination Sequence:
#
# PCOD9165230 Si02
#       7
#     4   4   4   4   4   4   4
#     4  10  21  42  63  97 132 171 215 277 329 401
#     4  10  23  39  64  94 131 175 221 269 337 404
#     4  12  21  41  63  92 127 173 228 285 342 412
#     4  10  21  38  60  89 121 167 220 280 344 407
#     4  11  24  41  63  92 132 173 229 288 352 419
#     4  11  21  38  63  93 127 172 221 276 341 405
#     4  10  21  41  70  92 133 172 219 273 335 397
#
# _framework density 22.561095999999999
#
# number of rings (size 3 to 8) (size 9 to 14) (size 15 to 20)
#    0.857    0.571    4.286    1.714    0.000    1.143 
#    0.000    4.286    0.000    0.000    0.000    0.000 
#    0.000    0.000    0.000    0.000    0.000    0.000 
#
# Total GULP energy -155924.865575 kJ/mol
# GULP energy per Si atom -5568.745199 kJ/mol
# Density = 2.250975 g / cm^3
# Si number density = 22.561096 Si / 1000 Ang^3
#
#
#
# Elastic Constant Matrix: (Units=GPa)
#
#
# Indices 1 2 3 4 5 6 
#
# 1 90.7498 7.8211 26.4416 0.0000 13.4606 0.0000
# 2 7.8211 120.3637 23.1250 0.0000 -0.3537 0.0000
# 3 26.4416 23.1250 106.8480 0.0000 5.8967 0.0000
# 4 0.0000 0.0000 0.0000 67.6931 0.0000 -10.9197
# 5 13.4606 -0.3537 5.8967 0.0000 38.9716 0.0000
# 6 0.0000 0.0000 0.0000 -10.9197 0.0000 4.1666
#
#
#
# Elastic Compliance Matrix: (Units=1/GPa)
#
#
# Indices 1 2 3 4 5 6 
#
# 1 0.012435 -0.000281 -0.002803 0.000000 -0.003873 0.000000
# 2 -0.000281 0.008680 -0.001834 0.000000 0.000453 0.000000
# 3 -0.002803 -0.001834 0.010485 0.000000 -0.000635 0.000000
# 4 0.000000 0.000000 0.000000 0.025592 0.000000 0.067071
# 5 -0.003873 0.000453 -0.000635 0.000000 0.027098 0.000000
# 6 0.000000 0.000000 0.000000 0.067071 0.000000 0.415784
#
#
# Mechanical properties :
#
#
# Convention : Reuss Voigt Hill
#
# Bulk Modulus (GPa) = 45.94728 48.08187 47.01457
# Shear Modulus (GPa) = 9.66813 39.53785 24.60299
#
# Velocity S-wave (km/s) = 2.07234 4.19080 3.30586
# Velocity P-wave (km/s) = 5.11235 6.69143 5.95447
#
# Compressibility (1/GPa) = 0.02176407
#
# Stress axis : x y z
#
# Youngs Moduli (GPa) = 80.42060 115.20572 95.37744
#
# Poissons Ratio (x) = 0.03236 0.26731
# Poissons Ratio (y) = 0.02259 0.17493
# Poissons Ratio (z) = 0.22539 0.21130
#
# Static dielectric constant tensor:
#      x y z
#    x 1.844150 0.000000 -0.041410 
#    y 0.000000 1.849430 0.000000 
#    z -0.041410 0.000000 1.879370 
# 
# From -- ./inp_files/8837.got.cif
#   From: 2010.05.17/outbox.cif.g08.bks.cpg/sg11_5_cif.got.tgz:8837.got - 2010.06.03 12:22:45.
