data_PCOD9165578
_publ_section_title
;
Structure prediction by ZEFSAII (Michael W. Deem and Ramdas Pophale) SiO2 
 PCOD9165578
Probable space group: P 21/M
;
_chemical_formula_sum "Si O2"
_cell_formula_units_Z 32
_cell_length_a 15.123413
_cell_length_b 8.987157
_cell_length_c 22.692880
_cell_angle_alpha 90.000000
_cell_angle_beta 148.086943
_cell_angle_gamma 90.000000
_cell_volume 1630.478344
_symmetry_space_group_name_H-M "P 21/M"
_symmetry_group_IT_number 11
_symmetry_cell_setting 'monoclinic'
loop_
_space_group_symop_operation_xyz
x,y,z
-x,1/2+y,-z
-x,-y,-z
x,1/2-y,z
loop_
_atom_site_type_symbol
_atom_site_label
_atom_site_fract_x
_atom_site_fract_y
_atom_site_fract_z
Si Si1 0.236942 0.425902 0.578879
Si Si2 0.423474 0.573783 0.293071
Si Si3 0.385198 0.072045 0.790023
Si Si4 0.259505 0.073467 0.984031
Si Si5 0.352531 0.071258 0.378071
Si Si6 0.839477 0.927144 0.939367
Si Si7 0.036627 0.073586 0.650203
Si Si8 0.991352 0.927719 0.749388
O O1 0.196855 0.250000 0.560267
O O2 0.381016 0.445169 0.611046
O O3 0.318156 0.471101 0.687097
O O4 0.075838 0.516004 0.467473
O O5 0.389005 0.750000 0.276940
O O6 0.368556 0.494536 0.321808
O O7 0.320055 0.502392 0.181260
O O8 0.417582 0.250000 0.806702
O O9 0.231026 0.043087 0.746586
O O10 0.553501 0.989159 0.903343
O O11 0.264246 0.250000 0.976418
O O12 0.168491 0.046191 0.995330
O O13 0.152538 0.994518 0.873172
O O14 0.368889 0.250000 0.386067
O O15 0.174618 0.033909 0.307105
O O16 0.500000 0.000000 0.500000
O O17 0.838122 0.750000 0.928567
O O18 0.000000 0.000000 0.000000
O O19 0.015496 0.250000 0.644228
O O20 0.980362 0.992775 0.677733
O O21 0.003277 0.750000 0.753477
#
# Coordination Sequence:
#
# PCOD9165578 Si02
#       8
#     4   4   4   4   4   4   4   4
#     4  10  21  39  63  92 128 165 203 249 310 378
#     4  11  22  37  61  90 122 162 202 247 305 366
#     4  10  22  42  65  92 126 165 205 252 314 374
#     4  11  24  41  64  93 124 160 208 261 308 363
#     4  11  24  41  62  90 124 166 212 258 310 369
#     4  11  23  38  59  89 122 158 201 249 302 363
#     4  11  24  40  64  94 123 160 209 262 312 366
#     4  11  25  44  64  87 123 169 211 254 313 375
#
# _framework density 19.626142000000002
#
# number of rings (size 3 to 8) (size 9 to 14) (size 15 to 20)
#    0.000    1.250    1.250    4.125    0.000   11.500 
#    0.000    0.000    0.000    0.000    0.000    0.000 
#    0.000    0.000    0.000    0.000    0.000    0.000 
#
# Total GULP energy -179009.940282 kJ/mol
# GULP energy per Si atom -5594.060634 kJ/mol
# Density = 1.958147 g / cm^3
# Si number density = 19.626142 Si / 1000 Ang^3
#
#
#
# Elastic Constant Matrix: (Units=GPa)
#
#
# Indices 1 2 3 4 5 6 
#
# 1 55.3491 27.9392 4.0374 0.0000 -4.0953 0.0000
# 2 27.9392 51.4210 32.1127 0.0000 7.6806 0.0000
# 3 4.0374 32.1127 96.6998 0.0000 -0.1949 0.0000
# 4 0.0000 0.0000 0.0000 39.9017 0.0000 -2.6475
# 5 -4.0953 7.6806 -0.1949 0.0000 28.7537 0.0000
# 6 0.0000 0.0000 0.0000 -2.6475 0.0000 27.2428
#
#
#
# Elastic Compliance Matrix: (Units=1/GPa)
#
#
# Indices 1 2 3 4 5 6 
#
# 1 0.028770 -0.020608 0.005662 0.000000 0.009641 0.000000
# 2 -0.020608 0.040621 -0.012657 0.000000 -0.013871 0.000000
# 3 0.005662 -0.012657 0.014317 0.000000 0.004284 0.000000
# 4 0.000000 0.000000 0.000000 0.025224 0.000000 0.002451
# 5 0.009641 -0.013871 0.004284 0.000000 0.039886 0.000000
# 6 0.000000 0.000000 0.000000 0.002451 0.000000 0.036945
#
#
# Mechanical properties :
#
#
# Convention : Reuss Voigt Hill
#
# Bulk Modulus (GPa) = 35.08619 36.84984 35.96801
# Shear Modulus (GPa) = 19.96255 28.47167 24.21711
#
# Velocity S-wave (km/s) = 3.19272 3.81294 3.51653
# Velocity P-wave (km/s) = 5.61315 6.18072 5.90376
#
# Compressibility (1/GPa) = 0.02850124
#
# Stress axis : x y z
#
# Youngs Moduli (GPa) = 34.75857 24.61797 69.84813
#
# Poissons Ratio (x) = 0.50732 -0.39546
# Poissons Ratio (y) = 0.71629 0.88408
# Poissons Ratio (z) = -0.19679 0.31159
#
# Static dielectric constant tensor:
#      x y z
#    x 5.869360 0.000000 -8.285640 
#    y 0.000000 1.649600 0.000000 
#    z -8.285640 0.000000 18.122600 
# 
# From -- ./inp_files/69101.got.cif
#   From: 2010.05.17/outbox.cif.g08.bks.cpg/sg11_35_cif.got.tgz:69101.got - 2010.06.03 12:22:45.
