data_PCOD9165829
_publ_section_title
;
Structure prediction by ZEFSAII (Michael W. Deem and Ramdas Pophale) SiO2 
 PCOD9165829
Probable space group: P 21/M
;
_chemical_formula_sum "Si O2"
_cell_formula_units_Z 18
_cell_length_a 7.160083
_cell_length_b 10.202718
_cell_length_c 9.864705
_cell_angle_alpha 90.000000
_cell_angle_beta 100.384789
_cell_angle_gamma 90.000000
_cell_volume 708.834930
_symmetry_space_group_name_H-M "P 21/M"
_symmetry_group_IT_number 11
_symmetry_cell_setting 'monoclinic'
loop_
_space_group_symop_operation_xyz
x,y,z
-x,1/2+y,-z
-x,-y,-z
x,1/2-y,z
loop_
_atom_site_type_symbol
_atom_site_label
_atom_site_fract_x
_atom_site_fract_y
_atom_site_fract_z
Si Si1 0.754097 0.250000 0.838339
Si Si2 0.213016 0.525479 0.968051
Si Si3 0.184344 0.250000 0.997512
Si Si4 0.336534 0.954276 0.687785
Si Si5 0.823311 0.250000 0.543647
Si Si6 0.332557 0.250000 0.290195
Si Si7 0.734157 0.750000 0.401074
O O1 0.718242 0.250000 0.674566
O O2 0.692995 0.122760 0.913486
O O3 0.984132 0.250000 0.894638
O O4 0.228155 0.572093 0.815632
O O5 0.296317 0.380159 0.976921
O O6 0.000000 0.500000 0.000000
O O7 0.165539 0.250000 0.158271
O O8 0.229684 0.877794 0.551520
O O9 0.536809 0.878038 0.717127
O O10 0.343766 0.109641 0.660535
O O11 0.043970 0.250000 0.605407
O O12 0.275382 0.250000 0.437675
#
# Coordination Sequence:
#
# PCOD9165829 Si02
#       7
#     2   4   2   4   2   2   2
#     4  10  21  40  68 105 135 170 224 293 338 396
#     4  10  21  40  70  97 133 170 223 286 336 392
#     4  10  23  39  65  96 135 175 228 257 354 394
#     4  11  25  47  68 104 139 177 231 282 344 405
#     4  11  25  41  74 106 135 172 235 290 345 392
#     4  11  27  43  67  95 146 191 220 273 339 414
#     4  12  24  41  72  98 137 182 231 285 334 404
#
# _framework density 25.393785000000001
#
# number of rings (size 3 to 8) (size 9 to 14) (size 15 to 20)
#    0.000    1.333    0.000    6.000    9.333    0.889 
#    0.000    0.000    0.000    0.000    0.000    0.000 
#    0.000    0.000    0.000    0.000    0.000    0.000 
#
# Total GULP energy -100773.291547 kJ/mol
# GULP energy per Si atom -5598.516197 kJ/mol
# Density = 2.533599 g / cm^3
# Si number density = 25.393785 Si / 1000 Ang^3
#
#
#
# Elastic Constant Matrix: (Units=GPa)
#
#
# Indices 1 2 3 4 5 6 
#
# 1 100.9711 24.4201 48.9698 0.0000 -17.0059 0.0000
# 2 24.4201 234.5774 73.6199 0.0000 -6.3536 0.0000
# 3 48.9698 73.6199 243.8615 0.0000 -25.8694 0.0000
# 4 0.0000 0.0000 0.0000 38.4871 0.0000 -0.1011
# 5 -17.0059 -6.3536 -25.8694 0.0000 44.4759 0.0000
# 6 0.0000 0.0000 0.0000 -0.1011 0.0000 10.2229
#
#
#
# Elastic Compliance Matrix: (Units=1/GPa)
#
#
# Indices 1 2 3 4 5 6 
#
# 1 0.011452 -0.000542 -0.001790 0.000000 0.003260 0.000000
# 2 -0.000542 0.004736 -0.001355 0.000000 -0.000319 0.000000
# 3 -0.001790 -0.001355 0.005090 0.000000 0.002083 0.000000
# 4 0.000000 0.000000 0.000000 0.025983 0.000000 0.000257
# 5 0.003260 -0.000319 0.002083 0.000000 0.024896 0.000000
# 6 0.000000 0.000000 0.000000 0.000257 0.000000 0.097822
#
#
# Mechanical properties :
#
#
# Convention : Reuss Voigt Hill
#
# Bulk Modulus (GPa) = 71.92020 97.04775 84.48398
# Shear Modulus (GPa) = 27.47421 47.46386 37.46904
#
# Velocity S-wave (km/s) = 3.29283 4.32801 3.84542
# Velocity P-wave (km/s) = 6.54526 7.95460 7.28410
#
# Compressibility (1/GPa) = 0.01390430
#
# Stress axis : x y z
#
# Youngs Moduli (GPa) = 87.31901 211.15120 196.46030
#
# Poissons Ratio (x) = 0.11446 0.35171
# Poissons Ratio (y) = 0.04733 0.26614
# Poissons Ratio (z) = 0.15632 0.28605
#
# Static dielectric constant tensor:
#      x y z
#    x 2.004630 0.000000 0.020600 
#    y 0.000000 2.061030 0.000000 
#    z 0.020600 0.000000 2.001740 
# 
# From -- ./inp_files/11560.got.cif
#   From: 2010.05.17/outbox.cif.g08.bks.cpg/sg11_6_cif.got.tgz:11560.got - 2010.06.03 12:22:45.
