data_PCOD9165704
_publ_section_title
;
Structure prediction by ZEFSAII (Michael W. Deem and Ramdas Pophale) SiO2 
 PCOD9165704
Probable space group: P 21/M
;
_chemical_formula_sum "Si O2"
_cell_formula_units_Z 30
_cell_length_a 14.672565
_cell_length_b 9.355532
_cell_length_c 11.897663
_cell_angle_alpha 90.000000
_cell_angle_beta 77.092278
_cell_angle_gamma 90.000000
_cell_volume 1591.919182
_symmetry_space_group_name_H-M "P 21/M"
_symmetry_group_IT_number 11
_symmetry_cell_setting 'monoclinic'
loop_
_space_group_symop_operation_xyz
x,y,z
-x,1/2+y,-z
-x,-y,-z
x,1/2-y,z
loop_
_atom_site_type_symbol
_atom_site_label
_atom_site_fract_x
_atom_site_fract_y
_atom_site_fract_z
Si Si1 0.073557 0.087958 0.121604
Si Si2 0.880094 0.520423 0.635430
Si Si3 0.504067 0.579416 0.381402
Si Si4 0.137987 0.917358 0.893168
Si Si5 0.400099 0.578262 0.016079
Si Si6 0.317776 0.420797 0.822920
Si Si7 0.675952 0.079493 0.715308
Si Si8 0.992101 0.750000 0.458509
O O1 0.093625 0.250000 0.075839
O O2 0.961641 0.066952 0.141331
O O3 0.103740 0.073363 0.241344
O O4 0.121337 0.976738 0.023798
O O5 0.769701 0.497049 0.650303
O O6 0.923799 0.627426 0.533828
O O7 0.936389 0.373878 0.607669
O O8 0.500000 0.500000 0.500000
O O9 0.497914 0.750000 0.399959
O O10 0.600616 0.551509 0.289397
O O11 0.416491 0.535948 0.327707
O O12 0.163118 0.750000 0.887748
O O13 0.218565 0.012577 0.815780
O O14 0.411157 0.750000 0.996981
O O15 0.344342 0.555669 0.147406
O O16 0.500000 0.500000 0.000000
O O17 0.347244 0.503722 0.927807
O O18 0.312032 0.250000 0.842891
O O19 0.687873 0.250000 0.696704
#
# Coordination Sequence:
#
# PCOD9165704 Si02
#       8
#     4   4   4   4   4   4   4   2
#     4  10  21  40  62  88 128 159 202 252 314 368
#     4  11  21  43  62  93 120 163 201 263 310 365
#     4  10  23  45  62  85 120 163 208 254 299 361
#     4  10  22  38  61  93 121 164 204 248 305 380
#     4  11  21  37  63  95 126 162 204 258 314 370
#     4  11  22  41  61  89 128 162 206 258 310 363
#     4  10  21  41  66  88 123 164 200 246 317 371
#     4  10  24  40  62  86 126 152 210 256 308 360
#
# _framework density 18.845177
#
# number of rings (size 3 to 8) (size 9 to 14) (size 15 to 20)
#    0.000    1.600    2.667    2.000    0.933    2.667 
#    8.400    0.000    0.000    0.000    0.000    0.000 
#    0.000    0.000    0.000    0.000    0.000    0.000 
#
# Total GULP energy -167029.912439 kJ/mol
# GULP energy per Si atom -5567.663748 kJ/mol
# Density = 1.880228 g / cm^3
# Si number density = 18.845177 Si / 1000 Ang^3
#
#
#
# Elastic Constant Matrix: (Units=GPa)
#
#
# Indices 1 2 3 4 5 6 
#
# 1 83.6282 38.9727 48.6883 0.0000 -25.2781 0.0000
# 2 38.9727 101.3666 42.0349 0.0000 -14.3111 0.0000
# 3 48.6883 42.0349 79.0238 0.0000 -12.3957 0.0000
# 4 0.0000 0.0000 0.0000 17.6454 0.0000 0.4931
# 5 -25.2781 -14.3111 -12.3957 0.0000 23.8164 0.0000
# 6 0.0000 0.0000 0.0000 0.4931 0.0000 23.6072
#
#
#
# Elastic Compliance Matrix: (Units=1/GPa)
#
#
# Indices 1 2 3 4 5 6 
#
# 1 0.025782 -0.002315 -0.011520 0.000000 0.019978 0.000000
# 2 -0.002315 0.013317 -0.005213 0.000000 0.002832 0.000000
# 3 -0.011520 -0.005213 0.021904 0.000000 -0.003959 0.000000
# 4 0.000000 0.000000 0.000000 0.056705 0.000000 -0.001184
# 5 0.019978 0.002832 -0.003959 0.000000 0.062833 0.000000
# 6 0.000000 0.000000 0.000000 -0.001184 0.000000 0.042385
#
#
# Mechanical properties :
#
#
# Convention : Reuss Voigt Hill
#
# Bulk Modulus (GPa) = 43.65460 58.15669 50.90565
# Shear Modulus (GPa) = 18.61116 21.96865 20.28990
#
# Velocity S-wave (km/s) = 3.14599 3.41800 3.28481
# Velocity P-wave (km/s) = 6.03419 6.81940 6.43878
#
# Compressibility (1/GPa) = 0.02290709
#
# Stress axis : x y z
#
# Youngs Moduli (GPa) = 38.78699 75.09329 45.65394
#
# Poissons Ratio (x) = 0.17384 0.52592
# Poissons Ratio (y) = 0.08979 0.23800
# Poissons Ratio (z) = 0.44681 0.39147
#
# Static dielectric constant tensor:
#      x y z
#    x 1.674740 0.000000 0.005840 
#    y 0.000000 1.628200 0.000000 
#    z 0.005840 0.000000 1.620070 
# 
# From -- ./inp_files/38056.got.cif
#   From: 2010.05.17/outbox.cif.g08.bks.cpg/sg11_20_cif.got.tgz:38056.got - 2010.06.03 12:22:45.
