data_PCOD9165499
_publ_section_title
;
Structure prediction by ZEFSAII (Michael W. Deem and Ramdas Pophale) SiO2 
 PCOD9165499
Probable space group: P 21/M
;
_chemical_formula_sum "Si O2"
_cell_formula_units_Z 32
_cell_length_a 31.531979
_cell_length_b 8.897680
_cell_length_c 11.415265
_cell_angle_alpha 90.000000
_cell_angle_beta 147.251733
_cell_angle_gamma 90.000000
_cell_volume 1732.488488
_symmetry_space_group_name_H-M "P 21/M"
_symmetry_group_IT_number 11
_symmetry_cell_setting 'monoclinic'
loop_
_space_group_symop_operation_xyz
x,y,z
-x,1/2+y,-z
-x,-y,-z
x,1/2-y,z
loop_
_atom_site_type_symbol
_atom_site_label
_atom_site_fract_x
_atom_site_fract_y
_atom_site_fract_z
Si Si1 0.363938 0.928423 0.446829
Si Si2 0.014566 0.070481 0.160679
Si Si3 0.507920 0.429658 0.646980
Si Si4 0.819869 0.928969 0.335365
Si Si5 0.192303 0.571026 0.945608
Si Si6 0.719452 0.430503 0.509244
Si Si7 0.126185 0.429453 0.024278
Si Si8 0.323598 0.569272 0.856624
O O1 0.380045 0.750000 0.478474
O O2 0.284186 0.956669 0.188382
O O3 0.341655 0.967715 0.528954
O O4 0.436275 0.016100 0.560824
O O5 0.003583 0.250000 0.130361
O O6 0.102609 0.039427 0.408546
O O7 0.000000 0.000000 0.000000
O O8 0.952403 0.999379 0.105527
O O9 0.500000 0.500000 0.500000
O O10 0.506523 0.250000 0.633668
O O11 0.590838 0.473821 0.897464
O O12 0.813600 0.750000 0.304870
O O13 0.743896 0.990864 0.225342
O O14 0.826733 0.007607 0.225616
O O15 0.179753 0.750000 0.922531
O O16 0.143456 0.490838 0.934392
O O17 0.733557 0.250000 0.549669
O O18 0.800402 0.513687 0.726886
O O19 0.688179 0.466335 0.307841
O O20 0.122771 0.250000 0.017198
O O21 0.315662 0.750000 0.850991
#
# Coordination Sequence:
#
# PCOD9165499 Si02
#       8
#     4   4   4   4   4   4   4   4
#     4   9  19  36  58  84 112 145 185 229 280 336
#     4  11  24  41  60  85 117 151 190 235 284 338
#     4  11  23  37  55  81 112 148 189 233 282 336
#     4  11  24  39  58  86 115 145 188 240 286 331
#     4  10  21  39  62  85 114 153 191 229 280 339
#     4   9  19  38  61  83 113 152 190 231 281 337
#     4  11  22  37  60  89 118 149 188 232 280 336
#     4  10  22  39  58  81 112 151 192 232 281 341
#
# _framework density 18.470541000000001
#
# number of rings (size 3 to 8) (size 9 to 14) (size 15 to 20)
#    0.000    1.750    0.000    4.875    0.000   12.000 
#    0.000    0.000    0.000    0.000    0.000    0.000 
#    0.000    0.000    0.000    0.000    0.000    0.000 
#
# Total GULP energy -178874.034078 kJ/mol
# GULP energy per Si atom -5589.813565 kJ/mol
# Density = 1.842850 g / cm^3
# Si number density = 18.470541 Si / 1000 Ang^3
#
#
#
# Elastic Constant Matrix: (Units=GPa)
#
#
# Indices 1 2 3 4 5 6 
#
# 1 94.9033 50.1540 56.4928 0.0000 1.9497 0.0000
# 2 50.1540 64.7791 54.6491 0.0000 1.5768 0.0000
# 3 56.4928 54.6491 70.8586 0.0000 -2.9200 0.0000
# 4 0.0000 0.0000 0.0000 29.5628 0.0000 2.7903
# 5 1.9497 1.5768 -2.9200 0.0000 39.9846 0.0000
# 6 0.0000 0.0000 0.0000 2.7903 0.0000 37.8078
#
#
#
# Elastic Compliance Matrix: (Units=1/GPa)
#
#
# Indices 1 2 3 4 5 6 
#
# 1 0.020967 -0.005814 -0.012302 0.000000 -0.001692 0.000000
# 2 -0.005814 0.046528 -0.031408 0.000000 -0.003845 0.000000
# 3 -0.012302 -0.031408 0.048365 0.000000 0.005370 0.000000
# 4 0.000000 0.000000 0.000000 0.034064 0.000000 -0.002514
# 5 -0.001692 -0.003845 0.005370 0.000000 0.025636 0.000000
# 6 0.000000 0.000000 0.000000 -0.002514 0.000000 0.026635
#
#
# Mechanical properties :
#
#
# Convention : Reuss Voigt Hill
#
# Bulk Modulus (GPa) = 59.47859 61.45919 60.46889
# Shear Modulus (GPa) = 16.29474 26.08736 21.19105
#
# Velocity S-wave (km/s) = 2.97341 3.76224 3.39084
# Velocity P-wave (km/s) = 6.63777 7.22627 6.93826
#
# Compressibility (1/GPa) = 0.01681277
#
# Stress axis : x y z
#
# Youngs Moduli (GPa) = 47.69287 21.49225 20.67620
#
# Poissons Ratio (x) = 0.12496 0.25436
# Poissons Ratio (y) = 0.27730 0.64939
# Poissons Ratio (z) = 0.58672 0.67502
#
# Static dielectric constant tensor:
#      x y z
#    x 1.610480 0.000000 -0.007150 
#    y 0.000000 1.615820 0.000000 
#    z -0.007150 0.000000 1.614160 
# 
# From -- ./inp_files/45316.got.cif
#   From: 2010.05.17/outbox.cif.g08.bks.cpg/sg11_23_cif.got.tgz:45316.got - 2010.06.03 12:22:45.
