data_PCOD9165238
_publ_section_title
;
Structure prediction by ZEFSAII (Michael W. Deem and Ramdas Pophale) SiO2 
 PCOD9165238
Probable space group: P 21/M
;
_chemical_formula_sum "Si O2"
_cell_formula_units_Z 20
_cell_length_a 10.281272
_cell_length_b 11.530428
_cell_length_c 10.716475
_cell_angle_alpha 90.000000
_cell_angle_beta 136.175912
_cell_angle_gamma 90.000000
_cell_volume 879.691689
_symmetry_space_group_name_H-M "P 21/M"
_symmetry_group_IT_number 11
_symmetry_cell_setting 'monoclinic'
loop_
_space_group_symop_operation_xyz
x,y,z
-x,1/2+y,-z
-x,-y,-z
x,1/2-y,z
loop_
_atom_site_type_symbol
_atom_site_label
_atom_site_fract_x
_atom_site_fract_y
_atom_site_fract_z
Si Si1 0.743419 0.876257 0.707208
Si Si2 0.372780 0.877519 0.275267
Si Si3 0.590736 0.513724 0.927489
Si Si4 0.228767 0.624057 0.607572
Si Si5 0.034750 0.955703 0.723836
O O1 0.738348 0.750000 0.769892
O O2 0.560677 0.878011 0.489655
O O3 0.931564 0.879586 0.754645
O O4 0.735732 0.002085 0.769323
O O5 0.283486 0.750000 0.231747
O O6 0.422429 0.897169 0.164236
O O7 0.451712 0.603037 0.763948
O O8 0.500000 0.500000 0.000000
O O9 0.808673 0.536578 0.103177
O O10 0.185744 0.750000 0.527494
O O11 0.142326 0.611039 0.686897
O O12 0.128018 0.528929 0.454596
#
# Coordination Sequence:
#
# PCOD9165238 Si02
#       5
#     4   4   4   4   4
#     4  10  21  40  66  94 129 174 221 268 323 388
#     4  10  22  41  64  94 132 174 218 270 328 386
#     4  10  22  40  62  93 128 164 212 265 325 385
#     4  10  21  38  60  90 130 169 211 266 323 385
#     4  10  21  39  62  93 124 167 216 264 321 388
#
# _framework density 22.735237000000001
#
# number of rings (size 3 to 8) (size 9 to 14) (size 15 to 20)
#    0.000    2.000    2.000    0.600    0.000    7.200 
#    0.000    0.000    0.000    0.000    0.000    0.000 
#    0.000    0.000    0.000    0.000    0.000    0.000 
#
# Total GULP energy -111531.970130 kJ/mol
# GULP energy per Si atom -5576.598506 kJ/mol
# Density = 2.268349 g / cm^3
# Si number density = 22.735237 Si / 1000 Ang^3
#
#
#
# Elastic Constant Matrix: (Units=GPa)
#
#
# Indices 1 2 3 4 5 6 
#
# 1 68.6075 61.8883 19.7190 0.0000 6.8073 0.0000
# 2 61.8883 166.2104 17.6944 0.0000 -0.4967 0.0000
# 3 19.7190 17.6944 65.3013 0.0000 4.1649 0.0000
# 4 0.0000 0.0000 0.0000 5.5274 0.0000 3.1570
# 5 6.8073 -0.4967 4.1649 0.0000 31.7349 0.0000
# 6 0.0000 0.0000 0.0000 3.1570 0.0000 20.8316
#
#
#
# Elastic Compliance Matrix: (Units=1/GPa)
#
#
# Indices 1 2 3 4 5 6 
#
# 1 0.024007 -0.008457 -0.004660 0.000000 -0.004670 0.000000
# 2 -0.008457 0.009177 -0.000058 0.000000 0.001965 0.000000
# 3 -0.004660 -0.000058 0.016814 0.000000 -0.001208 0.000000
# 4 0.000000 0.000000 0.000000 0.198061 0.000000 -0.030016
# 5 -0.004670 0.001965 -0.001208 0.000000 0.032702 0.000000
# 6 0.000000 0.000000 0.000000 -0.030016 0.000000 0.052553
#
#
# Mechanical properties :
#
#
# Convention : Reuss Voigt Hill
#
# Bulk Modulus (GPa) = 42.28752 55.41364 48.85058
# Shear Modulus (GPa) = 13.60369 25.00661 19.30515
#
# Velocity S-wave (km/s) = 2.44878 3.32008 2.91714
# Velocity P-wave (km/s) = 5.16098 6.25489 5.73408
#
# Compressibility (1/GPa) = 0.02364764
#
# Stress axis : x y z
#
# Youngs Moduli (GPa) = 41.65435 108.96241 59.47533
#
# Poissons Ratio (x) = 0.92148 0.27716
# Poissons Ratio (y) = 0.35227 0.00347
# Poissons Ratio (z) = 0.19411 0.00636
#
# Static dielectric constant tensor:
#      x y z
#    x 1.909310 0.000000 -0.045770 
#    y 0.000000 1.837480 0.000000 
#    z -0.045770 0.000000 1.845470 
# 
# From -- ./inp_files/34960.got.cif
#   From: 2010.05.17/outbox.cif.g08.bks.cpg/sg11_18_cif.got.tgz:34960.got - 2010.06.03 12:22:45.
