data_PCOD9165835
_publ_section_title
;
Structure prediction by ZEFSAII (Michael W. Deem and Ramdas Pophale) SiO2 
 PCOD9165835
Probable space group: P 21/M
;
_chemical_formula_sum "Si O2"
_cell_formula_units_Z 28
_cell_length_a 7.001656
_cell_length_b 20.305038
_cell_length_c 8.110438
_cell_angle_alpha 90.000000
_cell_angle_beta 90.560321
_cell_angle_gamma 90.000000
_cell_volume 1152.996840
_symmetry_space_group_name_H-M "P 21/M"
_symmetry_group_IT_number 11
_symmetry_cell_setting 'monoclinic'
loop_
_space_group_symop_operation_xyz
x,y,z
-x,1/2+y,-z
-x,-y,-z
x,1/2-y,z
loop_
_atom_site_type_symbol
_atom_site_label
_atom_site_fract_x
_atom_site_fract_y
_atom_site_fract_z
Si Si1 0.649238 0.323306 0.005725
Si Si2 0.121766 0.944735 0.409969
Si Si3 0.216793 0.676699 0.636252
Si Si4 0.783207 0.676699 0.863748
Si Si5 0.500000 0.072886 0.750000
Si Si6 0.878234 0.555265 0.090032
Si Si7 0.350762 0.176694 0.494274
O O1 0.694904 0.250000 0.938349
O O2 0.625769 0.379211 0.868692
O O3 0.779500 0.336480 0.167314
O O4 0.436654 0.319777 0.079372
O O5 0.138366 0.882623 0.529236
O O6 0.337860 0.965051 0.353954
O O7 0.000000 0.926650 0.250000
O O8 0.000000 0.000000 0.500000
O O9 0.137856 0.750000 0.604319
O O10 0.436654 0.680223 0.579372
O O11 0.779500 0.663520 0.667314
O O12 0.862145 0.750000 0.895682
O O13 0.861634 0.617377 0.970765
O O14 0.374230 0.120789 0.631307
O O15 0.337860 0.034949 0.853954
O O16 0.000000 0.500000 0.000000
O O17 0.305096 0.250000 0.561650
#
# Coordination Sequence:
#
# PCOD9165835 Si02
#       7
#     4   4   4   4   4   4   4
#     4   8  14  30  63 103 138 173 214 268 343 416
#     4  11  26  45  67  97 135 180 231 280 334 404
#     4   8  16  35  65 101 139 175 215 271 337 407
#     4   8  16  35  65 101 139 175 215 271 337 407
#     4  10  21  40  68  98 135 182 224 278 336 392
#     4  11  26  45  67  97 135 180 231 280 334 404
#     4   8  14  30  63 103 138 173 214 268 343 416
#
# _framework density 24.28454
#
# number of rings (size 3 to 8) (size 9 to 14) (size 15 to 20)
#    0.000    2.857    0.000    2.143    0.000    5.143 
#    0.000    2.857    0.000    4.286    0.000    1.000 
#    0.000    0.000    0.000    1.143    0.000    0.000 
#
# Total GULP energy -156588.756373 kJ/mol
# GULP energy per Si atom -5592.455585 kJ/mol
# Density = 2.422927 g / cm^3
# Si number density = 24.284540 Si / 1000 Ang^3
#
#
#
# Elastic Constant Matrix: (Units=GPa)
#
#
# Indices 1 2 3 4 5 6 
#
# 1 133.0398 83.6913 72.6414 0.0000 -13.9357 0.0000
# 2 83.6913 130.3574 78.6867 0.0000 18.6723 0.0000
# 3 72.6414 78.6867 99.4867 0.0000 -3.9626 0.0000
# 4 0.0000 0.0000 0.0000 13.7182 0.0000 -4.1411
# 5 -13.9357 18.6723 -3.9626 0.0000 73.4988 0.0000
# 6 0.0000 0.0000 0.0000 -4.1411 0.0000 34.1106
#
#
#
# Elastic Compliance Matrix: (Units=1/GPa)
#
#
# Indices 1 2 3 4 5 6 
#
# 1 0.015577 -0.007460 -0.005291 0.000000 0.004563 0.000000
# 2 -0.007460 0.019797 -0.010490 0.000000 -0.007009 0.000000
# 3 -0.005291 -0.010490 0.022326 0.000000 0.002865 0.000000
# 4 0.000000 0.000000 0.000000 0.075669 0.000000 0.009186
# 5 0.004563 -0.007009 0.002865 0.000000 0.016406 0.000000
# 6 0.000000 0.000000 0.000000 0.009186 0.000000 0.030432
#
#
# Mechanical properties :
#
#
# Convention : Reuss Voigt Hill
#
# Bulk Modulus (GPa) = 89.15242 92.54698 90.84970
# Shear Modulus (GPa) = 21.69887 32.78981 27.24434
#
# Velocity S-wave (km/s) = 2.99243 3.67854 3.35308
# Velocity P-wave (km/s) = 6.98075 7.49896 7.24449
#
# Compressibility (1/GPa) = 0.01121675
#
# Stress axis : x y z
#
# Youngs Moduli (GPa) = 64.19895 50.51388 44.79124
#
# Poissons Ratio (x) = 0.37684 0.23700
# Poissons Ratio (y) = 0.47893 0.46985
# Poissons Ratio (z) = 0.33969 0.52988
#
# Static dielectric constant tensor:
#      x y z
#    x 1.994380 0.000000 -0.046950 
#    y 0.000000 1.903890 0.000000 
#    z -0.046950 0.000000 1.964700 
# 
# From -- ./inp_files/29976.got.cif
#   From: 2010.05.17/outbox.cif.g08.bks.cpg/sg11_15_cif.got.tgz:29976.got - 2010.06.03 12:22:45.
