data_PCOD9165427
_publ_section_title
;
Structure prediction by ZEFSAII (Michael W. Deem and Ramdas Pophale) SiO2 
 PCOD9165427
Probable space group: P 21/M
;
_chemical_formula_sum "Si O2"
_cell_formula_units_Z 28
_cell_length_a 11.931224
_cell_length_b 19.089722
_cell_length_c 5.303169
_cell_angle_alpha 90.000000
_cell_angle_beta 86.768931
_cell_angle_gamma 90.000000
_cell_volume 1205.949562
_symmetry_space_group_name_H-M "P 21/M"
_symmetry_group_IT_number 11
_symmetry_cell_setting 'monoclinic'
loop_
_space_group_symop_operation_xyz
x,y,z
-x,1/2+y,-z
-x,-y,-z
x,1/2-y,z
loop_
_atom_site_type_symbol
_atom_site_label
_atom_site_fract_x
_atom_site_fract_y
_atom_site_fract_z
Si Si1 0.009790 0.595343 0.777988
Si Si2 0.526982 0.326765 0.935351
Si Si3 0.729124 0.100277 0.701835
Si Si4 0.821447 0.987485 0.039002
Si Si5 0.630680 0.982652 0.415958
Si Si6 0.938756 0.171926 0.722693
Si Si7 0.622872 0.830112 0.550247
O O1 0.001019 0.624176 0.496377
O O2 0.890354 0.575523 0.912070
O O3 0.092896 0.527334 0.778058
O O4 0.055497 0.649664 0.984015
O O5 0.580326 0.250000 0.913637
O O6 0.623896 0.382645 0.889694
O O7 0.444304 0.332603 0.706382
O O8 0.460823 0.330543 0.202629
O O9 0.808666 0.165805 0.650154
O O10 0.808182 0.044521 0.824819
O O11 0.683591 0.058392 0.472113
O O12 0.695519 0.969465 0.144106
O O13 0.670001 0.910589 0.552880
O O14 0.500000 0.000000 0.500000
O O15 0.982379 0.250000 0.693771
O O16 0.676993 0.750000 0.549950
#
# Coordination Sequence:
#
# PCOD9165427 Si02
#       7
#     4   4   4   4   4   4   4
#     4  10  23  44  69  96 133 170 221 269 349 402
#     4  10  21  39  59  86 126 173 214 264 323 381
#     4  11  23  37  64 100 131 172 218 278 335 391
#     4  10  24  40  66  96 131 176 218 283 332 396
#     4  12  23  39  65  98 135 175 228 275 319 393
#     4  11  23  42  69 102 134 168 220 282 345 406
#     4  10  23  40  58  81 124 176 220 262 318 383
#
# _framework density 23.218219999999999
#
# number of rings (size 3 to 8) (size 9 to 14) (size 15 to 20)
#    0.000    1.429    2.857    1.714    4.000    2.857 
#    0.000    4.286    0.000    0.000    0.000    0.000 
#    0.000    0.000    0.000    0.000    0.000    0.000 
#
# Total GULP energy -155869.375702 kJ/mol
# GULP energy per Si atom -5566.763418 kJ/mol
# Density = 2.316537 g / cm^3
# Si number density = 23.218220 Si / 1000 Ang^3
#
#
#
# Elastic Constant Matrix: (Units=GPa)
#
#
# Indices 1 2 3 4 5 6 
#
# 1 40.8488 -5.6927 14.6056 0.0000 -13.4490 0.0000
# 2 -5.6927 76.3614 29.9556 0.0000 0.9433 0.0000
# 3 14.6056 29.9556 93.5248 0.0000 -18.4937 0.0000
# 4 0.0000 0.0000 0.0000 39.0852 0.0000 -9.1170
# 5 -13.4490 0.9433 -18.4937 0.0000 29.0518 0.0000
# 6 0.0000 0.0000 0.0000 -9.1170 0.0000 17.9182
#
#
#
# Elastic Compliance Matrix: (Units=1/GPa)
#
#
# Indices 1 2 3 4 5 6 
#
# 1 0.030025 0.003476 -0.003519 0.000000 0.011546 0.000000
# 2 0.003476 0.015808 -0.006166 0.000000 -0.002829 0.000000
# 3 -0.003519 -0.006166 0.014797 0.000000 0.007990 0.000000
# 4 0.000000 0.000000 0.000000 0.029031 0.000000 0.014771
# 5 0.011546 -0.002829 0.007990 0.000000 0.044945 0.000000
# 6 0.000000 0.000000 0.000000 0.014771 0.000000 0.063325
#
#
# Mechanical properties :
#
#
# Convention : Reuss Voigt Hill
#
# Bulk Modulus (GPa) = 20.74141 32.05245 26.39693
# Shear Modulus (GPa) = 22.08302 28.66881 25.37592
#
# Velocity S-wave (km/s) = 3.08735 3.51772 3.30954
# Velocity P-wave (km/s) = 4.65420 5.50763 5.09880
#
# Compressibility (1/GPa) = 0.04821273
#
# Stress axis : x y z
#
# Youngs Moduli (GPa) = 33.30589 63.25748 67.58231
#
# Poissons Ratio (x) = -0.21990 0.23783
# Poissons Ratio (y) = -0.11578 0.41669
# Poissons Ratio (z) = 0.11721 0.39002
#
# Static dielectric constant tensor:
#      x y z
#    x 1.962650 0.000000 -0.011940 
#    y 0.000000 2.005540 0.000000 
#    z -0.011940 0.000000 1.901530 
# 
# From -- ./inp_files/5026.got.cif
#   From: 2010.05.17/outbox.cif.g08.bks.cpg/sg11_3_cif.got.tgz:5026.got - 2010.06.03 12:22:45.
