data_PCOD9165159
_publ_section_title
;
Structure prediction by ZEFSAII (Michael W. Deem and Ramdas Pophale) SiO2 
 PCOD9165159
Probable space group: P 21/M
;
_chemical_formula_sum "Si O2"
_cell_formula_units_Z 32
_cell_length_a 26.548421
_cell_length_b 8.200659
_cell_length_c 23.402100
_cell_angle_alpha 90.000000
_cell_angle_beta 18.181422
_cell_angle_gamma 90.000000
_cell_volume 1589.769950
_symmetry_space_group_name_H-M "P 21/M"
_symmetry_group_IT_number 11
_symmetry_cell_setting 'monoclinic'
loop_
_space_group_symop_operation_xyz
x,y,z
-x,1/2+y,-z
-x,-y,-z
x,1/2-y,z
loop_
_atom_site_type_symbol
_atom_site_label
_atom_site_fract_x
_atom_site_fract_y
_atom_site_fract_z
Si Si1 0.369024 0.441490 0.499583
Si Si2 0.723590 0.443902 0.959222
Si Si3 0.355226 0.552825 0.079809
Si Si4 0.717061 0.053073 0.716887
Si Si5 0.597534 0.555494 0.337071
Si Si6 0.930655 0.053557 0.383276
Si Si7 0.364207 0.940709 0.379522
Si Si8 0.177410 0.055142 0.816777
O O1 0.338678 0.250000 0.523702
O O2 0.547683 0.467583 0.332991
O O3 0.335413 0.533019 0.477727
O O4 0.271783 0.508854 0.659299
O O5 0.736075 0.250000 0.945029
O O6 0.726615 0.507003 0.890206
O O7 0.881337 0.504665 0.823432
O O8 0.541583 0.484616 0.176267
O O9 0.351370 0.750000 0.083588
O O10 0.276930 0.495592 0.223880
O O11 0.543205 0.500917 0.879490
O O12 0.717888 0.250000 0.716385
O O13 0.859169 0.998194 0.521796
O O14 0.500000 0.500000 0.500000
O O15 0.580384 0.750000 0.348235
O O16 0.770994 0.508790 0.174758
O O17 0.928524 0.250000 0.383239
O O18 0.792308 0.996191 0.487185
O O19 0.378795 0.750000 0.349996
O O20 0.200065 0.250000 0.789795
O O21 0.000000 0.000000 0.000000
#
# Coordination Sequence:
#
# PCOD9165159 Si02
#       8
#     4   4   4   4   4   4   4   4
#     4  10  21  38  59  85 114 150 192 236 287 345
#     4  11  23  38  59  87 118 154 195 245 302 360
#     4   9  18  32  54  84 115 148 191 240 298 361
#     4   9  17  33  56  82 113 150 191 241 298 356
#     4   9  17  32  54  81 110 145 184 226 273 330
#     4  10  22  39  60  85 115 155 201 247 298 357
#     4  11  23  42  64  85 114 157 204 250 297 350
#     4   9  19  34  55  85 119 150 183 225 277 331
#
# _framework density 20.128699999999998
#
# number of rings (size 3 to 8) (size 9 to 14) (size 15 to 20)
#    0.000    2.250    1.250    2.250    0.000    5.500 
#    2.250    0.000    0.000    0.000    0.000    0.000 
#    0.000    0.000    0.000    0.000    0.000    0.000 
#
# Total GULP energy -178184.205172 kJ/mol
# GULP energy per Si atom -5568.256412 kJ/mol
# Density = 2.008289 g / cm^3
# Si number density = 20.128700 Si / 1000 Ang^3
#
#
#
# Elastic Constant Matrix: (Units=GPa)
#
#
# Indices 1 2 3 4 5 6 
#
# 1 114.8555 6.0295 52.1629 0.0000 -16.2805 0.0000
# 2 6.0295 15.4654 7.8877 0.0000 -3.0426 0.0000
# 3 52.1629 7.8877 69.9326 0.0000 -21.5421 0.0000
# 4 0.0000 0.0000 0.0000 25.2822 0.0000 -3.0342
# 5 -16.2805 -3.0426 -21.5421 0.0000 25.8075 0.0000
# 6 0.0000 0.0000 0.0000 -3.0342 0.0000 22.4200
#
#
#
# Elastic Compliance Matrix: (Units=1/GPa)
#
#
# Indices 1 2 3 4 5 6 
#
# 1 0.013168 -0.000126 -0.009764 0.000000 0.000142 0.000000
# 2 -0.000126 0.068701 -0.006979 0.000000 0.002195 0.000000
# 3 -0.009764 -0.006979 0.027217 0.000000 0.015736 0.000000
# 4 0.000000 0.000000 0.000000 0.040207 0.000000 0.005441
# 5 0.000142 0.002195 0.015736 0.000000 0.052232 0.000000
# 6 0.000000 0.000000 0.000000 0.005441 0.000000 0.045339
#
#
# Mechanical properties :
#
#
# Convention : Reuss Voigt Hill
#
# Bulk Modulus (GPa) = 13.27175 36.93486 25.10330
# Shear Modulus (GPa) = 16.35501 23.64684 20.00093
#
# Velocity S-wave (km/s) = 2.85357 3.43123 3.15564
# Velocity P-wave (km/s) = 4.17910 5.83840 5.07700
#
# Compressibility (1/GPa) = 0.07534801
#
# Stress axis : x y z
#
# Youngs Moduli (GPa) = 75.94346 14.55591 36.74173
#
# Poissons Ratio (x) = 0.00183 0.35874
# Poissons Ratio (y) = 0.00957 0.25641
# Poissons Ratio (z) = 0.74151 0.10158
#
# Static dielectric constant tensor:
#      x y z
#    x 1.760880 0.000000 -0.048080 
#    y 0.000000 1.713880 0.000000 
#    z -0.048080 0.000000 1.805180 
# 
# From -- ./inp_files/70326.got.cif
#   From: 2010.05.17/outbox.cif.g08.bks.cpg/sg11_36_cif.got.tgz:70326.got - 2010.06.03 12:22:45.
