data_PCOD9165164
_publ_section_title
;
Structure prediction by ZEFSAII (Michael W. Deem and Ramdas Pophale) SiO2 
 PCOD9165164
Probable space group: P 21/M
;
_chemical_formula_sum "Si O2"
_cell_formula_units_Z 28
_cell_length_a 14.844232
_cell_length_b 18.880723
_cell_length_c 5.644352
_cell_angle_alpha 90.000000
_cell_angle_beta 62.634496
_cell_angle_gamma 90.000000
_cell_volume 1404.910139
_symmetry_space_group_name_H-M "P 21/M"
_symmetry_group_IT_number 11
_symmetry_cell_setting 'monoclinic'
loop_
_space_group_symop_operation_xyz
x,y,z
-x,1/2+y,-z
-x,-y,-z
x,1/2-y,z
loop_
_atom_site_type_symbol
_atom_site_label
_atom_site_fract_x
_atom_site_fract_y
_atom_site_fract_z
Si Si1 0.819927 0.166719 0.810729
Si Si2 0.510332 0.165604 0.827454
Si Si3 0.470377 0.943345 0.832654
Si Si4 0.723041 0.115506 0.430086
Si Si5 0.830194 0.525401 0.229441
Si Si6 0.013691 0.940422 0.288423
Si Si7 0.641044 0.563432 0.225955
O O1 0.832226 0.250000 0.810796
O O2 0.765086 0.150527 0.624148
O O3 0.927780 0.126395 0.678623
O O4 0.768047 0.142808 0.124333
O O5 0.504997 0.250000 0.820167
O O6 0.603617 0.133722 0.563005
O O7 0.407047 0.125028 0.878098
O O8 0.539072 0.134561 0.050129
O O9 0.562421 0.940038 0.538758
O O10 0.370364 0.983252 0.861415
O O11 0.500000 0.000000 0.000000
O O12 0.753573 0.032978 0.432316
O O13 0.902558 0.570355 0.311967
O O14 0.756628 0.573080 0.159329
O O15 0.909084 0.476298 0.991753
O O16 0.000000 0.000000 0.500000
#
# Coordination Sequence:
#
# PCOD9165164 Si02
#       7
#     4   4   4   4   4   4   4
#     4  11  23  40  62  93 129 166 203 257 327 385
#     4  11  24  38  56  90 127 165 204 252 312 381
#     4   9  19  35  57  84 114 155 202 245 295 362
#     4  11  23  39  64  93 128 166 208 257 316 385
#     4  10  21  38  62  90 115 159 212 263 314 364
#     4  10  21  38  61  89 120 153 206 265 310 371
#     4  10  21  38  59  85 118 159 205 254 303 371
#
# _framework density 19.930099999999999
#
# number of rings (size 3 to 8) (size 9 to 14) (size 15 to 20)
#    0.000    1.714    1.429    3.857    6.000    2.857 
#    0.000    0.714    0.000    2.571    0.000    0.000 
#    0.000    0.000    0.000    0.000    0.000    0.000 
#
# Total GULP energy -156059.525565 kJ/mol
# GULP energy per Si atom -5573.554484 kJ/mol
# Density = 1.988474 g / cm^3
# Si number density = 19.930100 Si / 1000 Ang^3
#
#
#
# Elastic Constant Matrix: (Units=GPa)
#
#
# Indices 1 2 3 4 5 6 
#
# 1 177.0923 52.3434 15.5648 0.0000 -3.2985 0.0000
# 2 52.3434 105.2444 20.8802 0.0000 -7.9396 0.0000
# 3 15.5648 20.8802 41.8741 0.0000 13.1714 0.0000
# 4 0.0000 0.0000 0.0000 25.1683 0.0000 2.1084
# 5 -3.2985 -7.9396 13.1714 0.0000 21.3839 0.0000
# 6 0.0000 0.0000 0.0000 2.1084 0.0000 24.6245
#
#
#
# Elastic Compliance Matrix: (Units=1/GPa)
#
#
# Indices 1 2 3 4 5 6 
#
# 1 0.006657 -0.003036 -0.001152 0.000000 0.000609 0.000000
# 2 -0.003036 0.013488 -0.008713 0.000000 0.009906 0.000000
# 3 -0.001152 -0.008713 0.036871 0.000000 -0.026123 0.000000
# 4 0.000000 0.000000 0.000000 0.040020 0.000000 -0.003427
# 5 0.000609 0.009906 -0.026123 0.000000 0.066627 0.000000
# 6 0.000000 0.000000 0.000000 -0.003427 0.000000 0.040903
#
#
# Mechanical properties :
#
#
# Convention : Reuss Voigt Hill
#
# Bulk Modulus (GPa) = 32.03773 55.75419 43.89596
# Shear Modulus (GPa) = 20.76657 29.93015 25.34836
#
# Velocity S-wave (km/s) = 3.23146 3.87945 3.57019
# Velocity P-wave (km/s) = 5.48024 6.93560 6.25042
#
# Compressibility (1/GPa) = 0.03121320
#
# Stress axis : x y z
#
# Youngs Moduli (GPa) = 150.22239 74.14158 27.12171
#
# Poissons Ratio (x) = 0.22511 0.03124
# Poissons Ratio (y) = 0.45612 0.23631
# Poissons Ratio (z) = 0.17304 0.64599
#
# Static dielectric constant tensor:
#      x y z
#    x 1.733220 0.000000 0.002650 
#    y 0.000000 1.674080 0.000000 
#    z 0.002650 0.000000 1.775710 
# 
# From -- ./inp_files/6648.got.cif
#   From: 2010.05.17/outbox.cif.g08.bks.cpg/sg11_4_cif.got.tgz:6648.got - 2010.06.03 12:22:45.
