data_PCOD9165758
_publ_section_title
;
Structure prediction by ZEFSAII (Michael W. Deem and Ramdas Pophale) SiO2 
 PCOD9165758
Probable space group: P 21/M
;
_chemical_formula_sum "Si O2"
_cell_formula_units_Z 32
_cell_length_a 11.361596
_cell_length_b 19.146453
_cell_length_c 14.499071
_cell_angle_alpha 90.000000
_cell_angle_beta 30.717389
_cell_angle_gamma 90.000000
_cell_volume 1611.098212
_symmetry_space_group_name_H-M "P 21/M"
_symmetry_group_IT_number 11
_symmetry_cell_setting 'monoclinic'
loop_
_space_group_symop_operation_xyz
x,y,z
-x,1/2+y,-z
-x,-y,-z
x,1/2-y,z
loop_
_atom_site_type_symbol
_atom_site_label
_atom_site_fract_x
_atom_site_fract_y
_atom_site_fract_z
Si Si1 0.992481 0.450871 0.302983
Si Si2 0.894107 0.424324 0.043636
Si Si3 0.367883 0.926570 0.600982
Si Si4 0.658059 0.668925 0.269312
Si Si5 0.668214 0.831116 0.877457
Si Si6 0.241116 0.529965 0.366672
Si Si7 0.656397 0.439085 0.008003
Si Si8 0.406709 0.825123 0.241823
O O1 0.113090 0.383331 0.268087
O O2 0.178445 0.512933 0.167294
O O3 0.882982 0.432261 0.278722
O O4 0.774429 0.472804 0.512191
O O5 0.689288 0.410394 0.254433
O O6 0.800779 0.421636 0.002252
O O7 0.000000 0.500000 0.000000
O O8 0.101647 0.369649 0.909681
O O9 0.515860 0.869778 0.445448
O O10 0.500000 0.000000 0.500000
O O11 0.691121 0.750000 0.269914
O O12 0.518847 0.665706 0.266609
O O13 0.701464 0.750000 0.824528
O O14 0.465877 0.872987 0.958950
O O15 0.594961 0.827227 0.034203
O O16 0.249030 0.609458 0.330146
O O17 0.000000 0.500000 0.500000
O O18 0.452423 0.489313 0.181137
O O19 0.288845 0.750000 0.317552
#
# Coordination Sequence:
#
# PCOD9165758 Si02
#       8
#     4   4   4   4   4   4   4   4
#     4  12  22  38  69  91 128 167 216 265 327 383
#     4  12  23  41  70  96 129 176 222 271 328 394
#     4  12  23  40  67 102 130 171 222 275 330 392
#     4  11  24  43  66  97 133 168 214 277 335 388
#     4  11  24  41  62  91 128 172 213 259 325 392
#     4  12  22  37  62  94 123 165 211 258 320 385
#     4  12  24  43  63  94 133 165 218 274 317 383
#     4  10  21  40  64  91 129 162 203 265 324 379
#
# _framework density 19.862227000000001
#
# number of rings (size 3 to 8) (size 9 to 14) (size 15 to 20)
#    0.000    0.500    6.250    3.375    0.000    2.000 
#    0.000    0.000    0.000    0.000    0.000    0.000 
#    0.000    0.000    0.000    0.000    0.000    0.000 
#
# Total GULP energy -178772.143667 kJ/mol
# GULP energy per Si atom -5586.629490 kJ/mol
# Density = 1.981702 g / cm^3
# Si number density = 19.862227 Si / 1000 Ang^3
#
#
#
# Elastic Constant Matrix: (Units=GPa)
#
#
# Indices 1 2 3 4 5 6 
#
# 1 54.9556 39.2084 0.0123 0.0000 2.4847 0.0000
# 2 39.2084 170.2121 51.8702 0.0000 -9.4596 0.0000
# 3 0.0123 51.8702 98.7916 0.0000 15.6327 0.0000
# 4 0.0000 0.0000 0.0000 26.9369 0.0000 1.6036
# 5 2.4847 -9.4596 15.6327 0.0000 39.4821 0.0000
# 6 0.0000 0.0000 0.0000 1.6036 0.0000 25.9999
#
#
#
# Elastic Compliance Matrix: (Units=1/GPa)
#
#
# Indices 1 2 3 4 5 6 
#
# 1 0.023438 -0.007036 0.004471 0.000000 -0.004931 0.000000
# 2 -0.007036 0.009544 -0.005806 0.000000 0.005028 0.000000
# 3 0.004471 -0.005806 0.014333 0.000000 -0.007348 0.000000
# 4 0.000000 0.000000 0.000000 0.037261 0.000000 -0.002298
# 5 -0.004931 0.005028 -0.007348 0.000000 0.029752 0.000000
# 6 0.000000 0.000000 0.000000 -0.002298 0.000000 0.038603
#
#
# Mechanical properties :
#
#
# Convention : Reuss Voigt Hill
#
# Bulk Modulus (GPa) = 32.70671 56.23790 44.47231
# Shear Modulus (GPa) = 27.79881 34.00836 30.90359
#
# Velocity S-wave (km/s) = 3.74516 4.14238 3.94877
# Velocity P-wave (km/s) = 5.93331 7.15923 6.57490
#
# Compressibility (1/GPa) = 0.03057476
#
# Stress axis : x y z
#
# Youngs Moduli (GPa) = 42.66568 104.77264 69.76953
#
# Poissons Ratio (x) = 0.73714 -0.31197
# Poissons Ratio (y) = 0.30018 0.40509
# Poissons Ratio (z) = -0.19077 0.60832
#
# Static dielectric constant tensor:
#      x y z
#    x 1.777250 0.000000 0.049840 
#    y 0.000000 1.702760 0.000000 
#    z 0.049840 0.000000 1.733020 
# 
# From -- ./inp_files/50642.got.cif
#   From: 2010.05.17/outbox.cif.g08.bks.cpg/sg11_26_cif.got.tgz:50642.got - 2010.06.03 12:22:45.
