data_PCOD9165097
_publ_section_title
;
Structure prediction by ZEFSAII (Michael W. Deem and Ramdas Pophale) SiO2 
 PCOD9165097
Probable space group: P 21/M
;
_chemical_formula_sum "Si O2"
_cell_formula_units_Z 32
_cell_length_a 22.917628
_cell_length_b 8.667076
_cell_length_c 28.947956
_cell_angle_alpha 90.000000
_cell_angle_beta 18.407795
_cell_angle_gamma 90.000000
_cell_volume 1815.692162
_symmetry_space_group_name_H-M "P 21/M"
_symmetry_group_IT_number 11
_symmetry_cell_setting 'monoclinic'
loop_
_space_group_symop_operation_xyz
x,y,z
-x,1/2+y,-z
-x,-y,-z
x,1/2-y,z
loop_
_atom_site_type_symbol
_atom_site_label
_atom_site_fract_x
_atom_site_fract_y
_atom_site_fract_z
Si Si1 0.708000 0.065383 0.594494
Si Si2 0.990308 0.564014 0.308365
Si Si3 0.001971 0.934616 0.800522
Si Si4 0.704720 0.434932 0.847029
Si Si5 0.295613 0.935987 0.905712
Si Si6 0.002273 0.565069 0.049475
Si Si7 0.990058 0.564217 0.456050
Si Si8 0.705627 0.935782 0.348264
O O1 0.712656 0.250000 0.589914
O O2 0.818734 0.998011 0.467328
O O3 0.499264 0.005039 0.752066
O O4 0.818405 0.003944 0.556344
O O5 0.981180 0.750000 0.313434
O O6 0.993939 0.494960 0.254729
O O7 0.173908 0.519227 0.199485
O O8 0.997616 0.750000 0.804953
O O9 0.180587 0.996054 0.694162
O O10 0.825511 0.001999 0.960550
O O11 0.693997 0.250000 0.855293
O O12 0.827221 0.480112 0.710524
O O13 0.500000 0.500000 0.000000
O O14 0.302721 0.750000 0.902662
O O15 0.180330 0.980776 0.946276
O O16 0.003165 0.750000 0.046126
O O17 0.823755 0.519886 0.213988
O O18 0.000000 0.500000 0.000000
O O19 0.976813 0.750000 0.466184
O O20 0.000000 0.500000 0.500000
O O21 0.704828 0.750000 0.352176
O O22 0.500000 0.000000 0.500000
#
# Coordination Sequence:
#
# PCOD9165097 Si02
#       8
#     4   4   4   4   4   4   4   4
#     4  11  22  37  58  85 112 144 187 235 281 332
#     4  10  21  39  58  80 112 150 186 227 280 337
#     4  11  22  37  58  85 112 144 187 235 281 332
#     4   9  20  36  56  80 108 141 180 222 270 325
#     4  10  21  39  58  80 112 150 186 227 280 337
#     4   9  20  36  56  80 108 141 180 222 270 325
#     4  10  21  38  57  81 112 147 185 228 277 334
#     4  10  21  38  57  81 112 147 185 228 277 334
#
# _framework density 17.624133
#
# number of rings (size 3 to 8) (size 9 to 14) (size 15 to 20)
#    0.000    2.000    0.000    5.250    0.000    8.000 
#    0.000    5.000    0.000    0.000    0.000    0.000 
#    0.000    0.000    0.000    0.000    0.000    0.000 
#
# Total GULP energy -178705.915066 kJ/mol
# GULP energy per Si atom -5584.559846 kJ/mol
# Density = 1.758402 g / cm^3
# Si number density = 17.624133 Si / 1000 Ang^3
#
#
#
# Elastic Constant Matrix: (Units=GPa)
#
#
# Indices 1 2 3 4 5 6 
#
# 1 185.9437 63.4429 116.7958 0.0000 16.0385 0.0000
# 2 63.4429 96.2286 60.8083 0.0000 -1.8299 0.0000
# 3 116.7958 60.8083 176.1240 0.0000 -22.8539 0.0000
# 4 0.0000 0.0000 0.0000 36.2295 0.0000 0.2300
# 5 16.0385 -1.8299 -22.8539 0.0000 19.1258 0.0000
# 6 0.0000 0.0000 0.0000 0.2300 0.0000 35.8990
#
#
#
# Elastic Compliance Matrix: (Units=1/GPa)
#
#
# Indices 1 2 3 4 5 6 
#
# 1 0.021510 -0.003367 -0.018325 0.000000 -0.040257 0.000000
# 2 -0.003367 0.014233 -0.002531 0.000000 0.001161 0.000000
# 3 -0.018325 -0.002531 0.024459 0.000000 0.044352 0.000000
# 4 0.000000 0.000000 0.000000 0.027603 0.000000 -0.000177
# 5 -0.040257 0.001161 0.044352 0.000000 0.139152 0.000000
# 6 0.000000 0.000000 0.000000 -0.000177 0.000000 0.027857
#
#
# Mechanical properties :
#
#
# Convention : Reuss Voigt Hill
#
# Bulk Modulus (GPa) = 85.06382 104.48782 94.77582
# Shear Modulus (GPa) = 16.27719 32.73416 24.50567
#
# Velocity S-wave (km/s) = 3.04233 4.31437 3.73293
# Velocity P-wave (km/s) = 7.79175 9.17790 8.51309
#
# Compressibility (1/GPa) = 0.01175588
#
# Stress axis : x y z
#
# Youngs Moduli (GPa) = 46.49074 70.26000 40.88444
#
# Poissons Ratio (x) = 0.23654 0.74923
# Poissons Ratio (y) = 0.15651 0.10347
# Poissons Ratio (z) = 0.85196 0.17782
#
# Static dielectric constant tensor:
#      x y z
#    x 1.578290 0.000000 -0.000470 
#    y 0.000000 1.591270 0.000000 
#    z -0.000470 0.000000 1.577610 
# 
# From -- ./inp_files/71977.got.cif
#   From: 2010.05.17/outbox.cif.g08.bks.cpg/sg11_36_cif.got.tgz:71977.got - 2010.06.03 12:22:45.
