data_PCOD9165767
_publ_section_title
;
Structure prediction by ZEFSAII (Michael W. Deem and Ramdas Pophale) SiO2 
 PCOD9165767
Probable space group: P 21/M
;
_chemical_formula_sum "Si O2"
_cell_formula_units_Z 28
_cell_length_a 9.244553
_cell_length_b 17.646175
_cell_length_c 13.887577
_cell_angle_alpha 90.000000
_cell_angle_beta 147.614162
_cell_angle_gamma 90.000000
_cell_volume 1213.439727
_symmetry_space_group_name_H-M "P 21/M"
_symmetry_group_IT_number 11
_symmetry_cell_setting 'monoclinic'
loop_
_space_group_symop_operation_xyz
x,y,z
-x,1/2+y,-z
-x,-y,-z
x,1/2-y,z
loop_
_atom_site_type_symbol
_atom_site_label
_atom_site_fract_x
_atom_site_fract_y
_atom_site_fract_z
Si Si1 0.784679 0.162597 0.399067
Si Si2 0.911714 0.087581 0.966472
Si Si3 0.032022 0.407907 0.827929
Si Si4 0.415322 0.836600 0.520744
Si Si5 0.135145 0.425886 0.293830
Si Si6 0.403239 0.619290 0.912431
Si Si7 0.401218 0.160920 0.764318
O O1 0.811217 0.250000 0.443586
O O2 0.596091 0.128522 0.377345
O O3 0.654836 0.161622 0.220650
O O4 0.092706 0.133202 0.576213
O O5 0.011490 0.123702 0.924069
O O6 0.600693 0.107894 0.813629
O O7 0.048409 0.111271 0.142886
O O8 0.000000 0.000000 0.000000
O O9 0.898047 0.345181 0.685601
O O10 0.857533 0.484411 0.716955
O O11 0.336591 0.430513 0.971080
O O12 0.507930 0.750000 0.571105
O O13 0.585616 0.882709 0.536684
O O14 0.892154 0.412850 0.230210
O O15 0.503134 0.655776 0.069654
O O16 0.421947 0.250000 0.746966
#
# Coordination Sequence:
#
# PCOD9165767 Si02
#       7
#     4   4   4   4   4   4   4
#     4  10  22  40  63  96 135 172 218 272 330 395
#     4   9  21  40  65  90 129 172 221 268 325 389
#     4  11  22  42  67  93 134 175 216 268 333 389
#     4  11  24  42  63  94 134 172 219 272 325 394
#     4  10  23  42  65  95 132 169 222 272 325 391
#     4  11  22  40  68  96 127 174 220 271 328 391
#     4  10  21  40  64  97 135 173 218 275 329 392
#
# _framework density 23.074898999999998
#
# number of rings (size 3 to 8) (size 9 to 14) (size 15 to 20)
#    0.000    1.714    1.429    2.143    2.000    4.000 
#    0.000    0.714    0.000    0.000    0.000    0.000 
#    0.000    0.000    0.000    0.000    0.000    0.000 
#
# Total GULP energy -155962.576977 kJ/mol
# GULP energy per Si atom -5570.092035 kJ/mol
# Density = 2.302238 g / cm^3
# Si number density = 23.074899 Si / 1000 Ang^3
#
#
#
# Elastic Constant Matrix: (Units=GPa)
#
#
# Indices 1 2 3 4 5 6 
#
# 1 132.1872 28.7727 38.9181 0.0000 15.0961 0.0000
# 2 28.7727 57.4100 23.8868 0.0000 17.7005 0.0000
# 3 38.9181 23.8868 80.4881 0.0000 20.4289 0.0000
# 4 0.0000 0.0000 0.0000 24.0761 0.0000 0.7595
# 5 15.0961 17.7005 20.4289 0.0000 57.0259 0.0000
# 6 0.0000 0.0000 0.0000 0.7595 0.0000 16.7397
#
#
#
# Elastic Compliance Matrix: (Units=1/GPa)
#
#
# Indices 1 2 3 4 5 6 
#
# 1 0.009307 -0.003131 -0.003512 0.000000 -0.000234 0.000000
# 2 -0.003131 0.022014 -0.003845 0.000000 -0.004627 0.000000
# 3 -0.003512 -0.003845 0.016197 0.000000 -0.003679 0.000000
# 4 0.000000 0.000000 0.000000 0.041595 0.000000 -0.001887
# 5 -0.000234 -0.004627 -0.003679 0.000000 0.020352 0.000000
# 6 0.000000 0.000000 0.000000 -0.001887 0.000000 0.059824
#
#
# Mechanical properties :
#
#
# Convention : Reuss Voigt Hill
#
# Bulk Modulus (GPa) = 37.67487 50.36006 44.01746
# Shear Modulus (GPa) = 25.11148 31.46885 28.29017
#
# Velocity S-wave (km/s) = 3.30246 3.69693 3.50525
# Velocity P-wave (km/s) = 5.55916 6.33207 5.95816
#
# Compressibility (1/GPa) = 0.02654289
#
# Stress axis : x y z
#
# Youngs Moduli (GPa) = 107.44355 45.42520 61.73954
#
# Poissons Ratio (x) = 0.14224 0.21681
# Poissons Ratio (y) = 0.33645 0.23738
# Poissons Ratio (z) = 0.37730 0.17465
#
# Static dielectric constant tensor:
#      x y z
#    x 1.930140 0.000000 0.018310 
#    y 0.000000 1.893530 0.000000 
#    z 0.018310 0.000000 1.944940 
# 
# From -- ./inp_files/48337.got.cif
#   From: 2010.05.17/outbox.cif.g08.bks.cpg/sg11_25_cif.got.tgz:48337.got - 2010.06.03 12:22:45.
