data_PCOD9165659
_publ_section_title
;
Structure prediction by ZEFSAII (Michael W. Deem and Ramdas Pophale) SiO2 
 PCOD9165659
Probable space group: P 21/M
;
_chemical_formula_sum "Si O2"
_cell_formula_units_Z 32
_cell_length_a 8.252648
_cell_length_b 13.789022
_cell_length_c 13.933052
_cell_angle_alpha 90.000000
_cell_angle_beta 122.780246
_cell_angle_gamma 90.000000
_cell_volume 1333.035253
_symmetry_space_group_name_H-M "P 21/M"
_symmetry_group_IT_number 11
_symmetry_cell_setting 'monoclinic'
loop_
_space_group_symop_operation_xyz
x,y,z
-x,1/2+y,-z
-x,-y,-z
x,1/2-y,z
loop_
_atom_site_type_symbol
_atom_site_label
_atom_site_fract_x
_atom_site_fract_y
_atom_site_fract_z
Si Si1 0.453912 0.490785 0.711716
Si Si2 0.949247 0.857457 0.035849
Si Si3 0.802687 0.364129 0.263730
Si Si4 0.194967 0.561561 0.942374
Si Si5 0.565187 0.862731 0.129370
Si Si6 0.023933 0.641204 0.272612
Si Si7 0.171218 0.142121 0.499306
Si Si8 0.305923 0.029504 0.384485
O O1 0.377490 0.574180 0.757064
O O2 0.518307 0.402045 0.798094
O O3 0.278229 0.440598 0.594708
O O4 0.628762 0.529832 0.704144
O O5 0.854462 0.750000 0.000587
O O6 0.072819 0.875838 0.980077
O O7 0.070237 0.854586 0.174068
O O8 0.822968 0.953057 0.019271
O O9 0.769498 0.250000 0.234830
O O10 0.947567 0.370469 0.402149
O O11 0.879259 0.413701 0.189136
O O12 0.418300 0.591017 0.007707
O O13 0.546205 0.750000 0.112251
O O14 0.794907 0.881217 0.205314
O O15 0.055706 0.750000 0.323128
O O16 0.152367 0.555895 0.356530
O O17 0.207760 0.250000 0.550172
O O18 0.251746 0.129836 0.416753
O O19 0.500000 0.000000 0.500000
#
# Coordination Sequence:
#
# PCOD9165659 Si02
#       8
#     4   4   4   4   4   4   4   4
#     4  11  23  40  64  94 125 162 215 272 324 384
#     4  10  21  39  66  99 135 178 231 282 329 388
#     4  11  24  42  65  93 131 172 210 260 330 408
#     4  11  23  41  66  98 140 182 221 275 336 396
#     4  11  23  40  66  98 134 178 226 276 330 392
#     4  10  22  41  65  94 129 172 224 277 327 388
#     4  10  22  42  65  89 122 166 212 263 324 393
#     4  10  22  39  62  92 124 161 207 269 335 393
#
# _framework density 24.005365999999999
#
# number of rings (size 3 to 8) (size 9 to 14) (size 15 to 20)
#    0.000    1.500    0.000    4.875    0.000    8.000 
#    0.000    6.875    0.000    1.500    0.000    0.000 
#    0.000    0.000    0.000    0.000    0.000    0.000 
#
# Total GULP energy -178603.119399 kJ/mol
# GULP energy per Si atom -5581.347481 kJ/mol
# Density = 2.395073 g / cm^3
# Si number density = 24.005366 Si / 1000 Ang^3
#
#
#
# Elastic Constant Matrix: (Units=GPa)
#
#
# Indices 1 2 3 4 5 6 
#
# 1 65.6256 40.7280 -3.9239 0.0000 -14.4804 0.0000
# 2 40.7280 165.7541 20.6343 0.0000 4.8671 0.0000
# 3 -3.9239 20.6343 60.7453 0.0000 2.1702 0.0000
# 4 0.0000 0.0000 0.0000 31.7780 0.0000 -8.0550
# 5 -14.4804 4.8671 2.1702 0.0000 43.0268 0.0000
# 6 0.0000 0.0000 0.0000 -8.0550 0.0000 9.4022
#
#
#
# Elastic Compliance Matrix: (Units=1/GPa)
#
#
# Indices 1 2 3 4 5 6 
#
# 1 0.020548 -0.005637 0.002978 0.000000 0.007403 0.000000
# 2 -0.005637 0.007862 -0.002940 0.000000 -0.002638 0.000000
# 3 0.002978 -0.002940 0.017637 0.000000 0.000445 0.000000
# 4 0.000000 0.000000 0.000000 0.040197 0.000000 0.034438
# 5 0.007403 -0.002638 0.000445 0.000000 0.026009 0.000000
# 6 0.000000 0.000000 0.000000 0.034438 0.000000 0.135861
#
#
# Mechanical properties :
#
#
# Convention : Reuss Voigt Hill
#
# Bulk Modulus (GPa) = 28.69653 45.22242 36.95948
# Shear Modulus (GPa) = 18.45505 32.48718 25.47111
#
# Velocity S-wave (km/s) = 2.77571 3.68275 3.26092
# Velocity P-wave (km/s) = 4.71730 6.07971 5.44132
#
# Compressibility (1/GPa) = 0.03484742
#
# Stress axis : x y z
#
# Youngs Moduli (GPa) = 48.66724 127.20077 56.69769
#
# Poissons Ratio (x) = 0.71702 -0.16882
# Poissons Ratio (y) = 0.27433 0.16671
# Poissons Ratio (z) = -0.14491 0.37401
#
# Static dielectric constant tensor:
#      x y z
#    x 2.025010 0.000000 0.023410 
#    y 0.000000 1.902850 0.000000 
#    z 0.023410 0.000000 2.035330 
# 
# From -- ./inp_files/47650.got.cif
#   From: 2010.05.17/outbox.cif.g08.bks.cpg/sg11_24_cif.got.tgz:47650.got - 2010.06.03 12:22:45.
