data_PCOD9165043
_publ_section_title
;
Structure prediction by ZEFSAII (Michael W. Deem and Ramdas Pophale) SiO2 
 PCOD9165043
Probable space group: P 21/M
;
_chemical_formula_sum "Si O2"
_cell_formula_units_Z 32
_cell_length_a 14.638812
_cell_length_b 9.889582
_cell_length_c 23.818256
_cell_angle_alpha 90.000000
_cell_angle_beta 152.647809
_cell_angle_gamma 90.000000
_cell_volume 1584.310539
_symmetry_space_group_name_H-M "P 21/M"
_symmetry_group_IT_number 11
_symmetry_cell_setting 'monoclinic'
loop_
_space_group_symop_operation_xyz
x,y,z
-x,1/2+y,-z
-x,-y,-z
x,1/2-y,z
loop_
_atom_site_type_symbol
_atom_site_label
_atom_site_fract_x
_atom_site_fract_y
_atom_site_fract_z
Si Si1 0.515820 0.016000 0.350477
Si Si2 0.227386 0.101202 0.094879
Si Si3 0.864506 0.396312 0.824198
Si Si4 0.426666 0.595007 0.008355
Si Si5 0.346774 0.591464 0.452690
Si Si6 0.831667 0.904437 0.434757
Si Si7 0.044283 0.091406 0.228756
Si Si8 0.469971 0.901087 0.152844
O O1 0.350838 0.090564 0.220624
O O2 0.590242 0.087511 0.447577
O O3 0.369866 0.897521 0.291725
O O4 0.705124 0.968912 0.417256
O O5 0.283538 0.250000 0.104086
O O6 0.316887 0.988946 0.103601
O O7 0.990327 0.094000 0.951279
O O8 0.919338 0.250000 0.828936
O O9 0.912025 0.517590 0.807130
O O10 0.488069 0.750000 0.031685
O O11 0.189625 0.591795 0.887180
O O12 0.500000 0.500000 0.000000
O O13 0.513285 0.545892 0.114922
O O14 0.500000 0.500000 0.500000
O O15 0.338614 0.750000 0.431035
O O16 0.147551 0.506085 0.331063
O O17 0.898935 0.750000 0.484746
O O18 0.667113 0.894234 0.296490
O O19 0.000000 0.000000 0.500000
O O20 0.113004 0.250000 0.266446
O O21 0.386154 0.750000 0.099949
#
# Coordination Sequence:
#
# PCOD9165043 Si02
#       8
#     4   4   4   4   4   4   4   4
#     4  11  24  42  65  95 133 171 218 264 329 391
#     4  10  21  37  62  98 130 162 206 257 316 387
#     4  11  22  38  65  97 130 165 207 258 322 392
#     4  10  22  40  63  92 124 163 212 268 324 389
#     4  12  26  43  66  94 133 179 224 272 327 392
#     4  10  23  42  66  92 125 169 216 271 326 386
#     4  11  24  42  65  93 129 170 216 266 327 386
#     4   9  19  39  62  87 122 164 204 253 322 383
#
# _framework density 20.198062
#
# number of rings (size 3 to 8) (size 9 to 14) (size 15 to 20)
#    0.000    1.500    2.500    1.875    0.000    7.500 
#    0.000    2.500    0.000    0.000    0.000    0.000 
#    0.000    0.000    0.000    0.000    0.000    0.000 
#
# Total GULP energy -178288.622726 kJ/mol
# GULP energy per Si atom -5571.519460 kJ/mol
# Density = 2.015209 g / cm^3
# Si number density = 20.198062 Si / 1000 Ang^3
#
#
#
# Elastic Constant Matrix: (Units=GPa)
#
#
# Indices 1 2 3 4 5 6 
#
# 1 99.9147 42.1751 35.8065 0.0000 -12.4052 0.0000
# 2 42.1751 126.0608 42.2802 0.0000 -3.7523 0.0000
# 3 35.8065 42.2802 65.2238 0.0000 -14.9826 0.0000
# 4 0.0000 0.0000 0.0000 23.6057 0.0000 0.7275
# 5 -12.4052 -3.7523 -14.9826 0.0000 43.2436 0.0000
# 6 0.0000 0.0000 0.0000 0.7275 0.0000 16.0106
#
#
#
# Elastic Compliance Matrix: (Units=1/GPa)
#
#
# Indices 1 2 3 4 5 6 
#
# 1 0.013176 -0.002640 -0.005113 0.000000 0.001779 0.000000
# 2 -0.002640 0.010758 -0.005958 0.000000 -0.001888 0.000000
# 3 -0.005113 -0.005958 0.023408 0.000000 0.006126 0.000000
# 4 0.000000 0.000000 0.000000 0.042422 0.000000 -0.001928
# 5 0.001779 -0.001888 0.006126 0.000000 0.025594 0.000000
# 6 0.000000 0.000000 0.000000 -0.001928 0.000000 0.062546
#
#
# Mechanical properties :
#
#
# Convention : Reuss Voigt Hill
#
# Bulk Modulus (GPa) = 50.20180 59.08030 54.64105
# Shear Modulus (GPa) = 23.58840 27.96780 25.77810
#
# Velocity S-wave (km/s) = 3.42110 3.72516 3.57636
# Velocity P-wave (km/s) = 6.36505 6.91494 6.64569
#
# Compressibility (1/GPa) = 0.01991961
#
# Stress axis : x y z
#
# Youngs Moduli (GPa) = 75.89311 92.95289 42.71970
#
# Poissons Ratio (x) = 0.24543 0.21844
# Poissons Ratio (y) = 0.20039 0.25452
# Poissons Ratio (z) = 0.38806 0.55381
#
# Static dielectric constant tensor:
#      x y z
#    x 1.710000 0.000000 -0.010520 
#    y 0.000000 -2.365570 0.000000 
#    z -0.010520 0.000000 1.776830 
# 
# From -- ./inp_files/69078.got.cif
#   From: 2010.05.17/outbox.cif.g08.bks.cpg/sg11_35_cif.got.tgz:69078.got - 2010.06.03 12:22:45.
