data_PCOD9165171
_publ_section_title
;
Structure prediction by ZEFSAII (Michael W. Deem and Ramdas Pophale) SiO2 
 PCOD9165171
Probable space group: P 21/M
;
_chemical_formula_sum "Si O2"
_cell_formula_units_Z 28
_cell_length_a 12.090756
_cell_length_b 8.886184
_cell_length_c 15.982686
_cell_angle_alpha 90.000000
_cell_angle_beta 56.170896
_cell_angle_gamma 90.000000
_cell_volume 1426.473375
_symmetry_space_group_name_H-M "P 21/M"
_symmetry_group_IT_number 11
_symmetry_cell_setting 'monoclinic'
loop_
_space_group_symop_operation_xyz
x,y,z
-x,1/2+y,-z
-x,-y,-z
x,1/2-y,z
loop_
_atom_site_type_symbol
_atom_site_label
_atom_site_fract_x
_atom_site_fract_y
_atom_site_fract_z
Si Si1 0.158272 0.928745 0.645218
Si Si2 0.587210 0.928228 0.389297
Si Si3 0.139836 0.430274 0.164187
Si Si4 0.868340 0.069706 0.014947
Si Si5 0.856096 0.429877 0.542376
Si Si6 0.324263 0.069173 0.237848
Si Si7 0.588314 0.430563 0.211640
O O1 0.182874 0.750000 0.647867
O O2 0.181196 0.963947 0.537945
O O3 0.004717 0.957758 0.733041
O O4 0.260796 0.022252 0.657234
O O5 0.571965 0.750000 0.397397
O O6 0.500000 0.000000 0.500000
O O7 0.548720 0.991935 0.314970
O O8 0.150174 0.250000 0.146286
O O9 0.254512 0.478045 0.180936
O O10 0.146120 0.513747 0.073758
O O11 0.877530 0.250000 0.013600
O O12 0.735845 0.024039 0.121431
O O13 0.000000 0.000000 0.000000
O O14 0.863210 0.250000 0.547199
O O15 0.754595 0.496680 0.651900
O O16 0.000000 0.500000 0.500000
O O17 0.307961 0.250000 0.249911
O O18 0.479208 0.033973 0.186468
O O19 0.587504 0.250000 0.224474
#
# Coordination Sequence:
#
# PCOD9165171 Si02
#       7
#     4   4   4   4   4   4   4
#     4  10  21  38  59  86 121 159 202 251 302 355
#     4  12  25  40  61  89 121 158 202 248 300 361
#     4  10  21  39  62  89 121 157 197 248 303 359
#     4  11  24  42  64  92 121 157 202 252 306 360
#     4  11  21  35  57  87 123 162 201 245 296 357
#     4  10  21  40  62  88 121 161 203 247 304 362
#     4  10  23  43  65  88 122 161 201 252 305 358
#
# _framework density 19.628827999999999
#
# number of rings (size 3 to 8) (size 9 to 14) (size 15 to 20)
#    0.000    1.429    1.429    3.857    0.000   10.286 
#    0.000    0.000    0.000    0.000    0.000    0.000 
#    0.000    0.000    0.000    0.000    0.000    0.000 
#
# Total GULP energy -156575.421900 kJ/mol
# GULP energy per Si atom -5591.979354 kJ/mol
# Density = 1.958415 g / cm^3
# Si number density = 19.628828 Si / 1000 Ang^3
#
#
#
# Elastic Constant Matrix: (Units=GPa)
#
#
# Indices 1 2 3 4 5 6 
#
# 1 146.7490 47.9290 55.4211 0.0000 4.6223 0.0000
# 2 47.9290 34.6062 36.9086 0.0000 3.6674 0.0000
# 3 55.4211 36.9086 111.8454 0.0000 10.4396 0.0000
# 4 0.0000 0.0000 0.0000 32.6167 0.0000 6.4439
# 5 4.6223 3.6674 10.4396 0.0000 33.9405 0.0000
# 6 0.0000 0.0000 0.0000 6.4439 0.0000 29.2022
#
#
#
# Elastic Compliance Matrix: (Units=1/GPa)
#
#
# Indices 1 2 3 4 5 6 
#
# 1 0.012486 -0.016505 -0.000770 0.000000 0.000320 0.000000
# 2 -0.016505 0.066411 -0.013669 0.000000 -0.000724 0.000000
# 3 -0.000770 -0.013669 0.014090 0.000000 -0.002752 0.000000
# 4 0.000000 0.000000 0.000000 0.032057 0.000000 -0.007074
# 5 0.000320 -0.000724 -0.002752 0.000000 0.030344 0.000000
# 6 0.000000 0.000000 0.000000 -0.007074 0.000000 0.035805
#
#
# Mechanical properties :
#
#
# Convention : Reuss Voigt Hill
#
# Bulk Modulus (GPa) = 32.15634 63.74646 47.95140
# Shear Modulus (GPa) = 18.97901 29.34800 24.16350
#
# Velocity S-wave (km/s) = 3.11287 3.87091 3.51240
# Velocity P-wave (km/s) = 5.41643 7.24741 6.39776
#
# Compressibility (1/GPa) = 0.03109807
#
# Stress axis : x y z
#
# Youngs Moduli (GPa) = 80.09102 15.05766 70.97105
#
# Poissons Ratio (x) = 0.24853 0.05466
# Poissons Ratio (y) = 1.32191 0.97013
# Poissons Ratio (z) = 0.06168 0.20583
#
# Static dielectric constant tensor:
#      x y z
#    x 1.702610 0.000000 -0.009370 
#    y 0.000000 1.653820 0.000000 
#    z -0.009370 0.000000 1.663860 
# 
# From -- ./inp_files/49120.got.cif
#   From: 2010.05.17/outbox.cif.g08.bks.cpg/sg11_25_cif.got.tgz:49120.got - 2010.06.03 12:22:45.
