data_PCOD9165277
_publ_section_title
;
Structure prediction by ZEFSAII (Michael W. Deem and Ramdas Pophale) SiO2 
 PCOD9165277
Probable space group: P 21/M
;
_chemical_formula_sum "Si O2"
_cell_formula_units_Z 24
_cell_length_a 12.593435
_cell_length_b 7.990666
_cell_length_c 9.700131
_cell_angle_alpha 90.000000
_cell_angle_beta 99.609133
_cell_angle_gamma 90.000000
_cell_volume 962.427973
_symmetry_space_group_name_H-M "P 21/M"
_symmetry_group_IT_number 11
_symmetry_cell_setting 'monoclinic'
loop_
_space_group_symop_operation_xyz
x,y,z
-x,1/2+y,-z
-x,-y,-z
x,1/2-y,z
loop_
_atom_site_type_symbol
_atom_site_label
_atom_site_fract_x
_atom_site_fract_y
_atom_site_fract_z
Si Si1 0.208817 0.049657 0.720895
Si Si2 0.671222 0.554562 0.998908
Si Si3 0.659728 0.450967 0.493656
Si Si4 0.543177 0.948441 0.726346
Si Si5 0.887754 0.056574 0.905322
Si Si6 0.978405 0.558699 0.651462
O O1 0.196250 0.250000 0.733145
O O2 0.237762 0.007461 0.570342
O O3 0.098960 0.961409 0.738631
O O4 0.302605 0.986209 0.843991
O O5 0.645311 0.750000 0.010808
O O6 0.579840 0.478219 0.880647
O O7 0.785258 0.541600 0.942735
O O8 0.656603 0.250000 0.501100
O O9 0.559927 0.517053 0.377330
O O10 0.640647 0.523241 0.640023
O O11 0.526414 0.750000 0.737830
O O12 0.868954 0.250000 0.932630
O O13 0.903282 0.036745 0.743516
O O14 0.000000 0.000000 0.000000
O O15 0.944227 0.750000 0.642245
O O16 0.000000 0.500000 0.500000
#
# Coordination Sequence:
#
# PCOD9165277 Si02
#       6
#     4   4   4   4   4   4
#     4  11  23  40  62  89 123 161 203 252 307 363
#     4  10  22  40  63  89 120 160 208 253 302 362
#     4  10  21  38  61  89 123 159 201 253 306 364
#     4   9  20  40  63  88 119 159 204 251 305 365
#     4  12  24  41  64  91 125 164 205 252 304 362
#     4  12  26  44  65  91 124 162 206 254 306 365
#
# _framework density 24.936931999999999
#
# number of rings (size 3 to 8) (size 9 to 14) (size 15 to 20)
#    0.000    1.333    1.667    4.000    2.333    2.667 
#    0.000    0.000    0.000    0.000    0.000    0.000 
#    0.000    0.000    0.000    0.000    0.000    0.000 
#
# Total GULP energy -134300.791982 kJ/mol
# GULP energy per Si atom -5595.866333 kJ/mol
# Density = 2.488017 g / cm^3
# Si number density = 24.936932 Si / 1000 Ang^3
#
#
#
# Elastic Constant Matrix: (Units=GPa)
#
#
# Indices 1 2 3 4 5 6 
#
# 1 47.1388 -17.4360 -1.2641 0.0000 -4.4278 0.0000
# 2 -17.4360 62.9663 -5.8057 0.0000 8.2971 0.0000
# 3 -1.2641 -5.8057 123.5631 0.0000 0.3129 0.0000
# 4 0.0000 0.0000 0.0000 26.9234 0.0000 -2.7165
# 5 -4.4278 8.2971 0.3129 0.0000 49.3939 0.0000
# 6 0.0000 0.0000 0.0000 -2.7165 0.0000 21.1299
#
#
#
# Elastic Compliance Matrix: (Units=1/GPa)
#
#
# Indices 1 2 3 4 5 6 
#
# 1 0.023724 0.006483 0.000545 0.000000 0.001034 0.000000
# 2 0.006483 0.018086 0.000922 0.000000 -0.002463 0.000000
# 3 0.000545 0.000922 0.008142 0.000000 -0.000158 0.000000
# 4 0.000000 0.000000 0.000000 0.037631 0.000000 0.004838
# 5 0.001034 -0.002463 -0.000158 0.000000 0.020753 0.000000
# 6 0.000000 0.000000 0.000000 0.004838 0.000000 0.047948
#
#
# Mechanical properties :
#
#
# Convention : Reuss Voigt Hill
#
# Bulk Modulus (GPa) = 15.18530 20.51741 17.85135
# Shear Modulus (GPa) = 30.80064 36.70106 33.75085
#
# Velocity S-wave (km/s) = 3.51827 3.84051 3.68292
# Velocity P-wave (km/s) = 4.75468 5.28314 5.02586
#
# Compressibility (1/GPa) = 0.06585317
#
# Stress axis : x y z
#
# Youngs Moduli (GPa) = 42.15185 55.29030 122.81481
#
# Poissons Ratio (x) = -0.35846 -0.06690
# Poissons Ratio (y) = -0.27328 -0.11328
# Poissons Ratio (z) = -0.02296 -0.05100
#
# Static dielectric constant tensor:
#      x y z
#    x 2.058290 0.000000 0.048680 
#    y 0.000000 1.849940 0.000000 
#    z 0.048680 0.000000 2.045500 
# 
# From -- ./inp_files/20523.got.cif
#   From: 2010.05.17/outbox.cif.g08.bks.cpg/sg11_11_cif.got.tgz:20523.got - 2010.06.03 12:22:45.
