data_PCOD9165707
_publ_section_title
;
Structure prediction by ZEFSAII (Michael W. Deem and Ramdas Pophale) SiO2 
 PCOD9165707
Probable space group: P 21/M
;
_chemical_formula_sum "Si O2"
_cell_formula_units_Z 26
_cell_length_a 15.046057
_cell_length_b 9.414749
_cell_length_c 12.837159
_cell_angle_alpha 90.000000
_cell_angle_beta 42.432341
_cell_angle_gamma 90.000000
_cell_volume 1226.940148
_symmetry_space_group_name_H-M "P 21/M"
_symmetry_group_IT_number 11
_symmetry_cell_setting 'monoclinic'
loop_
_space_group_symop_operation_xyz
x,y,z
-x,1/2+y,-z
-x,-y,-z
x,1/2-y,z
loop_
_atom_site_type_symbol
_atom_site_label
_atom_site_fract_x
_atom_site_fract_y
_atom_site_fract_z
Si Si1 0.631606 0.584016 0.511454
Si Si2 0.515815 0.750000 0.943001
Si Si3 0.239091 0.588509 0.418479
Si Si4 0.047506 0.416894 0.282787
Si Si5 0.322047 0.916092 0.738597
Si Si6 0.917424 0.582483 0.984550
Si Si7 0.676388 0.479086 0.881851
O O1 0.668305 0.750000 0.468277
O O2 0.686948 0.518807 0.569618
O O3 0.683583 0.489808 0.370294
O O4 0.473205 0.575225 0.644095
O O5 0.605991 0.627014 0.921174
O O6 0.420486 0.874508 0.974425
O O7 0.241632 0.750000 0.459001
O O8 0.304204 0.590512 0.249203
O O9 0.086374 0.542697 0.542397
O O10 0.072902 0.250000 0.281817
O O11 0.178677 0.501024 0.197406
O O12 0.019720 0.432222 0.183839
O O13 0.283635 0.750000 0.766621
O O14 0.225009 0.007934 0.893470
O O15 0.906761 0.750000 0.017527
O O16 0.000000 0.500000 0.000000
#
# Coordination Sequence:
#
# PCOD9165707 Si02
#       7
#     4   2   4   4   4   4   4
#     4  10  22  39  62  96 127 166 218 267 321 379
#     4  10  24  40  68  90 130 164 214 264 320 380
#     4  11  23  41  65  94 128 174 213 264 327 384
#     4  10  23  43  66  92 128 170 219 267 319 386
#     4  10  21  40  62  89 129 169 212 270 324 388
#     4  11  23  41  64  94 126 171 217 270 327 379
#     4  11  22  46  64  97 127 172 211 268 321 388
#
# _framework density 21.190928
#
# number of rings (size 3 to 8) (size 9 to 14) (size 15 to 20)
#    0.000    1.538    1.538    2.769    1.077    5.538 
#    6.923    0.000    0.000    0.000    0.000    0.000 
#    0.000    0.000    0.000    0.000    0.000    0.000 
#
# Total GULP energy -144829.443227 kJ/mol
# GULP energy per Si atom -5570.363201 kJ/mol
# Density = 2.114270 g / cm^3
# Si number density = 21.190928 Si / 1000 Ang^3
#
#
#
# Elastic Constant Matrix: (Units=GPa)
#
#
# Indices 1 2 3 4 5 6 
#
# 1 78.6138 34.0175 -4.7215 0.0000 -11.8995 0.0000
# 2 34.0175 148.8864 17.9434 0.0000 -15.0923 0.0000
# 3 -4.7215 17.9434 47.4030 0.0000 -4.8796 0.0000
# 4 0.0000 0.0000 0.0000 34.4464 0.0000 -7.9712
# 5 -11.8995 -15.0923 -4.8796 0.0000 22.8205 0.0000
# 6 0.0000 0.0000 0.0000 -7.9712 0.0000 22.4539
#
#
#
# Elastic Compliance Matrix: (Units=1/GPa)
#
#
# Indices 1 2 3 4 5 6 
#
# 1 0.015328 -0.003249 0.003434 0.000000 0.006578 0.000000
# 2 -0.003249 0.008138 -0.003093 0.000000 0.003027 0.000000
# 3 0.003434 -0.003093 0.023090 0.000000 0.004683 0.000000
# 4 0.000000 0.000000 0.000000 0.031629 0.000000 0.011228
# 5 0.006578 0.003027 0.004683 0.000000 0.050253 0.000000
# 6 0.000000 0.000000 0.000000 0.011228 0.000000 0.048522
#
#
# Mechanical properties :
#
#
# Convention : Reuss Voigt Hill
#
# Bulk Modulus (GPa) = 24.54528 41.04244 32.79386
# Shear Modulus (GPa) = 25.46369 31.12173 28.29271
#
# Velocity S-wave (km/s) = 3.47022 3.83643 3.65791
# Velocity P-wave (km/s) = 5.25971 6.24774 5.77490
#
# Compressibility (1/GPa) = 0.04074104
#
# Stress axis : x y z
#
# Youngs Moduli (GPa) = 65.23856 122.87345 43.30801
#
# Poissons Ratio (x) = 0.39924 -0.14871
# Poissons Ratio (y) = 0.21198 0.13394
# Poissons Ratio (z) = -0.22402 0.38001
#
# Static dielectric constant tensor:
#      x y z
#    x 1.752470 0.000000 -0.000080 
#    y 0.000000 1.724160 0.000000 
#    z -0.000080 0.000000 1.830640 
# 
# From -- ./inp_files/51892.got.cif
#   From: 2010.05.17/outbox.cif.g08.bks.cpg/sg11_26_cif.got.tgz:51892.got - 2010.06.03 12:22:45.
