data_PCOD9165618
_publ_section_title
;
Structure prediction by ZEFSAII (Michael W. Deem and Ramdas Pophale) SiO2 
 PCOD9165618
Probable space group: P 21/M
;
_chemical_formula_sum "Si O2"
_cell_formula_units_Z 28
_cell_length_a 5.337192
_cell_length_b 17.802037
_cell_length_c 13.978913
_cell_angle_alpha 90.000000
_cell_angle_beta 113.648589
_cell_angle_gamma 90.000000
_cell_volume 1216.640455
_symmetry_space_group_name_H-M "P 21/M"
_symmetry_group_IT_number 11
_symmetry_cell_setting 'monoclinic'
loop_
_space_group_symop_operation_xyz
x,y,z
-x,1/2+y,-z
-x,-y,-z
x,1/2-y,z
loop_
_atom_site_type_symbol
_atom_site_label
_atom_site_fract_x
_atom_site_fract_y
_atom_site_fract_z
Si Si1 0.095336 0.339134 0.699328
Si Si2 0.450230 0.088158 0.050722
Si Si3 0.015323 0.829830 0.090458
Si Si4 0.758438 0.051533 0.508248
Si Si5 0.479877 0.554408 0.148902
Si Si6 0.049708 0.666237 0.813980
Si Si7 0.587467 0.334371 0.320709
O O1 0.135196 0.250000 0.671794
O O2 0.349912 0.399180 0.745884
O O3 0.031625 0.329908 0.802299
O O4 0.875493 0.389275 0.606435
O O5 0.767353 0.109594 0.098509
O O6 0.410138 0.033544 0.135286
O O7 0.374768 0.056711 0.933518
O O8 0.255296 0.160745 0.015873
O O9 0.153504 0.750000 0.089601
O O10 0.205653 0.899371 0.099632
O O11 0.655363 0.103882 0.407809
O O12 0.500000 0.000000 0.500000
O O13 0.000000 0.000000 0.500000
O O14 0.102662 0.750000 0.857975
O O15 0.196692 0.660790 0.732674
O O16 0.728190 0.656794 0.757006
O O17 0.612633 0.250000 0.365420
#
# Coordination Sequence:
#
# PCOD9165618 Si02
#       7
#     4   4   4   4   4   4   4
#     4  10  24  45  67  95 133 177 226 279 344 412
#     4  10  22  37  59  93 135 172 221 278 337 390
#     4  10  21  39  64  95 130 177 230 279 334 409
#     4  12  28  46  71 104 131 172 223 285 344 402
#     4  10  22  39  62  93 128 176 223 275 336 397
#     4  10  22  40  66  96 128 176 218 267 331 401
#     4  10  23  44  66  94 133 172 220 270 334 403
#
# _framework density 23.014194
#
# number of rings (size 3 to 8) (size 9 to 14) (size 15 to 20)
#    0.000    1.714    0.000    2.571    8.000    1.714 
#    0.000    1.429    0.000    0.000    0.000    0.000 
#    0.000    0.000    0.000    0.000    0.000    0.000 
#
# Total GULP energy -156049.813876 kJ/mol
# GULP energy per Si atom -5573.207638 kJ/mol
# Density = 2.296181 g / cm^3
# Si number density = 23.014194 Si / 1000 Ang^3
#
#
#
# Elastic Constant Matrix: (Units=GPa)
#
#
# Indices 1 2 3 4 5 6 
#
# 1 80.1157 38.6308 21.8645 0.0000 -4.0632 0.0000
# 2 38.6308 158.2557 51.9655 0.0000 0.5226 0.0000
# 3 21.8645 51.9655 87.8750 0.0000 5.2563 0.0000
# 4 0.0000 0.0000 0.0000 29.7731 0.0000 15.8899
# 5 -4.0632 0.5226 5.2563 0.0000 20.1039 0.0000
# 6 0.0000 0.0000 0.0000 15.8899 0.0000 28.6267
#
#
#
# Elastic Compliance Matrix: (Units=1/GPa)
#
#
# Indices 1 2 3 4 5 6 
#
# 1 0.014640 -0.002878 -0.002156 0.000000 0.003598 0.000000
# 2 -0.002878 0.008428 -0.004287 0.000000 0.000320 0.000000
# 3 -0.002156 -0.004287 0.014701 0.000000 -0.004168 0.000000
# 4 0.000000 0.000000 0.000000 0.047726 0.000000 -0.026491
# 5 0.003598 0.000320 -0.004168 0.000000 0.051550 0.000000
# 6 0.000000 0.000000 0.000000 -0.026491 0.000000 0.049637
#
#
# Mechanical properties :
#
#
# Convention : Reuss Voigt Hill
#
# Bulk Modulus (GPa) = 52.28130 61.24090 56.76110
# Shear Modulus (GPa) = 23.61833 29.95310 26.78572
#
# Velocity S-wave (km/s) = 3.20699 3.61155 3.41527
# Velocity P-wave (km/s) = 6.03981 6.63769 6.34580
#
# Compressibility (1/GPa) = 0.01912730
#
# Stress axis : x y z
#
# Youngs Moduli (GPa) = 68.30404 118.65201 68.02342
#
# Poissons Ratio (x) = 0.34144 0.14667
# Poissons Ratio (y) = 0.19655 0.29162
# Poissons Ratio (z) = 0.14728 0.50867
#
# Static dielectric constant tensor:
#      x y z
#    x 1.937940 0.000000 -0.029350 
#    y 0.000000 2.014290 0.000000 
#    z -0.029350 0.000000 1.876770 
# 
# From -- ./inp_files/46094.got.cif
#   From: 2010.05.17/outbox.cif.g08.bks.cpg/sg11_24_cif.got.tgz:46094.got - 2010.06.03 12:22:45.
