data_PCOD9165114
_publ_section_title
;
Structure prediction by ZEFSAII (Michael W. Deem and Ramdas Pophale) SiO2 
 PCOD9165114
Probable space group: P 21/M
;
_chemical_formula_sum "Si O2"
_cell_formula_units_Z 28
_cell_length_a 15.866724
_cell_length_b 8.641364
_cell_length_c 12.190513
_cell_angle_alpha 90.000000
_cell_angle_beta 116.080255
_cell_angle_gamma 90.000000
_cell_volume 1501.255146
_symmetry_space_group_name_H-M "P 21/M"
_symmetry_group_IT_number 11
_symmetry_cell_setting 'monoclinic'
loop_
_space_group_symop_operation_xyz
x,y,z
-x,1/2+y,-z
-x,-y,-z
x,1/2-y,z
loop_
_atom_site_type_symbol
_atom_site_label
_atom_site_fract_x
_atom_site_fract_y
_atom_site_fract_z
Si Si1 0.873031 0.936347 0.519884
Si Si2 0.594280 0.065448 0.109434
Si Si3 0.696821 0.936796 0.565363
Si Si4 0.323503 0.564891 0.206756
Si Si5 0.927686 0.936811 0.308041
Si Si6 0.459139 0.063178 0.690912
Si Si7 0.762958 0.935626 0.059887
O O1 0.873016 0.750000 0.520046
O O2 0.780926 0.986863 0.532676
O O3 0.879179 0.985523 0.395786
O O4 0.968152 0.995285 0.630867
O O5 0.594553 0.250000 0.101855
O O6 0.591162 0.010532 0.233068
O O7 0.682183 0.997793 0.094301
O O8 0.500000 0.000000 0.000000
O O9 0.699851 0.750000 0.576452
O O10 0.598548 0.978919 0.450988
O O11 0.705667 0.008912 0.689917
O O12 0.321308 0.750000 0.199946
O O13 0.432131 0.515225 0.250162
O O14 0.259740 0.497510 0.073658
O O15 0.933911 0.750000 0.312464
O O16 0.862225 0.983797 0.169403
O O17 0.455673 0.250000 0.700389
O O18 0.759112 0.750000 0.056906
#
# Coordination Sequence:
#
# PCOD9165114 Si02
#       7
#     4   4   4   4   4   4   4
#     4   9  18  35  59  86 113 142 180 229 282 335
#     4  12  23  35  55  83 115 149 186 229 277 329
#     4  10  21  38  59  81 111 152 192 231 282 338
#     4  11  23  37  55  81 114 151 193 237 278 331
#     4   9  19  36  60  87 113 143 179 226 285 339
#     4  10  21  38  58  81 113 151 190 235 283 333
#     4  11  22  38  59  82 114 153 189 229 283 340
#
# _framework density 18.651060999999999
#
# number of rings (size 3 to 8) (size 9 to 14) (size 15 to 20)
#    0.000    1.714    1.429    3.429    0.000    5.143 
#    0.000    3.571    0.000    0.000    0.000    0.000 
#    0.000    0.000    0.000    0.000    0.000    0.000 
#
# Total GULP energy -156440.651478 kJ/mol
# GULP energy per Si atom -5587.166124 kJ/mol
# Density = 1.860861 g / cm^3
# Si number density = 18.651061 Si / 1000 Ang^3
#
#
#
# Elastic Constant Matrix: (Units=GPa)
#
#
# Indices 1 2 3 4 5 6 
#
# 1 41.9067 16.0279 46.6855 0.0000 1.9674 0.0000
# 2 16.0279 28.0219 33.6265 0.0000 1.0517 0.0000
# 3 46.6855 33.6265 160.1072 0.0000 10.5358 0.0000
# 4 0.0000 0.0000 0.0000 24.8060 0.0000 -0.9535
# 5 1.9674 1.0517 10.5358 0.0000 26.4371 0.0000
# 6 0.0000 0.0000 0.0000 -0.9535 0.0000 27.6482
#
#
#
# Elastic Compliance Matrix: (Units=1/GPa)
#
#
# Indices 1 2 3 4 5 6 
#
# 1 0.037845 -0.011174 -0.008762 0.000000 0.001120 0.000000
# 2 -0.011174 0.051130 -0.007601 0.000000 0.001827 0.000000
# 3 -0.008762 -0.007601 0.010613 0.000000 -0.003275 0.000000
# 4 0.000000 0.000000 0.000000 0.040366 0.000000 0.001392
# 5 0.001120 0.001827 -0.003275 0.000000 0.038975 0.000000
# 6 0.000000 0.000000 0.000000 0.001392 0.000000 0.036217
#
#
# Mechanical properties :
#
#
# Convention : Reuss Voigt Hill
#
# Bulk Modulus (GPa) = 22.46478 46.96841 34.71659
# Shear Modulus (GPa) = 17.54045 24.69134 21.11589
#
# Velocity S-wave (km/s) = 3.07001 3.64243 3.36840
# Velocity P-wave (km/s) = 4.96362 6.55188 5.81226
#
# Compressibility (1/GPa) = 0.04451413
#
# Stress axis : x y z
#
# Youngs Moduli (GPa) = 26.42377 19.55812 94.22821
#
# Poissons Ratio (x) = 0.21854 0.82563
# Poissons Ratio (y) = 0.29525 0.71619
# Poissons Ratio (z) = 0.23153 0.14865
#
# Static dielectric constant tensor:
#      x y z
#    x 1.623640 0.000000 0.007110 
#    y 0.000000 1.631730 0.000000 
#    z 0.007110 0.000000 1.646200 
# 
# From -- ./inp_files/37655.got.cif
#   From: 2010.05.17/outbox.cif.g08.bks.cpg/sg11_19_cif.got.tgz:37655.got - 2010.06.03 12:22:45.
