data_PCOD9165760
_publ_section_title
;
Structure prediction by ZEFSAII (Michael W. Deem and Ramdas Pophale) SiO2 
 PCOD9165760
Probable space group: P 21/M
;
_chemical_formula_sum "Si O2"
_cell_formula_units_Z 28
_cell_length_a 27.529455
_cell_length_b 8.964927
_cell_length_c 9.457100
_cell_angle_alpha 90.000000
_cell_angle_beta 38.738181
_cell_angle_gamma 90.000000
_cell_volume 1460.534918
_symmetry_space_group_name_H-M "P 21/M"
_symmetry_group_IT_number 11
_symmetry_cell_setting 'monoclinic'
loop_
_space_group_symop_operation_xyz
x,y,z
-x,1/2+y,-z
-x,-y,-z
x,1/2-y,z
loop_
_atom_site_type_symbol
_atom_site_label
_atom_site_fract_x
_atom_site_fract_y
_atom_site_fract_z
Si Si1 0.198724 0.429028 0.838007
Si Si2 0.513775 0.930000 0.814806
Si Si3 0.659278 0.929398 0.293541
Si Si4 0.225614 0.571382 0.478514
Si Si5 0.368792 0.570927 0.948250
Si Si6 0.035997 0.578205 0.283414
Si Si7 0.066368 0.422004 0.757723
O O1 0.195499 0.250000 0.835964
O O2 0.256295 0.469692 0.836023
O O3 0.232575 0.495421 0.615850
O O4 0.112972 0.494461 0.055333
O O5 0.511799 0.750000 0.833938
O O6 0.595008 0.972397 0.556773
O O7 0.446032 0.973839 0.858368
O O8 0.500000 0.000000 0.000000
O O9 0.656122 0.750000 0.286937
O O10 0.640411 0.998979 0.184621
O O11 0.222289 0.750000 0.503194
O O12 0.145690 0.511020 0.594399
O O13 0.296095 0.533619 0.214186
O O14 0.370816 0.750000 0.926539
O O15 0.056869 0.750000 0.264578
O O16 0.000000 0.500000 0.500000
O O17 0.968944 0.577040 0.318051
O O18 0.077923 0.250000 0.776484
O O19 0.000000 0.500000 0.000000
#
# Coordination Sequence:
#
# PCOD9165760 Si02
#       7
#     4   4   4   4   4   4   4
#     4  11  23  40  61  88 120 158 203 250 301 359
#     4  10  21  40  64  92 124 159 201 245 293 353
#     4  10  23  40  61  90 124 159 200 247 297 355
#     4  11  23  39  60  89 121 157 203 250 301 360
#     4  10  23  40  61  91 124 159 200 246 297 355
#     4  11  25  42  62  88 120 158 202 250 304 362
#     4  11  23  40  63  89 118 157 203 250 302 359
#
# _framework density 19.171060000000001
#
# number of rings (size 3 to 8) (size 9 to 14) (size 15 to 20)
#    0.000    1.429    1.429    3.000    2.000    5.143 
#    0.000    0.000    0.000    0.000    0.000    0.000 
#    0.000    0.000    0.000    0.000    0.000    0.000 
#
# Total GULP energy -156503.188986 kJ/mol
# GULP energy per Si atom -5589.399607 kJ/mol
# Density = 1.912743 g / cm^3
# Si number density = 19.171060 Si / 1000 Ang^3
#
#
#
# Elastic Constant Matrix: (Units=GPa)
#
#
# Indices 1 2 3 4 5 6 
#
# 1 117.9320 29.2236 28.7304 0.0000 7.8357 0.0000
# 2 29.2236 59.7627 24.5119 0.0000 10.5539 0.0000
# 3 28.7304 24.5119 64.0173 0.0000 15.3339 0.0000
# 4 0.0000 0.0000 0.0000 30.1522 0.0000 8.3152
# 5 7.8357 10.5539 15.3339 0.0000 39.9956 0.0000
# 6 0.0000 0.0000 0.0000 8.3152 0.0000 35.7723
#
#
#
# Elastic Compliance Matrix: (Units=1/GPa)
#
#
# Indices 1 2 3 4 5 6 
#
# 1 0.010159 -0.003694 -0.003195 0.000000 0.000209 0.000000
# 2 -0.003694 0.021434 -0.005911 0.000000 -0.002666 0.000000
# 3 -0.003195 -0.005911 0.020695 0.000000 -0.005749 0.000000
# 4 0.000000 0.000000 0.000000 0.035437 0.000000 -0.008237
# 5 0.000209 -0.002666 -0.005749 0.000000 0.027869 0.000000
# 6 0.000000 0.000000 0.000000 -0.008237 0.000000 0.029869
#
#
# Mechanical properties :
#
#
# Convention : Reuss Voigt Hill
#
# Bulk Modulus (GPa) = 37.46907 45.18266 41.32587
# Shear Modulus (GPa) = 27.78394 31.80040 29.79217
#
# Velocity S-wave (km/s) = 3.81105 4.07722 3.94638
# Velocity P-wave (km/s) = 6.24119 6.76641 6.50910
#
# Compressibility (1/GPa) = 0.02668868
#
# Stress axis : x y z
#
# Youngs Moduli (GPa) = 98.43101 46.65382 48.32145
#
# Poissons Ratio (x) = 0.17236 0.15439
# Poissons Ratio (y) = 0.36365 0.28560
# Poissons Ratio (z) = 0.31449 0.27575
#
# Static dielectric constant tensor:
#      x y z
#    x 1.642960 0.000000 -0.001300 
#    y 0.000000 1.669440 0.000000 
#    z -0.001300 0.000000 1.638870 
# 
# From -- ./inp_files/28319.got.cif
#   From: 2010.05.17/outbox.cif.g08.bks.cpg/sg11_15_cif.got.tgz:28319.got - 2010.06.03 12:22:45.
