data_PCOD9165856
_publ_section_title
;
Structure prediction by ZEFSAII (Michael W. Deem and Ramdas Pophale) SiO2 
 PCOD9165856
Probable space group: P 21/M
;
_chemical_formula_sum "Si O2"
_cell_formula_units_Z 24
_cell_length_a 8.789061
_cell_length_b 15.513078
_cell_length_c 17.101655
_cell_angle_alpha 90.000000
_cell_angle_beta 32.599691
_cell_angle_gamma 90.000000
_cell_volume 1256.258379
_symmetry_space_group_name_H-M "P 21/M"
_symmetry_group_IT_number 11
_symmetry_cell_setting 'monoclinic'
loop_
_space_group_symop_operation_xyz
x,y,z
-x,1/2+y,-z
-x,-y,-z
x,1/2-y,z
loop_
_atom_site_type_symbol
_atom_site_label
_atom_site_fract_x
_atom_site_fract_y
_atom_site_fract_z
Si Si1 0.099271 0.851498 0.131866
Si Si2 0.069266 0.148699 0.333293
Si Si3 0.482241 0.451717 0.589852
Si Si4 0.307778 0.149469 0.057972
Si Si5 0.235908 0.006687 0.963411
Si Si6 0.684936 0.969441 0.654822
O O1 0.070573 0.750000 0.123350
O O2 0.800220 0.893956 0.283851
O O3 0.350242 0.856339 0.087063
O O4 0.217754 0.914183 0.013320
O O5 0.043888 0.250000 0.344541
O O6 0.192313 0.124824 0.194324
O O7 0.265511 0.119929 0.321024
O O8 0.761718 0.106693 0.475407
O O9 0.500000 0.500000 0.500000
O O10 0.506814 0.518219 0.652547
O O11 0.233771 0.250000 0.075283
O O12 0.194838 0.081871 0.044131
O O13 0.526041 0.023327 0.790975
O O14 0.000000 0.000000 0.000000
O O15 0.000000 0.000000 0.500000
#
# Coordination Sequence:
#
# PCOD9165856 Si02
#       6
#     4   4   4   4   4   4
#     4  11  23  40  65  95 125 164 210 261 320 378
#     4  10  21  41  63  88 127 163 204 258 316 377
#     4  11  23  40  65  90 127 165 214 260 315 379
#     4  10  23  41  65  95 124 166 211 257 316 381
#     4  12  23  40  64  91 127 164 209 261 319 372
#     4  10  23  39  61  91 119 164 212 248 317 373
#
# _framework density 19.104351000000001
#
# number of rings (size 3 to 8) (size 9 to 14) (size 15 to 20)
#    0.000    1.333    3.333    2.000    4.667    0.667 
#    0.000    2.500    0.000    0.000    0.000    0.000 
#    0.000    0.000    0.000    0.000    0.000    0.000 
#
# Total GULP energy -133761.074688 kJ/mol
# GULP energy per Si atom -5573.378112 kJ/mol
# Density = 1.906087 g / cm^3
# Si number density = 19.104351 Si / 1000 Ang^3
#
#
#
# Elastic Constant Matrix: (Units=GPa)
#
#
# Indices 1 2 3 4 5 6 
#
# 1 122.7546 84.2882 40.7591 0.0000 15.3844 0.0000
# 2 84.2882 94.4784 53.0404 0.0000 11.6134 0.0000
# 3 40.7591 53.0404 126.2460 0.0000 2.8849 0.0000
# 4 0.0000 0.0000 0.0000 23.8929 0.0000 -16.3043
# 5 15.3844 11.6134 2.8849 0.0000 33.3319 0.0000
# 6 0.0000 0.0000 0.0000 -16.3043 0.0000 8.3282
#
#
#
# Elastic Compliance Matrix: (Units=1/GPa)
#
#
# Indices 1 2 3 4 5 6 
#
# 1 0.021555 -0.019586 0.001344 0.000000 -0.003241 0.000000
# 2 -0.019586 0.032302 -0.007211 0.000000 -0.001590 0.000000
# 3 0.001344 -0.007211 0.010494 0.000000 0.000984 0.000000
# 4 0.000000 0.000000 0.000000 -0.124590 0.000000 -0.243912
# 5 -0.003241 -0.001590 0.000984 0.000000 0.031966 0.000000
# 6 0.000000 0.000000 0.000000 -0.243912 0.000000 -0.357438
#
#
# Mechanical properties :
#
#
# Convention : Reuss Voigt Hill
#
# Bulk Modulus (GPa) = 74.38291 77.73936 76.06113
# Shear Modulus (GPa) = -15.13674 24.13669 4.49998
#
# Velocity S-wave (km/s) = -2.81787 3.55831 1.53642
# Velocity P-wave (km/s) = 5.33220 7.59358 6.56105
#
# Compressibility (1/GPa) = 0.01344395
#
# Stress axis : x y z
#
# Youngs Moduli (GPa) = 46.39324 30.95791 95.28817
#
# Poissons Ratio (x) = 0.60634 -0.12804
# Poissons Ratio (y) = 0.90866 0.68716
# Poissons Ratio (z) = -0.06234 0.22325
#
# Static dielectric constant tensor:
#      x y z
#    x 1.671780 0.000000 -0.022560 
#    y 0.000000 1.643130 0.000000 
#    z -0.022560 0.000000 1.734540 
# 
# From -- ./inp_files/22011.got.cif
#   From: 2010.05.17/outbox.cif.g08.bks.cpg/sg11_12_cif.got.tgz:22011.got - 2010.06.03 12:22:45.
