data_PCOD9165483
_publ_section_title
;
Structure prediction by ZEFSAII (Michael W. Deem and Ramdas Pophale) SiO2 
 PCOD9165483
Probable space group: P 21/M
;
_chemical_formula_sum "Si O2"
_cell_formula_units_Z 24
_cell_length_a 21.692788
_cell_length_b 9.118214
_cell_length_c 10.905780
_cell_angle_alpha 90.000000
_cell_angle_beta 32.353185
_cell_angle_gamma 90.000000
_cell_volume 1154.374303
_symmetry_space_group_name_H-M "P 21/M"
_symmetry_group_IT_number 11
_symmetry_cell_setting 'monoclinic'
loop_
_space_group_symop_operation_xyz
x,y,z
-x,1/2+y,-z
-x,-y,-z
x,1/2-y,z
loop_
_atom_site_type_symbol
_atom_site_label
_atom_site_fract_x
_atom_site_fract_y
_atom_site_fract_z
Si Si1 0.485074 0.580034 0.334599
Si Si2 0.676959 0.418382 0.153349
Si Si3 0.276196 0.925474 0.536329
Si Si4 0.068448 0.076369 0.995840
Si Si5 0.123726 0.076913 0.291540
Si Si6 0.155578 0.923537 0.481373
O O1 0.524080 0.750000 0.259691
O O2 0.588850 0.475416 0.197251
O O3 0.395278 0.573542 0.599640
O O4 0.408275 0.539279 0.345927
O O5 0.710310 0.250000 0.076874
O O6 0.790136 0.517726 0.957038
O O7 0.262453 0.750000 0.575090
O O8 0.230905 0.959916 0.475733
O O9 0.192934 0.004165 0.774125
O O10 0.078146 0.250000 0.960006
O O11 0.979863 0.055764 0.256414
O O12 0.000000 0.000000 0.000000
O O13 0.110869 0.250000 0.305084
O O14 0.180494 0.025057 0.324490
O O15 0.000000 0.000000 0.500000
O O16 0.171735 0.750000 0.427271
#
# Coordination Sequence:
#
# PCOD9165483 Si02
#       6
#     4   4   4   4   4   4
#     4   9  19  37  62  90 118 151 190 236 289 340
#     4  10  21  39  61  88 119 152 193 239 285 339
#     4   9  18  33  56  85 116 149 189 237 287 340
#     4   9  17  29  48  76 111 148 185 230 279 332
#     4  12  26  42  61  83 114 154 196 239 288 349
#     4   9  19  36  54  80 116 151 190 238 287 340
#
# _framework density 20.790483999999999
#
# number of rings (size 3 to 8) (size 9 to 14) (size 15 to 20)
#    0.000    2.333    0.000    3.500    2.333    4.667 
#    0.000    0.833    0.000    0.000    0.000    0.000 
#    0.000    0.000    0.000    0.000    0.000    0.000 
#
# Total GULP energy -133985.588357 kJ/mol
# GULP energy per Si atom -5582.732848 kJ/mol
# Density = 2.074316 g / cm^3
# Si number density = 20.790484 Si / 1000 Ang^3
#
#
#
# Elastic Constant Matrix: (Units=GPa)
#
#
# Indices 1 2 3 4 5 6 
#
# 1 85.6931 24.8452 9.0938 0.0000 -10.8528 0.0000
# 2 24.8452 85.0467 33.2101 0.0000 -1.6102 0.0000
# 3 9.0938 33.2101 49.6100 0.0000 -2.0394 0.0000
# 4 0.0000 0.0000 0.0000 33.6955 0.0000 -2.7091
# 5 -10.8528 -1.6102 -2.0394 0.0000 28.1238 0.0000
# 6 0.0000 0.0000 0.0000 -2.7091 0.0000 26.0447
#
#
#
# Elastic Compliance Matrix: (Units=1/GPa)
#
#
# Indices 1 2 3 4 5 6 
#
# 1 0.013411 -0.003985 0.000414 0.000000 0.004977 0.000000
# 2 -0.003985 0.017105 -0.010775 0.000000 -0.001340 0.000000
# 3 0.000414 -0.010775 0.027357 0.000000 0.001527 0.000000
# 4 0.000000 0.000000 0.000000 0.029928 0.000000 0.003113
# 5 0.004977 -0.001340 0.001527 0.000000 0.037512 0.000000
# 6 0.000000 0.000000 0.000000 0.003113 0.000000 0.038719
#
#
# Mechanical properties :
#
#
# Convention : Reuss Voigt Hill
#
# Bulk Modulus (GPa) = 34.26894 39.40532 36.83713
# Shear Modulus (GPa) = 24.69733 27.78619 26.24176
#
# Velocity S-wave (km/s) = 3.45035 3.65976 3.55660
# Velocity P-wave (km/s) = 5.69140 6.07068 5.88410
#
# Compressibility (1/GPa) = 0.02918094
#
# Stress axis : x y z
#
# Youngs Moduli (GPa) = 74.56305 58.46369 36.55383
#
# Poissons Ratio (x) = 0.23301 -0.01514
# Poissons Ratio (y) = 0.29717 0.39386
# Poissons Ratio (z) = -0.03088 0.62993
#
# Static dielectric constant tensor:
#      x y z
#    x 1.799420 0.000000 0.003270 
#    y 0.000000 1.688400 0.000000 
#    z 0.003270 0.000000 1.752120 
# 
# From -- ./inp_files/43878.got.cif
#   From: 2010.05.17/outbox.cif.g08.bks.cpg/sg11_22_cif.got.tgz:43878.got - 2010.06.03 12:22:45.
