data_PCOD9165972
_publ_section_title
;
Structure prediction by ZEFSAII (Michael W. Deem and Ramdas Pophale) SiO2 
 PCOD9165972
Probable space group: P 21/M
;
_chemical_formula_sum "Si O2"
_cell_formula_units_Z 32
_cell_length_a 14.448372
_cell_length_b 21.685635
_cell_length_c 15.381664
_cell_angle_alpha 90.000000
_cell_angle_beta 160.165860
_cell_angle_gamma 90.000000
_cell_volume 1635.220430
_symmetry_space_group_name_H-M "P 21/M"
_symmetry_group_IT_number 11
_symmetry_cell_setting 'monoclinic'
loop_
_space_group_symop_operation_xyz
x,y,z
-x,1/2+y,-z
-x,-y,-z
x,1/2-y,z
loop_
_atom_site_type_symbol
_atom_site_label
_atom_site_fract_x
_atom_site_fract_y
_atom_site_fract_z
Si Si1 0.796357 0.886582 0.005566
Si Si2 0.212916 0.401164 0.504935
Si Si3 0.952910 0.176010 0.942746
Si Si4 0.794931 0.320819 0.496620
Si Si5 0.544922 0.564126 0.995624
Si Si6 0.994596 0.637916 0.496289
Si Si7 0.333211 0.323780 0.439756
Si Si8 0.265739 0.511783 0.994481
O O1 0.492450 0.857287 0.751913
O O2 0.821481 0.961495 0.010299
O O3 0.908789 0.855827 0.016604
O O4 0.992878 0.858613 0.255587
O O5 0.124861 0.358532 0.510445
O O6 0.278971 0.358191 0.481820
O O7 0.478208 0.443496 0.760933
O O8 0.970631 0.447867 0.260102
O O9 0.976480 0.250000 0.953497
O O10 0.633863 0.160809 0.670137
O O11 0.108342 0.159304 0.169255
O O12 0.764357 0.250000 0.500517
O O13 0.907030 0.317297 0.495393
O O14 0.640639 0.543281 0.986723
O O15 0.266450 0.599646 0.750084
O O16 0.500000 0.500000 0.000000
O O17 0.765628 0.599977 0.244578
O O18 0.322070 0.250000 0.443598
#
# Coordination Sequence:
#
# PCOD9165972 Si02
#       8
#     4   4   4   4   4   4   4   4
#     4  12  24  41  63  92 125 159 198 254 310 365
#     4  12  24  39  63  92 123 163 206 250 297 361
#     4  10  21  42  68  88 111 156 208 253 304 365
#     4  12  24  38  58  90 127 161 201 252 307 362
#     4  12  20  35  58  83 117 162 208 239 276 340
#     4  12  22  36  57  86 120 160 201 243 288 351
#     4  10  23  44  67  89 117 154 207 260 303 356
#     4  12  23  38  60  93 128 161 202 245 302 367
#
# _framework density 19.569227999999999
#
# number of rings (size 3 to 8) (size 9 to 14) (size 15 to 20)
#    0.000    0.500    5.000    4.500    0.000    1.500 
#    0.000    3.750    0.000    6.000    0.000    0.000 
#    0.000    0.000    0.000    0.000    0.000    0.000 
#
# Total GULP energy -178312.512739 kJ/mol
# GULP energy per Si atom -5572.266023 kJ/mol
# Density = 1.952469 g / cm^3
# Si number density = 19.569228 Si / 1000 Ang^3
#
#
#
# Elastic Constant Matrix: (Units=GPa)
#
#
# Indices 1 2 3 4 5 6 
#
# 1 76.3427 14.7684 -13.3696 0.0000 -8.3745 0.0000
# 2 14.7684 48.7758 22.9524 0.0000 -0.3704 0.0000
# 3 -13.3696 22.9524 117.7426 0.0000 0.7675 0.0000
# 4 0.0000 0.0000 0.0000 18.1202 0.0000 -6.7718
# 5 -8.3745 -0.3704 0.7675 0.0000 21.0476 0.0000
# 6 0.0000 0.0000 0.0000 -6.7718 0.0000 42.1754
#
#
#
# Elastic Compliance Matrix: (Units=1/GPa)
#
#
# Indices 1 2 3 4 5 6 
#
# 1 0.015407 -0.005973 0.002875 0.000000 0.005920 0.000000
# 2 -0.005973 0.024895 -0.005520 0.000000 -0.001737 0.000000
# 3 0.002875 -0.005520 0.009891 0.000000 0.000686 0.000000
# 4 0.000000 0.000000 0.000000 0.058710 0.000000 0.009427
# 5 0.005920 -0.001737 0.000686 0.000000 0.049811 0.000000
# 6 0.000000 0.000000 0.000000 0.009427 0.000000 0.025224
#
#
# Mechanical properties :
#
#
# Convention : Reuss Voigt Hill
#
# Bulk Modulus (GPa) = 30.34173 32.39593 31.36883
# Shear Modulus (GPa) = 23.56714 30.83597 27.20155
#
# Velocity S-wave (km/s) = 3.47406 3.97386 3.73234
# Velocity P-wave (km/s) = 5.62411 6.13563 5.88543
#
# Compressibility (1/GPa) = 0.03295791
#
# Stress axis : x y z
#
# Youngs Moduli (GPa) = 64.90443 40.16912 101.10065
#
# Poissons Ratio (x) = 0.23993 -0.29069
# Poissons Ratio (y) = 0.38768 0.55806
# Poissons Ratio (z) = -0.18662 0.22173
#
# Static dielectric constant tensor:
#      x y z
#    x 1.492560 0.000000 -0.005090 
#    y 0.000000 1.701190 0.000000 
#    z -0.005090 0.000000 1.616900 
# 
# From -- ./inp_files/52725.got.cif
#   From: 2010.05.17/outbox.cif.g08.bks.cpg/sg11_27_cif.got.tgz:52725.got - 2010.06.03 12:22:45.
