data_PCOD9165093
_publ_section_title
;
Structure prediction by ZEFSAII (Michael W. Deem and Ramdas Pophale) SiO2 
 PCOD9165093
Probable space group: P 21/M
;
_chemical_formula_sum "Si O2"
_cell_formula_units_Z 32
_cell_length_a 15.640257
_cell_length_b 8.760445
_cell_length_c 11.720944
_cell_angle_alpha 90.000000
_cell_angle_beta 84.713505
_cell_angle_gamma 90.000000
_cell_volume 1599.121297
_symmetry_space_group_name_H-M "P 21/M"
_symmetry_group_IT_number 11
_symmetry_cell_setting 'monoclinic'
loop_
_space_group_symop_operation_xyz
x,y,z
-x,1/2+y,-z
-x,-y,-z
x,1/2-y,z
loop_
_atom_site_type_symbol
_atom_site_label
_atom_site_fract_x
_atom_site_fract_y
_atom_site_fract_z
Si Si1 0.121474 0.068563 0.922308
Si Si2 0.037506 0.067845 0.176358
Si Si3 0.707759 0.069147 0.034650
Si Si4 0.077813 0.933359 0.416815
Si Si5 0.417270 0.427161 0.570937
Si Si6 0.268895 0.934133 0.449041
Si Si7 0.455403 0.429247 0.834092
Si Si8 0.348284 0.564317 0.198751
O O1 0.112301 0.250000 0.910649
O O2 0.219734 0.017648 0.903497
O O3 0.089608 0.025877 0.054567
O O4 0.059282 0.985665 0.840704
O O5 0.040724 0.250000 0.189309
O O6 0.071102 0.989989 0.287069
O O7 0.722637 0.250000 0.039730
O O8 0.613215 0.027581 0.089476
O O9 0.709228 0.019612 0.901812
O O10 0.073866 0.750000 0.417932
O O11 0.169499 0.980577 0.459173
O O12 0.000000 0.000000 0.500000
O O13 0.500000 0.500000 0.500000
O O14 0.414187 0.250000 0.539538
O O15 0.329548 0.504534 0.540815
O O16 0.431131 0.438332 0.704081
O O17 0.271789 0.750000 0.450997
O O18 0.311330 0.986436 0.324093
O O19 0.450610 0.250000 0.869166
O O20 0.553462 0.483764 0.832572
O O21 0.349991 0.750000 0.201160
#
# Coordination Sequence:
#
# PCOD9165093 Si02
#       8
#     4   4   4   4   4   4   4   4
#     4  10  21  38  61  88 119 155 194 242 302 365
#     4  10  21  39  64  90 118 151 198 251 299 358
#     4  11  22  35  56  86 119 154 197 242 290 354
#     4  11  24  41  63  89 125 166 203 250 306 363
#     4  11  22  38  62  87 116 153 196 248 297 351
#     4  10  21  40  64  88 116 156 201 244 296 355
#     4  10  21  38  57  79 116 158 193 240 298 351
#     4   9  18  36  59  82 114 152 192 240 295 350
#
# _framework density 20.01099
#
# number of rings (size 3 to 8) (size 9 to 14) (size 15 to 20)
#    0.000    1.750    1.250    3.000    0.000    5.500 
#    0.000    4.375    0.000    0.000    0.000    0.000 
#    0.000    0.000    0.000    0.000    0.000    0.000 
#
# Total GULP energy -178828.022079 kJ/mol
# GULP energy per Si atom -5588.375690 kJ/mol
# Density = 1.996544 g / cm^3
# Si number density = 20.010990 Si / 1000 Ang^3
#
#
#
# Elastic Constant Matrix: (Units=GPa)
#
#
# Indices 1 2 3 4 5 6 
#
# 1 128.4306 18.0975 11.8769 0.0000 21.4040 0.0000
# 2 18.0975 32.5716 16.0710 0.0000 7.8142 0.0000
# 3 11.8769 16.0710 26.6066 0.0000 12.1853 0.0000
# 4 0.0000 0.0000 0.0000 29.1279 0.0000 0.1980
# 5 21.4040 7.8142 12.1853 0.0000 29.9283 0.0000
# 6 0.0000 0.0000 0.0000 0.1980 0.0000 28.6677
#
#
#
# Elastic Compliance Matrix: (Units=1/GPa)
#
#
# Indices 1 2 3 4 5 6 
#
# 1 0.009283 -0.004316 0.001214 0.000000 -0.006006 0.000000
# 2 -0.004316 0.045759 -0.026618 0.000000 0.001977 0.000000
# 3 0.001214 -0.026618 0.061873 0.000000 -0.019110 0.000000
# 4 0.000000 0.000000 0.000000 0.034333 0.000000 -0.000237
# 5 -0.006006 0.001977 -0.019110 0.000000 0.044973 0.000000
# 6 0.000000 0.000000 0.000000 -0.000237 0.000000 0.034884
#
#
# Mechanical properties :
#
#
# Convention : Reuss Voigt Hill
#
# Bulk Modulus (GPa) = 17.39905 31.07771 24.23838
# Shear Modulus (GPa) = 16.14447 26.98235 21.56341
#
# Velocity S-wave (km/s) = 2.84347 3.67601 3.28621
# Velocity P-wave (km/s) = 4.41521 5.79495 5.15148
#
# Compressibility (1/GPa) = 0.05747440
#
# Stress axis : x y z
#
# Youngs Moduli (GPa) = 107.72091 21.85367 16.16223
#
# Poissons Ratio (x) = 0.09432 -0.01962
# Poissons Ratio (y) = 0.46491 0.43021
# Poissons Ratio (z) = -0.13075 0.58170
#
# Static dielectric constant tensor:
#      x y z
#    x 1.708270 0.000000 -0.004660 
#    y 0.000000 1.557590 0.000000 
#    z -0.004660 0.000000 1.700350 
# 
# From -- ./inp_files/38095.got.cif
#   From: 2010.05.17/outbox.cif.g08.bks.cpg/sg11_20_cif.got.tgz:38095.got - 2010.06.03 12:22:45.
