data_PCOD9165199
_publ_section_title
;
Structure prediction by ZEFSAII (Michael W. Deem and Ramdas Pophale) SiO2 
 PCOD9165199
Probable space group: P 21/M
;
_chemical_formula_sum "Si O2"
_cell_formula_units_Z 24
_cell_length_a 12.251493
_cell_length_b 8.599098
_cell_length_c 12.264863
_cell_angle_alpha 90.000000
_cell_angle_beta 88.907393
_cell_angle_gamma 90.000000
_cell_volume 1291.890325
_symmetry_space_group_name_H-M "P 21/M"
_symmetry_group_IT_number 11
_symmetry_cell_setting 'monoclinic'
loop_
_space_group_symop_operation_xyz
x,y,z
-x,1/2+y,-z
-x,-y,-z
x,1/2-y,z
loop_
_atom_site_type_symbol
_atom_site_label
_atom_site_fract_x
_atom_site_fract_y
_atom_site_fract_z
Si Si1 0.167844 0.937698 0.460676
Si Si2 0.910971 0.063421 0.085995
Si Si3 0.461998 0.937720 0.166183
Si Si4 0.027651 0.937647 0.671420
Si Si5 0.415098 0.937958 0.413887
Si Si6 0.674983 0.936051 0.026799
O O1 0.165904 0.750000 0.457043
O O2 0.115240 0.986703 0.577366
O O3 0.291976 0.989590 0.443538
O O4 0.088375 0.999935 0.367967
O O5 0.913885 0.250000 0.084428
O O6 0.940048 0.010344 0.208397
O O7 0.790763 0.007703 0.054967
O O8 0.000000 0.000000 0.000000
O O9 0.454125 0.750000 0.160983
O O10 0.446879 0.987015 0.290955
O O11 0.579841 0.982386 0.114415
O O12 0.370088 0.007693 0.088990
O O13 0.024118 0.750000 0.671223
O O14 0.416755 0.750000 0.416520
O O15 0.500000 0.000000 0.500000
O O16 0.683716 0.750000 0.026885
#
# Coordination Sequence:
#
# PCOD9165199 Si02
#       6
#     4   4   4   4   4   4
#     4   9  19  37  59  83 112 147 185 228 280 332
#     4  11  24  39  58  85 117 149 190 237 284 338
#     4   9  20  39  59  84 117 152 191 235 284 338
#     4   9  20  38  58  82 111 146 188 230 277 335
#     4  10  22  37  57  86 116 148 188 231 279 333
#     4  10  21  38  60  85 114 151 193 234 286 340
#
# _framework density 18.577428999999999
#
# number of rings (size 3 to 8) (size 9 to 14) (size 15 to 20)
#    0.000    2.333    0.000    1.000    4.667    3.333 
#    0.000    0.000    0.000    0.000    0.000    0.000 
#    0.000    0.000    0.000    0.000    0.000    0.000 
#
# Total GULP energy -134009.972377 kJ/mol
# GULP energy per Si atom -5583.748849 kJ/mol
# Density = 1.853515 g / cm^3
# Si number density = 18.577429 Si / 1000 Ang^3
#
#
#
# Elastic Constant Matrix: (Units=GPa)
#
#
# Indices 1 2 3 4 5 6 
#
# 1 190.5363 35.2770 125.3625 0.0000 19.0328 0.0000
# 2 35.2770 17.3441 36.5563 0.0000 3.2325 0.0000
# 3 125.3625 36.5563 190.2333 0.0000 18.3715 0.0000
# 4 0.0000 0.0000 0.0000 27.1977 0.0000 7.8520
# 5 19.0328 3.2325 18.3715 0.0000 17.2565 0.0000
# 6 0.0000 0.0000 0.0000 7.8520 0.0000 32.2701
#
#
#
# Elastic Compliance Matrix: (Units=1/GPa)
#
#
# Indices 1 2 3 4 5 6 
#
# 1 0.010822 -0.011879 -0.004360 0.000000 -0.005070 0.000000
# 2 -0.011879 0.109998 -0.014027 0.000000 0.007430 0.000000
# 3 -0.004360 -0.014027 0.011265 0.000000 -0.004557 0.000000
# 4 0.000000 0.000000 0.000000 0.039546 0.000000 -0.009622
# 5 -0.005070 0.007430 -0.004557 0.000000 0.067001 0.000000
# 6 0.000000 0.000000 0.000000 -0.009622 0.000000 0.033330
#
#
# Mechanical properties :
#
#
# Convention : Reuss Voigt Hill
#
# Bulk Modulus (GPa) = 13.97538 88.05613 51.01576
# Shear Modulus (GPa) = 14.03136 28.73941 21.38538
#
# Velocity S-wave (km/s) = 2.75124 3.93747 3.39654
# Velocity P-wave (km/s) = 4.19899 8.25675 6.55002
#
# Compressibility (1/GPa) = 0.07155438
#
# Stress axis : x y z
#
# Youngs Moduli (GPa) = 92.40036 9.09109 88.76744
#
# Poissons Ratio (x) = 0.10799 0.38700
# Poissons Ratio (y) = 1.09758 1.24518
# Poissons Ratio (z) = 0.40283 0.12753
#
# Static dielectric constant tensor:
#      x y z
#    x 1.609000 0.000000 -0.022320 
#    y 0.000000 1.632060 0.000000 
#    z -0.022320 0.000000 1.628240 
# 
# From -- ./inp_files/33801.got.cif
#   From: 2010.05.17/outbox.cif.g08.bks.cpg/sg11_17_cif.got.tgz:33801.got - 2010.06.03 12:22:45.
