data_PCOD9165498
_publ_section_title
;
Structure prediction by ZEFSAII (Michael W. Deem and Ramdas Pophale) SiO2 
 PCOD9165498
Probable space group: P 21/M
;
_chemical_formula_sum "Si O2"
_cell_formula_units_Z 24
_cell_length_a 9.850631
_cell_length_b 16.740033
_cell_length_c 7.347470
_cell_angle_alpha 90.000000
_cell_angle_beta 53.435863
_cell_angle_gamma 90.000000
_cell_volume 973.143198
_symmetry_space_group_name_H-M "P 21/M"
_symmetry_group_IT_number 11
_symmetry_cell_setting 'monoclinic'
loop_
_space_group_symop_operation_xyz
x,y,z
-x,1/2+y,-z
-x,-y,-z
x,1/2-y,z
loop_
_atom_site_type_symbol
_atom_site_label
_atom_site_fract_x
_atom_site_fract_y
_atom_site_fract_z
Si Si1 0.212314 0.587908 0.529737
Si Si2 0.294072 0.155618 0.795114
Si Si3 0.858313 0.657264 0.708682
Si Si4 0.372452 0.084683 0.382954
Si Si5 0.648418 0.341185 0.921937
Si Si6 0.907735 0.343281 0.013610
O O1 0.287003 0.500977 0.439492
O O2 0.325570 0.644835 0.311799
O O3 0.198262 0.608665 0.752803
O O4 0.019796 0.601678 0.613284
O O5 0.325366 0.250000 0.747212
O O6 0.408493 0.106992 0.563786
O O7 0.278998 0.139170 0.021921
O O8 0.102887 0.135394 0.880929
O O9 0.910458 0.750000 0.690193
O O10 0.765267 0.645258 0.593479
O O11 0.531351 0.097537 0.124687
O O12 0.589791 0.250000 0.002428
O O13 0.830098 0.350772 0.876235
O O14 0.893745 0.250000 0.075545
#
# Coordination Sequence:
#
# PCOD9165498 Si02
#       6
#     4   4   4   4   4   4
#     4  11  23  39  60  86 118 154 193 238 288 343
#     4   9  19  37  59  82 110 148 194 239 283 339
#     4  10  21  39  62  85 113 154 200 237 277 341
#     4  12  24  36  57  91 124 148 182 243 305 341
#     4  11  23  39  59  82 114 157 199 236 281 344
#     4   9  20  39  62  83 107 151 203 238 274 339
#
# _framework density 24.66235
#
# number of rings (size 3 to 8) (size 9 to 14) (size 15 to 20)
#    0.000    1.667    0.000    6.000    0.000    7.333 
#    0.000    1.667    0.000    0.000    0.000    0.000 
#    0.000    0.000    0.000    0.000    0.000    0.000 
#
# Total GULP energy -134362.708401 kJ/mol
# GULP energy per Si atom -5598.446183 kJ/mol
# Density = 2.460622 g / cm^3
# Si number density = 24.662350 Si / 1000 Ang^3
#
#
#
# Elastic Constant Matrix: (Units=GPa)
#
#
# Indices 1 2 3 4 5 6 
#
# 1 50.7384 3.5080 3.6855 0.0000 10.9048 0.0000
# 2 3.5080 27.5945 12.4669 0.0000 6.9684 0.0000
# 3 3.6855 12.4669 99.3397 0.0000 24.8176 0.0000
# 4 0.0000 0.0000 0.0000 16.5281 0.0000 -5.7976
# 5 10.9048 6.9684 24.8176 0.0000 43.4771 0.0000
# 6 0.0000 0.0000 0.0000 -5.7976 0.0000 4.5814
#
#
#
# Elastic Compliance Matrix: (Units=1/GPa)
#
#
# Indices 1 2 3 4 5 6 
#
# 1 0.020934 -0.001644 0.000788 0.000000 -0.005437 0.000000
# 2 -0.001644 0.039144 -0.003950 0.000000 -0.003606 0.000000
# 3 0.000788 -0.003950 0.012158 0.000000 -0.006504 0.000000
# 4 0.000000 0.000000 0.000000 0.108797 0.000000 0.137678
# 5 -0.005437 -0.003606 -0.006504 0.000000 0.028655 0.000000
# 6 0.000000 0.000000 0.000000 0.137678 0.000000 0.392500
#
#
# Mechanical properties :
#
#
# Convention : Reuss Voigt Hill
#
# Bulk Modulus (GPa) = 15.96884 24.11039 20.03961
# Shear Modulus (GPa) = 7.90295 23.45147 15.67721
#
# Velocity S-wave (km/s) = 1.79204 3.08701 2.52399
# Velocity P-wave (km/s) = 3.28191 4.74380 4.07888
#
# Compressibility (1/GPa) = 0.06262197
#
# Stress axis : x y z
#
# Youngs Moduli (GPa) = 47.76946 25.54695 82.25041
#
# Poissons Ratio (x) = 0.04201 -0.06481
# Poissons Ratio (y) = 0.07855 0.32493
# Poissons Ratio (z) = -0.03764 0.10092
#
# Static dielectric constant tensor:
#      x y z
#    x 1.973520 0.000000 -0.033140 
#    y 0.000000 1.870740 0.000000 
#    z -0.033140 0.000000 1.968990 
# 
# From -- ./inp_files/21982.got.cif
#   From: 2010.05.17/outbox.cif.g08.bks.cpg/sg11_11_cif.got.tgz:21982.got - 2010.06.03 12:22:45.
