data_PCOD9165622
_publ_section_title
;
Structure prediction by ZEFSAII (Michael W. Deem and Ramdas Pophale) SiO2 
 PCOD9165622
Probable space group: P 21/M
;
_chemical_formula_sum "Si O2"
_cell_formula_units_Z 26
_cell_length_a 22.630062
_cell_length_b 8.320217
_cell_length_c 8.660648
_cell_angle_alpha 90.000000
_cell_angle_beta 132.101285
_cell_angle_gamma 90.000000
_cell_volume 1209.906329
_symmetry_space_group_name_H-M "P 21/M"
_symmetry_group_IT_number 11
_symmetry_cell_setting 'monoclinic'
loop_
_space_group_symop_operation_xyz
x,y,z
-x,1/2+y,-z
-x,-y,-z
x,1/2-y,z
loop_
_atom_site_type_symbol
_atom_site_label
_atom_site_fract_x
_atom_site_fract_y
_atom_site_fract_z
Si Si1 0.962813 0.750000 0.415050
Si Si2 0.291810 0.426500 0.392346
Si Si3 0.043136 0.750000 0.893607
Si Si4 0.275634 0.925048 0.898225
Si Si5 0.183981 0.439647 0.473045
Si Si6 0.847237 0.000074 0.069154
Si Si7 0.068440 0.750000 0.287724
Si Si8 0.409584 0.055784 0.347899
O O1 0.907716 0.901542 0.280460
O O2 0.988858 0.750000 0.640670
O O3 0.025777 0.750000 0.381804
O O4 0.318365 0.250000 0.492258
O O5 0.246851 0.503641 0.455906
O O6 0.364449 0.501564 0.425505
O O7 0.219322 0.408809 0.144574
O O8 0.099589 0.597576 0.958849
O O9 0.020504 0.750000 0.036812
O O10 0.285758 0.750000 0.840668
O O11 0.236080 0.054848 0.718432
O O12 0.209308 0.906110 0.914444
O O13 0.357073 0.983952 0.117378
O O14 0.160656 0.250000 0.400770
O O15 0.116872 0.579362 0.368170
O O16 0.404215 0.250000 0.335491
O O17 0.500000 0.000000 0.500000
#
# Coordination Sequence:
#
# PCOD9165622 Si02
#       8
#     2   4   2   4   4   4   2   4
#     4  12  28  46  62  96 137 177 235 296 357 426
#     4   9  19  39  67  89 125 174 221 270 326 410
#     4  12  24  44  66  94 129 174 225 284 368 404
#     4  11  22  40  69  96 131 177 231 280 334 411
#     4  11  23  43  69  99 131 176 231 285 344 411
#     4  11  22  43  62  90 125 173 226 278 341 411
#     4  12  26  48  70 100 140 175 238 300 355 420
#     4  10  21  39  65 103 139 174 219 273 338 407
#
# _framework density 21.489267999999999
#
# number of rings (size 3 to 8) (size 9 to 14) (size 15 to 20)
#    0.000    1.231    3.846    2.308    2.154    0.615 
#    5.538    0.769    0.000    0.000    0.000    0.000 
#    0.000    0.000    0.000    0.000    0.000    0.000 
#
# Total GULP energy -144852.931769 kJ/mol
# GULP energy per Si atom -5571.266607 kJ/mol
# Density = 2.144036 g / cm^3
# Si number density = 21.489268 Si / 1000 Ang^3
#
#
#
# Elastic Constant Matrix: (Units=GPa)
#
#
# Indices 1 2 3 4 5 6 
#
# 1 116.0487 24.8727 55.8074 0.0000 5.2684 0.0000
# 2 24.8727 101.2215 26.6352 0.0000 8.7153 0.0000
# 3 55.8074 26.6352 96.3816 0.0000 -2.0398 0.0000
# 4 0.0000 0.0000 0.0000 -21.8999 0.0000 -38.2780
# 5 5.2684 8.7153 -2.0398 0.0000 30.9285 0.0000
# 6 0.0000 0.0000 0.0000 -38.2780 0.0000 -8.6085
#
#
#
# Elastic Compliance Matrix: (Units=1/GPa)
#
#
# Indices 1 2 3 4 5 6 
#
# 1 0.012230 -0.001009 -0.006850 0.000000 -0.002251 0.000000
# 2 -0.001009 0.011063 -0.002539 0.000000 -0.003113 0.000000
# 3 -0.006850 -0.002539 0.015104 0.000000 0.002879 0.000000
# 4 0.000000 0.000000 0.000000 0.006743 0.000000 -0.029982
# 5 -0.002251 -0.003113 0.002879 0.000000 0.033783 0.000000
# 6 0.000000 0.000000 0.000000 -0.029982 0.000000 0.017154
#
#
# Mechanical properties :
#
#
# Convention : Reuss Voigt Hill
#
# Bulk Modulus (GPa) = 56.81389 58.69803 57.75596
# Shear Modulus (GPa) = 40.73630 13.83979 27.28804
#
# Velocity S-wave (km/s) = 4.35864 2.54053 3.56735
# Velocity P-wave (km/s) = 7.19903 5.99834 6.62594
#
# Compressibility (1/GPa) = 0.01760133
#
# Stress axis : x y z
#
# Youngs Moduli (GPa) = 81.76838 90.38809 66.20575
#
# Poissons Ratio (x) = 0.09119 0.45352
# Poissons Ratio (y) = 0.08249 0.16811
# Poissons Ratio (z) = 0.56012 0.22951
#
# Static dielectric constant tensor:
#      x y z
#    x 1.818250 0.000000 -0.047550 
#    y 0.000000 1.674520 0.000000 
#    z -0.047550 0.000000 1.782680 
# 
# From -- ./inp_files/26209.got.cif
#   From: 2010.05.17/outbox.cif.g08.bks.cpg/sg11_14_cif.got.tgz:26209.got - 2010.06.03 12:22:45.
