data_PCOD9165625
_publ_section_title
;
Structure prediction by ZEFSAII (Michael W. Deem and Ramdas Pophale) SiO2 
 PCOD9165625
Probable space group: P 21/M
;
_chemical_formula_sum "Si O2"
_cell_formula_units_Z 30
_cell_length_a 16.512806
_cell_length_b 9.333898
_cell_length_c 12.085682
_cell_angle_alpha 90.000000
_cell_angle_beta 59.929884
_cell_angle_gamma 90.000000
_cell_volume 1612.049769
_symmetry_space_group_name_H-M "P 21/M"
_symmetry_group_IT_number 11
_symmetry_cell_setting 'monoclinic'
loop_
_space_group_symop_operation_xyz
x,y,z
-x,1/2+y,-z
-x,-y,-z
x,1/2-y,z
loop_
_atom_site_type_symbol
_atom_site_label
_atom_site_fract_x
_atom_site_fract_y
_atom_site_fract_z
Si Si1 0.192066 0.913892 0.603207
Si Si2 0.007711 0.080523 0.377520
Si Si3 0.503646 0.921353 0.879708
Si Si4 0.147861 0.509297 0.883098
Si Si5 0.185961 0.583564 0.229592
Si Si6 0.001310 0.250000 0.955507
Si Si7 0.693235 0.082725 0.072391
Si Si8 0.709514 0.920035 0.646006
O O1 0.219548 0.750000 0.559663
O O2 0.088432 0.936162 0.622865
O O3 0.181864 0.935403 0.740290
O O4 0.261276 0.021390 0.493626
O O5 0.025713 0.250000 0.379552
O O6 0.093245 0.002306 0.258066
O O7 0.000000 0.000000 0.500000
O O8 0.495807 0.750000 0.904174
O O9 0.413981 0.963873 0.867772
O O10 0.602007 0.947978 0.751974
O O11 0.500000 0.000000 0.000000
O O12 0.239782 0.491302 0.895234
O O13 0.081418 0.626448 0.986218
O O14 0.083067 0.373245 0.908142
O O15 0.163139 0.750000 0.268985
O O16 0.227020 0.505760 0.309265
O O17 0.261814 0.578555 0.080855
O O18 0.695637 0.250000 0.107652
O O19 0.727142 0.750000 0.642711
#
# Coordination Sequence:
#
# PCOD9165625 Si02
#       8
#     4   4   4   4   4   2   4   4
#     4  11  24  40  62  86 125 167 206 248 306 381
#     4  11  23  36  52  82 119 158 200 244 299 363
#     4  10  21  40  64  93 122 161 206 261 318 371
#     4  11  23  43  63  96 125 166 210 253 313 362
#     4  11  22  35  58  88 120 157 202 248 308 371
#     4  10  24  40  66  88 126 166 210 256 294 368
#     4  10  21  39  65  91 124 158 203 258 313 374
#     4  11  23  39  60  88 122 162 203 255 313 365
#
# _framework density 18.609846999999998
#
# number of rings (size 3 to 8) (size 9 to 14) (size 15 to 20)
#    0.000    1.333    4.000    1.200    4.667    1.067 
#    2.400    0.667    0.000    0.000    0.000    0.000 
#    0.000    0.000    0.000    0.000    0.000    0.000 
#
# Total GULP energy -167057.470238 kJ/mol
# GULP energy per Si atom -5568.582341 kJ/mol
# Density = 1.856749 g / cm^3
# Si number density = 18.609847 Si / 1000 Ang^3
#
#
#
# Elastic Constant Matrix: (Units=GPa)
#
#
# Indices 1 2 3 4 5 6 
#
# 1 106.7185 35.7469 43.2900 0.0000 -13.8491 0.0000
# 2 35.7469 80.5503 21.2629 0.0000 -20.3160 0.0000
# 3 43.2900 21.2629 39.1504 0.0000 -6.9830 0.0000
# 4 0.0000 0.0000 0.0000 5.1691 0.0000 -9.6329
# 5 -13.8491 -20.3160 -6.9830 0.0000 30.6128 0.0000
# 6 0.0000 0.0000 0.0000 -9.6329 0.0000 19.0697
#
#
#
# Elastic Compliance Matrix: (Units=1/GPa)
#
#
# Indices 1 2 3 4 5 6 
#
# 1 0.017769 -0.002615 -0.017828 0.000000 0.002236 0.000000
# 2 -0.002615 0.017134 -0.004792 0.000000 0.009095 0.000000
# 3 -0.017828 -0.004792 0.047797 0.000000 -0.000342 0.000000
# 4 0.000000 0.000000 0.000000 3.299158 0.000000 1.666542
# 5 0.002236 0.009095 -0.000342 0.000000 0.039635 0.000000
# 6 0.000000 0.000000 0.000000 1.666542 0.000000 0.894279
#
#
# Mechanical properties :
#
#
# Convention : Reuss Voigt Hill
#
# Bulk Modulus (GPa) = 31.02748 47.44654 39.23701
# Shear Modulus (GPa) = 1.14234 19.37828 10.26031
#
# Velocity S-wave (km/s) = 0.78433 3.23041 2.35061
# Velocity P-wave (km/s) = 4.18677 6.28210 5.33825
#
# Compressibility (1/GPa) = 0.03222949
#
# Stress axis : x y z
#
# Youngs Moduli (GPa) = 56.27903 58.36396 20.92179
#
# Poissons Ratio (x) = 0.15264 0.37300
# Poissons Ratio (y) = 0.14719 0.10025
# Poissons Ratio (z) = 1.00335 0.27965
#
# Static dielectric constant tensor:
#      x y z
#    x 1.643230 0.000000 -0.000770 
#    y 0.000000 1.637730 0.000000 
#    z -0.000770 0.000000 1.657750 
# 
# From -- ./inp_files/38045.got.cif
#   From: 2010.05.17/outbox.cif.g08.bks.cpg/sg11_20_cif.got.tgz:38045.got - 2010.06.03 12:22:45.
