data_PCOD9165703
_publ_section_title
;
Structure prediction by ZEFSAII (Michael W. Deem and Ramdas Pophale) SiO2 
 PCOD9165703
Probable space group: P 21/M
;
_chemical_formula_sum "Si O2"
_cell_formula_units_Z 32
_cell_length_a 9.776830
_cell_length_b 16.228451
_cell_length_c 12.305097
_cell_angle_alpha 90.000000
_cell_angle_beta 51.402309
_cell_angle_gamma 90.000000
_cell_volume 1525.859352
_symmetry_space_group_name_H-M "P 21/M"
_symmetry_group_IT_number 11
_symmetry_cell_setting 'monoclinic'
loop_
_space_group_symop_operation_xyz
x,y,z
-x,1/2+y,-z
-x,-y,-z
x,1/2-y,z
loop_
_atom_site_type_symbol
_atom_site_label
_atom_site_fract_x
_atom_site_fract_y
_atom_site_fract_z
Si Si1 0.893601 0.083856 0.922938
Si Si2 0.522330 0.149711 0.058071
Si Si3 0.450787 0.157137 0.860812
Si Si4 0.932682 0.887762 0.940047
Si Si5 0.820075 0.846635 0.636770
Si Si6 0.540675 0.844235 0.382921
Si Si7 0.850931 0.380847 0.372813
Si Si8 0.830714 0.577450 0.392566
O O1 0.996038 0.104080 0.760843
O O2 0.894940 0.984814 0.936760
O O3 0.698141 0.117658 0.025567
O O4 0.003049 0.120130 0.969055
O O5 0.520947 0.250000 0.054516
O O6 0.344942 0.123947 0.208080
O O7 0.531268 0.118216 0.928735
O O8 0.523718 0.250000 0.812428
O O9 0.459475 0.116469 0.738174
O O10 0.245973 0.159913 0.989507
O O11 0.075635 0.860528 0.782497
O O12 0.791876 0.750000 0.629747
O O13 0.828945 0.891062 0.516446
O O14 0.999942 0.856487 0.614623
O O15 0.606860 0.750000 0.341432
O O16 0.338993 0.843273 0.516525
O O17 0.664149 0.890611 0.406464
O O18 0.828514 0.479015 0.392651
#
# Coordination Sequence:
#
# PCOD9165703 Si02
#       8
#     4   4   4   4   4   4   4   4
#     4  10  23  40  64  93 123 160 207 254 315 369
#     4  10  23  41  62  92 124 163 208 256 312 369
#     4  10  21  40  62  88 123 161 206 258 308 364
#     4  10  21  42  64  90 122 160 208 257 308 367
#     4  11  24  43  63  91 130 166 209 263 314 375
#     4  11  24  41  64  94 125 167 212 259 318 373
#     4  11  24  42  66  92 126 170 213 257 313 379
#     4  11  24  43  63  93 129 166 210 264 314 373
#
# _framework density 20.971789000000001
#
# number of rings (size 3 to 8) (size 9 to 14) (size 15 to 20)
#    0.000    1.500    2.500    1.500    3.500    3.500 
#    0.000    0.000    0.000    0.000    0.000    0.000 
#    0.000    0.000    0.000    0.000    0.000    0.000 
#
# Total GULP energy -178802.715784 kJ/mol
# GULP energy per Si atom -5587.584868 kJ/mol
# Density = 2.092406 g / cm^3
# Si number density = 20.971789 Si / 1000 Ang^3
#
#
#
# Elastic Constant Matrix: (Units=GPa)
#
#
# Indices 1 2 3 4 5 6 
#
# 1 58.3495 4.0741 6.5215 0.0000 -2.6774 0.0000
# 2 4.0741 27.4172 9.9344 0.0000 5.9113 0.0000
# 3 6.5215 9.9344 90.3553 0.0000 3.7639 0.0000
# 4 0.0000 0.0000 0.0000 23.6782 0.0000 -7.9838
# 5 -2.6774 5.9113 3.7639 0.0000 43.8535 0.0000
# 6 0.0000 0.0000 0.0000 -7.9838 0.0000 20.4793
#
#
#
# Elastic Compliance Matrix: (Units=1/GPa)
#
#
# Indices 1 2 3 4 5 6 
#
# 1 0.017502 -0.002545 -0.001046 0.000000 0.001501 0.000000
# 2 -0.002545 0.039382 -0.003933 0.000000 -0.005126 0.000000
# 3 -0.001046 -0.003933 0.011597 0.000000 -0.000529 0.000000
# 4 0.000000 0.000000 0.000000 0.048624 0.000000 0.018956
# 5 0.001501 -0.005126 -0.000529 0.000000 0.023631 0.000000
# 6 0.000000 0.000000 0.000000 0.018956 0.000000 0.056220
#
#
# Mechanical properties :
#
#
# Convention : Reuss Voigt Hill
#
# Bulk Modulus (GPa) = 18.71505 24.13133 21.42319
# Shear Modulus (GPa) = 21.75659 27.97502 24.86581
#
# Velocity S-wave (km/s) = 3.22440 3.65627 3.44710
# Velocity P-wave (km/s) = 4.77552 5.41811 5.10694
#
# Compressibility (1/GPa) = 0.05343294
#
# Stress axis : x y z
#
# Youngs Moduli (GPa) = 57.13756 25.39232 86.22667
#
# Poissons Ratio (x) = 0.06463 0.09018
# Poissons Ratio (y) = 0.14544 0.33910
# Poissons Ratio (z) = 0.05976 0.09986
#
# Static dielectric constant tensor:
#      x y z
#    x 1.702610 0.000000 0.018390 
#    y 0.000000 1.757990 0.000000 
#    z 0.018390 0.000000 1.760100 
# 
# From -- ./inp_files/32822.got.cif
#   From: 2010.05.17/outbox.cif.g08.bks.cpg/sg11_17_cif.got.tgz:32822.got - 2010.06.03 12:22:45.
