data_PCOD9165406
_publ_section_title
;
Structure prediction by ZEFSAII (Michael W. Deem and Ramdas Pophale) SiO2 
 PCOD9165406
Probable space group: P 21/M
;
_chemical_formula_sum "Si O2"
_cell_formula_units_Z 26
_cell_length_a 10.876315
_cell_length_b 22.197201
_cell_length_c 4.946424
_cell_angle_alpha 90.000000
_cell_angle_beta 75.054134
_cell_angle_gamma 90.000000
_cell_volume 1153.784898
_symmetry_space_group_name_H-M "P 21/M"
_symmetry_group_IT_number 11
_symmetry_cell_setting 'monoclinic'
loop_
_space_group_symop_operation_xyz
x,y,z
-x,1/2+y,-z
-x,-y,-z
x,1/2-y,z
loop_
_atom_site_type_symbol
_atom_site_label
_atom_site_fract_x
_atom_site_fract_y
_atom_site_fract_z
Si Si1 0.068023 0.373000 0.062898
Si Si2 0.457411 0.626218 0.342931
Si Si3 0.585694 0.750000 0.436117
Si Si4 0.183206 0.919627 0.549052
Si Si5 0.591610 0.931996 0.759156
Si Si6 0.212840 0.500239 0.053480
Si Si7 0.199742 0.156771 0.483017
O O1 0.135377 0.438811 0.043738
O O2 0.151340 0.330324 0.211237
O O3 0.929246 0.380056 0.263153
O O4 0.083519 0.348916 0.753706
O O5 0.489715 0.694675 0.405213
O O6 0.307435 0.617406 0.394282
O O7 0.503748 0.577948 0.547044
O O8 0.533351 0.610671 0.025339
O O9 0.691643 0.699380 0.469867
O O10 0.140812 0.958308 0.313089
O O11 0.221780 0.965000 0.767714
O O12 0.726642 0.906610 0.574839
O O13 0.645820 0.989560 0.894090
#
# Coordination Sequence:
#
# PCOD9165406 Si02
#       7
#     4   4   2   4   4   4   4
#     4  11  22  40  60  90 123 154 201 242 284 354
#     4  11  24  39  60  87 122 154 195 251 298 355
#     4  10  22  44  66  86 108 152 202 248 316 344
#     4  12  24  37  58  90 127 163 188 232 299 359
#     4  10  21  39  59  90 120 153 203 244 280 341
#     4  11  21  37  61  86 123 167 198 231 284 347
#     4  10  21  38  66  87 110 148 202 260 286 332
#
# _framework density 22.53453
#
# number of rings (size 3 to 8) (size 9 to 14) (size 15 to 20)
#    0.000    1.231    0.000    9.231    0.000    9.231 
#    0.000    1.538    0.000    0.000    0.000    0.000 
#    0.000    0.000    0.000    0.000    0.000    0.000 
#
# Total GULP energy -144756.681611 kJ/mol
# GULP energy per Si atom -5567.564677 kJ/mol
# Density = 2.248324 g / cm^3
# Si number density = 22.534530 Si / 1000 Ang^3
#
#
#
# Elastic Constant Matrix: (Units=GPa)
#
#
# Indices 1 2 3 4 5 6 
#
# 1 48.1016 7.4697 12.6019 0.0000 -15.1140 0.0000
# 2 7.4697 68.1871 19.3507 0.0000 -5.5084 0.0000
# 3 12.6019 19.3507 118.4720 0.0000 2.4798 0.0000
# 4 0.0000 0.0000 0.0000 -5.4405 0.0000 -0.2213
# 5 -15.1140 -5.5084 2.4798 0.0000 35.8421 0.0000
# 6 0.0000 0.0000 0.0000 -0.2213 0.0000 19.0060
#
#
#
# Elastic Compliance Matrix: (Units=1/GPa)
#
#
# Indices 1 2 3 4 5 6 
#
# 1 0.024984 -0.001120 -0.002696 0.000000 0.010550 0.000000
# 2 -0.001120 0.015663 -0.002483 0.000000 0.002107 0.000000
# 3 -0.002696 -0.002483 0.009178 0.000000 -0.002153 0.000000
# 4 0.000000 0.000000 0.000000 -0.183718 0.000000 -0.002139
# 5 0.010550 0.002107 -0.002153 0.000000 0.032822 0.000000
# 6 0.000000 0.000000 0.000000 -0.002139 0.000000 0.052590
#
#
# Mechanical properties :
#
#
# Convention : Reuss Voigt Hill
#
# Bulk Modulus (GPa) = 26.86120 34.84503 30.85312
# Shear Modulus (GPa) = -212.99791 22.90406 -95.04692
#
# Velocity S-wave (km/s) = -9.73272 3.19156 -6.50153
# Velocity P-wave (km/s) = 10.69370 5.39239 6.52983
#
# Compressibility (1/GPa) = 0.03722842
#
# Stress axis : x y z
#
# Youngs Moduli (GPa) = 40.02517 63.84412 108.95343
#
# Poissons Ratio (x) = 0.07149 0.29369
# Poissons Ratio (y) = 0.04482 0.27057
# Poissons Ratio (z) = 0.10789 0.15855
#
# Static dielectric constant tensor:
#      x y z
#    x 1.852670 0.000000 0.012220 
#    y 0.000000 2.154950 0.000000 
#    z 0.012220 0.000000 1.837190 
# 
# From -- ./inp_files/5004.got.cif
#   From: 2010.05.17/outbox.cif.g08.bks.cpg/sg11_3_cif.got.tgz:5004.got - 2010.06.03 12:22:45.
