data_PCOD9165244
_publ_section_title
;
Structure prediction by ZEFSAII (Michael W. Deem and Ramdas Pophale) SiO2 
 PCOD9165244
Probable space group: P 21/M
;
_chemical_formula_sum "Si O2"
_cell_formula_units_Z 24
_cell_length_a 12.047928
_cell_length_b 16.870993
_cell_length_c 4.936295
_cell_angle_alpha 90.000000
_cell_angle_beta 96.906263
_cell_angle_gamma 90.000000
_cell_volume 996.073703
_symmetry_space_group_name_H-M "P 21/M"
_symmetry_group_IT_number 11
_symmetry_cell_setting 'monoclinic'
loop_
_space_group_symop_operation_xyz
x,y,z
-x,1/2+y,-z
-x,-y,-z
x,1/2-y,z
loop_
_atom_site_type_symbol
_atom_site_label
_atom_site_fract_x
_atom_site_fract_y
_atom_site_fract_z
Si Si1 0.847326 0.511283 0.905008
Si Si2 0.903301 0.663446 0.230405
Si Si3 0.654535 0.127923 0.500852
Si Si4 0.888881 0.098007 0.425653
Si Si5 0.528326 0.750000 0.762130
Si Si6 0.377359 0.531389 0.997161
Si Si7 0.690152 0.750000 0.318066
O O1 0.902116 0.591160 0.023467
O O2 0.871568 0.439068 0.123831
O O3 0.714231 0.524501 0.892279
O O4 0.883626 0.477917 0.627561
O O5 0.930282 0.750000 0.115145
O O6 0.996503 0.643207 0.480819
O O7 0.777344 0.676925 0.307448
O O8 0.783042 0.152793 0.487772
O O9 0.555281 0.178079 0.338831
O O10 0.656072 0.049012 0.319627
O O11 0.629532 0.107869 0.804878
O O12 0.588141 0.750000 0.071701
O O13 0.632491 0.750000 0.589550
O O14 0.500000 0.500000 0.000000
#
# Coordination Sequence:
#
# PCOD9165244 Si02
#       7
#     4   4   4   4   2   4   2
#     4  10  22  40  66  93 128 162 208 260 318 363
#     4  10  24  44  65  95 128 167 208 258 311 381
#     4  10  23  38  66  91 121 165 204 260 308 359
#     4  10  22  44  66  96 120 165 214 260 313 363
#     4  12  24  43  62  89 136 160 208 250 322 368
#     4  10  21  38  60  94 123 162 211 249 302 372
#     4  10  28  41  60  97 128 172 198 252 318 384
#
# _framework density 24.094601999999998
#
# number of rings (size 3 to 8) (size 9 to 14) (size 15 to 20)
#    0.500    1.333    0.000    2.500    5.833    2.667 
#    0.000    0.000    0.000    0.000    0.000    0.000 
#    0.000    0.000    0.000    0.000    0.000    0.000 
#
# Total GULP energy -134012.801093 kJ/mol
# GULP energy per Si atom -5583.866712 kJ/mol
# Density = 2.403976 g / cm^3
# Si number density = 24.094602 Si / 1000 Ang^3
#
#
#
# Elastic Constant Matrix: (Units=GPa)
#
#
# Indices 1 2 3 4 5 6 
#
# 1 159.9582 34.0314 18.6515 0.0000 6.6941 0.0000
# 2 34.0314 51.7612 2.0755 0.0000 1.0328 0.0000
# 3 18.6515 2.0755 98.4858 0.0000 -4.2561 0.0000
# 4 0.0000 0.0000 0.0000 8.9262 0.0000 14.7922
# 5 6.6941 1.0328 -4.2561 0.0000 40.4620 0.0000
# 6 0.0000 0.0000 0.0000 14.7922 0.0000 35.0714
#
#
#
# Elastic Compliance Matrix: (Units=1/GPa)
#
#
# Indices 1 2 3 4 5 6 
#
# 1 0.007496 -0.004848 -0.001372 0.000000 -0.001261 0.000000
# 2 -0.004848 0.022483 0.000456 0.000000 0.000276 0.000000
# 3 -0.001372 0.000456 0.010461 0.000000 0.001316 0.000000
# 4 0.000000 0.000000 0.000000 0.372125 0.000000 -0.156952
# 5 -0.001261 0.000276 0.001316 0.000000 0.025054 0.000000
# 6 0.000000 0.000000 0.000000 -0.156952 0.000000 0.094712
#
#
# Mechanical properties :
#
#
# Convention : Reuss Voigt Hill
#
# Bulk Modulus (GPa) = 34.58729 46.63579 40.61154
# Shear Modulus (GPa) = 9.03349 33.92171 21.47760
#
# Velocity S-wave (km/s) = 1.93838 3.75621 2.98885
# Velocity P-wave (km/s) = 4.40406 6.18138 5.36680
#
# Compressibility (1/GPa) = 0.02891235
#
# Stress axis : x y z
#
# Youngs Moduli (GPa) = 133.40805 44.47768 95.59495
#
# Poissons Ratio (x) = 0.21563 0.13115
# Poissons Ratio (y) = 0.64678 -0.04362
# Poissons Ratio (z) = 0.18302 -0.02029
#
# Static dielectric constant tensor:
#      x y z
#    x 2.062570 0.000000 0.032410 
#    y 0.000000 1.971780 0.000000 
#    z 0.032410 0.000000 1.860040 
# 
# From -- ./inp_files/4661.got.cif
#   From: 2010.05.17/outbox.cif.g08.bks.cpg/sg11_3_cif.got.tgz:4661.got - 2010.06.03 12:22:45.
