data_PCOD9165156
_publ_section_title
;
Structure prediction by ZEFSAII (Michael W. Deem and Ramdas Pophale) SiO2 
 PCOD9165156
Probable space group: P 21/M
;
_chemical_formula_sum "Si O2"
_cell_formula_units_Z 20
_cell_length_a 17.846671
_cell_length_b 10.134482
_cell_length_c 8.612780
_cell_angle_alpha 90.000000
_cell_angle_beta 36.996448
_cell_angle_gamma 90.000000
_cell_volume 937.409652
_symmetry_space_group_name_H-M "P 21/M"
_symmetry_group_IT_number 11
_symmetry_cell_setting 'monoclinic'
loop_
_space_group_symop_operation_xyz
x,y,z
-x,1/2+y,-z
-x,-y,-z
x,1/2-y,z
loop_
_atom_site_type_symbol
_atom_site_label
_atom_site_fract_x
_atom_site_fract_y
_atom_site_fract_z
Si Si1 0.731540 0.897914 0.402563
Si Si2 0.824658 0.398237 0.736458
Si Si3 0.541712 0.100577 0.564370
Si Si4 0.375841 0.466696 0.109088
Si Si5 0.910677 0.901301 0.845340
O O1 0.684049 0.750000 0.434610
O O2 0.717379 0.903442 0.611371
O O3 0.651588 0.019728 0.468262
O O4 0.864690 0.911973 0.098554
O O5 0.836203 0.250000 0.777066
O O6 0.700127 0.414549 0.842825
O O7 0.833798 0.500779 0.862219
O O8 0.944247 0.425739 0.428579
O O9 0.575009 0.250000 0.459679
O O10 0.500000 0.000000 0.500000
O O11 0.429149 0.110857 0.874158
O O12 0.500000 0.500000 0.000000
O O13 0.885781 0.750000 0.838150
#
# Coordination Sequence:
#
# PCOD9165156 Si02
#       5
#     4   4   4   4   4
#     4  10  21  38  59  84 117 153 192 240 294 349
#     4  10  21  39  63  89 119 156 198 242 290 350
#     4  11  23  38  58  84 115 153 198 244 291 346
#     4  10  23  38  57  85 119 155 195 241 291 344
#     4   9  20  39  63  91 119 151 195 246 295 344
#
# _framework density 21.335387999999998
#
# number of rings (size 3 to 8) (size 9 to 14) (size 15 to 20)
#    0.000    2.000    0.000    2.400    0.000   13.600 
#    0.000    0.000    0.000    0.000    0.000    0.000 
#    0.000    0.000    0.000    0.000    0.000    0.000 
#
# Total GULP energy -111452.882456 kJ/mol
# GULP energy per Si atom -5572.644123 kJ/mol
# Density = 2.128683 g / cm^3
# Si number density = 21.335388 Si / 1000 Ang^3
#
#
#
# Elastic Constant Matrix: (Units=GPa)
#
#
# Indices 1 2 3 4 5 6 
#
# 1 56.5842 29.2302 14.5637 0.0000 -2.0258 0.0000
# 2 29.2302 129.1670 29.1707 0.0000 6.1220 0.0000
# 3 14.5637 29.1707 144.6897 0.0000 25.4195 0.0000
# 4 0.0000 0.0000 0.0000 18.4658 0.0000 -4.5625
# 5 -2.0258 6.1220 25.4195 0.0000 25.0758 0.0000
# 6 0.0000 0.0000 0.0000 -4.5625 0.0000 21.2499
#
#
#
# Elastic Compliance Matrix: (Units=1/GPa)
#
#
# Indices 1 2 3 4 5 6 
#
# 1 0.020664 -0.004446 -0.002029 0.000000 0.004812 0.000000
# 2 -0.004446 0.009071 -0.001130 0.000000 -0.001428 0.000000
# 3 -0.002029 -0.001130 0.008911 0.000000 -0.008921 0.000000
# 4 0.000000 0.000000 0.000000 0.057188 0.000000 0.012279
# 5 0.004812 -0.001428 -0.008921 0.000000 0.049660 0.000000
# 6 0.000000 0.000000 0.000000 0.012279 0.000000 0.049695
#
#
# Mechanical properties :
#
#
# Convention : Reuss Voigt Hill
#
# Bulk Modulus (GPa) = 42.67129 52.93001 47.80065
# Shear Modulus (GPa) = 22.91361 30.12337 26.51849
#
# Velocity S-wave (km/s) = 3.28071 3.76160 3.52935
# Velocity P-wave (km/s) = 5.86467 6.61276 6.24992
#
# Compressibility (1/GPa) = 0.02343496
#
# Stress axis : x y z
#
# Youngs Moduli (GPa) = 48.39340 110.24116 112.22469
#
# Poissons Ratio (x) = 0.49014 0.22769
# Poissons Ratio (y) = 0.21516 0.12686
# Poissons Ratio (z) = 0.09818 0.12462
#
# Static dielectric constant tensor:
#      x y z
#    x 1.779180 0.000000 -0.017270 
#    y 0.000000 1.768570 0.000000 
#    z -0.017270 0.000000 1.853310 
# 
# From -- ./inp_files/24189.got.cif
#   From: 2010.05.17/outbox.cif.g08.bks.cpg/sg11_13_cif.got.tgz:24189.got - 2010.06.03 12:22:45.
