data_PCOD9165742
_publ_section_title
;
Structure prediction by ZEFSAII (Michael W. Deem and Ramdas Pophale) SiO2 
 PCOD9165742
Probable space group: P 21/M
;
_chemical_formula_sum "Si O2"
_cell_formula_units_Z 26
_cell_length_a 7.464631
_cell_length_b 13.190349
_cell_length_c 16.592638
_cell_angle_alpha 90.000000
_cell_angle_beta 137.673217
_cell_angle_gamma 90.000000
_cell_volume 1100.084917
_symmetry_space_group_name_H-M "P 21/M"
_symmetry_group_IT_number 11
_symmetry_cell_setting 'monoclinic'
loop_
_space_group_symop_operation_xyz
x,y,z
-x,1/2+y,-z
-x,-y,-z
x,1/2-y,z
loop_
_atom_site_type_symbol
_atom_site_label
_atom_site_fract_x
_atom_site_fract_y
_atom_site_fract_z
Si Si1 0.857052 0.250000 0.224378
Si Si2 0.078001 0.951616 0.659792
Si Si3 0.363892 0.070723 0.888576
Si Si4 0.472115 0.428208 0.298926
Si Si5 0.693755 0.750000 0.873572
Si Si6 0.231850 0.750000 0.993753
Si Si7 0.332736 0.635120 0.475974
Si Si8 0.765100 0.136412 0.737528
O O1 0.971006 0.347016 0.309671
O O2 0.532910 0.250000 0.133203
O O3 0.889597 0.250000 0.138678
O O4 0.216959 0.929852 0.621395
O O5 0.299046 0.004467 0.789411
O O6 0.854831 0.036628 0.579564
O O7 0.079344 0.116647 0.823317
O O8 0.576327 0.154773 0.937567
O O9 0.500000 0.000000 0.000000
O O10 0.353553 0.349356 0.196404
O O11 0.453967 0.384802 0.383236
O O12 0.342379 0.538879 0.251380
O O13 0.008977 0.750000 0.988822
O O14 0.221397 0.750000 0.453318
O O15 0.393985 0.634644 0.401170
O O16 0.728821 0.250000 0.757998
#
# Coordination Sequence:
#
# PCOD9165742 Si02
#       8
#     2   4   4   4   2   2   4   4
#     4  10  22  44  60  93 132 161 218 270 304 381
#     4  10  23  39  63  91 125 163 210 264 314 381
#     4  11  21  40  63  89 116 163 215 252 315 384
#     4  11  21  42  61  90 129 162 204 268 319 372
#     4  10  24  40  65  97 122 165 223 266 308 384
#     4  12  22  42  67  88 124 176 209 258 336 365
#     4  10  21  40  64  88 124 167 209 255 318 382
#     4  10  22  39  57  90 127 157 208 263 311 382
#
# _framework density 23.634537999999999
#
# number of rings (size 3 to 8) (size 9 to 14) (size 15 to 20)
#    0.000    1.538    3.077    1.846    3.231    0.615 
#    4.154    2.308    0.000    0.000    0.000    0.000 
#    0.000    0.000    0.000    0.000    0.000    0.000 
#
# Total GULP energy -145310.083724 kJ/mol
# GULP energy per Si atom -5588.849374 kJ/mol
# Density = 2.358074 g / cm^3
# Si number density = 23.634538 Si / 1000 Ang^3
#
#
#
# Elastic Constant Matrix: (Units=GPa)
#
#
# Indices 1 2 3 4 5 6 
#
# 1 89.3891 26.0010 4.0619 0.0000 9.6904 0.0000
# 2 26.0010 182.1076 12.7533 0.0000 4.6250 0.0000
# 3 4.0619 12.7533 54.8728 0.0000 -13.5266 0.0000
# 4 0.0000 0.0000 0.0000 -31.8797 0.0000 41.2802
# 5 9.6904 4.6250 -13.5266 0.0000 27.9878 0.0000
# 6 0.0000 0.0000 0.0000 41.2802 0.0000 7.2586
#
#
#
# Elastic Compliance Matrix: (Units=1/GPa)
#
#
# Indices 1 2 3 4 5 6 
#
# 1 0.012226 -0.001501 -0.001747 0.000000 -0.004829 0.000000
# 2 -0.001501 0.005844 -0.001541 0.000000 -0.001191 0.000000
# 3 -0.001747 -0.001541 0.021483 0.000000 0.011242 0.000000
# 4 0.000000 0.000000 0.000000 -0.003750 0.000000 0.021328
# 5 -0.004829 -0.001191 0.011242 0.000000 0.043032 0.000000
# 6 0.000000 0.000000 0.000000 0.021328 0.000000 0.016471
#
#
# Mechanical properties :
#
#
# Convention : Reuss Voigt Hill
#
# Bulk Modulus (GPa) = 33.35931 45.77798 39.56864
# Shear Modulus (GPa) = 43.52593 19.57690 31.55142
#
# Velocity S-wave (km/s) = 4.29607 2.88117 3.65769
# Velocity P-wave (km/s) = 6.22524 5.52081 5.88358
#
# Compressibility (1/GPa) = 0.02997664
#
# Stress axis : x y z
#
# Youngs Moduli (GPa) = 81.78971 171.12586 46.54936
#
# Poissons Ratio (x) = 0.25681 0.08131
# Poissons Ratio (y) = 0.12274 0.07171
# Poissons Ratio (z) = 0.14287 0.26363
#
# Static dielectric constant tensor:
#      x y z
#    x 1.969810 0.000000 0.026200 
#    y 0.000000 1.812050 0.000000 
#    z 0.026200 0.000000 1.928120 
# 
# From -- ./inp_files/22433.got.cif
#   From: 2010.05.17/outbox.cif.g08.bks.cpg/sg11_12_cif.got.tgz:22433.got - 2010.06.03 12:22:45.
