data_PCOD9165280
_publ_section_title
;
Structure prediction by ZEFSAII (Michael W. Deem and Ramdas Pophale) SiO2 
 PCOD9165280
Probable space group: P 21/M
;
_chemical_formula_sum "Si O2"
_cell_formula_units_Z 32
_cell_length_a 11.975290
_cell_length_b 13.675068
_cell_length_c 15.092687
_cell_angle_alpha 90.000000
_cell_angle_beta 40.000454
_cell_angle_gamma 90.000000
_cell_volume 1588.743173
_symmetry_space_group_name_H-M "P 21/M"
_symmetry_group_IT_number 11
_symmetry_cell_setting 'monoclinic'
loop_
_space_group_symop_operation_xyz
x,y,z
-x,1/2+y,-z
-x,-y,-z
x,1/2-y,z
loop_
_atom_site_type_symbol
_atom_site_label
_atom_site_fract_x
_atom_site_fract_y
_atom_site_fract_z
Si Si1 0.170280 0.366822 0.634796
Si Si2 0.927326 0.535746 0.837594
Si Si3 0.830237 0.367987 0.161780
Si Si4 0.535853 0.132966 0.479188
Si Si5 0.713695 0.866978 0.638126
Si Si6 0.995485 0.367817 0.398404
Si Si7 0.391297 0.633052 0.369129
Si Si8 0.358954 0.983628 0.868871
O O1 0.143280 0.250000 0.660792
O O2 0.339763 0.399482 0.586746
O O3 0.217969 0.386311 0.503114
O O4 0.014592 0.431007 0.765514
O O5 0.960261 0.593913 0.726551
O O6 0.019894 0.592102 0.863856
O O7 0.729666 0.517094 0.986310
O O8 0.847275 0.250000 0.137842
O O9 0.654038 0.389096 0.323988
O O10 0.792618 0.428733 0.095418
O O11 0.528570 0.250000 0.485732
O O12 0.615882 0.103673 0.523302
O O13 0.694701 0.750000 0.655360
O O14 0.858080 0.898611 0.621169
O O15 0.526378 0.913373 0.771125
O O16 0.994444 0.250000 0.394366
O O17 0.800268 0.394751 0.549029
O O18 0.411752 0.750000 0.349116
O O19 0.556052 0.578616 0.228677
#
# Coordination Sequence:
#
# PCOD9165280 Si02
#       8
#     4   4   4   4   4   4   4   4
#     4  10  21  38  61  90 120 155 202 254 299 349
#     4  12  25  38  59  92 126 164 197 239 300 368
#     4  11  22  39  62  89 123 161 202 245 296 356
#     4   9  17  33  60  87 111 145 197 248 291 339
#     4  10  22  42  66  89 115 154 205 256 302 350
#     4  10  22  42  66  89 115 154 205 256 302 350
#     4  10  21  38  61  90 120 155 202 254 299 349
#     4  12  25  38  59  92 126 164 197 239 300 368
#
# _framework density 20.141707
#
# number of rings (size 3 to 8) (size 9 to 14) (size 15 to 20)
#    0.000    1.500    2.500    2.625    0.000    5.500 
#    0.000    1.250    0.000    3.000    0.000    0.000 
#    0.000    0.000    0.000    0.000    0.000    0.000 
#
# Total GULP energy -178738.405859 kJ/mol
# GULP energy per Si atom -5585.575183 kJ/mol
# Density = 2.009586 g / cm^3
# Si number density = 20.141707 Si / 1000 Ang^3
#
#
#
# Elastic Constant Matrix: (Units=GPa)
#
#
# Indices 1 2 3 4 5 6 
#
# 1 99.0104 27.3139 10.4213 0.0000 -4.0180 0.0000
# 2 27.3139 110.0605 19.9039 0.0000 -1.0786 0.0000
# 3 10.4213 19.9039 82.1981 0.0000 -1.8281 0.0000
# 4 0.0000 0.0000 0.0000 9.2963 0.0000 -9.8370
# 5 -4.0180 -1.0786 -1.8281 0.0000 8.8487 0.0000
# 6 0.0000 0.0000 0.0000 -9.8370 0.0000 21.0397
#
#
#
# Elastic Compliance Matrix: (Units=1/GPa)
#
#
# Indices 1 2 3 4 5 6 
#
# 1 0.011068 -0.002580 -0.000677 0.000000 0.004572 0.000000
# 2 -0.002580 0.010107 -0.002129 0.000000 -0.000379 0.000000
# 3 -0.000677 -0.002129 0.012813 0.000000 0.002080 0.000000
# 4 0.000000 0.000000 0.000000 0.212899 0.000000 0.099539
# 5 0.004572 -0.000379 0.002080 0.000000 0.115470 0.000000
# 6 0.000000 0.000000 0.000000 0.099539 0.000000 0.094068
#
#
# Mechanical properties :
#
#
# Convention : Reuss Voigt Hill
#
# Bulk Modulus (GPa) = 43.06966 45.17193 44.12080
# Shear Modulus (GPa) = 10.52772 23.41226 16.96999
#
# Velocity S-wave (km/s) = 2.28871 3.41306 2.90579
# Velocity P-wave (km/s) = 5.33048 6.16504 5.76289
#
# Compressibility (1/GPa) = 0.02321820
#
# Stress axis : x y z
#
# Youngs Moduli (GPa) = 90.34764 98.93767 78.04379
#
# Poissons Ratio (x) = 0.25522 0.05283
# Poissons Ratio (y) = 0.23306 0.16614
# Poissons Ratio (z) = 0.06116 0.21062
#
# Static dielectric constant tensor:
#      x y z
#    x 1.725860 0.000000 -0.007710 
#    y 0.000000 1.750080 0.000000 
#    z -0.007710 0.000000 1.653940 
# 
# From -- ./inp_files/50363.got.cif
#   From: 2010.05.17/outbox.cif.g08.bks.cpg/sg11_26_cif.got.tgz:50363.got - 2010.06.03 12:22:45.
