data_PCOD9165015
_publ_section_title
;
Structure prediction by ZEFSAII (Michael W. Deem and Ramdas Pophale) SiO2 
 PCOD9165015
Probable space group: P 21/M
;
_chemical_formula_sum "Si O2"
_cell_formula_units_Z 32
_cell_length_a 14.601870
_cell_length_b 14.389866
_cell_length_c 20.559471
_cell_angle_alpha 90.000000
_cell_angle_beta 21.973348
_cell_angle_gamma 90.000000
_cell_volume 1616.412617
_symmetry_space_group_name_H-M "P 21/M"
_symmetry_group_IT_number 11
_symmetry_cell_setting 'monoclinic'
loop_
_space_group_symop_operation_xyz
x,y,z
-x,1/2+y,-z
-x,-y,-z
x,1/2-y,z
loop_
_atom_site_type_symbol
_atom_site_label
_atom_site_fract_x
_atom_site_fract_y
_atom_site_fract_z
Si Si1 0.386053 0.529325 0.368705
Si Si2 0.994440 0.357363 0.814659
Si Si3 0.544987 0.140307 0.016582
Si Si4 0.627300 0.354885 0.744825
Si Si5 0.170785 0.523834 0.280525
Si Si6 0.899135 0.485170 0.995123
Si Si7 0.676312 0.012075 0.446170
Si Si8 0.936869 0.857069 0.869203
O O1 0.383739 0.620551 0.324409
O O2 0.606717 0.470941 0.192129
O O3 0.448626 0.537737 0.403752
O O4 0.115477 0.487417 0.543939
O O5 0.058528 0.250000 0.775688
O O6 0.179392 0.414595 0.647277
O O7 0.725559 0.367264 0.959905
O O8 0.001388 0.405843 0.880523
O O9 0.493697 0.250000 0.039048
O O10 0.308647 0.075258 0.182759
O O11 0.697589 0.094120 0.856855
O O12 0.715287 0.250000 0.696664
O O13 0.784961 0.431087 0.678170
O O14 0.352319 0.361820 0.955828
O O15 0.956247 0.581972 0.921218
O O16 0.000000 0.500000 0.000000
O O17 0.884388 0.090048 0.297419
O O18 0.500000 0.000000 0.500000
O O19 0.003925 0.750000 0.832607
#
# Coordination Sequence:
#
# PCOD9165015 Si02
#       8
#     4   4   4   4   4   4   4   4
#     4  11  22  37  60  91 123 156 198 254 306 352
#     4  10  21  41  62  85 117 162 208 247 297 367
#     4  10  21  37  61  89 121 164 208 246 300 372
#     4  10  22  39  60  89 124 163 199 242 301 370
#     4  11  21  37  61  88 127 164 199 249 307 363
#     4  10  21  40  62  85 116 159 202 248 306 363
#     4  11  22  39  61  87 120 155 200 258 312 355
#     4   9  20  38  60  81 113 155 200 240 293 362
#
# _framework density 19.796925000000002
#
# number of rings (size 3 to 8) (size 9 to 14) (size 15 to 20)
#    0.000    1.750    1.250    4.500    1.750    2.000 
#    0.000    5.625    0.000    0.750    0.000    0.000 
#    0.000    0.000    0.000    0.000    0.000    0.000 
#
# Total GULP energy -178545.612836 kJ/mol
# GULP energy per Si atom -5579.550401 kJ/mol
# Density = 1.975187 g / cm^3
# Si number density = 19.796925 Si / 1000 Ang^3
#
#
#
# Elastic Constant Matrix: (Units=GPa)
#
#
# Indices 1 2 3 4 5 6 
#
# 1 70.0204 34.5162 12.5509 0.0000 11.0482 0.0000
# 2 34.5162 140.9779 38.6175 0.0000 0.4262 0.0000
# 3 12.5509 38.6175 76.9587 0.0000 8.4420 0.0000
# 4 0.0000 0.0000 0.0000 12.2126 0.0000 -3.5511
# 5 11.0482 0.4262 8.4420 0.0000 29.1885 0.0000
# 6 0.0000 0.0000 0.0000 -3.5511 0.0000 9.0944
#
#
#
# Elastic Compliance Matrix: (Units=1/GPa)
#
#
# Indices 1 2 3 4 5 6 
#
# 1 0.017402 -0.004243 0.000007 0.000000 -0.006527 0.000000
# 2 -0.004243 0.009293 -0.004268 0.000000 0.002705 0.000000
# 3 0.000007 -0.004268 0.015624 0.000000 -0.004459 0.000000
# 4 0.000000 0.000000 0.000000 0.092370 0.000000 0.036068
# 5 -0.006527 0.002705 -0.004459 0.000000 0.037981 0.000000
# 6 0.000000 0.000000 0.000000 0.036068 0.000000 0.124042
#
#
# Mechanical properties :
#
#
# Convention : Reuss Voigt Hill
#
# Bulk Modulus (GPa) = 39.50879 51.03626 45.27253
# Shear Modulus (GPa) = 15.52050 23.58391 19.55221
#
# Velocity S-wave (km/s) = 2.80301 3.45525 3.14608
# Velocity P-wave (km/s) = 5.52052 6.46175 6.00959
#
# Compressibility (1/GPa) = 0.02531082
#
# Stress axis : x y z
#
# Youngs Moduli (GPa) = 57.46624 107.60809 64.00565
#
# Poissons Ratio (x) = 0.45654 -0.00044
# Poissons Ratio (y) = 0.24381 0.27317
# Poissons Ratio (z) = -0.00040 0.45926
#
# Static dielectric constant tensor:
#      x y z
#    x 1.742730 0.000000 -0.004660 
#    y 0.000000 1.667250 0.000000 
#    z -0.004660 0.000000 1.719340 
# 
# From -- ./inp_files/47662.got.cif
#   From: 2010.05.17/outbox.cif.g08.bks.cpg/sg11_24_cif.got.tgz:47662.got - 2010.06.03 12:22:45.
