data_PCOD9165100
_publ_section_title
;
Structure prediction by ZEFSAII (Michael W. Deem and Ramdas Pophale) SiO2 
 PCOD9165100
Probable space group: P 21/M
;
_chemical_formula_sum "Si O2"
_cell_formula_units_Z 32
_cell_length_a 8.215899
_cell_length_b 30.024002
_cell_length_c 10.834820
_cell_angle_alpha 90.000000
_cell_angle_beta 37.140798
_cell_angle_gamma 90.000000
_cell_volume 1613.693492
_symmetry_space_group_name_H-M "P 21/M"
_symmetry_group_IT_number 11
_symmetry_cell_setting 'monoclinic'
loop_
_space_group_symop_operation_xyz
x,y,z
-x,1/2+y,-z
-x,-y,-z
x,1/2-y,z
loop_
_atom_site_type_symbol
_atom_site_label
_atom_site_fract_x
_atom_site_fract_y
_atom_site_fract_z
Si Si1 0.731751 0.365341 0.423362
Si Si2 0.533858 0.097975 0.308004
Si Si3 0.236198 0.510099 0.952402
Si Si4 0.304901 0.841109 0.989205
Si Si5 0.406829 0.922310 0.260481
Si Si6 0.691845 0.836249 0.969932
Si Si7 0.756610 0.801621 0.207176
Si Si8 0.969579 0.428100 0.726647
O O1 0.754222 0.386007 0.273132
O O2 0.666689 0.403639 0.561286
O O3 0.480474 0.331271 0.587481
O O4 0.019829 0.342291 0.270672
O O5 0.610161 0.053451 0.190377
O O6 0.498245 0.139425 0.236430
O O7 0.278771 0.084564 0.542649
O O8 0.425307 0.467487 0.844047
O O9 0.107680 0.526456 0.158433
O O10 0.000000 0.500000 0.000000
O O11 0.474029 0.819609 0.999524
O O12 0.176224 0.886457 0.120932
O O13 0.052906 0.815232 0.080342
O O14 0.133416 0.929666 0.350262
O O15 0.577852 0.884002 0.086668
O O16 0.733184 0.809404 0.072829
O O17 0.711130 0.750000 0.261761
#
# Coordination Sequence:
#
# PCOD9165100 Si02
#       8
#     4   4   4   4   4   4   4   4
#     4  11  21  39  64  89 122 160 204 246 302 366
#     4  11  21  36  62  86 118 164 205 249 297 362
#     4  11  23  34  53  85 122 159 211 257 297 347
#     4  10  21  41  65  89 120 160 200 244 303 365
#     4  10  22  37  57  86 122 163 205 253 299 349
#     4  10  22  41  66  89 122 161 200 246 303 365
#     4  11  24  42  65  92 120 152 194 250 307 367
#     4  10  21  38  57  83 120 161 208 252 297 355
#
# _framework density 19.830285
#
# number of rings (size 3 to 8) (size 9 to 14) (size 15 to 20)
#    0.000    1.500    2.500    2.625    3.500    4.500 
#    0.000    0.000    0.000    0.000    0.000    0.000 
#    0.000    0.000    0.000    0.000    0.000    0.000 
#
# Total GULP energy -178528.124473 kJ/mol
# GULP energy per Si atom -5579.003890 kJ/mol
# Density = 1.978515 g / cm^3
# Si number density = 19.830285 Si / 1000 Ang^3
#
#
#
# Elastic Constant Matrix: (Units=GPa)
#
#
# Indices 1 2 3 4 5 6 
#
# 1 107.8327 18.3639 -6.0181 0.0000 -0.8555 0.0000
# 2 18.3639 52.0388 -14.6411 0.0000 5.6435 0.0000
# 3 -6.0181 -14.6411 44.2089 0.0000 -0.0868 0.0000
# 4 0.0000 0.0000 0.0000 8.1751 0.0000 -2.0902
# 5 -0.8555 5.6435 -0.0868 0.0000 29.7797 0.0000
# 6 0.0000 0.0000 0.0000 -2.0902 0.0000 11.1989
#
#
#
# Elastic Compliance Matrix: (Units=1/GPa)
#
#
# Indices 1 2 3 4 5 6 
#
# 1 0.009895 -0.003547 0.000174 0.000000 0.000957 0.000000
# 2 -0.003547 0.022948 0.007109 0.000000 -0.004430 0.000000
# 3 0.000174 0.007109 0.024995 0.000000 -0.001269 0.000000
# 4 0.000000 0.000000 0.000000 0.128452 0.000000 0.023974
# 5 0.000957 -0.004430 -0.001269 0.000000 0.034443 0.000000
# 6 0.000000 0.000000 0.000000 0.023974 0.000000 0.093769
#
#
# Mechanical properties :
#
#
# Convention : Reuss Voigt Hill
#
# Bulk Modulus (GPa) = 15.31129 22.16555 18.73842
# Shear Modulus (GPa) = 15.20677 23.58912 19.39795
#
# Velocity S-wave (km/s) = 2.77220 3.45273 3.13101
# Velocity P-wave (km/s) = 4.24084 5.20548 4.74772
#
# Compressibility (1/GPa) = 0.06531130
#
# Stress axis : x y z
#
# Youngs Moduli (GPa) = 101.06198 43.57606 40.00748
#
# Poissons Ratio (x) = 0.15454 -0.00697
# Poissons Ratio (y) = 0.35842 -0.28440
# Poissons Ratio (z) = -0.01762 -0.30976
#
# Static dielectric constant tensor:
#      x y z
#    x 1.717760 0.000000 -0.024500 
#    y 0.000000 1.683950 0.000000 
#    z -0.024500 0.000000 1.743800 
# 
# From -- ./inp_files/19857.got.cif
#   From: 2010.05.17/outbox.cif.g08.bks.cpg/sg11_10_cif.got.tgz:19857.got - 2010.06.03 12:22:45.
