data_PCOD9165246
_publ_section_title
;
Structure prediction by ZEFSAII (Michael W. Deem and Ramdas Pophale) SiO2 
 PCOD9165246
Probable space group: P 21/M
;
_chemical_formula_sum "Si O2"
_cell_formula_units_Z 32
_cell_length_a 9.646981
_cell_length_b 14.212867
_cell_length_c 15.374919
_cell_angle_alpha 90.000000
_cell_angle_beta 118.692011
_cell_angle_gamma 90.000000
_cell_volume 1849.230585
_symmetry_space_group_name_H-M "P 21/M"
_symmetry_group_IT_number 11
_symmetry_cell_setting 'monoclinic'
loop_
_space_group_symop_operation_xyz
x,y,z
-x,1/2+y,-z
-x,-y,-z
x,1/2-y,z
loop_
_atom_site_type_symbol
_atom_site_label
_atom_site_fract_x
_atom_site_fract_y
_atom_site_fract_z
Si Si1 0.384715 0.136965 0.740523
Si Si2 0.186424 0.991521 0.567185
Si Si3 0.322551 0.514169 0.419553
Si Si4 0.885682 0.641652 0.731482
Si Si5 0.784042 0.357388 0.266000
Si Si6 0.276362 0.638787 0.242776
Si Si7 0.339188 0.485946 0.897604
Si Si8 0.010131 0.008132 0.899937
O O1 0.362248 0.250000 0.731057
O O2 0.566364 0.115869 0.766537
O O3 0.353716 0.094876 0.827664
O O4 0.270082 0.082459 0.637617
O O5 0.229584 0.907313 0.645542
O O6 0.238938 0.972125 0.485650
O O7 0.000000 0.000000 0.500000
O O8 0.500000 0.500000 0.500000
O O9 0.251393 0.422724 0.349739
O O10 0.306182 0.600050 0.348362
O O11 0.842074 0.750000 0.733668
O O12 0.949844 0.588187 0.836122
O O13 0.032429 0.639669 0.708306
O O14 0.731334 0.250000 0.251004
O O15 0.692760 0.419559 0.167704
O O16 0.256289 0.750000 0.234830
O O17 0.117747 0.587113 0.164294
O O18 0.184777 0.471837 0.912764
O O19 0.500000 0.500000 0.000000
O O20 0.000000 0.000000 0.000000
#
# Coordination Sequence:
#
# PCOD9165246 Si02
#       8
#     4   4   4   4   4   4   4   4
#     4  10  22  39  59  83 113 152 195 235 281 341
#     4  11  21  36  57  84 113 150 191 231 282 335
#     4  11  21  36  57  82 115 150 187 233 279 333
#     4   9  19  36  58  81 107 145 188 224 270 335
#     4   9  19  36  57  82 109 142 187 230 270 327
#     4  10  22  39  58  83 115 151 192 237 286 339
#     4  10  21  38  61  85 114 149 186 231 285 345
#     4  10  21  38  61  86 114 147 184 236 289 337
#
# _framework density 17.304494999999999
#
# number of rings (size 3 to 8) (size 9 to 14) (size 15 to 20)
#    0.000    2.000    2.500    0.750    1.750    3.500 
#    0.000    2.500    0.000    0.000    0.000    0.000 
#    0.000    0.000    0.000    0.000    0.000    0.000 
#
# Total GULP energy -178418.525538 kJ/mol
# GULP energy per Si atom -5575.578923 kJ/mol
# Density = 1.726511 g / cm^3
# Si number density = 17.304495 Si / 1000 Ang^3
#
#
#
# Elastic Constant Matrix: (Units=GPa)
#
#
# Indices 1 2 3 4 5 6 
#
# 1 133.9320 46.6819 67.9920 0.0000 -8.0016 0.0000
# 2 46.6819 109.9656 35.0790 0.0000 -2.9185 0.0000
# 3 67.9920 35.0790 113.2110 0.0000 -5.9178 0.0000
# 4 0.0000 0.0000 0.0000 4.8353 0.0000 -0.3186
# 5 -8.0016 -2.9185 -5.9178 0.0000 42.9644 0.0000
# 6 0.0000 0.0000 0.0000 -0.3186 0.0000 24.8828
#
#
#
# Elastic Compliance Matrix: (Units=1/GPa)
#
#
# Indices 1 2 3 4 5 6 
#
# 1 0.011619 -0.002991 -0.005992 0.000000 0.001135 0.000000
# 2 -0.002991 0.010864 -0.001572 0.000000 -0.000036 0.000000
# 3 -0.005992 -0.001572 0.012948 0.000000 0.000561 0.000000
# 4 0.000000 0.000000 0.000000 0.206986 0.000000 0.002650
# 5 0.001135 -0.000036 0.000561 0.000000 0.023561 0.000000
# 6 0.000000 0.000000 0.000000 0.002650 0.000000 0.040222
#
#
# Mechanical properties :
#
#
# Convention : Reuss Voigt Hill
#
# Bulk Modulus (GPa) = 69.82506 72.95717 71.39112
# Shear Modulus (GPa) = 15.05650 28.36022 21.70836
#
# Velocity S-wave (km/s) = 2.95293 4.05272 3.54572
# Velocity P-wave (km/s) = 7.21560 8.00948 7.62288
#
# Compressibility (1/GPa) = 0.01432150
#
# Stress axis : x y z
#
# Youngs Moduli (GPa) = 86.06952 92.04839 77.23210
#
# Poissons Ratio (x) = 0.27529 0.46276
# Poissons Ratio (y) = 0.25741 0.12140
# Poissons Ratio (z) = 0.51571 0.14469
#
# Static dielectric constant tensor:
#      x y z
#    x 1.571740 0.000000 0.012290 
#    y 0.000000 1.567170 0.000000 
#    z 0.012290 0.000000 1.573950 
# 
# From -- ./inp_files/18042.got.cif
#   From: 2010.05.17/outbox.cif.g08.bks.cpg/sg11_10_cif.got.tgz:18042.got - 2010.06.03 12:22:45.
