data_PCOD9165714
_publ_section_title
;
Structure prediction by ZEFSAII (Michael W. Deem and Ramdas Pophale) SiO2 
 PCOD9165714
Probable space group: P 21/M
;
_chemical_formula_sum "Si O2"
_cell_formula_units_Z 32
_cell_length_a 17.871175
_cell_length_b 13.736530
_cell_length_c 12.060707
_cell_angle_alpha 90.000000
_cell_angle_beta 150.086167
_cell_angle_gamma 90.000000
_cell_volume 1476.521202
_symmetry_space_group_name_H-M "P 21/M"
_symmetry_group_IT_number 11
_symmetry_cell_setting 'monoclinic'
loop_
_space_group_symop_operation_xyz
x,y,z
-x,1/2+y,-z
-x,-y,-z
x,1/2-y,z
loop_
_atom_site_type_symbol
_atom_site_label
_atom_site_fract_x
_atom_site_fract_y
_atom_site_fract_z
Si Si1 0.946147 0.944536 0.543393
Si Si2 0.072102 0.471583 0.913095
Si Si3 0.642213 0.862210 0.752822
Si Si4 0.376607 0.461138 0.927168
Si Si5 0.404867 0.930568 0.608911
Si Si6 0.101840 0.639771 0.129530
Si Si7 0.255632 0.856799 0.911595
Si Si8 0.572532 0.643974 0.407009
O O1 0.775203 0.908602 0.309363
O O2 0.088209 0.872652 0.741664
O O3 0.000000 0.000000 0.500000
O O4 0.951252 0.009327 0.661615
O O5 0.023635 0.394648 0.944609
O O6 0.215654 0.427958 0.034718
O O7 0.104092 0.567650 0.027295
O O8 0.652899 0.750000 0.805170
O O9 0.496434 0.913735 0.613850
O O10 0.630966 0.860130 0.606227
O O11 0.306640 0.557699 0.895035
O O12 0.500000 0.500000 0.000000
O O13 0.476097 0.402323 0.143864
O O14 0.253341 0.873142 0.395754
O O15 0.372247 0.045999 0.581575
O O16 0.080982 0.750000 0.067384
O O17 0.261651 0.750000 0.865568
O O18 0.390656 0.859193 0.174178
O O19 0.614425 0.750000 0.411805
#
# Coordination Sequence:
#
# PCOD9165714 Si02
#       8
#     4   4   4   4   4   4   4   4
#     4  10  21  40  63  91 120 164 214 262 317 376
#     4  11  23  42  64  90 130 169 205 257 317 377
#     4  11  21  35  59  90 123 160 202 249 309 374
#     4  10  21  40  63  83 122 168 212 253 312 380
#     4  11  21  39  60  91 123 157 202 263 312 364
#     4  11  25  42  63  93 129 167 206 251 319 389
#     4   9  19  36  60  90 119 156 207 261 312 365
#     4   9  18  32  57  87 118 154 195 248 309 369
#
# _framework density 21.672564000000001
#
# number of rings (size 3 to 8) (size 9 to 14) (size 15 to 20)
#    0.000    1.750    1.250    4.125    1.750    0.500 
#    0.000   13.125    0.000    1.500    0.000    0.000 
#    0.000    0.000    0.000    0.000    0.000    0.000 
#
# Total GULP energy -178478.637222 kJ/mol
# GULP energy per Si atom -5577.457413 kJ/mol
# Density = 2.162324 g / cm^3
# Si number density = 21.672564 Si / 1000 Ang^3
#
#
#
# Elastic Constant Matrix: (Units=GPa)
#
#
# Indices 1 2 3 4 5 6 
#
# 1 56.5044 5.3566 20.1269 0.0000 15.8799 0.0000
# 2 5.3566 86.9888 8.3312 0.0000 3.5519 0.0000
# 3 20.1269 8.3312 103.7935 0.0000 1.6668 0.0000
# 4 0.0000 0.0000 0.0000 12.6655 0.0000 4.4242
# 5 15.8799 3.5519 1.6668 0.0000 32.1726 0.0000
# 6 0.0000 0.0000 0.0000 4.4242 0.0000 6.5963
#
#
#
# Elastic Compliance Matrix: (Units=1/GPa)
#
#
# Indices 1 2 3 4 5 6 
#
# 1 0.022211 -0.000539 -0.004092 0.000000 -0.010692 0.000000
# 2 -0.000539 0.011647 -0.000815 0.000000 -0.000977 0.000000
# 3 -0.004092 -0.000815 0.010468 0.000000 0.001567 0.000000
# 4 0.000000 0.000000 0.000000 0.103113 0.000000 -0.069160
# 5 -0.010692 -0.000977 0.001567 0.000000 0.036386 0.000000
# 6 0.000000 0.000000 0.000000 -0.069160 0.000000 0.197987
#
#
# Mechanical properties :
#
#
# Convention : Reuss Voigt Hill
#
# Bulk Modulus (GPa) = 29.90925 34.99069 32.44997
# Shear Modulus (GPa) = 12.38084 24.51833 18.44959
#
# Velocity S-wave (km/s) = 2.39271 3.36714 2.92085
# Velocity P-wave (km/s) = 4.63292 5.59438 5.13619
#
# Compressibility (1/GPa) = 0.03343447
#
# Stress axis : x y z
#
# Youngs Moduli (GPa) = 45.02232 85.86004 95.52716
#
# Poissons Ratio (x) = 0.04630 0.39090
# Poissons Ratio (y) = 0.02428 0.07782
# Poissons Ratio (z) = 0.18423 0.06994
#
# Static dielectric constant tensor:
#      x y z
#    x 1.795440 0.000000 0.000080 
#    y 0.000000 1.827030 0.000000 
#    z 0.000080 0.000000 1.858960 
# 
# From -- ./inp_files/41687.got.cif
#   From: 2010.05.17/outbox.cif.g08.bks.cpg/sg11_21_cif.got.tgz:41687.got - 2010.06.03 12:22:45.
