data_PCOD9165287
_publ_section_title
;
Structure prediction by ZEFSAII (Michael W. Deem and Ramdas Pophale) SiO2 
 PCOD9165287
Probable space group: P 21/M
;
_chemical_formula_sum "Si O2"
_cell_formula_units_Z 24
_cell_length_a 9.692034
_cell_length_b 8.801659
_cell_length_c 13.062677
_cell_angle_alpha 90.000000
_cell_angle_beta 100.605730
_cell_angle_gamma 90.000000
_cell_volume 1095.288378
_symmetry_space_group_name_H-M "P 21/M"
_symmetry_group_IT_number 11
_symmetry_cell_setting 'monoclinic'
loop_
_space_group_symop_operation_xyz
x,y,z
-x,1/2+y,-z
-x,-y,-z
x,1/2-y,z
loop_
_atom_site_type_symbol
_atom_site_label
_atom_site_fract_x
_atom_site_fract_y
_atom_site_fract_z
Si Si1 0.889939 0.931371 0.402782
Si Si2 0.276165 0.070181 0.940877
Si Si3 0.512887 0.568700 0.847364
Si Si4 0.725526 0.928592 0.704553
Si Si5 0.029675 0.928436 0.804512
Si Si6 0.650064 0.071772 0.493304
O O1 0.894587 0.750000 0.408716
O O2 0.928315 0.988810 0.295168
O O3 0.736771 0.991517 0.415503
O O4 0.000000 0.000000 0.500000
O O5 0.257830 0.250000 0.939519
O O6 0.373395 0.019831 0.858371
O O7 0.126898 0.991637 0.907355
O O8 0.368566 0.026898 0.052150
O O9 0.486815 0.750000 0.852490
O O10 0.584410 0.540066 0.748320
O O11 0.723869 0.750000 0.671843
O O12 0.862663 0.947622 0.793600
O O13 0.736598 0.036366 0.608827
O O14 0.057231 0.750000 0.795786
O O15 0.637611 0.250000 0.471608
O O16 0.500000 0.000000 0.500000
#
# Coordination Sequence:
#
# PCOD9165287 Si02
#       6
#     4   4   4   4   4   4
#     4  12  24  42  65  91 124 162 205 252 304 365
#     4  10  21  38  61  90 122 158 203 252 305 367
#     4   9  20  40  63  87 120 160 202 253 308 363
#     4  10  22  41  63  88 121 159 206 256 305 361
#     4  11  23  39  62  90 122 162 205 250 305 364
#     4  12  26  43  64  91 125 164 206 254 306 362
#
# _framework density 21.912039
#
# number of rings (size 3 to 8) (size 9 to 14) (size 15 to 20)
#    0.000    1.333    1.667    4.000    2.333    2.667 
#    0.000    0.000    0.000    0.000    0.000    0.000 
#    0.000    0.000    0.000    0.000    0.000    0.000 
#
# Total GULP energy -134295.806164 kJ/mol
# GULP energy per Si atom -5595.658590 kJ/mol
# Density = 2.186217 g / cm^3
# Si number density = 21.912039 Si / 1000 Ang^3
#
#
#
# Elastic Constant Matrix: (Units=GPa)
#
#
# Indices 1 2 3 4 5 6 
#
# 1 82.3290 23.0048 -4.8293 0.0000 7.0833 0.0000
# 2 23.0048 86.9310 3.5440 0.0000 4.7534 0.0000
# 3 -4.8293 3.5440 29.8699 0.0000 4.6310 0.0000
# 4 0.0000 0.0000 0.0000 28.5342 0.0000 7.8448
# 5 7.0833 4.7534 4.6310 0.0000 38.5522 0.0000
# 6 0.0000 0.0000 0.0000 7.8448 0.0000 35.3356
#
#
#
# Elastic Compliance Matrix: (Units=1/GPa)
#
#
# Indices 1 2 3 4 5 6 
#
# 1 0.013526 -0.003569 0.002983 0.000000 -0.002403 0.000000
# 2 -0.003569 0.012564 -0.001966 0.000000 -0.000657 0.000000
# 3 0.002983 -0.001966 0.034891 0.000000 -0.004497 0.000000
# 4 0.000000 0.000000 0.000000 0.037324 0.000000 -0.008286
# 5 -0.002403 -0.000657 -0.004497 0.000000 0.027002 0.000000
# 6 0.000000 0.000000 0.000000 -0.008286 0.000000 0.030140
#
#
# Mechanical properties :
#
#
# Convention : Reuss Voigt Hill
#
# Bulk Modulus (GPa) = 17.89684 26.95209 22.42446
# Shear Modulus (GPa) = 27.90550 32.31176 30.10863
#
# Velocity S-wave (km/s) = 3.57252 3.84423 3.71086
# Velocity P-wave (km/s) = 5.02021 5.65959 5.34946
#
# Compressibility (1/GPa) = 0.05587579
#
# Stress axis : x y z
#
# Youngs Moduli (GPa) = 73.93421 79.59214 28.66050
#
# Poissons Ratio (x) = 0.28410 -0.08549
# Poissons Ratio (y) = 0.26391 0.05634
# Poissons Ratio (z) = -0.22054 0.15647
#
# Static dielectric constant tensor:
#      x y z
#    x 1.822450 0.000000 0.043700 
#    y 0.000000 1.733310 0.000000 
#    z 0.043700 0.000000 1.834350 
# 
# From -- ./inp_files/20629.got.cif
#   From: 2010.05.17/outbox.cif.g08.bks.cpg/sg11_11_cif.got.tgz:20629.got - 2010.06.03 12:22:45.
