data_PCOD9165970
_publ_section_title
;
Structure prediction by ZEFSAII (Michael W. Deem and Ramdas Pophale) SiO2 
 PCOD9165970
Probable space group: P 21/M
;
_chemical_formula_sum "Si O2"
_cell_formula_units_Z 26
_cell_length_a 6.999074
_cell_length_b 16.794262
_cell_length_c 14.291978
_cell_angle_alpha 90.000000
_cell_angle_beta 50.799162
_cell_angle_gamma 90.000000
_cell_volume 1301.844947
_symmetry_space_group_name_H-M "P 21/M"
_symmetry_group_IT_number 11
_symmetry_cell_setting 'monoclinic'
loop_
_space_group_symop_operation_xyz
x,y,z
-x,1/2+y,-z
-x,-y,-z
x,1/2-y,z
loop_
_atom_site_type_symbol
_atom_site_label
_atom_site_fract_x
_atom_site_fract_y
_atom_site_fract_z
Si Si1 0.314325 0.750000 0.899315
Si Si2 0.264050 0.941785 0.579730
Si Si3 0.078171 0.893779 0.076621
Si Si4 0.651238 0.969130 0.108997
Si Si5 0.017806 0.844484 0.497147
Si Si6 0.542678 0.108604 0.288049
Si Si7 0.894481 0.081608 0.728323
O O1 0.376915 0.680432 0.802484
O O2 0.242501 0.819919 0.997223
O O3 0.213105 0.887560 0.505215
O O4 0.311519 0.892090 0.659223
O O5 0.500000 0.000000 0.500000
O O6 0.027782 0.998449 0.664311
O O7 0.992625 0.887918 0.209775
O O8 0.225401 0.975911 0.008804
O O9 0.843468 0.901879 0.080876
O O10 0.602650 0.027452 0.213028
O O11 0.391970 0.932599 0.162396
O O12 0.011547 0.750000 0.516167
O O13 0.075640 0.863498 0.371386
O O14 0.747985 0.881492 0.601790
#
# Coordination Sequence:
#
# PCOD9165970 Si02
#       7
#     2   4   4   4   4   4   4
#     4  10  24  44  66  90 138 176 210 282 338 406
#     4  12  24  42  70 103 129 176 227 271 333 400
#     4  10  23  42  65  95 129 175 223 269 334 380
#     4  10  21  42  67  96 124 169 232 277 312 394
#     4  12  27  42  65 105 139 172 216 276 350 411
#     4  11  21  43  70  96 132 172 219 276 341 396
#     4  12  23  41  69  95 132 173 221 274 327 397
#
# _framework density 19.971658000000001
#
# number of rings (size 3 to 8) (size 9 to 14) (size 15 to 20)
#    0.000    0.923    5.385    1.846    2.154    0.000 
#    1.385    1.538    0.000    0.000    0.000    0.000 
#    0.000    0.000    0.000    0.000    0.000    0.000 
#
# Total GULP energy -144767.499887 kJ/mol
# GULP energy per Si atom -5567.980765 kJ/mol
# Density = 1.992620 g / cm^3
# Si number density = 19.971658 Si / 1000 Ang^3
#
#
#
# Elastic Constant Matrix: (Units=GPa)
#
#
# Indices 1 2 3 4 5 6 
#
# 1 41.6023 7.0956 17.0656 0.0000 12.3754 0.0000
# 2 7.0956 25.5613 3.0531 0.0000 12.5665 0.0000
# 3 17.0656 3.0531 69.7167 0.0000 24.6171 0.0000
# 4 0.0000 0.0000 0.0000 25.9004 0.0000 12.9510
# 5 12.3754 12.5665 24.6171 0.0000 42.7291 0.0000
# 6 0.0000 0.0000 0.0000 12.9510 0.0000 9.4087
#
#
#
# Elastic Compliance Matrix: (Units=1/GPa)
#
#
# Indices 1 2 3 4 5 6 
#
# 1 0.028233 -0.005509 -0.005467 0.000000 -0.003407 0.000000
# 2 -0.005509 0.047479 0.004565 0.000000 -0.014998 0.000000
# 3 -0.005467 0.004565 0.019329 0.000000 -0.010895 0.000000
# 4 0.000000 0.000000 0.000000 0.123860 0.000000 -0.170492
# 5 -0.003407 -0.014998 -0.010895 0.000000 0.035078 0.000000
# 6 0.000000 0.000000 0.000000 -0.170492 0.000000 0.340965
#
#
# Mechanical properties :
#
#
# Convention : Reuss Voigt Hill
#
# Bulk Modulus (GPa) = 12.16251 21.25653 16.70952
# Shear Modulus (GPa) = 7.87188 22.91871 15.39530
#
# Velocity S-wave (km/s) = 1.98748 3.39124 2.77944
# Velocity P-wave (km/s) = 3.37193 5.09907 4.32264
#
# Compressibility (1/GPa) = 0.08221985
#
# Stress axis : x y z
#
# Youngs Moduli (GPa) = 35.41986 21.06193 51.73549
#
# Poissons Ratio (x) = 0.11603 0.28281
# Poissons Ratio (y) = 0.19513 -0.23618
# Poissons Ratio (z) = 0.19362 -0.09615
#
# Static dielectric constant tensor:
#      x y z
#    x 1.709100 0.000000 -0.008930 
#    y 0.000000 1.650520 0.000000 
#    z -0.008930 0.000000 1.719110 
# 
# From -- ./inp_files/6736.got.cif
#   From: 2010.05.17/outbox.cif.g08.bks.cpg/sg11_4_cif.got.tgz:6736.got - 2010.06.03 12:22:45.
