data_PCOD9165455
_publ_section_title
;
Structure prediction by ZEFSAII (Michael W. Deem and Ramdas Pophale) SiO2 
 PCOD9165455
Probable space group: P 21/M
;
_chemical_formula_sum "Si O2"
_cell_formula_units_Z 32
_cell_length_a 13.648605
_cell_length_b 12.787890
_cell_length_c 17.360621
_cell_angle_alpha 90.000000
_cell_angle_beta 148.388790
_cell_angle_gamma 90.000000
_cell_volume 1588.217971
_symmetry_space_group_name_H-M "P 21/M"
_symmetry_group_IT_number 11
_symmetry_cell_setting 'monoclinic'
loop_
_space_group_symop_operation_xyz
x,y,z
-x,1/2+y,-z
-x,-y,-z
x,1/2-y,z
loop_
_atom_site_type_symbol
_atom_site_label
_atom_site_fract_x
_atom_site_fract_y
_atom_site_fract_z
Si Si1 0.825279 0.376328 0.044737
Si Si2 0.766561 0.524540 0.687578
Si Si3 0.746899 0.132633 0.322455
Si Si4 0.500468 0.991864 0.264978
Si Si5 0.523445 0.130231 0.609385
Si Si6 0.676643 0.364680 0.492317
Si Si7 0.293933 0.547935 0.865446
Si Si8 0.043679 0.136283 0.632933
O O1 0.817100 0.250000 0.027974
O O2 0.682819 0.440447 0.894412
O O3 0.763722 0.405200 0.090994
O O4 0.033667 0.421789 0.170631
O O5 0.615778 0.609459 0.555872
O O6 0.691690 0.452489 0.707394
O O7 0.751101 0.441295 0.607616
O O8 0.686432 0.250000 0.307459
O O9 0.627863 0.038075 0.281098
O O10 0.725178 0.128548 0.216955
O O11 0.962983 0.119866 0.493235
O O12 0.505132 0.090869 0.327016
O O13 0.573337 0.903620 0.374401
O O14 0.582135 0.250000 0.652277
O O15 0.638004 0.250000 0.497099
O O16 0.849942 0.359618 0.549967
O O17 0.161545 0.453181 0.750216
O O18 0.500000 0.500000 0.000000
O O19 0.137809 0.250000 0.700478
#
# Coordination Sequence:
#
# PCOD9165455 Si02
#       8
#     4   4   4   4   4   4   4   4
#     4  12  25  42  60  88 131 174 208 254 313 370
#     4  10  21  39  65  94 126 158 209 258 311 379
#     4  10  21  41  63  87 120 162 210 262 313 365
#     4  10  21  39  60  89 125 162 204 253 303 372
#     4  10  21  40  66  94 122 160 208 260 317 372
#     4   9  17  36  64  90 120 157 201 259 313 360
#     4  12  23  40  60  90 127 166 213 260 303 373
#     4   9  19  36  60  87 117 155 204 256 311 364
#
# _framework density 20.148368000000001
#
# number of rings (size 3 to 8) (size 9 to 14) (size 15 to 20)
#    0.000    1.750    2.500    3.000    0.000    1.500 
#    0.000    4.375    0.000    0.000    0.000    0.000 
#    0.000    0.000    0.000    0.000    0.000    0.000 
#
# Total GULP energy -178193.168527 kJ/mol
# GULP energy per Si atom -5568.536516 kJ/mol
# Density = 2.010251 g / cm^3
# Si number density = 20.148368 Si / 1000 Ang^3
#
#
#
# Elastic Constant Matrix: (Units=GPa)
#
#
# Indices 1 2 3 4 5 6 
#
# 1 53.5994 39.2394 21.2560 0.0000 1.4411 0.0000
# 2 39.2394 147.6404 69.3584 0.0000 12.2052 0.0000
# 3 21.2560 69.3584 105.8285 0.0000 6.1195 0.0000
# 4 0.0000 0.0000 0.0000 -36.9843 0.0000 12.2473
# 5 1.4411 12.2052 6.1195 0.0000 29.6882 0.0000
# 6 0.0000 0.0000 0.0000 12.2473 0.0000 25.5941
#
#
#
# Elastic Compliance Matrix: (Units=1/GPa)
#
#
# Indices 1 2 3 4 5 6 
#
# 1 0.023285 -0.005885 -0.000905 0.000000 0.001476 0.000000
# 2 -0.005885 0.011498 -0.006170 0.000000 -0.003169 0.000000
# 3 -0.000905 -0.006170 0.013689 0.000000 -0.000241 0.000000
# 4 0.000000 0.000000 0.000000 -0.023340 0.000000 0.011169
# 5 0.001476 -0.003169 -0.000241 0.000000 0.034964 0.000000
# 6 0.000000 0.000000 0.000000 0.011169 0.000000 0.033727
#
#
# Mechanical properties :
#
#
# Convention : Reuss Voigt Hill
#
# Bulk Modulus (GPa) = 44.34511 62.97510 53.66010
# Shear Modulus (GPa) = 39.28919 15.47391 27.38155
#
# Velocity S-wave (km/s) = 4.42066 2.77428 3.69046
# Velocity P-wave (km/s) = 6.93638 6.44870 6.69698
#
# Compressibility (1/GPa) = 0.02255040
#
# Stress axis : x y z
#
# Youngs Moduli (GPa) = 42.94653 86.97067 73.05199
#
# Poissons Ratio (x) = 0.51186 0.06611
# Poissons Ratio (y) = 0.25276 0.45075
# Poissons Ratio (z) = 0.03886 0.53664
#
# Static dielectric constant tensor:
#      x y z
#    x 1.797290 0.000000 -0.019680 
#    y 0.000000 1.746160 0.000000 
#    z -0.019680 0.000000 1.711950 
# 
# From -- ./inp_files/60436.got.cif
#   From: 2010.05.17/outbox.cif.g08.bks.cpg/sg11_31_cif.got.tgz:60436.got - 2010.06.03 12:22:45.
