data_PCOD9165405
_publ_section_title
;
Structure prediction by ZEFSAII (Michael W. Deem and Ramdas Pophale) SiO2 
 PCOD9165405
Probable space group: P 21/M
;
_chemical_formula_sum "Si O2"
_cell_formula_units_Z 32
_cell_length_a 14.789626
_cell_length_b 16.595418
_cell_length_c 11.056873
_cell_angle_alpha 90.000000
_cell_angle_beta 29.703142
_cell_angle_gamma 90.000000
_cell_volume 1344.704601
_symmetry_space_group_name_H-M "P 21/M"
_symmetry_group_IT_number 11
_symmetry_cell_setting 'monoclinic'
loop_
_space_group_symop_operation_xyz
x,y,z
-x,1/2+y,-z
-x,-y,-z
x,1/2-y,z
loop_
_atom_site_type_symbol
_atom_site_label
_atom_site_fract_x
_atom_site_fract_y
_atom_site_fract_z
Si Si1 0.466864 0.658609 0.572573
Si Si2 0.195421 0.917240 0.248262
Si Si3 0.289610 0.891383 0.537779
Si Si4 0.419835 0.159300 0.207924
Si Si5 0.349872 0.401253 0.029963
Si Si6 0.964437 0.894864 0.761139
Si Si7 0.119051 0.925014 0.077237
Si Si8 0.771044 0.923589 0.348588
O O1 0.466840 0.750000 0.617251
O O2 0.388724 0.656123 0.528651
O O3 0.665084 0.619867 0.363443
O O4 0.321624 0.604701 0.814943
O O5 0.082137 0.913503 0.502825
O O6 0.079086 0.899302 0.262212
O O7 0.364654 0.856719 0.054068
O O8 0.279848 0.006906 0.131725
O O9 0.443223 0.903125 0.256706
O O10 0.106792 0.856123 0.689159
O O11 0.242616 0.980168 0.645644
O O12 0.380410 0.250000 0.291446
O O13 0.338656 0.100112 0.402334
O O14 0.340255 0.142273 0.168622
O O15 0.220716 0.359752 0.079255
O O16 0.903581 0.978952 0.892945
O O17 0.975551 0.895723 0.143476
#
# Coordination Sequence:
#
# PCOD9165405 Si02
#       8
#     4   4   4   4   4   4   4   4
#     4  12  27  44  61  90 131 171 213 268 329 379
#     4  11  19  39  66  98 130 163 202 260 323 377
#     4  11  23  41  67  93 121 170 222 268 310 370
#     4  12  23  36  62  96 130 168 206 253 325 390
#     4  11  20  39  65  91 128 164 207 260 311 377
#     4  10  21  38  66 101 123 157 210 263 312 378
#     4  10  22  39  67  95 122 158 208 265 318 376
#     4  11  22  42  68  94 121 163 217 268 314 376
#
# _framework density 23.797046999999999
#
# number of rings (size 3 to 8) (size 9 to 14) (size 15 to 20)
#    0.000    1.000    3.750    5.625    0.000    4.500 
#    0.000    2.500    0.000    0.000    0.000    0.000 
#    0.000    0.000    0.000    0.000    0.000    0.000 
#
# Total GULP energy -179051.278694 kJ/mol
# GULP energy per Si atom -5595.352459 kJ/mol
# Density = 2.374288 g / cm^3
# Si number density = 23.797047 Si / 1000 Ang^3
#
#
#
# Elastic Constant Matrix: (Units=GPa)
#
#
# Indices 1 2 3 4 5 6 
#
# 1 184.1862 30.6629 19.3317 0.0000 -34.6323 0.0000
# 2 30.6629 46.0232 3.6916 0.0000 -3.3153 0.0000
# 3 19.3317 3.6916 62.7798 0.0000 -11.1106 0.0000
# 4 0.0000 0.0000 0.0000 -4.7404 0.0000 5.7032
# 5 -34.6323 -3.3153 -11.1106 0.0000 51.6390 0.0000
# 6 0.0000 0.0000 0.0000 5.7032 0.0000 -15.1891
#
#
#
# Elastic Compliance Matrix: (Units=1/GPa)
#
#
# Indices 1 2 3 4 5 6 
#
# 1 0.007061 -0.004307 -0.001177 0.000000 0.004206 0.000000
# 2 -0.004307 0.024526 -0.000362 0.000000 -0.001392 0.000000
# 3 -0.001177 -0.000362 0.016809 0.000000 0.002804 0.000000
# 4 0.000000 0.000000 0.000000 -0.384772 0.000000 -0.144475
# 5 0.004206 -0.001392 0.002804 0.000000 0.022700 0.000000
# 6 0.000000 0.000000 0.000000 -0.144475 0.000000 -0.120084
#
#
# Mechanical properties :
#
#
# Convention : Reuss Voigt Hill
#
# Bulk Modulus (GPa) = 27.24492 44.48462 35.86477
# Shear Modulus (GPa) = -12.20004 22.29544 5.04770
#
# Velocity S-wave (km/s) = -2.26668 3.06420 1.45800
# Velocity P-wave (km/s) = 2.15018 5.59044 4.23535
#
# Compressibility (1/GPa) = 0.03670409
#
# Stress axis : x y z
#
# Youngs Moduli (GPa) = 141.63252 40.77248 59.49344
#
# Poissons Ratio (x) = 0.17560 0.07000
# Poissons Ratio (y) = 0.60997 0.02156
# Poissons Ratio (z) = 0.16664 0.01477
#
# Static dielectric constant tensor:
#      x y z
#    x 1.966190 0.000000 -0.000480 
#    y 0.000000 1.858330 0.000000 
#    z -0.000480 0.000000 1.904490 
# 
# From -- ./inp_files/39961.got.cif
#   From: 2010.05.17/outbox.cif.g08.bks.cpg/sg11_20_cif.got.tgz:39961.got - 2010.06.03 12:22:45.
