data_PCOD9165537
_publ_section_title
;
Structure prediction by ZEFSAII (Michael W. Deem and Ramdas Pophale) SiO2 
 PCOD9165537
Probable space group: P 21/M
;
_chemical_formula_sum "Si O2"
_cell_formula_units_Z 24
_cell_length_a 7.724654
_cell_length_b 22.305533
_cell_length_c 8.592972
_cell_angle_alpha 90.000000
_cell_angle_beta 50.240157
_cell_angle_gamma 90.000000
_cell_volume 1138.177459
_symmetry_space_group_name_H-M "P 21/M"
_symmetry_group_IT_number 11
_symmetry_cell_setting 'monoclinic'
loop_
_space_group_symop_operation_xyz
x,y,z
-x,1/2+y,-z
-x,-y,-z
x,1/2-y,z
loop_
_atom_site_type_symbol
_atom_site_label
_atom_site_fract_x
_atom_site_fract_y
_atom_site_fract_z
Si Si1 0.864954 0.685160 0.443859
Si Si2 0.917193 0.437049 0.618670
Si Si3 0.440525 0.086213 0.731606
Si Si4 0.064932 0.181094 0.965153
Si Si5 0.414820 0.871474 0.686664
Si Si6 0.666111 0.026085 0.037401
O O1 0.939349 0.750000 0.465249
O O2 0.594451 0.681609 0.598458
O O3 0.940013 0.623444 0.481656
O O4 0.950148 0.681555 0.215649
O O5 0.676058 0.419329 0.686061
O O6 0.000000 0.500000 0.500000
O O7 0.885044 0.452219 0.819479
O O8 0.507700 0.094186 0.513675
O O9 0.305155 0.026119 0.853307
O O10 0.285305 0.141532 0.873120
O O11 0.088992 0.250000 0.001475
O O12 0.840569 0.151996 0.166351
O O13 0.436231 0.917205 0.817098
O O14 0.500000 0.000000 0.000000
#
# Coordination Sequence:
#
# PCOD9165537 Si02
#       6
#     4   4   4   4   4   4
#     4  10  21  40  65  93 124 170 218 263 321 394
#     4  11  23  42  66  94 135 170 213 273 325 384
#     4  10  24  39  64  93 130 165 214 265 324 384
#     4  10  22  41  64  91 127 169 218 266 319 386
#     4  11  21  41  65  94 125 167 213 263 327 385
#     4  10  21  39  62  90 128 165 207 262 318 378
#
# _framework density 21.086344
#
# number of rings (size 3 to 8) (size 9 to 14) (size 15 to 20)
#    0.000    1.667    1.667    3.000    2.333    3.333 
#    0.000    0.000    0.000    0.000    0.000    0.000 
#    0.000    0.000    0.000    0.000    0.000    0.000 
#
# Total GULP energy -133924.095443 kJ/mol
# GULP energy per Si atom -5580.170643 kJ/mol
# Density = 2.103835 g / cm^3
# Si number density = 21.086344 Si / 1000 Ang^3
#
#
#
# Elastic Constant Matrix: (Units=GPa)
#
#
# Indices 1 2 3 4 5 6 
#
# 1 56.0879 38.7900 22.4730 0.0000 -17.3490 0.0000
# 2 38.7900 180.1483 66.0063 0.0000 -10.5776 0.0000
# 3 22.4730 66.0063 127.0713 0.0000 -12.1632 0.0000
# 4 0.0000 0.0000 0.0000 7.4795 0.0000 4.9490
# 5 -17.3490 -10.5776 -12.1632 0.0000 22.0318 0.0000
# 6 0.0000 0.0000 0.0000 4.9490 0.0000 17.1406
#
#
#
# Elastic Compliance Matrix: (Units=1/GPa)
#
#
# Indices 1 2 3 4 5 6 
#
# 1 0.026978 -0.004468 -0.000657 0.000000 0.018736 0.000000
# 2 -0.004468 0.007637 -0.003339 0.000000 -0.001695 0.000000
# 3 -0.000657 -0.003339 0.010048 0.000000 0.003427 0.000000
# 4 0.000000 0.000000 0.000000 0.165272 0.000000 -0.047719
# 5 0.018736 -0.001695 0.003427 0.000000 0.061221 0.000000
# 6 0.000000 0.000000 0.000000 -0.047719 0.000000 0.072119
#
#
# Mechanical properties :
#
#
# Convention : Reuss Voigt Hill
#
# Bulk Modulus (GPa) = 36.05545 68.64956 52.35251
# Shear Modulus (GPa) = 13.53371 25.06625 19.29998
#
# Velocity S-wave (km/s) = 2.53617 3.45156 3.02865
# Velocity P-wave (km/s) = 5.07073 6.96501 6.09195
#
# Compressibility (1/GPa) = 0.02773506
#
# Stress axis : x y z
#
# Youngs Moduli (GPa) = 37.06746 130.94206 99.52010
#
# Poissons Ratio (x) = 0.58508 0.06536
# Poissons Ratio (y) = 0.16563 0.33230
# Poissons Ratio (z) = 0.02434 0.43722
#
# Static dielectric constant tensor:
#      x y z
#    x 1.849630 0.000000 -0.016820 
#    y 0.000000 1.782230 0.000000 
#    z -0.016820 0.000000 1.791400 
# 
# From -- ./inp_files/14213.got.cif
#   From: 2010.05.17/outbox.cif.g08.bks.cpg/sg11_8_cif.got.tgz:14213.got - 2010.06.03 12:22:45.
