data_PCOD9165520
_publ_section_title
;
Structure prediction by ZEFSAII (Michael W. Deem and Ramdas Pophale) SiO2 
 PCOD9165520
Probable space group: P 21/M
;
_chemical_formula_sum "Si O2"
_cell_formula_units_Z 32
_cell_length_a 21.925597
_cell_length_b 8.883583
_cell_length_c 33.371360
_cell_angle_alpha 90.000000
_cell_angle_beta 15.214305
_cell_angle_gamma 90.000000
_cell_volume 1705.796240
_symmetry_space_group_name_H-M "P 21/M"
_symmetry_group_IT_number 11
_symmetry_cell_setting 'monoclinic'
loop_
_space_group_symop_operation_xyz
x,y,z
-x,1/2+y,-z
-x,-y,-z
x,1/2-y,z
loop_
_atom_site_type_symbol
_atom_site_label
_atom_site_fract_x
_atom_site_fract_y
_atom_site_fract_z
Si Si1 0.260054 0.931935 0.952122
Si Si2 0.207651 0.568620 0.893682
Si Si3 0.475689 0.070413 0.101085
Si Si4 0.129056 0.073620 0.652126
Si Si5 0.857847 0.570838 0.756068
Si Si6 0.934286 0.572403 0.847670
Si Si7 0.236320 0.428001 0.334932
Si Si8 0.681217 0.570581 0.549522
O O1 0.255233 0.750000 0.958342
O O2 0.201051 0.976723 0.944360
O O3 0.524872 0.980594 0.794881
O O4 0.087729 0.997961 0.094776
O O5 0.194439 0.750000 0.900607
O O6 0.453295 0.526325 0.717790
O O7 0.000000 0.500000 0.000000
O O8 0.852949 0.750000 0.766216
O O9 0.696779 0.979410 0.976125
O O10 0.362910 0.026546 0.130342
O O11 0.283519 0.048982 0.257818
O O12 0.109056 0.250000 0.672598
O O13 0.332726 0.047950 0.490146
O O14 0.908607 0.017904 0.764937
O O15 0.131523 0.987188 0.692279
O O16 0.469249 0.750000 0.934464
O O17 0.090890 0.524633 0.583670
O O18 0.945984 0.750000 0.843801
O O19 0.220937 0.250000 0.351965
O O20 0.000000 0.500000 0.500000
O O21 0.724945 0.750000 0.527704
#
# Coordination Sequence:
#
# PCOD9165520 Si02
#       8
#     4   4   4   4   4   4   4   4
#     4   9  20  38  56  75 110 150 180 218 275 331
#     4  10  21  39  62  88 113 142 178 221 274 335
#     4   9  19  33  45  64 102 145 183 224 273 322
#     4   9  18  33  53  74 104 146 181 220 275 327
#     4   9  17  30  49  74 101 136 183 229 267 310
#     4  11  21  33  52  77 105 139 188 234 266 316
#     4   9  18  30  46  69  99 140 183 222 262 314
#     4   8  18  34  53  78 108 140 174 213 271 331
#
# _framework density 18.759568000000002
#
# number of rings (size 3 to 8) (size 9 to 14) (size 15 to 20)
#    0.750    2.000    0.000    2.250    1.750    4.500 
#    0.000    0.000    0.000    0.750    0.000    0.000 
#    0.000    0.000    0.000    0.000    0.000    0.000 
#
# Total GULP energy -178228.334635 kJ/mol
# GULP energy per Si atom -5569.635457 kJ/mol
# Density = 1.871687 g / cm^3
# Si number density = 18.759568 Si / 1000 Ang^3
#
#
#
# Elastic Constant Matrix: (Units=GPa)
#
#
# Indices 1 2 3 4 5 6 
#
# 1 108.7765 25.6229 37.9139 0.0000 28.3248 0.0000
# 2 25.6229 35.6286 12.9228 0.0000 15.9308 0.0000
# 3 37.9139 12.9228 35.0971 0.0000 22.9122 0.0000
# 4 0.0000 0.0000 0.0000 25.8942 0.0000 3.1011
# 5 28.3248 15.9308 22.9122 0.0000 23.7673 0.0000
# 6 0.0000 0.0000 0.0000 3.1011 0.0000 24.4248
#
#
#
# Elastic Compliance Matrix: (Units=1/GPa)
#
#
# Indices 1 2 3 4 5 6 
#
# 1 0.015789 -0.005558 -0.013915 0.000000 -0.001677 0.000000
# 2 -0.005558 0.042782 0.012540 0.000000 -0.034140 0.000000
# 3 -0.013915 0.012540 0.090562 0.000000 -0.079125 0.000000
# 4 0.000000 0.000000 0.000000 0.039215 0.000000 -0.004979
# 5 -0.001677 -0.034140 -0.079125 0.000000 0.143235 0.000000
# 6 0.000000 0.000000 0.000000 -0.004979 0.000000 0.041574
#
#
# Mechanical properties :
#
#
# Convention : Reuss Voigt Hill
#
# Bulk Modulus (GPa) = 7.39288 36.93570 22.16429
# Shear Modulus (GPa) = 11.57103 21.68676 16.62889
#
# Velocity S-wave (km/s) = 2.48625 3.40374 2.98051
# Velocity P-wave (km/s) = 3.49161 5.93119 4.86674
#
# Compressibility (1/GPa) = 0.13526526
#
# Stress axis : x y z
#
# Youngs Moduli (GPa) = 63.33455 23.37447 11.04211
#
# Poissons Ratio (x) = 0.12992 0.15366
# Poissons Ratio (y) = 0.35203 -0.13846
# Poissons Ratio (z) = 0.88132 -0.29311
#
# Static dielectric constant tensor:
#      x y z
#    x 1.651250 0.000000 0.038980 
#    y 0.000000 1.627080 0.000000 
#    z 0.038980 0.000000 1.694300 
# 
# From -- ./inp_files/73624.got.cif
#   From: 2010.05.17/outbox.cif.g08.bks.cpg/sg11_37_cif.got.tgz:73624.got - 2010.06.03 12:22:45.
