data_PCOD9165028
_publ_section_title
;
Structure prediction by ZEFSAII (Michael W. Deem and Ramdas Pophale) SiO2 
 PCOD9165028
Probable space group: P 21/M
;
_chemical_formula_sum "Si O2"
_cell_formula_units_Z 24
_cell_length_a 8.764313
_cell_length_b 27.187993
_cell_length_c 9.691399
_cell_angle_alpha 90.000000
_cell_angle_beta 149.047808
_cell_angle_gamma 90.000000
_cell_volume 1187.728477
_symmetry_space_group_name_H-M "P 21/M"
_symmetry_group_IT_number 11
_symmetry_cell_setting 'monoclinic'
loop_
_space_group_symop_operation_xyz
x,y,z
-x,1/2+y,-z
-x,-y,-z
x,1/2-y,z
loop_
_atom_site_type_symbol
_atom_site_label
_atom_site_fract_x
_atom_site_fract_y
_atom_site_fract_z
Si Si1 0.291812 0.530719 0.440670
Si Si2 0.946832 0.061633 0.267132
Si Si3 0.232058 0.095605 0.039900
Si Si4 0.202135 0.149829 0.286826
Si Si5 0.316646 0.394534 0.785205
Si Si6 0.431683 0.806860 0.195664
O O1 0.500000 0.500000 0.500000
O O2 0.508548 0.558085 0.714479
O O3 0.063691 0.493069 0.335598
O O4 0.088145 0.568994 0.198479
O O5 0.117618 0.097245 0.290913
O O6 0.042099 0.082603 0.489633
O O7 0.598496 0.069777 0.976939
O O8 0.252391 0.139403 0.165705
O O9 0.264273 0.110147 0.906161
O O10 0.471799 0.173150 0.579424
O O11 0.917086 0.183812 0.090994
O O12 0.401024 0.342485 0.782003
O O13 0.506469 0.750000 0.237019
#
# Coordination Sequence:
#
# PCOD9165028 Si02
#       6
#     4   4   4   4   4   4
#     4  12  24  36  60  87 122 166 210 242 273 339
#     4  10  21  38  57  83 119 164 202 233 279 345
#     4  12  24  38  59  89 124 159 198 248 298 332
#     4  10  21  37  62  86 116 151 196 242 290 351
#     4  10  23  39  59  87 120 155 191 248 306 344
#     4  10  21  41  65  87 111 150 196 240 301 376
#
# _framework density 20.206637000000001
#
# number of rings (size 3 to 8) (size 9 to 14) (size 15 to 20)
#    0.000    1.333    1.667    4.000    4.667    4.000 
#    0.000    1.667    0.000    0.000    0.000    0.000 
#    0.000    0.000    0.000    0.000    0.000    0.000 
#
# Total GULP energy -134282.341823 kJ/mol
# GULP energy per Si atom -5595.097576 kJ/mol
# Density = 2.016065 g / cm^3
# Si number density = 20.206637 Si / 1000 Ang^3
#
#
#
# Elastic Constant Matrix: (Units=GPa)
#
#
# Indices 1 2 3 4 5 6 
#
# 1 68.1883 27.4814 3.1392 0.0000 -23.4433 0.0000
# 2 27.4814 75.7089 22.2436 0.0000 -8.0627 0.0000
# 3 3.1392 22.2436 87.5045 0.0000 -11.1232 0.0000
# 4 0.0000 0.0000 0.0000 20.1746 0.0000 0.0256
# 5 -23.4433 -8.0627 -11.1232 0.0000 38.8665 0.0000
# 6 0.0000 0.0000 0.0000 0.0256 0.0000 11.1984
#
#
#
# Elastic Compliance Matrix: (Units=1/GPa)
#
#
# Indices 1 2 3 4 5 6 
#
# 1 0.021760 -0.007365 0.002663 0.000000 0.012359 0.000000
# 2 -0.007365 0.016918 -0.004312 0.000000 -0.002167 0.000000
# 3 0.002663 -0.004312 0.012992 0.000000 0.004430 0.000000
# 4 0.000000 0.000000 0.000000 0.049567 0.000000 -0.000113
# 5 0.012359 -0.002167 0.004430 0.000000 0.034002 0.000000
# 6 0.000000 0.000000 0.000000 -0.000113 0.000000 0.089299
#
#
# Mechanical properties :
#
#
# Convention : Reuss Voigt Hill
#
# Bulk Modulus (GPa) = 29.72502 37.45891 33.59196
# Shear Modulus (GPa) = 19.70215 25.95039 22.82627
#
# Velocity S-wave (km/s) = 3.12594 3.58753 3.36466
# Velocity P-wave (km/s) = 5.26983 5.97818 5.63515
#
# Compressibility (1/GPa) = 0.03364170
#
# Stress axis : x y z
#
# Youngs Moduli (GPa) = 45.95593 59.10923 76.97300
#
# Poissons Ratio (x) = 0.43532 -0.20494
# Poissons Ratio (y) = 0.33845 0.33189
# Poissons Ratio (z) = -0.12236 0.25486
#
# Static dielectric constant tensor:
#      x y z
#    x 1.724710 0.000000 -0.002510 
#    y 0.000000 1.695860 0.000000 
#    z -0.002510 0.000000 1.702490 
# 
# From -- ./inp_files/15389.got.cif
#   From: 2010.05.17/outbox.cif.g08.bks.cpg/sg11_8_cif.got.tgz:15389.got - 2010.06.03 12:22:45.
