data_PCOD9165269
_publ_section_title
;
Structure prediction by ZEFSAII (Michael W. Deem and Ramdas Pophale) SiO2 
 PCOD9165269
Probable space group: P 21/M
;
_chemical_formula_sum "Si O2"
_cell_formula_units_Z 32
_cell_length_a 11.849553
_cell_length_b 7.714808
_cell_length_c 29.221745
_cell_angle_alpha 90.000000
_cell_angle_beta 32.409266
_cell_angle_gamma 90.000000
_cell_volume 1431.753710
_symmetry_space_group_name_H-M "P 21/M"
_symmetry_group_IT_number 11
_symmetry_cell_setting 'monoclinic'
loop_
_space_group_symop_operation_xyz
x,y,z
-x,1/2+y,-z
-x,-y,-z
x,1/2-y,z
loop_
_atom_site_type_symbol
_atom_site_label
_atom_site_fract_x
_atom_site_fract_y
_atom_site_fract_z
Si Si1 0.745987 0.543441 0.417812
Si Si2 0.772098 0.961737 0.308511
Si Si3 0.827141 0.453893 0.876715
Si Si4 0.551200 0.456364 0.054959
Si Si5 0.530818 0.448942 0.736661
Si Si6 0.015335 0.448953 0.410480
Si Si7 0.354685 0.962678 0.403099
Si Si8 0.248189 0.043420 0.915742
O O1 0.500000 0.500000 0.500000
O O2 0.771299 0.750000 0.414358
O O3 0.833119 0.487439 0.338691
O O4 0.864220 0.453853 0.418588
O O5 0.771190 0.750000 0.307986
O O6 0.537485 0.015082 0.375627
O O7 0.945425 0.026119 0.213607
O O8 0.856108 0.250000 0.875634
O O9 0.672665 0.472149 0.885868
O O10 0.714295 0.526029 0.960524
O O11 0.535146 0.250000 0.055117
O O12 0.636315 0.490365 0.076620
O O13 0.461701 0.250000 0.752896
O O14 0.567198 0.522857 0.673333
O O15 0.371693 0.526726 0.828491
O O16 0.769175 0.453375 0.673891
O O17 0.070917 0.250000 0.401660
O O18 0.870938 0.523273 0.500937
O O19 0.342539 0.750000 0.406535
O O20 0.265970 0.250000 0.907753
O O21 0.000000 0.000000 0.000000
#
# Coordination Sequence:
#
# PCOD9165269 Si02
#       8
#     4   4   4   4   4   4   4   4
#     4  11  21  36  57  84 119 156 196 235 287 348
#     4   9  18  33  58  85 112 150 195 240 285 345
#     4   9  19  36  62  89 115 153 198 242 291 353
#     4  10  21  38  61  88 120 153 191 242 301 356
#     4  10  23  41  64  88 113 155 205 244 289 354
#     4  11  22  38  61  88 122 156 192 246 302 349
#     4   9  18  36  61  87 116 153 199 246 292 344
#     4  11  25  43  64  88 118 155 199 248 301 358
#
# _framework density 22.350214000000001
#
# number of rings (size 3 to 8) (size 9 to 14) (size 15 to 20)
#    0.000    2.000    1.250    1.875    3.500    1.500 
#    0.000    1.250    0.000    0.000    0.000    0.000 
#    0.000    0.000    0.000    0.000    0.000    0.000 
#
# Total GULP energy -178671.705685 kJ/mol
# GULP energy per Si atom -5583.490803 kJ/mol
# Density = 2.229934 g / cm^3
# Si number density = 22.350214 Si / 1000 Ang^3
#
#
#
# Elastic Constant Matrix: (Units=GPa)
#
#
# Indices 1 2 3 4 5 6 
#
# 1 88.2284 -11.6492 19.5684 0.0000 15.4439 0.0000
# 2 -11.6492 42.0033 -0.1777 0.0000 7.9842 0.0000
# 3 19.5684 -0.1777 135.2296 0.0000 7.4955 0.0000
# 4 0.0000 0.0000 0.0000 13.9286 0.0000 -3.2954
# 5 15.4439 7.9842 7.4955 0.0000 27.1255 0.0000
# 6 0.0000 0.0000 0.0000 -3.2954 0.0000 25.0411
#
#
#
# Elastic Compliance Matrix: (Units=1/GPa)
#
#
# Indices 1 2 3 4 5 6 
#
# 1 0.014030 0.005639 -0.001511 0.000000 -0.009230 0.000000
# 2 0.005639 0.027512 -0.000155 0.000000 -0.011266 0.000000
# 3 -0.001511 -0.000155 0.007681 0.000000 -0.001216 0.000000
# 4 0.000000 0.000000 0.000000 0.074102 0.000000 0.009752
# 5 -0.009230 -0.011266 -0.001216 0.000000 0.045773 0.000000
# 6 0.000000 0.000000 0.000000 0.009752 0.000000 0.041218
#
#
# Mechanical properties :
#
#
# Convention : Reuss Voigt Hill
#
# Bulk Modulus (GPa) = 17.49238 31.21602 24.35420
# Shear Modulus (GPa) = 22.58088 30.40035 26.49061
#
# Velocity S-wave (km/s) = 3.18200 3.69207 3.44648
# Velocity P-wave (km/s) = 4.61992 5.67206 5.17281
#
# Compressibility (1/GPa) = 0.05716775
#
# Stress axis : x y z
#
# Youngs Moduli (GPa) = 71.27794 36.34724 130.19627
#
# Poissons Ratio (x) = -0.20496 0.19674
# Poissons Ratio (y) = -0.40194 0.02023
# Poissons Ratio (z) = 0.10771 0.00565
#
# Static dielectric constant tensor:
#      x y z
#    x 1.832030 0.000000 0.015530 
#    y 0.000000 1.850760 0.000000 
#    z 0.015530 0.000000 1.858910 
# 
# From -- ./inp_files/73054.got.cif
#   From: 2010.05.17/outbox.cif.g08.bks.cpg/sg11_37_cif.got.tgz:73054.got - 2010.06.03 12:22:45.
