data_PCOD9165998
_publ_section_title
;
Structure prediction by ZEFSAII (Michael W. Deem and Ramdas Pophale) SiO2 
 PCOD9165998
Probable space group: P 21/M
;
_chemical_formula_sum "Si O2"
_cell_formula_units_Z 20
_cell_length_a 5.257060
_cell_length_b 13.659517
_cell_length_c 11.798725
_cell_angle_alpha 90.000000
_cell_angle_beta 90.217798
_cell_angle_gamma 90.000000
_cell_volume 847.247348
_symmetry_space_group_name_H-M "P 21/M"
_symmetry_group_IT_number 11
_symmetry_cell_setting 'monoclinic'
loop_
_space_group_symop_operation_xyz
x,y,z
-x,1/2+y,-z
-x,-y,-z
x,1/2-y,z
loop_
_atom_site_type_symbol
_atom_site_label
_atom_site_fract_x
_atom_site_fract_y
_atom_site_fract_z
Si Si1 0.704332 0.448204 0.422961
Si Si2 0.717704 0.360633 0.186783
Si Si3 0.980480 0.357195 0.622563
Si Si4 0.147894 0.861762 0.118255
Si Si5 0.770127 0.924121 0.939169
O O1 0.500000 0.500000 0.500000
O O2 0.621783 0.402339 0.305600
O O3 0.875147 0.540055 0.384868
O O4 0.822064 0.366482 0.506050
O O5 0.797420 0.250000 0.203682
O O6 0.470794 0.367421 0.107572
O O7 0.973359 0.410379 0.137535
O O8 0.114241 0.250000 0.621884
O O9 0.845840 0.361399 0.745212
O O10 0.217739 0.750000 0.082926
O O11 0.869681 0.883339 0.060558
O O12 0.290716 0.959764 0.075379
#
# Coordination Sequence:
#
# PCOD9165998 Si02
#       5
#     4   4   4   4   4
#     4  11  24  42  65  96 133 176 230 284 333 404
#     4  12  25  45  72 102 137 182 228 284 344 404
#     4  10  22  43  66  95 132 175 223 278 344 403
#     4  10  21  43  71 100 138 180 225 281 345 408
#     4  11  25  46  70 104 139 177 229 282 337 413
#
# _framework density 23.605855999999999
#
# number of rings (size 3 to 8) (size 9 to 14) (size 15 to 20)
#    0.000    1.200    2.000    3.600    2.800    4.800 
#    3.600    4.000    0.000    0.000    0.000    0.000 
#    0.000    0.000    0.000    0.000    0.000    0.000 
#
# Total GULP energy -111561.315888 kJ/mol
# GULP energy per Si atom -5578.065794 kJ/mol
# Density = 2.355213 g / cm^3
# Si number density = 23.605856 Si / 1000 Ang^3
#
#
#
# Elastic Constant Matrix: (Units=GPa)
#
#
# Indices 1 2 3 4 5 6 
#
# 1 40.1936 3.0950 14.1651 0.0000 -5.3431 0.0000
# 2 3.0950 174.2059 30.3155 0.0000 -5.5950 0.0000
# 3 14.1651 30.3155 104.3637 0.0000 -6.0795 0.0000
# 4 0.0000 0.0000 0.0000 35.1436 0.0000 2.7048
# 5 -5.3431 -5.5950 -6.0795 0.0000 26.4300 0.0000
# 6 0.0000 0.0000 0.0000 2.7048 0.0000 15.8140
#
#
#
# Elastic Compliance Matrix: (Units=1/GPa)
#
#
# Indices 1 2 3 4 5 6 
#
# 1 0.026687 0.000272 -0.003430 0.000000 0.004664 0.000000
# 2 0.000272 0.006069 -0.001745 0.000000 0.000938 0.000000
# 3 -0.003430 -0.001745 0.010635 0.000000 0.001383 0.000000
# 4 0.000000 0.000000 0.000000 0.028834 0.000000 -0.004932
# 5 0.004664 0.000938 0.001383 0.000000 0.039296 0.000000
# 6 0.000000 0.000000 0.000000 -0.004932 0.000000 0.064079
#
#
# Mechanical properties :
#
#
# Convention : Reuss Voigt Hill
#
# Bulk Modulus (GPa) = 29.77382 45.99049 37.88215
# Shear Modulus (GPa) = 25.43226 33.55667 29.49447
#
# Velocity S-wave (km/s) = 3.28589 3.77442 3.53860
# Velocity P-wave (km/s) = 5.19965 6.20645 5.72522
#
# Compressibility (1/GPa) = 0.03358656
#
# Stress axis : x y z
#
# Youngs Moduli (GPa) = 37.47097 164.76200 94.02949
#
# Poissons Ratio (x) = -0.04490 0.32249
# Poissons Ratio (y) = -0.01021 0.16411
# Poissons Ratio (z) = 0.12851 0.28757
#
# Static dielectric constant tensor:
#      x y z
#    x 1.917690 0.000000 -0.012340 
#    y 0.000000 1.916340 0.000000 
#    z -0.012340 0.000000 2.137750 
# 
# From -- ./inp_files/29629.got.cif
#   From: 2010.05.17/outbox.cif.g08.bks.cpg/sg11_15_cif.got.tgz:29629.got - 2010.06.03 12:22:45.
