data_PCOD9165935
_publ_section_title
;
Structure prediction by ZEFSAII (Michael W. Deem and Ramdas Pophale) SiO2 
 PCOD9165935
Probable space group: P 21/M
;
_chemical_formula_sum "Si O2"
_cell_formula_units_Z 26
_cell_length_a 19.782114
_cell_length_b 9.129195
_cell_length_c 14.545340
_cell_angle_alpha 90.000000
_cell_angle_beta 151.061817
_cell_angle_gamma 90.000000
_cell_volume 1271.024437
_symmetry_space_group_name_H-M "P 21/M"
_symmetry_group_IT_number 11
_symmetry_cell_setting 'monoclinic'
loop_
_space_group_symop_operation_xyz
x,y,z
-x,1/2+y,-z
-x,-y,-z
x,1/2-y,z
loop_
_atom_site_type_symbol
_atom_site_label
_atom_site_fract_x
_atom_site_fract_y
_atom_site_fract_z
Si Si1 0.700556 0.573315 0.987503
Si Si2 0.798066 0.581002 0.516370
Si Si3 0.492793 0.920436 0.393713
Si Si4 0.983507 0.426222 0.380637
Si Si5 0.192181 0.015143 0.276614
Si Si6 0.481347 0.921251 0.074889
Si Si7 0.949166 0.250000 0.961843
O O1 0.706078 0.750000 0.992385
O O2 0.611605 0.508630 0.797180
O O3 0.623795 0.513458 0.987657
O O4 0.853440 0.501138 0.174254
O O5 0.837064 0.750000 0.588380
O O6 0.834380 0.480862 0.646581
O O7 0.634007 0.576915 0.302634
O O8 0.881493 0.547467 0.522818
O O9 0.450648 0.750000 0.349078
O O10 0.500000 0.000000 0.500000
O O11 0.650672 0.926127 0.542249
O O12 0.964560 0.250000 0.367028
O O13 0.000000 0.500000 0.500000
O O14 0.073675 0.127729 0.108477
O O15 0.170862 0.876781 0.187654
O O16 0.437987 0.750000 0.015061
O O17 0.500000 0.000000 0.000000
#
# Coordination Sequence:
#
# PCOD9165935 Si02
#       7
#     4   4   4   4   4   4   2
#     4  12  26  45  68  99 141 185 235 284 341 415
#     4  10  21  41  70  93 129 172 216 275 335 399
#     4  12  26  46  71  98 139 183 229 286 350 417
#     4  11  24  45  70 101 139 179 227 286 352 414
#     4  11  22  46  67 100 135 172 227 276 336 403
#     4  11  22  40  69 102 135 175 224 280 349 412
#     4  10  24  38  70  98 134 174 218 284 332 396
#
# _framework density 20.455940999999999
#
# number of rings (size 3 to 8) (size 9 to 14) (size 15 to 20)
#    0.000    0.923    3.077    3.692    2.154    3.692 
#    6.923    0.000    0.000    0.000    0.000    0.000 
#    0.000    0.000    0.000    0.000    0.000    0.000 
#
# Total GULP energy -144760.056816 kJ/mol
# GULP energy per Si atom -5567.694493 kJ/mol
# Density = 2.040938 g / cm^3
# Si number density = 20.455941 Si / 1000 Ang^3
#
#
#
# Elastic Constant Matrix: (Units=GPa)
#
#
# Indices 1 2 3 4 5 6 
#
# 1 59.4549 1.4528 -13.0555 0.0000 -7.7333 0.0000
# 2 1.4528 124.8153 24.8077 0.0000 -13.3088 0.0000
# 3 -13.0555 24.8077 57.5064 0.0000 2.8605 0.0000
# 4 0.0000 0.0000 0.0000 21.3211 0.0000 14.3081
# 5 -7.7333 -13.3088 2.8605 0.0000 31.3359 0.0000
# 6 0.0000 0.0000 0.0000 14.3081 0.0000 11.3508
#
#
#
# Elastic Compliance Matrix: (Units=1/GPa)
#
#
# Indices 1 2 3 4 5 6 
#
# 1 0.018265 -0.000644 0.004233 0.000000 0.003848 0.000000
# 2 -0.000644 0.009339 -0.004384 0.000000 0.004208 0.000000
# 3 0.004233 -0.004384 0.020375 0.000000 -0.002677 0.000000
# 4 0.000000 0.000000 0.000000 0.304398 0.000000 -0.383705
# 5 0.003848 0.004208 -0.002677 0.000000 0.034893 0.000000
# 6 0.000000 0.000000 0.000000 -0.383705 0.000000 0.571775
#
#
# Mechanical properties :
#
#
# Convention : Reuss Voigt Hill
#
# Bulk Modulus (GPa) = 21.55668 29.79854 25.67761
# Shear Modulus (GPa) = 5.12243 28.03967 16.58105
#
# Velocity S-wave (km/s) = 1.58416 3.70636 2.85015
# Velocity P-wave (km/s) = 3.72922 5.73715 4.83849
#
# Compressibility (1/GPa) = 0.04638933
#
# Stress axis : x y z
#
# Youngs Moduli (GPa) = 54.74902 107.07285 49.08000
#
# Poissons Ratio (x) = 0.06892 -0.20775
# Poissons Ratio (y) = 0.03524 0.21519
# Poissons Ratio (z) = -0.23175 0.46945
#
# Static dielectric constant tensor:
#      x y z
#    x 1.746830 0.000000 -0.026150 
#    y 0.000000 1.688380 0.000000 
#    z -0.026150 0.000000 1.719850 
# 
# From -- ./inp_files/54394.got.cif
#   From: 2010.05.17/outbox.cif.g08.bks.cpg/sg11_28_cif.got.tgz:54394.got - 2010.06.03 12:22:45.
