data_PCOD9165911
_publ_section_title
;
Structure prediction by ZEFSAII (Michael W. Deem and Ramdas Pophale) SiO2 
 PCOD9165911
Probable space group: P 21/M
;
_chemical_formula_sum "Si O2"
_cell_formula_units_Z 20
_cell_length_a 13.976634
_cell_length_b 12.969702
_cell_length_c 5.438308
_cell_angle_alpha 90.000000
_cell_angle_beta 99.735071
_cell_angle_gamma 90.000000
_cell_volume 971.621580
_symmetry_space_group_name_H-M "P 21/M"
_symmetry_group_IT_number 11
_symmetry_cell_setting 'monoclinic'
loop_
_space_group_symop_operation_xyz
x,y,z
-x,1/2+y,-z
-x,-y,-z
x,1/2-y,z
loop_
_atom_site_type_symbol
_atom_site_label
_atom_site_fract_x
_atom_site_fract_y
_atom_site_fract_z
Si Si1 0.795976 0.430715 0.906796
Si Si2 0.606854 0.136821 0.041604
Si Si3 0.887306 0.472355 0.450927
Si Si4 0.430418 0.444531 0.663555
Si Si5 0.240001 0.366540 0.360454
O O1 0.694039 0.371976 0.883461
O O2 0.855350 0.418509 0.184110
O O3 0.855059 0.409085 0.681834
O O4 0.770773 0.552660 0.866848
O O5 0.609216 0.250000 0.158537
O O6 0.623077 0.039986 0.226743
O O7 0.501569 0.116458 0.876760
O O8 0.828556 0.579637 0.465869
O O9 0.000000 0.500000 0.500000
O O10 0.500000 0.500000 0.500000
O O11 0.350251 0.374856 0.501570
O O12 0.213545 0.250000 0.293156
#
# Coordination Sequence:
#
# PCOD9165911 Si02
#       5
#     4   4   4   4   4
#     4  10  21  42  62  94 128 164 212 270 315 387
#     4  11  23  39  63  92 130 173 213 264 331 393
#     4  10  21  41  67  88 129 166 211 274 324 370
#     4  11  21  42  58  91 129 168 218 267 316 385
#     4  10  22  38  64  92 128 171 212 263 325 382
#
# _framework density 20.584144999999999
#
# number of rings (size 3 to 8) (size 9 to 14) (size 15 to 20)
#    1.200    0.400    4.000    1.200    0.000    2.400 
#    0.000    2.000    0.000    0.000    0.000    0.000 
#    0.000    0.000    0.000    0.000    0.000    0.000 
#
# Total GULP energy -111498.237680 kJ/mol
# GULP energy per Si atom -5574.911884 kJ/mol
# Density = 2.053729 g / cm^3
# Si number density = 20.584145 Si / 1000 Ang^3
#
#
#
# Elastic Constant Matrix: (Units=GPa)
#
#
# Indices 1 2 3 4 5 6 
#
# 1 104.4665 6.3699 24.1943 0.0000 -2.9348 0.0000
# 2 6.3699 62.6467 11.7465 0.0000 -8.7872 0.0000
# 3 24.1943 11.7465 96.8785 0.0000 -5.2187 0.0000
# 4 0.0000 0.0000 0.0000 11.8011 0.0000 1.5174
# 5 -2.9348 -8.7872 -5.2187 0.0000 28.6687 0.0000
# 6 0.0000 0.0000 0.0000 1.5174 0.0000 9.1497
#
#
#
# Elastic Compliance Matrix: (Units=1/GPa)
#
#
# Indices 1 2 3 4 5 6 
#
# 1 0.010185 -0.000513 -0.002458 0.000000 0.000438 0.000000
# 2 -0.000513 0.017010 -0.001673 0.000000 0.004857 0.000000
# 3 -0.002458 -0.001673 0.011208 0.000000 0.001276 0.000000
# 4 0.000000 0.000000 0.000000 0.086584 0.000000 -0.014360
# 5 0.000438 0.004857 0.001276 0.000000 0.036647 0.000000
# 6 0.000000 0.000000 0.000000 -0.014360 0.000000 0.111675
#
#
# Mechanical properties :
#
#
# Convention : Reuss Voigt Hill
#
# Bulk Modulus (GPa) = 34.34676 38.73481 36.54078
# Shear Modulus (GPa) = 17.10566 24.70264 20.90415
#
# Velocity S-wave (km/s) = 2.88585 3.46798 3.19022
# Velocity P-wave (km/s) = 5.27508 5.90715 5.60004
#
# Compressibility (1/GPa) = 0.02911483
#
# Stress axis : x y z
#
# Youngs Moduli (GPa) = 98.18095 58.79048 89.22557
#
# Poissons Ratio (x) = 0.03018 0.21930
# Poissons Ratio (y) = 0.05040 0.14924
# Poissons Ratio (z) = 0.24131 0.09833
#
# Static dielectric constant tensor:
#      x y z
#    x 1.741980 0.000000 -0.025820 
#    y 0.000000 1.760010 0.000000 
#    z -0.025820 0.000000 1.771430 
# 
# From -- ./inp_files/6117.got.cif
#   From: 2010.05.17/outbox.cif.g08.bks.cpg/sg11_4_cif.got.tgz:6117.got - 2010.06.03 12:22:45.
