data_PCOD9165894
_publ_section_title
;
Structure prediction by ZEFSAII (Michael W. Deem and Ramdas Pophale) SiO2 
 PCOD9165894
Probable space group: P 21/M
;
_chemical_formula_sum "Si O2"
_cell_formula_units_Z 32
_cell_length_a 7.755906
_cell_length_b 22.398151
_cell_length_c 10.079716
_cell_angle_alpha 90.000000
_cell_angle_beta 127.916776
_cell_angle_gamma 90.000000
_cell_volume 1381.393041
_symmetry_space_group_name_H-M "P 21/M"
_symmetry_group_IT_number 11
_symmetry_cell_setting 'monoclinic'
loop_
_space_group_symop_operation_xyz
x,y,z
-x,1/2+y,-z
-x,-y,-z
x,1/2-y,z
loop_
_atom_site_type_symbol
_atom_site_label
_atom_site_fract_x
_atom_site_fract_y
_atom_site_fract_z
Si Si1 0.996186 0.622402 0.799720
Si Si2 0.175630 0.505241 0.303599
Si Si3 0.973215 0.817298 0.513118
Si Si4 0.289179 0.485044 0.811421
Si Si5 0.355991 0.924055 0.161163
Si Si6 0.383386 0.182758 0.259623
Si Si7 0.479111 0.813584 0.366509
Si Si8 0.721338 0.415264 0.408794
O O1 0.840411 0.566251 0.685831
O O2 0.865963 0.662073 0.844775
O O3 0.044189 0.663138 0.695581
O O4 0.206755 0.593594 0.966739
O O5 0.262672 0.519932 0.198547
O O6 0.310196 0.541686 0.479020
O O7 0.926445 0.528624 0.207189
O O8 0.048378 0.750000 0.516152
O O9 0.083073 0.867910 0.475375
O O10 0.711704 0.815893 0.400209
O O11 0.395883 0.435952 0.765551
O O12 0.224507 0.539737 0.684696
O O13 0.500000 0.500000 0.000000
O O14 0.344001 0.869571 0.256987
O O15 0.407724 0.250000 0.216140
O O16 0.465012 0.184679 0.451752
O O17 0.523734 0.127833 0.270087
O O18 0.372777 0.750000 0.285982
#
# Coordination Sequence:
#
# PCOD9165894 Si02
#       8
#     4   4   4   4   4   4   4   4
#     4  11  23  40  62  92 127 170 217 258 320 392
#     4  12  25  41  64 100 131 169 217 264 325 390
#     4  10  21  41  66  90 124 168 214 270 323 383
#     4  12  26  42  63  96 134 167 209 267 319 391
#     4  12  24  42  65  93 133 172 210 267 333 378
#     4  10  22  40  63  93 124 162 217 270 313 378
#     4   9  20  39  62  90 120 160 215 263 317 380
#     4  12  23  40  66  95 129 168 217 266 328 386
#
# _framework density 23.165020999999999
#
# number of rings (size 3 to 8) (size 9 to 14) (size 15 to 20)
#    0.000    1.000    3.750    3.750    5.250    2.000 
#    0.000    0.000    0.000    0.000    0.000    0.000 
#    0.000    0.000    0.000    0.000    0.000    0.000 
#
# Total GULP energy -178853.369582 kJ/mol
# GULP energy per Si atom -5589.167799 kJ/mol
# Density = 2.311230 g / cm^3
# Si number density = 23.165021 Si / 1000 Ang^3
#
#
#
# Elastic Constant Matrix: (Units=GPa)
#
#
# Indices 1 2 3 4 5 6 
#
# 1 57.6042 -12.5421 -3.6920 0.0000 11.8140 0.0000
# 2 -12.5421 104.8176 29.7419 0.0000 -0.6599 0.0000
# 3 -3.6920 29.7419 35.7243 0.0000 2.2883 0.0000
# 4 0.0000 0.0000 0.0000 25.6037 0.0000 4.4752
# 5 11.8140 -0.6599 2.2883 0.0000 24.9069 0.0000
# 6 0.0000 0.0000 0.0000 4.4752 0.0000 32.5690
#
#
#
# Elastic Compliance Matrix: (Units=1/GPa)
#
#
# Indices 1 2 3 4 5 6 
#
# 1 0.019798 0.002040 0.000952 0.000000 -0.009424 0.000000
# 2 0.002040 0.012743 -0.010419 0.000000 0.000327 0.000000
# 3 0.000952 -0.010419 0.037029 0.000000 -0.004129 0.000000
# 4 0.000000 0.000000 0.000000 0.040018 0.000000 -0.005499
# 5 -0.009424 0.000327 -0.004129 0.000000 0.045008 0.000000
# 6 0.000000 0.000000 0.000000 -0.005499 0.000000 0.031460
#
#
# Mechanical properties :
#
#
# Convention : Reuss Voigt Hill
#
# Bulk Modulus (GPa) = 18.27684 25.01797 21.64741
# Shear Modulus (GPa) = 22.81552 28.92515 25.87033
#
# Velocity S-wave (km/s) = 3.14174 3.53747 3.34546
# Velocity P-wave (km/s) = 4.58995 5.24483 4.92828
#
# Compressibility (1/GPa) = 0.05471404
#
# Stress axis : x y z
#
# Youngs Moduli (GPa) = 50.51109 78.47483 27.00553
#
# Poissons Ratio (x) = -0.16005 -0.02570
# Poissons Ratio (y) = -0.10302 0.28138
# Poissons Ratio (z) = -0.04807 0.81765
#
# Static dielectric constant tensor:
#      x y z
#    x 1.923260 0.000000 0.003280 
#    y 0.000000 1.889440 0.000000 
#    z 0.003280 0.000000 1.862150 
# 
# From -- ./inp_files/19347.got.cif
#   From: 2010.05.17/outbox.cif.g08.bks.cpg/sg11_10_cif.got.tgz:19347.got - 2010.06.03 12:22:45.
