data_PCOD9165044
_publ_section_title
;
Structure prediction by ZEFSAII (Michael W. Deem and Ramdas Pophale) SiO2 
 PCOD9165044
Probable space group: P 21/M
;
_chemical_formula_sum "Si O2"
_cell_formula_units_Z 24
_cell_length_a 17.569426
_cell_length_b 11.108078
_cell_length_c 13.034392
_cell_angle_alpha 90.000000
_cell_angle_beta 22.630187
_cell_angle_gamma 90.000000
_cell_volume 978.817334
_symmetry_space_group_name_H-M "P 21/M"
_symmetry_group_IT_number 11
_symmetry_cell_setting 'monoclinic'
loop_
_space_group_symop_operation_xyz
x,y,z
-x,1/2+y,-z
-x,-y,-z
x,1/2-y,z
loop_
_atom_site_type_symbol
_atom_site_label
_atom_site_fract_x
_atom_site_fract_y
_atom_site_fract_z
Si Si1 0.134174 0.992881 0.671620
Si Si2 0.017761 0.750000 0.076078
Si Si3 0.536296 0.250000 0.084156
Si Si4 0.242773 0.550961 0.309862
Si Si5 0.887820 0.750000 0.012651
Si Si6 0.210025 0.115044 0.159750
Si Si7 0.509098 0.056378 0.304106
Si Si8 0.454991 0.750000 0.564705
O O1 0.295912 0.992277 0.561863
O O2 0.030116 0.124728 0.805704
O O3 0.244559 0.982729 0.425878
O O4 0.998609 0.874199 0.847612
O O5 0.249295 0.750000 0.761247
O O6 0.882844 0.750000 0.142958
O O7 0.596300 0.145359 0.926471
O O8 0.507381 0.148295 0.210912
O O9 0.247353 0.439801 0.225704
O O10 0.025955 0.609833 0.561302
O O11 0.665272 0.750000 0.247674
O O12 0.283250 0.250000 0.063618
O O13 0.315238 0.033711 0.943466
O O14 0.543456 0.131830 0.363957
#
# Coordination Sequence:
#
# PCOD9165044 Si02
#       8
#     4   2   2   4   2   4   4   2
#     4  12  26  47  71 103 144 185 232 296 354 423
#     4  12  26  49  79 103 134 188 238 289 371 420
#     4   9  18  38  61  92 138 181 225 284 334 409
#     4  10  21  39  63  94 139 185 231 282 345 405
#     4  12  28  51  73 107 145 175 236 308 354 423
#     4  10  21  37  62  99 140 182 237 280 330 420
#     4  10  22  42  67  99 140 181 228 292 342 422
#     4  11  24  50  79 100 137 180 239 291 363 424
#
# _framework density 24.519386000000001
#
# number of rings (size 3 to 8) (size 9 to 14) (size 15 to 20)
#    0.000    1.333    2.500    2.500    2.333    4.667 
#    6.000    0.000    0.000    0.000    0.000    0.000 
#    0.000    0.000    0.000    0.000    0.000    0.000 
#
# Total GULP energy -133919.630422 kJ/mol
# GULP energy per Si atom -5579.984601 kJ/mol
# Density = 2.446358 g / cm^3
# Si number density = 24.519386 Si / 1000 Ang^3
#
#
#
# Elastic Constant Matrix: (Units=GPa)
#
#
# Indices 1 2 3 4 5 6 
#
# 1 42.7081 14.7023 1.8102 0.0000 6.7192 0.0000
# 2 14.7023 173.5452 52.1149 0.0000 27.0348 0.0000
# 3 1.8102 52.1149 87.3156 0.0000 -6.9167 0.0000
# 4 0.0000 0.0000 0.0000 -29.5566 0.0000 19.3933
# 5 6.7192 27.0348 -6.9167 0.0000 37.1060 0.0000
# 6 0.0000 0.0000 0.0000 19.3933 0.0000 20.7468
#
#
#
# Elastic Compliance Matrix: (Units=1/GPa)
#
#
# Indices 1 2 3 4 5 6 
#
# 1 0.024473 -0.001641 0.000219 0.000000 -0.003195 0.000000
# 2 -0.001641 0.008740 -0.005748 0.000000 -0.007142 0.000000
# 3 0.000219 -0.005748 0.015436 0.000000 0.007026 0.000000
# 4 0.000000 0.000000 0.000000 -0.020971 0.000000 0.019603
# 5 -0.003195 -0.007142 0.007026 0.000000 0.034042 0.000000
# 6 0.000000 0.000000 0.000000 0.019603 0.000000 0.029876
#
#
# Mechanical properties :
#
#
# Convention : Reuss Voigt Hill
#
# Bulk Modulus (GPa) = 29.14787 48.98044 39.06415
# Shear Modulus (GPa) = 42.59948 21.32200 31.96074
#
# Velocity S-wave (km/s) = 4.17271 2.95209 3.61430
# Velocity P-wave (km/s) = 5.92696 5.62489 5.77790
#
# Compressibility (1/GPa) = 0.03430783
#
# Stress axis : x y z
#
# Youngs Moduli (GPa) = 40.86109 114.41605 64.78523
#
# Poissons Ratio (x) = 0.18781 -0.01421
# Poissons Ratio (y) = 0.06707 0.37240
# Poissons Ratio (z) = -0.00896 0.65770
#
# Static dielectric constant tensor:
#      x y z
#    x 1.910210 0.000000 -0.039440 
#    y 0.000000 1.982370 0.000000 
#    z -0.039440 0.000000 1.974740 
# 
# From -- ./inp_files/54804.got.cif
#   From: 2010.05.17/outbox.cif.g08.bks.cpg/sg11_28_cif.got.tgz:54804.got - 2010.06.03 12:22:45.
