data_PCOD9165447
_publ_section_title
;
Structure prediction by ZEFSAII (Michael W. Deem and Ramdas Pophale) SiO2 
 PCOD9165447
Probable space group: P 21/M
;
_chemical_formula_sum "Si O2"
_cell_formula_units_Z 32
_cell_length_a 19.398897
_cell_length_b 8.824524
_cell_length_c 12.762071
_cell_angle_alpha 90.000000
_cell_angle_beta 131.337707
_cell_angle_gamma 90.000000
_cell_volume 1640.328675
_symmetry_space_group_name_H-M "P 21/M"
_symmetry_group_IT_number 11
_symmetry_cell_setting 'monoclinic'
loop_
_space_group_symop_operation_xyz
x,y,z
-x,1/2+y,-z
-x,-y,-z
x,1/2-y,z
loop_
_atom_site_type_symbol
_atom_site_label
_atom_site_fract_x
_atom_site_fract_y
_atom_site_fract_z
Si Si1 0.025371 0.569653 0.138774
Si Si2 0.236143 0.568575 0.409853
Si Si3 0.526126 0.577415 0.634307
Si Si4 0.488753 0.931644 0.161690
Si Si5 0.145254 0.569678 0.935767
Si Si6 0.284495 0.566355 0.890597
Si Si7 0.313318 0.067617 0.702153
Si Si8 0.729754 0.923514 0.768566
O O1 0.017301 0.750000 0.121832
O O2 0.129093 0.534002 0.278021
O O3 0.953037 0.508444 0.151284
O O4 0.000000 0.500000 0.000000
O O5 0.248223 0.750000 0.423343
O O6 0.269422 0.498061 0.552163
O O7 0.287965 0.494765 0.362914
O O8 0.500000 0.500000 0.500000
O O9 0.492554 0.750000 0.604918
O O10 0.494511 0.486599 0.703461
O O11 0.636647 0.578673 0.741649
O O12 0.485943 0.750000 0.156763
O O13 0.578544 0.980118 0.187181
O O14 0.387704 0.985597 0.026105
O O15 0.134435 0.750000 0.921069
O O16 0.209351 0.522117 0.902467
O O17 0.198779 0.523504 0.095337
O O18 0.284956 0.750000 0.886358
O O19 0.265963 0.498184 0.758033
O O20 0.309034 0.250000 0.696507
O O21 0.762445 0.750000 0.790060
#
# Coordination Sequence:
#
# PCOD9165447 Si02
#       8
#     4   4   4   4   4   4   4   4
#     4  11  23  39  63  93 124 158 199 249 303 366
#     4  11  24  41  62  88 122 162 201 245 305 367
#     4  11  23  35  52  82 119 161 202 245 299 358
#     4  10  21  39  60  86 120 158 202 251 300 354
#     4  11  22  38  63  92 120 156 198 244 302 359
#     4  10  22  41  64  88 121 162 204 250 300 361
#     4  11  24  40  62  90 121 159 205 255 303 354
#     4  11  22  36  57  86 121 157 197 247 300 356
#
# _framework density 19.508285999999998
#
# number of rings (size 3 to 8) (size 9 to 14) (size 15 to 20)
#    0.000    1.250    2.500    3.375    0.000    8.500 
#    0.000    0.625    0.000    0.000    0.000    0.000 
#    0.000    0.000    0.000    0.000    0.000    0.000 
#
# Total GULP energy -178851.720802 kJ/mol
# GULP energy per Si atom -5589.116275 kJ/mol
# Density = 1.946388 g / cm^3
# Si number density = 19.508286 Si / 1000 Ang^3
#
#
#
# Elastic Constant Matrix: (Units=GPa)
#
#
# Indices 1 2 3 4 5 6 
#
# 1 124.0161 32.5612 45.7364 0.0000 -12.1767 0.0000
# 2 32.5612 23.4755 15.7834 0.0000 4.9578 0.0000
# 3 45.7364 15.7834 69.6942 0.0000 -16.2780 0.0000
# 4 0.0000 0.0000 0.0000 28.3862 0.0000 -4.1536
# 5 -12.1767 4.9578 -16.2780 0.0000 36.8761 0.0000
# 6 0.0000 0.0000 0.0000 -4.1536 0.0000 30.7984
#
#
#
# Elastic Compliance Matrix: (Units=1/GPa)
#
#
# Indices 1 2 3 4 5 6 
#
# 1 0.015385 -0.019704 -0.004269 0.000000 0.005845 0.000000
# 2 -0.019704 0.081918 -0.010830 0.000000 -0.022300 0.000000
# 3 -0.004269 -0.010830 0.021868 0.000000 0.009699 0.000000
# 4 0.000000 0.000000 0.000000 0.035938 0.000000 0.004847
# 5 0.005845 -0.022300 0.009699 0.000000 0.036328 0.000000
# 6 0.000000 0.000000 0.000000 0.004847 0.000000 0.033123
#
#
# Mechanical properties :
#
#
# Convention : Reuss Voigt Hill
#
# Bulk Modulus (GPa) = 20.17509 45.03863 32.60686
# Shear Modulus (GPa) = 16.09339 27.41911 21.75625
#
# Velocity S-wave (km/s) = 2.87531 3.75308 3.34313
# Velocity P-wave (km/s) = 4.62466 6.47440 5.62607
#
# Compressibility (1/GPa) = 0.04956608
#
# Stress axis : x y z
#
# Youngs Moduli (GPa) = 64.99812 12.20729 45.72910
#
# Poissons Ratio (x) = 0.24053 0.19522
# Poissons Ratio (y) = 1.28071 0.49524
# Poissons Ratio (z) = 0.27747 0.13220
#
# Static dielectric constant tensor:
#      x y z
#    x 1.699830 0.000000 0.036370 
#    y 0.000000 1.658530 0.000000 
#    z 0.036370 0.000000 1.664650 
# 
# From -- ./inp_files/42915.got.cif
#   From: 2010.05.17/outbox.cif.g08.bks.cpg/sg11_22_cif.got.tgz:42915.got - 2010.06.03 12:22:45.
