data_PCOD9165747
_publ_section_title
;
Structure prediction by ZEFSAII (Michael W. Deem and Ramdas Pophale) SiO2 
 PCOD9165747
Probable space group: P 21/M
;
_chemical_formula_sum "Si O2"
_cell_formula_units_Z 28
_cell_length_a 20.321566
_cell_length_b 8.698770
_cell_length_c 13.678177
_cell_angle_alpha 90.000000
_cell_angle_beta 144.378032
_cell_angle_gamma 90.000000
_cell_volume 1408.284719
_symmetry_space_group_name_H-M "P 21/M"
_symmetry_group_IT_number 11
_symmetry_cell_setting 'monoclinic'
loop_
_space_group_symop_operation_xyz
x,y,z
-x,1/2+y,-z
-x,-y,-z
x,1/2-y,z
loop_
_atom_site_type_symbol
_atom_site_label
_atom_site_fract_x
_atom_site_fract_y
_atom_site_fract_z
Si Si1 0.789127 0.433345 0.928201
Si Si2 0.692081 0.564701 0.011605
Si Si3 0.435098 0.935472 0.697407
Si Si4 0.203761 0.934838 0.504698
Si Si5 0.984262 0.433941 0.872701
Si Si6 0.882609 0.933788 0.397564
Si Si7 0.394659 0.433721 0.433893
O O1 0.793517 0.250000 0.929661
O O2 0.717221 0.497213 0.750363
O O3 0.727780 0.488325 0.952719
O O4 0.913919 0.503039 0.070800
O O5 0.697578 0.750000 0.005717
O O6 0.781099 0.519585 0.202135
O O7 0.562858 0.524533 0.881384
O O8 0.429924 0.750000 0.678951
O O9 0.334476 0.979843 0.648976
O O10 0.409540 0.012144 0.562571
O O11 0.197778 0.750000 0.507340
O O12 0.132991 0.976416 0.321843
O O13 0.146539 0.008302 0.529725
O O14 0.990513 0.250000 0.885405
O O15 0.000000 0.500000 0.000000
O O16 0.889430 0.750000 0.405720
O O17 0.000000 0.000000 0.500000
O O18 0.500000 0.500000 0.500000
O O19 0.393205 0.250000 0.425057
#
# Coordination Sequence:
#
# PCOD9165747 Si02
#       7
#     4   4   4   4   4   4   4
#     4  12  24  38  60  90 123 163 211 257 310 369
#     4  10  22  40  62  89 122 159 204 257 313 367
#     4  10  21  40  64  90 125 165 206 254 312 375
#     4  10  23  42  64  91 124 163 203 252 314 373
#     4  11  23  40  62  90 125 162 205 256 312 373
#     4  11  24  42  65  92 121 160 207 258 313 370
#     4  12  23  37  59  90 127 166 208 254 306 366
#
# _framework density 19.882342999999999
#
# number of rings (size 3 to 8) (size 9 to 14) (size 15 to 20)
#    0.000    1.143    1.429    5.143    0.000    8.000 
#    0.000    0.000    0.000    0.000    0.000    0.000 
#    0.000    0.000    0.000    0.000    0.000    0.000 
#
# Total GULP energy -156635.947284 kJ/mol
# GULP energy per Si atom -5594.140974 kJ/mol
# Density = 1.983709 g / cm^3
# Si number density = 19.882343 Si / 1000 Ang^3
#
#
#
# Elastic Constant Matrix: (Units=GPa)
#
#
# Indices 1 2 3 4 5 6 
#
# 1 131.5988 37.9879 65.3845 0.0000 14.9207 0.0000
# 2 37.9879 49.7847 49.7748 0.0000 4.1473 0.0000
# 3 65.3845 49.7748 152.2505 0.0000 11.0975 0.0000
# 4 0.0000 0.0000 0.0000 24.5148 0.0000 -1.3047
# 5 14.9207 4.1473 11.0975 0.0000 39.9262 0.0000
# 6 0.0000 0.0000 0.0000 -1.3047 0.0000 34.3862
#
#
#
# Elastic Compliance Matrix: (Units=1/GPa)
#
#
# Indices 1 2 3 4 5 6 
#
# 1 0.010778 -0.005301 -0.002697 0.000000 -0.002728 0.000000
# 2 -0.005301 0.032453 -0.008402 0.000000 0.000945 0.000000
# 3 -0.002697 -0.008402 0.010550 0.000000 -0.001052 0.000000
# 4 0.000000 0.000000 0.000000 0.040874 0.000000 0.001551
# 5 -0.002728 0.000945 -0.001052 0.000000 0.026260 0.000000
# 6 0.000000 0.000000 0.000000 0.001551 0.000000 0.029140
#
#
# Mechanical properties :
#
#
# Convention : Reuss Voigt Hill
#
# Bulk Modulus (GPa) = 47.66135 71.10317 59.38226
# Shear Modulus (GPa) = 26.33675 31.79789 29.06732
#
# Velocity S-wave (km/s) = 3.64349 4.00347 3.82771
# Velocity P-wave (km/s) = 6.45940 7.56372 7.03327
#
# Compressibility (1/GPa) = 0.02098136
#
# Stress axis : x y z
#
# Youngs Moduli (GPa) = 92.77979 30.81387 94.78697
#
# Poissons Ratio (x) = 0.16333 0.25564
# Poissons Ratio (y) = 0.49178 0.79643
# Poissons Ratio (z) = 0.25023 0.25891
#
# Static dielectric constant tensor:
#      x y z
#    x 1.668170 0.000000 0.011130 
#    y 0.000000 1.668790 0.000000 
#    z 0.011130 0.000000 1.702260 
# 
# From -- ./inp_files/54636.got.cif
#   From: 2010.05.17/outbox.cif.g08.bks.cpg/sg11_28_cif.got.tgz:54636.got - 2010.06.03 12:22:45.
