data_PCOD9165378
_publ_section_title
;
Structure prediction by ZEFSAII (Michael W. Deem and Ramdas Pophale) SiO2 
 PCOD9165378
Probable space group: P 21/M
;
_chemical_formula_sum "Si O2"
_cell_formula_units_Z 28
_cell_length_a 16.218965
_cell_length_b 14.964915
_cell_length_c 5.433538
_cell_angle_alpha 90.000000
_cell_angle_beta 118.194655
_cell_angle_gamma 90.000000
_cell_volume 1162.324232
_symmetry_space_group_name_H-M "P 21/M"
_symmetry_group_IT_number 11
_symmetry_cell_setting 'monoclinic'
loop_
_space_group_symop_operation_xyz
x,y,z
-x,1/2+y,-z
-x,-y,-z
x,1/2-y,z
loop_
_atom_site_type_symbol
_atom_site_label
_atom_site_fract_x
_atom_site_fract_y
_atom_site_fract_z
Si Si1 0.392488 0.348758 0.618797
Si Si2 0.552463 0.932256 0.811369
Si Si3 0.185523 0.152622 0.284500
Si Si4 0.707925 0.076536 0.143520
Si Si5 0.641743 0.148008 0.551189
Si Si6 0.878318 0.991531 0.159844
Si Si7 0.993098 0.647373 0.616401
O O1 0.424519 0.250000 0.605106
O O2 0.396358 0.395749 0.360260
O O3 0.285172 0.349117 0.557664
O O4 0.449932 0.378731 0.935117
O O5 0.444455 0.923097 0.573765
O O6 0.615670 0.014854 0.988710
O O7 0.184640 0.250000 0.144709
O O8 0.096552 0.153503 0.334211
O O9 0.180379 0.063096 0.120525
O O10 0.700444 0.128692 0.387991
O O11 0.803856 0.020142 0.263086
O O12 0.700576 0.134447 0.883511
O O13 0.606165 0.250000 0.494033
O O14 0.928243 0.083681 0.152713
O O15 0.955821 0.916805 0.344248
O O16 0.020693 0.750000 0.593157
#
# Coordination Sequence:
#
# PCOD9165378 Si02
#       7
#     4   4   4   4   4   4   4
#     4  11  22  36  65 103 139 179 226 286 349 411
#     4  12  23  44  69  99 138 179 237 289 348 409
#     4  10  21  38  63  99 139 176 225 287 351 420
#     4  12  26  45  73 101 138 183 239 284 353 422
#     4  12  27  47  69  98 140 187 236 294 349 416
#     4  11  23  42  71  94 143 179 229 286 358 412
#     4  10  23  42  68 102 134 178 231 285 350 427
#
# _framework density 24.089662000000001
#
# number of rings (size 3 to 8) (size 9 to 14) (size 15 to 20)
#    0.000    0.857    1.429    6.000    2.000    1.143 
#    0.000    0.000    0.000    0.000    0.000    0.000 
#    0.000    0.000    0.000    0.000    0.000    0.000 
#
# Total GULP energy -156355.435332 kJ/mol
# GULP energy per Si atom -5584.122690 kJ/mol
# Density = 2.403483 g / cm^3
# Si number density = 24.089662 Si / 1000 Ang^3
#
#
#
# Elastic Constant Matrix: (Units=GPa)
#
#
# Indices 1 2 3 4 5 6 
#
# 1 82.6711 33.2392 12.4095 0.0000 -6.1424 0.0000
# 2 33.2392 128.4489 25.0691 0.0000 -17.5156 0.0000
# 3 12.4095 25.0691 57.4213 0.0000 -9.5109 0.0000
# 4 0.0000 0.0000 0.0000 50.0361 0.0000 -15.0249
# 5 -6.1424 -17.5156 -9.5109 0.0000 24.0060 0.0000
# 6 0.0000 0.0000 0.0000 -15.0249 0.0000 44.4075
#
#
#
# Elastic Compliance Matrix: (Units=1/GPa)
#
#
# Indices 1 2 3 4 5 6 
#
# 1 0.013631 -0.003159 -0.001467 0.000000 0.000602 0.000000
# 2 -0.003159 0.009861 -0.002745 0.000000 0.005299 0.000000
# 3 -0.001467 -0.002745 0.019838 0.000000 0.005482 0.000000
# 4 0.000000 0.000000 0.000000 0.022246 0.000000 0.007527
# 5 0.000602 0.005299 0.005482 0.000000 0.047848 0.000000
# 6 0.000000 0.000000 0.000000 0.007527 0.000000 0.025065
#
#
# Mechanical properties :
#
#
# Convention : Reuss Voigt Hill
#
# Bulk Modulus (GPa) = 34.97844 45.55298 40.26571
# Shear Modulus (GPa) = 30.71986 36.87815 33.79900
#
# Velocity S-wave (km/s) = 3.57491 3.91688 3.74979
# Velocity P-wave (km/s) = 5.62064 6.27748 5.95812
#
# Compressibility (1/GPa) = 0.02858904
#
# Stress axis : x y z
#
# Youngs Moduli (GPa) = 73.36127 101.41012 50.40719
#
# Poissons Ratio (x) = 0.32036 0.07395
# Poissons Ratio (y) = 0.23175 0.13835
# Poissons Ratio (z) = 0.10762 0.27834
#
# Static dielectric constant tensor:
#      x y z
#    x 1.975580 0.000000 -0.058030 
#    y 0.000000 1.992820 0.000000 
#    z -0.058030 0.000000 1.986320 
# 
# From -- ./inp_files/8145.got.cif
#   From: 2010.05.17/outbox.cif.g08.bks.cpg/sg11_5_cif.got.tgz:8145.got - 2010.06.03 12:22:45.
