data_PCOD9165366
_publ_section_title
;
Structure prediction by ZEFSAII (Michael W. Deem and Ramdas Pophale) SiO2 
 PCOD9165366
Probable space group: P 21/M
;
_chemical_formula_sum "Si O2"
_cell_formula_units_Z 32
_cell_length_a 31.941638
_cell_length_b 8.861735
_cell_length_c 12.232651
_cell_angle_alpha 90.000000
_cell_angle_beta 28.179062
_cell_angle_gamma 90.000000
_cell_volume 1635.117175
_symmetry_space_group_name_H-M "P 21/M"
_symmetry_group_IT_number 11
_symmetry_cell_setting 'monoclinic'
loop_
_space_group_symop_operation_xyz
x,y,z
-x,1/2+y,-z
-x,-y,-z
x,1/2-y,z
loop_
_atom_site_type_symbol
_atom_site_label
_atom_site_fract_x
_atom_site_fract_y
_atom_site_fract_z
Si Si1 0.331037 0.069222 0.583729
Si Si2 0.004170 0.571225 0.814165
Si Si3 0.056295 0.429500 0.468485
Si Si4 0.313669 0.429933 0.373032
Si Si5 0.138560 0.928946 0.696939
Si Si6 0.540506 0.430655 0.103262
Si Si7 0.414401 0.931603 0.756232
Si Si8 0.751847 0.069111 0.010682
O O1 0.319959 0.250000 0.624569
O O2 0.301675 0.030332 0.528325
O O3 0.436048 0.035768 0.349436
O O4 0.279235 0.983264 0.797733
O O5 0.996177 0.750000 0.812556
O O6 0.014038 0.482935 0.679476
O O7 0.090654 0.545009 0.691156
O O8 0.921199 0.513606 0.075675
O O9 0.056405 0.250000 0.460056
O O10 0.000000 0.500000 0.500000
O O11 0.155890 0.492626 0.232043
O O12 0.307410 0.250000 0.377981
O O13 0.237375 0.509328 0.478378
O O14 0.408099 0.485079 0.110987
O O15 0.136778 0.750000 0.721407
O O16 0.549771 0.250000 0.066782
O O17 0.583151 0.473898 0.121880
O O18 0.421412 0.750000 0.735291
O O19 0.325759 0.975747 0.895686
O O20 0.500000 0.000000 0.500000
O O21 0.761423 0.250000 0.985306
#
# Coordination Sequence:
#
# PCOD9165366 Si02
#       8
#     4   4   4   4   4   4   4   4
#     4  10  22  41  62  86 123 168 210 256 310 371
#     4  10  22  43  68  93 125 160 204 258 311 373
#     4  12  27  46  69  96 129 168 209 260 320 381
#     4  11  24  38  59  91 124 160 210 263 309 365
#     4  10  22  41  66  93 123 164 207 254 314 374
#     4  10  21  39  61  87 123 165 208 255 314 372
#     4  10  21  38  63  92 125 165 209 260 313 374
#     4  11  24  41  64  96 128 164 212 262 315 381
#
# _framework density 19.570463
#
# number of rings (size 3 to 8) (size 9 to 14) (size 15 to 20)
#    0.000    1.500    1.250    3.000    3.500    4.000 
#    0.000    0.000    0.000    0.000    0.000    0.000 
#    0.000    0.000    0.000    0.000    0.000    0.000 
#
# Total GULP energy -178964.547500 kJ/mol
# GULP energy per Si atom -5592.642109 kJ/mol
# Density = 1.952592 g / cm^3
# Si number density = 19.570463 Si / 1000 Ang^3
#
#
#
# Elastic Constant Matrix: (Units=GPa)
#
#
# Indices 1 2 3 4 5 6 
#
# 1 62.9258 32.9254 11.0170 0.0000 0.3239 0.0000
# 2 32.9254 62.9074 17.7258 0.0000 -0.2933 0.0000
# 3 11.0170 17.7258 29.3849 0.0000 -5.9573 0.0000
# 4 0.0000 0.0000 0.0000 39.2364 0.0000 1.7537
# 5 0.3239 -0.2933 -5.9573 0.0000 27.4257 0.0000
# 6 0.0000 0.0000 0.0000 1.7537 0.0000 26.9600
#
#
#
# Elastic Compliance Matrix: (Units=1/GPa)
#
#
# Indices 1 2 3 4 5 6 
#
# 1 0.021960 -0.011004 -0.001748 0.000000 -0.000757 0.000000
# 2 -0.011004 0.024820 -0.011262 0.000000 -0.002051 0.000000
# 3 -0.001748 -0.011262 0.043370 0.000000 0.009321 0.000000
# 4 0.000000 0.000000 0.000000 0.025561 0.000000 -0.001663
# 5 -0.000757 -0.002051 0.009321 0.000000 0.038474 0.000000
# 6 0.000000 0.000000 0.000000 -0.001663 0.000000 0.037200
#
#
# Mechanical properties :
#
#
# Convention : Reuss Voigt Hill
#
# Bulk Modulus (GPa) = 23.74191 30.95051 27.34621
# Shear Modulus (GPa) = 19.72747 24.96110 22.34429
#
# Velocity S-wave (km/s) = 3.17838 3.57522 3.38262
# Velocity P-wave (km/s) = 5.06234 5.73517 5.40923
#
# Compressibility (1/GPa) = 0.04211962
#
# Stress axis : x y z
#
# Youngs Moduli (GPa) = 45.53792 40.29034 23.05752
#
# Poissons Ratio (x) = 0.44337 0.04031
# Poissons Ratio (y) = 0.50112 0.25967
# Poissons Ratio (z) = 0.07962 0.45375
#
# Static dielectric constant tensor:
#      x y z
#    x 1.688250 0.000000 -0.007450 
#    y 0.000000 1.649150 0.000000 
#    z -0.007450 0.000000 1.647850 
# 
# From -- ./inp_files/45105.got.cif
#   From: 2010.05.17/outbox.cif.g08.bks.cpg/sg11_23_cif.got.tgz:45105.got - 2010.06.03 12:22:45.
