data_PCOD9165865
_publ_section_title
;
Structure prediction by ZEFSAII (Michael W. Deem and Ramdas Pophale) SiO2 
 PCOD9165865
Probable space group: P 21/M
;
_chemical_formula_sum "Si O2"
_cell_formula_units_Z 32
_cell_length_a 23.483204
_cell_length_b 14.061556
_cell_length_c 15.858707
_cell_angle_alpha 90.000000
_cell_angle_beta 161.141382
_cell_angle_gamma 90.000000
_cell_volume 1692.682766
_symmetry_space_group_name_H-M "P 21/M"
_symmetry_group_IT_number 11
_symmetry_cell_setting 'monoclinic'
loop_
_space_group_symop_operation_xyz
x,y,z
-x,1/2+y,-z
-x,-y,-z
x,1/2-y,z
loop_
_atom_site_type_symbol
_atom_site_label
_atom_site_fract_x
_atom_site_fract_y
_atom_site_fract_z
Si Si1 0.296661 0.486209 0.241531
Si Si2 0.340974 0.470708 0.662756
Si Si3 0.965217 0.095271 0.504973
Si Si4 0.547239 0.509991 0.372878
Si Si5 0.979256 0.362912 0.192702
Si Si6 0.293290 0.140364 0.079354
Si Si7 0.343709 0.634372 0.800117
Si Si8 0.786597 0.147833 0.090133
O O1 0.500000 0.500000 0.500000
O O2 0.312084 0.455348 0.360333
O O3 0.185367 0.582747 0.079920
O O4 0.230063 0.414332 0.075769
O O5 0.383268 0.485111 0.623990
O O6 0.347352 0.572509 0.719444
O O7 0.154651 0.418827 0.414097
O O8 0.486854 0.401399 0.909456
O O9 0.825033 0.096484 0.384179
O O10 0.146613 0.128772 0.800846
O O11 0.871613 0.154448 0.300599
O O12 0.000000 0.000000 0.500000
O O13 0.369950 0.573080 0.130590
O O14 0.472891 0.407188 0.296686
O O15 0.989485 0.250000 0.188975
O O16 0.937750 0.374837 0.234261
O O17 0.318165 0.250000 0.134100
O O18 0.338848 0.750000 0.784688
O O19 0.711048 0.250000 0.958684
#
# Coordination Sequence:
#
# PCOD9165865 Si02
#       8
#     4   4   4   4   4   4   4   4
#     4  10  21  41  64  90 123 160 209 265 317 367
#     4  11  24  41  63  92 132 174 216 260 313 389
#     4  12  20  37  62  91 130 160 209 267 322 375
#     4  11  23  42  63  92 127 166 210 268 312 370
#     4  11  23  41  65  93 126 166 213 263 319 382
#     4  11  22  37  61  94 126 164 210 264 322 375
#     4  11  23  39  61  91 133 179 213 259 324 385
#     4  11  21  36  63  93 119 160 211 260 315 373
#
# _framework density 18.904900000000001
#
# number of rings (size 3 to 8) (size 9 to 14) (size 15 to 20)
#    0.000    1.000    5.000    3.000    0.000    5.000 
#    0.000    0.000    0.000    0.000    0.000    0.000 
#    0.000    0.000    0.000    0.000    0.000    0.000 
#
# Total GULP energy -178469.119533 kJ/mol
# GULP energy per Si atom -5577.159985 kJ/mol
# Density = 1.886187 g / cm^3
# Si number density = 18.904900 Si / 1000 Ang^3
#
#
#
# Elastic Constant Matrix: (Units=GPa)
#
#
# Indices 1 2 3 4 5 6 
#
# 1 143.9396 54.9150 29.4439 0.0000 -7.1531 0.0000
# 2 54.9150 140.8744 24.3088 0.0000 -0.8644 0.0000
# 3 29.4439 24.3088 63.5657 0.0000 -6.9252 0.0000
# 4 0.0000 0.0000 0.0000 -202.9630 0.0000 -0.3683
# 5 -7.1531 -0.8644 -6.9252 0.0000 35.6755 0.0000
# 6 0.0000 0.0000 0.0000 -0.3683 0.0000 12.5802
#
#
#
# Elastic Compliance Matrix: (Units=1/GPa)
#
#
# Indices 1 2 3 4 5 6 
#
# 1 0.008679 -0.002895 -0.002790 0.000000 0.001128 0.000000
# 2 -0.002895 0.008571 -0.002020 0.000000 -0.000765 0.000000
# 3 -0.002790 -0.002020 0.018113 0.000000 0.002908 0.000000
# 4 0.000000 0.000000 0.000000 -0.004927 0.000000 -0.000144
# 5 0.001128 -0.000765 0.002908 0.000000 0.028803 0.000000
# 6 0.000000 0.000000 0.000000 -0.000144 0.000000 0.079486
#
#
# Mechanical properties :
#
#
# Convention : Reuss Voigt Hill
#
# Bulk Modulus (GPa) = 50.11756 62.85721 56.48739
# Shear Modulus (GPa) = 31.09740 -14.96066 8.06837
#
# Velocity S-wave (km/s) = 4.06018 -2.81617 2.06812
# Velocity P-wave (km/s) = 6.96764 4.76937 5.97055
#
# Compressibility (1/GPa) = 0.01995309
#
# Stress axis : x y z
#
# Youngs Moduli (GPa) = 115.22729 116.67518 55.20767
#
# Poissons Ratio (x) = 0.33773 0.15403
# Poissons Ratio (y) = 0.33354 0.11153
# Poissons Ratio (z) = 0.32149 0.23570
#
# Static dielectric constant tensor:
#      x y z
#    x 1.676690 0.000000 -0.026780 
#    y 0.000000 1.761670 0.000000 
#    z -0.026780 0.000000 1.663630 
# 
# From -- ./inp_files/55050.got.cif
#   From: 2010.05.17/outbox.cif.g08.bks.cpg/sg11_28_cif.got.tgz:55050.got - 2010.06.03 12:22:45.
