data_PCOD9165572
_publ_section_title
;
Structure prediction by ZEFSAII (Michael W. Deem and Ramdas Pophale) SiO2 
 PCOD9165572
Probable space group: P 21/M
;
_chemical_formula_sum "Si O2"
_cell_formula_units_Z 32
_cell_length_a 18.220700
_cell_length_b 11.297686
_cell_length_c 18.226087
_cell_angle_alpha 90.000000
_cell_angle_beta 23.027248
_cell_angle_gamma 90.000000
_cell_volume 1467.615385
_symmetry_space_group_name_H-M "P 21/M"
_symmetry_group_IT_number 11
_symmetry_cell_setting 'monoclinic'
loop_
_space_group_symop_operation_xyz
x,y,z
-x,1/2+y,-z
-x,-y,-z
x,1/2-y,z
loop_
_atom_site_type_symbol
_atom_site_label
_atom_site_fract_x
_atom_site_fract_y
_atom_site_fract_z
Si Si1 0.331361 0.373410 0.199088
Si Si2 0.029204 0.887575 0.273053
Si Si3 0.667589 0.962915 0.087540
Si Si4 0.916607 0.618753 0.987285
Si Si5 0.546881 0.404710 0.849879
Si Si6 0.983231 0.115534 0.422178
Si Si7 0.631055 0.617772 0.556405
Si Si8 0.827079 0.614687 0.232307
O O1 0.310555 0.250000 0.256430
O O2 0.438141 0.454909 0.156513
O O3 0.126239 0.404946 0.357945
O O4 0.454766 0.368781 0.011321
O O5 0.054432 0.750000 0.276307
O O6 0.839674 0.888867 0.399068
O O7 0.006684 0.997775 0.351068
O O8 0.204168 0.932246 0.063893
O O9 0.793157 0.890432 0.028414
O O10 0.582323 0.883864 0.100520
O O11 0.497113 0.020488 0.288726
O O12 0.011102 0.750000 0.901734
O O13 0.796303 0.612400 0.173270
O O14 0.043798 0.500291 0.871186
O O15 0.764309 0.372626 0.643324
O O16 0.035394 0.250000 0.345340
O O17 0.557227 0.750000 0.638694
O O18 0.655432 0.603129 0.446472
O O19 0.904693 0.750000 0.176233
#
# Coordination Sequence:
#
# PCOD9165572 Si02
#       8
#     4   4   4   4   4   4   4   4
#     4  10  23  42  63  89 127 168 214 266 317 378
#     4  11  23  41  62  94 129 166 214 265 317 381
#     4  12  23  39  63  95 129 166 211 266 323 380
#     4  10  22  38  64  98 130 170 215 264 317 378
#     4  11  23  41  62  92 129 167 216 256 324 382
#     4  11  23  43  67  93 127 171 211 261 325 382
#     4  10  21  39  63  91 127 168 213 265 316 375
#     4   9  19  41  66  92 131 173 216 263 316 378
#
# _framework density 21.804078000000001
#
# number of rings (size 3 to 8) (size 9 to 14) (size 15 to 20)
#    0.000    1.500    3.750    1.125    0.000    4.000 
#    0.000    1.250    0.000    0.000    0.000    0.000 
#    0.000    0.000    0.000    0.000    0.000    0.000 
#
# Total GULP energy -178366.123641 kJ/mol
# GULP energy per Si atom -5573.941364 kJ/mol
# Density = 2.175445 g / cm^3
# Si number density = 21.804078 Si / 1000 Ang^3
#
#
#
# Elastic Constant Matrix: (Units=GPa)
#
#
# Indices 1 2 3 4 5 6 
#
# 1 73.1523 35.0557 7.0083 0.0000 -2.2519 0.0000
# 2 35.0557 148.3330 34.7539 0.0000 9.6037 0.0000
# 3 7.0083 34.7539 84.0406 0.0000 0.4586 0.0000
# 4 0.0000 0.0000 0.0000 54.5439 0.0000 30.2009
# 5 -2.2519 9.6037 0.4586 0.0000 18.6843 0.0000
# 6 0.0000 0.0000 0.0000 30.2009 0.0000 39.8492
#
#
#
# Elastic Compliance Matrix: (Units=1/GPa)
#
#
# Indices 1 2 3 4 5 6 
#
# 1 0.015699 -0.004047 0.000343 0.000000 0.003964 0.000000
# 2 -0.004047 0.008782 -0.003267 0.000000 -0.004922 0.000000
# 3 0.000343 -0.003267 0.013214 0.000000 0.001396 0.000000
# 4 0.000000 0.000000 0.000000 0.031590 0.000000 -0.023942
# 5 0.003964 -0.004922 0.001396 0.000000 0.056494 0.000000
# 6 0.000000 0.000000 0.000000 -0.023942 0.000000 0.043240
#
#
# Mechanical properties :
#
#
# Convention : Reuss Voigt Hill
#
# Bulk Modulus (GPa) = 42.10236 51.01796 46.56016
# Shear Modulus (GPa) = 26.19456 37.86269 32.02862
#
# Velocity S-wave (km/s) = 3.46982 4.17165 3.83682
# Velocity P-wave (km/s) = 5.95015 6.83028 6.40535
#
# Compressibility (1/GPa) = 0.02375164
#
# Stress axis : x y z
#
# Youngs Moduli (GPa) = 63.69953 113.86641 75.67733
#
# Poissons Ratio (x) = 0.46082 -0.02594
# Poissons Ratio (y) = 0.25780 0.24727
# Poissons Ratio (z) = -0.02184 0.37205
#
# Static dielectric constant tensor:
#      x y z
#    x 1.785140 0.000000 0.026230 
#    y 0.000000 1.796960 0.000000 
#    z 0.026230 0.000000 1.789800 
# 
# From -- ./inp_files/66529.got.cif
#   From: 2010.05.17/outbox.cif.g08.bks.cpg/sg11_34_cif.got.tgz:66529.got - 2010.06.03 12:22:45.
