data_PCOD9165801
_publ_section_title
;
Structure prediction by ZEFSAII (Michael W. Deem and Ramdas Pophale) SiO2 
 PCOD9165801
Probable space group: P 21/M
;
_chemical_formula_sum "Si O2"
_cell_formula_units_Z 28
_cell_length_a 5.571096
_cell_length_b 29.537504
_cell_length_c 7.016047
_cell_angle_alpha 90.000000
_cell_angle_beta 76.656327
_cell_angle_gamma 90.000000
_cell_volume 1123.365833
_symmetry_space_group_name_H-M "P 21/M"
_symmetry_group_IT_number 11
_symmetry_cell_setting 'monoclinic'
loop_
_space_group_symop_operation_xyz
x,y,z
-x,1/2+y,-z
-x,-y,-z
x,1/2-y,z
loop_
_atom_site_type_symbol
_atom_site_label
_atom_site_fract_x
_atom_site_fract_y
_atom_site_fract_z
Si Si1 0.203004 0.476561 0.236227
Si Si2 0.988038 0.384347 0.326340
Si Si3 0.511960 0.384347 0.673658
Si Si4 0.812295 0.801255 0.214520
Si Si5 0.296997 0.476561 0.763772
Si Si6 0.312294 0.198745 0.214517
Si Si7 0.250001 0.856017 0.000001
O O1 0.433100 0.500169 0.298460
O O2 0.178558 0.425035 0.309043
O O3 0.933100 0.499831 0.298460
O O4 0.250000 0.477318 1.000000
O O5 0.749999 0.390864 0.499999
O O6 0.906823 0.385031 0.118625
O O7 0.115309 0.335817 0.337915
O O8 0.384688 0.335817 0.662082
O O9 0.321441 0.425035 0.690955
O O10 0.593175 0.385030 0.881373
O O11 0.811320 0.750000 0.284957
O O12 0.749999 0.799477 0.000002
O O13 0.079576 0.824425 0.163668
O O14 0.311319 0.250000 0.284955
O O15 0.579574 0.175575 0.163667
#
# Coordination Sequence:
#
# PCOD9165801 Si02
#       7
#     4   4   4   4   4   4   4
#     4  10  23  42  70  97 132 177 225 277 337 397
#     4  11  25  41  63  96 131 168 216 270 329 399
#     4  11  25  41  63  96 131 168 216 270 329 399
#     4   9  19  38  64  93 126 168 217 266 326 391
#     4  10  23  42  70  97 132 177 225 277 337 397
#     4   9  19  38  64  93 126 168 217 266 326 391
#     4  10  21  40  66  88 130 172 212 270 327 388
#
# _framework density 24.925093
#
# number of rings (size 3 to 8) (size 9 to 14) (size 15 to 20)
#    0.000    2.000    0.000    3.000   10.000    4.000 
#    0.000    1.429    0.000    0.000    0.000    0.000 
#    0.000    0.000    0.000    0.000    0.000    0.000 
#
# Total GULP energy -156938.846421 kJ/mol
# GULP energy per Si atom -5604.958801 kJ/mol
# Density = 2.486836 g / cm^3
# Si number density = 24.925093 Si / 1000 Ang^3
#
#
#
# Elastic Constant Matrix: (Units=GPa)
#
#
# Indices 1 2 3 4 5 6 
#
# 1 116.8933 39.9651 38.7503 0.0000 -0.2292 0.0000
# 2 39.9651 130.6048 28.9082 0.0000 -13.1770 0.0000
# 3 38.7503 28.9082 110.1046 0.0000 -7.0989 0.0000
# 4 0.0000 0.0000 0.0000 -15.7671 0.0000 -21.2339
# 5 -0.2292 -13.1770 -7.0989 0.0000 57.6569 0.0000
# 6 0.0000 0.0000 0.0000 -21.2339 0.0000 13.0905
#
#
#
# Elastic Compliance Matrix: (Units=1/GPa)
#
#
# Indices 1 2 3 4 5 6 
#
# 1 0.010461 -0.002619 -0.003054 0.000000 -0.000933 0.000000
# 2 -0.002619 0.008935 -0.001304 0.000000 0.001871 0.000000
# 3 -0.003054 -0.001304 0.010563 0.000000 0.000991 0.000000
# 4 0.000000 0.000000 0.000000 -0.019916 0.000000 -0.032306
# 5 -0.000933 0.001871 0.000991 0.000000 0.017890 0.000000
# 6 0.000000 0.000000 0.000000 -0.032306 0.000000 0.023989
#
#
# Mechanical properties :
#
#
# Convention : Reuss Voigt Hill
#
# Bulk Modulus (GPa) = 62.47698 63.65002 63.06350
# Shear Modulus (GPa) = 70.21401 27.66132 48.93767
#
# Velocity S-wave (km/s) = 5.31330 3.33495 4.43582
# Velocity P-wave (km/s) = 7.92224 6.35776 7.18272
#
# Compressibility (1/GPa) = 0.01600590
#
# Stress axis : x y z
#
# Youngs Moduli (GPa) = 95.59407 111.91331 94.66772
#
# Poissons Ratio (x) = 0.29312 0.28913
# Poissons Ratio (y) = 0.25038 0.12341
# Poissons Ratio (z) = 0.29195 0.14589
#
# Static dielectric constant tensor:
#      x y z
#    x 1.979430 0.000000 -0.003880 
#    y 0.000000 1.916520 0.000000 
#    z -0.003880 0.000000 1.974400 
# 
# From -- ./inp_files/10805.got.cif
#   From: 2010.05.17/outbox.cif.g08.bks.cpg/sg11_6_cif.got.tgz:10805.got - 2010.06.03 12:22:45.
