data_PCOD9165584
_publ_section_title
;
Structure prediction by ZEFSAII (Michael W. Deem and Ramdas Pophale) SiO2 
 PCOD9165584
Probable space group: P 21/M
;
_chemical_formula_sum "Si O2"
_cell_formula_units_Z 28
_cell_length_a 8.630297
_cell_length_b 15.632726
_cell_length_c 13.108397
_cell_angle_alpha 90.000000
_cell_angle_beta 128.904921
_cell_angle_gamma 90.000000
_cell_volume 1376.243399
_symmetry_space_group_name_H-M "P 21/M"
_symmetry_group_IT_number 11
_symmetry_cell_setting 'monoclinic'
loop_
_space_group_symop_operation_xyz
x,y,z
-x,1/2+y,-z
-x,-y,-z
x,1/2-y,z
loop_
_atom_site_type_symbol
_atom_site_label
_atom_site_fract_x
_atom_site_fract_y
_atom_site_fract_z
Si Si1 0.148757 0.927004 0.520580
Si Si2 0.599070 0.995554 0.727249
Si Si3 0.914164 0.652514 0.833190
Si Si4 0.128697 0.850446 0.138527
Si Si5 0.169010 0.657963 0.731027
Si Si6 0.421017 0.488065 0.857313
Si Si7 0.100541 0.350760 0.756801
O O1 0.111823 0.850878 0.588018
O O2 0.077285 0.891990 0.382564
O O3 0.371469 0.968553 0.604805
O O4 0.000000 0.000000 0.500000
O O5 0.698676 0.087427 0.745449
O O6 0.591557 0.004246 0.845948
O O7 0.744507 0.918837 0.758061
O O8 0.838756 0.750000 0.818756
O O9 0.020176 0.652968 0.765924
O O10 0.055254 0.634113 0.990881
O O11 0.186262 0.750000 0.168069
O O12 0.945859 0.863763 0.142356
O O13 0.273915 0.750000 0.786837
O O14 0.287578 0.570855 0.786269
O O15 0.295077 0.401520 0.800081
O O16 0.500000 0.500000 0.000000
O O17 0.116687 0.250000 0.745351
#
# Coordination Sequence:
#
# PCOD9165584 Si02
#       7
#     4   4   4   4   4   4   4
#     4  11  23  44  61  87 120 166 209 255 304 356
#     4  11  22  36  64  88 122 161 204 254 300 361
#     4  10  21  39  63  94 127 158 201 251 311 370
#     4  10  22  40  62  93 127 160 198 251 314 371
#     4  10  21  39  64  87 121 163 201 251 302 361
#     4  11  22  37  61  93 123 158 208 253 306 366
#     4  11  23  42  64  86 125 168 203 251 308 366
#
# _framework density 20.345237999999998
#
# number of rings (size 3 to 8) (size 9 to 14) (size 15 to 20)
#    0.000    1.429    2.857    3.429    0.000    4.571 
#    0.000    0.000    0.000    0.000    0.000    0.000 
#    0.000    0.000    0.000    0.000    0.000    0.000 
#
# Total GULP energy -155879.359168 kJ/mol
# GULP energy per Si atom -5567.119970 kJ/mol
# Density = 2.029893 g / cm^3
# Si number density = 20.345238 Si / 1000 Ang^3
#
#
#
# Elastic Constant Matrix: (Units=GPa)
#
#
# Indices 1 2 3 4 5 6 
#
# 1 61.0534 32.4829 -1.4734 0.0000 -6.4850 0.0000
# 2 32.4829 124.4314 11.5728 0.0000 28.2896 0.0000
# 3 -1.4734 11.5728 53.6388 0.0000 -3.9377 0.0000
# 4 0.0000 0.0000 0.0000 -19.2098 0.0000 -36.3980
# 5 -6.4850 28.2896 -3.9377 0.0000 26.9253 0.0000
# 6 0.0000 0.0000 0.0000 -36.3980 0.0000 9.5777
#
#
#
# Elastic Compliance Matrix: (Units=1/GPa)
#
#
# Indices 1 2 3 4 5 6 
#
# 1 0.024037 -0.010680 0.004259 0.000000 0.017633 0.000000
# 2 -0.010680 0.015849 -0.005180 0.000000 -0.019982 0.000000
# 3 0.004259 -0.005180 0.020573 0.000000 0.009477 0.000000
# 4 0.000000 0.000000 0.000000 -0.006348 0.000000 -0.024124
# 5 0.017633 -0.019982 0.009477 0.000000 0.063768 0.000000
# 6 0.000000 0.000000 0.000000 -0.024124 0.000000 0.012732
#
#
# Mechanical properties :
#
#
# Convention : Reuss Voigt Hill
#
# Bulk Modulus (GPa) = 26.83971 36.03203 31.43587
# Shear Modulus (GPa) = 30.07836 16.56138 23.31987
#
# Velocity S-wave (km/s) = 3.84917 2.85619 3.38924
# Velocity P-wave (km/s) = 5.74243 5.35032 5.54984
#
# Compressibility (1/GPa) = 0.03725823
#
# Stress axis : x y z
#
# Youngs Moduli (GPa) = 41.60242 63.09423 48.60624
#
# Poissons Ratio (x) = 0.67384 -0.20701
# Poissons Ratio (y) = 0.44431 0.25177
# Poissons Ratio (z) = -0.17718 0.32682
#
# Static dielectric constant tensor:
#      x y z
#    x 1.716470 0.000000 0.068920 
#    y 0.000000 1.741770 0.000000 
#    z 0.068920 0.000000 1.653970 
# 
# From -- ./inp_files/47670.got.cif
#   From: 2010.05.17/outbox.cif.g08.bks.cpg/sg11_24_cif.got.tgz:47670.got - 2010.06.03 12:22:45.
