data_PCOD9165655
_publ_section_title
;
Structure prediction by ZEFSAII (Michael W. Deem and Ramdas Pophale) SiO2 
 PCOD9165655
Probable space group: P 21/M
;
_chemical_formula_sum "Si O2"
_cell_formula_units_Z 20
_cell_length_a 5.013633
_cell_length_b 17.501991
_cell_length_c 10.609695
_cell_angle_alpha 90.000000
_cell_angle_beta 116.973501
_cell_angle_gamma 90.000000
_cell_volume 829.709503
_symmetry_space_group_name_H-M "P 21/M"
_symmetry_group_IT_number 11
_symmetry_cell_setting 'monoclinic'
loop_
_space_group_symop_operation_xyz
x,y,z
-x,1/2+y,-z
-x,-y,-z
x,1/2-y,z
loop_
_atom_site_type_symbol
_atom_site_label
_atom_site_fract_x
_atom_site_fract_y
_atom_site_fract_z
Si Si1 0.529391 0.340995 0.415493
Si Si2 0.826229 0.341749 0.939453
Si Si3 0.299395 0.062565 0.884667
Si Si4 0.165877 0.969078 0.414463
Si Si5 0.861194 0.158201 0.245776
O O1 0.544429 0.250000 0.424873
O O2 0.770729 0.378224 0.558891
O O3 0.187788 0.363627 0.366723
O O4 0.611823 0.368449 0.291016
O O5 0.814962 0.250000 0.915291
O O6 0.520759 0.387820 0.842139
O O7 0.113885 0.380055 0.935563
O O8 0.839996 0.356259 0.093265
O O9 0.043686 0.019422 0.750177
O O10 0.500000 0.000000 0.000000
O O11 0.500000 0.000000 0.500000
O O12 0.000000 0.000000 0.500000
O O13 0.845245 0.250000 0.249552
#
# Coordination Sequence:
#
# PCOD9165655 Si02
#       5
#     4   4   4   4   4
#     4  10  21  39  66  97 131 175 233 286 345 414
#     4  11  24  45  75 107 143 187 243 302 363 427
#     4  12  28  47  72 108 147 194 240 299 368 434
#     4  12  28  47  70 100 143 190 234 289 362 426
#     4   9  19  36  65 103 132 170 218 284 353 408
#
# _framework density 24.104821000000001
#
# number of rings (size 3 to 8) (size 9 to 14) (size 15 to 20)
#    0.000    1.200    0.000    4.800    8.400    4.800 
#    0.000    2.000    0.000    0.000    0.000    0.000 
#    0.000    0.000    0.000    0.000    0.000    0.000 
#
# Total GULP energy -111877.695551 kJ/mol
# GULP energy per Si atom -5593.884778 kJ/mol
# Density = 2.404996 g / cm^3
# Si number density = 24.104821 Si / 1000 Ang^3
#
#
#
# Elastic Constant Matrix: (Units=GPa)
#
#
# Indices 1 2 3 4 5 6 
#
# 1 165.5647 52.0510 19.3624 0.0000 16.7220 0.0000
# 2 52.0510 136.8700 38.2722 0.0000 18.8704 0.0000
# 3 19.3624 38.2722 115.1923 0.0000 26.0002 0.0000
# 4 0.0000 0.0000 0.0000 33.7173 0.0000 6.4265
# 5 16.7220 18.8704 26.0002 0.0000 28.9524 0.0000
# 6 0.0000 0.0000 0.0000 6.4265 0.0000 46.9626
#
#
#
# Elastic Compliance Matrix: (Units=1/GPa)
#
#
# Indices 1 2 3 4 5 6 
#
# 1 0.007031 -0.002360 0.000215 0.000000 -0.002716 0.000000
# 2 -0.002360 0.009152 -0.002013 0.000000 -0.002794 0.000000
# 3 0.000215 -0.002013 0.011345 0.000000 -0.009001 0.000000
# 4 0.000000 0.000000 0.000000 0.030453 0.000000 -0.004167
# 5 -0.002716 -0.002794 -0.009001 0.000000 0.046012 0.000000
# 6 0.000000 0.000000 0.000000 -0.004167 0.000000 0.021864
#
#
# Mechanical properties :
#
#
# Convention : Reuss Voigt Hill
#
# Bulk Modulus (GPa) = 52.04892 70.77758 61.41325
# Shear Modulus (GPa) = 35.56791 42.45591 39.01191
#
# Velocity S-wave (km/s) = 3.84546 4.20134 4.02733
# Velocity P-wave (km/s) = 6.43089 7.27744 6.86722
#
# Compressibility (1/GPa) = 0.01921269
#
# Stress axis : x y z
#
# Youngs Moduli (GPa) = 142.22935 109.26920 88.14118
#
# Poissons Ratio (x) = 0.25782 -0.01897
# Poissons Ratio (y) = 0.33559 0.17746
# Poissons Ratio (z) = -0.03061 0.22000
#
# Static dielectric constant tensor:
#      x y z
#    x 1.874020 0.000000 0.001890 
#    y 0.000000 2.018870 0.000000 
#    z 0.001890 0.000000 1.939660 
# 
# From -- ./inp_files/29810.got.cif
#   From: 2010.05.17/outbox.cif.g08.bks.cpg/sg11_15_cif.got.tgz:29810.got - 2010.06.03 12:22:45.
