data_PCOD9165302
_publ_section_title
;
Structure prediction by ZEFSAII (Michael W. Deem and Ramdas Pophale) SiO2 
 PCOD9165302
Probable space group: P 21/M
;
_chemical_formula_sum "Si O2"
_cell_formula_units_Z 32
_cell_length_a 13.530754
_cell_length_b 20.991932
_cell_length_c 5.370604
_cell_angle_alpha 90.000000
_cell_angle_beta 59.633304
_cell_angle_gamma 90.000000
_cell_volume 1316.168625
_symmetry_space_group_name_H-M "P 21/M"
_symmetry_group_IT_number 11
_symmetry_cell_setting 'monoclinic'
loop_
_space_group_symop_operation_xyz
x,y,z
-x,1/2+y,-z
-x,-y,-z
x,1/2-y,z
loop_
_atom_site_type_symbol
_atom_site_label
_atom_site_fract_x
_atom_site_fract_y
_atom_site_fract_z
Si Si1 0.952723 0.316076 0.703889
Si Si2 0.087213 0.388859 0.885662
Si Si3 0.678544 0.674725 0.312750
Si Si4 0.415832 0.384329 0.049052
Si Si5 0.588631 0.448574 0.511434
Si Si6 0.880891 0.096910 0.427314
Si Si7 0.718415 0.175378 0.282062
Si Si8 0.236404 0.480825 0.391140
O O1 0.976452 0.250000 0.548169
O O2 0.973350 0.368884 0.478652
O O3 0.030001 0.325738 0.843057
O O4 0.819949 0.320551 0.950530
O O5 0.200939 0.362657 0.878885
O O6 0.143870 0.431754 0.601673
O O7 0.971018 0.426917 0.108453
O O8 0.694860 0.750000 0.333774
O O9 0.614715 0.644918 0.640907
O O10 0.607019 0.663646 0.150070
O O11 0.535444 0.418936 0.836084
O O12 0.328726 0.442815 0.121444
O O13 0.500000 0.500000 0.500000
O O14 0.629896 0.382073 0.327478
O O15 0.699276 0.488938 0.450063
O O16 0.788652 0.146173 0.429958
O O17 0.820651 0.041768 0.657067
O O18 0.678474 0.250000 0.369577
#
# Coordination Sequence:
#
# PCOD9165302 Si02
#       8
#     4   4   4   4   4   4   4   4
#     4  10  21  38  61  93 129 170 221 270 336 411
#     4  10  22  40  60  97 129 176 217 275 337 412
#     4  11  25  46  71 101 142 182 232 291 350 419
#     4  11  25  46  69 102 135 182 237 289 353 415
#     4  11  23  43  73  97 134 184 233 291 359 420
#     4  10  21  38  65  91 130 175 220 274 342 410
#     4   9  21  41  62  94 133 172 226 287 345 414
#     4  10  23  42  63  95 134 169 228 281 346 413
#
# _framework density 24.312994
#
# number of rings (size 3 to 8) (size 9 to 14) (size 15 to 20)
#    0.000    1.750    0.000    3.375    5.250    3.000 
#    6.750    0.000    0.000    0.000    0.000    0.000 
#    0.000    0.000    0.000    0.000    0.000    0.000 
#
# Total GULP energy -178232.776935 kJ/mol
# GULP energy per Si atom -5569.774279 kJ/mol
# Density = 2.425766 g / cm^3
# Si number density = 24.312994 Si / 1000 Ang^3
#
#
#
# Elastic Constant Matrix: (Units=GPa)
#
#
# Indices 1 2 3 4 5 6 
#
# 1 73.1035 28.5977 13.8252 0.0000 -5.4390 0.0000
# 2 28.5977 131.0319 6.7664 0.0000 -4.3026 0.0000
# 3 13.8252 6.7664 26.6128 0.0000 6.7030 0.0000
# 4 0.0000 0.0000 0.0000 26.5542 0.0000 2.2040
# 5 -5.4390 -4.3026 6.7030 0.0000 22.2464 0.0000
# 6 0.0000 0.0000 0.0000 2.2040 0.0000 10.2361
#
#
#
# Elastic Compliance Matrix: (Units=1/GPa)
#
#
# Indices 1 2 3 4 5 6 
#
# 1 0.017215 -0.003033 -0.009830 0.000000 0.006584 0.000000
# 2 -0.003033 0.008374 -0.000838 0.000000 0.001131 0.000000
# 3 -0.009830 -0.000838 0.047117 0.000000 -0.016762 0.000000
# 4 0.000000 0.000000 0.000000 0.038344 0.000000 -0.008256
# 5 0.006584 0.001131 -0.016762 0.000000 0.051830 0.000000
# 6 0.000000 0.000000 0.000000 -0.008256 0.000000 0.099471
#
#
# Mechanical properties :
#
#
# Convention : Reuss Voigt Hill
#
# Bulk Modulus (GPa) = 22.07336 36.56963 29.32149
# Shear Modulus (GPa) = 16.40121 23.91128 20.15625
#
# Velocity S-wave (km/s) = 2.60010 3.13945 2.88241
# Velocity P-wave (km/s) = 4.25588 5.31181 4.81289
#
# Compressibility (1/GPa) = 0.04530348
#
# Stress axis : x y z
#
# Youngs Moduli (GPa) = 58.08976 119.41505 21.22356
#
# Poissons Ratio (x) = 0.36222 0.20863
# Poissons Ratio (y) = 0.17620 0.01779
# Poissons Ratio (z) = 0.57102 0.10008
#
# Static dielectric constant tensor:
#      x y z
#    x 1.969180 0.000000 0.075990 
#    y 0.000000 1.992260 0.000000 
#    z 0.075990 0.000000 2.094710 
# 
# From -- ./inp_files/7066.got.cif
#   From: 2010.05.17/outbox.cif.g08.bks.cpg/sg11_4_cif.got.tgz:7066.got - 2010.06.03 12:22:45.
