data_PCOD9165263
_publ_section_title
;
Structure prediction by ZEFSAII (Michael W. Deem and Ramdas Pophale) SiO2 
 PCOD9165263
Probable space group: P 21/M
;
_chemical_formula_sum "Si O2"
_cell_formula_units_Z 32
_cell_length_a 24.697938
_cell_length_b 9.055193
_cell_length_c 14.187478
_cell_angle_alpha 90.000000
_cell_angle_beta 29.473481
_cell_angle_gamma 90.000000
_cell_volume 1561.158346
_symmetry_space_group_name_H-M "P 21/M"
_symmetry_group_IT_number 11
_symmetry_cell_setting 'monoclinic'
loop_
_space_group_symop_operation_xyz
x,y,z
-x,1/2+y,-z
-x,-y,-z
x,1/2-y,z
loop_
_atom_site_type_symbol
_atom_site_label
_atom_site_fract_x
_atom_site_fract_y
_atom_site_fract_z
Si Si1 0.006231 0.928185 0.248709
Si Si2 0.279771 0.581679 0.999624
Si Si3 0.355374 0.418507 0.173570
Si Si4 0.488685 0.581328 0.822764
Si Si5 0.804690 0.926798 0.416476
Si Si6 0.307200 0.575134 0.578915
Si Si7 0.143958 0.418676 0.353168
Si Si8 0.242705 0.074488 0.867945
O O1 0.021362 0.750000 0.224462
O O2 0.914475 0.963363 0.308601
O O3 0.954239 0.966836 0.429398
O O4 0.118573 0.011923 0.060075
O O5 0.259548 0.750000 0.000136
O O6 0.177875 0.522122 0.215954
O O7 0.385603 0.578907 0.907086
O O8 0.296544 0.480172 0.883664
O O9 0.396962 0.250000 0.115416
O O10 0.299290 0.460904 0.357286
O O11 0.250544 0.415204 0.260862
O O12 0.442405 0.526154 0.993153
O O13 0.529494 0.750000 0.766359
O O14 0.580576 0.475045 0.641585
O O15 0.804270 0.750000 0.401699
O O16 0.788582 0.012845 0.344156
O O17 0.299802 0.750000 0.599359
O O18 0.299727 0.497699 0.691174
O O19 0.124992 0.250000 0.349802
O O20 0.244147 0.250000 0.858803
#
# Coordination Sequence:
#
# PCOD9165263 Si02
#       8
#     4   4   4   4   4   4   4   4
#     4   9  19  38  63  89 119 153 189 234 285 336
#     4  10  21  38  61  88 118 151 188 234 286 340
#     4   8  15  31  57  88 119 150 185 227 279 338
#     4  10  21  38  61  88 118 151 188 234 286 340
#     4   9  19  38  63  89 119 153 189 234 285 336
#     4  12  26  42  60  82 112 151 196 243 286 338
#     4   8  15  31  57  88 119 150 185 227 279 338
#     4  12  26  42  60  82 112 151 196 243 286 338
#
# _framework density 20.497599999999998
#
# number of rings (size 3 to 8) (size 9 to 14) (size 15 to 20)
#    0.000    2.250    0.000    4.500    0.000    5.000 
#    0.000    2.500    0.000    0.000    0.000    0.000 
#    0.000    0.000    0.000    0.000    0.000    0.000 
#
# Total GULP energy -178887.764875 kJ/mol
# GULP energy per Si atom -5590.242652 kJ/mol
# Density = 2.045095 g / cm^3
# Si number density = 20.497600 Si / 1000 Ang^3
#
#
#
# Elastic Constant Matrix: (Units=GPa)
#
#
# Indices 1 2 3 4 5 6 
#
# 1 89.0489 32.5701 13.9358 0.0000 13.5414 0.0000
# 2 32.5701 93.2451 25.9743 0.0000 16.0897 0.0000
# 3 13.9358 25.9743 42.2678 0.0000 8.7599 0.0000
# 4 0.0000 0.0000 0.0000 34.6288 0.0000 -0.4889
# 5 13.5414 16.0897 8.7599 0.0000 34.0223 0.0000
# 6 0.0000 0.0000 0.0000 -0.4889 0.0000 22.5769
#
#
#
# Elastic Compliance Matrix: (Units=1/GPa)
#
#
# Indices 1 2 3 4 5 6 
#
# 1 0.013289 -0.003689 -0.001458 0.000000 -0.003169 0.000000
# 2 -0.003689 0.014588 -0.006996 0.000000 -0.003629 0.000000
# 3 -0.001458 -0.006996 0.029190 0.000000 -0.003627 0.000000
# 4 0.000000 0.000000 0.000000 0.028887 0.000000 0.000626
# 5 -0.003169 -0.003629 -0.003627 0.000000 0.033304 0.000000
# 6 0.000000 0.000000 0.000000 0.000626 0.000000 0.044307
#
#
# Mechanical properties :
#
#
# Convention : Reuss Voigt Hill
#
# Bulk Modulus (GPa) = 30.50474 41.05804 35.78139
# Shear Modulus (GPa) = 25.15374 28.38438 26.76906
#
# Velocity S-wave (km/s) = 3.50688 3.72528 3.61773
# Velocity P-wave (km/s) = 5.59571 6.21110 5.91142
#
# Compressibility (1/GPa) = 0.03278179
#
# Stress axis : x y z
#
# Youngs Moduli (GPa) = 75.24966 68.54929 34.25798
#
# Poissons Ratio (x) = 0.25287 0.04994
# Poissons Ratio (y) = 0.27759 0.23968
# Poissons Ratio (z) = 0.10969 0.47959
#
# Static dielectric constant tensor:
#      x y z
#    x 1.768970 0.000000 -0.023420 
#    y 0.000000 1.683240 0.000000 
#    z -0.023420 0.000000 1.711180 
# 
# From -- ./inp_files/56143.got.cif
#   From: 2010.05.17/outbox.cif.g08.bks.cpg/sg11_29_cif.got.tgz:56143.got - 2010.06.03 12:22:45.
