data_PCOD9165921
_publ_section_title
;
Structure prediction by ZEFSAII (Michael W. Deem and Ramdas Pophale) SiO2 
 PCOD9165921
Probable space group: P 21/M
;
_chemical_formula_sum "Si O2"
_cell_formula_units_Z 24
_cell_length_a 15.474518
_cell_length_b 13.613918
_cell_length_c 5.315097
_cell_angle_alpha 90.000000
_cell_angle_beta 99.517298
_cell_angle_gamma 90.000000
_cell_volume 1104.313006
_symmetry_space_group_name_H-M "P 21/M"
_symmetry_group_IT_number 11
_symmetry_cell_setting 'monoclinic'
loop_
_space_group_symop_operation_xyz
x,y,z
-x,1/2+y,-z
-x,-y,-z
x,1/2-y,z
loop_
_atom_site_type_symbol
_atom_site_label
_atom_site_fract_x
_atom_site_fract_y
_atom_site_fract_z
Si Si1 0.219853 0.554419 0.882866
Si Si2 0.821669 0.640229 0.452814
Si Si3 0.600239 0.972745 0.091745
Si Si4 0.085853 0.062274 0.081858
Si Si5 0.888515 0.250000 0.274598
Si Si6 0.009661 0.250000 0.829673
Si Si7 0.357608 0.140660 0.382347
O O1 0.202189 0.455771 0.713657
O O2 0.325672 0.556060 0.934062
O O3 0.173227 0.652576 0.762897
O O4 0.164722 0.517609 0.099378
O O5 0.813032 0.750000 0.344208
O O6 0.908786 0.615879 0.648586
O O7 0.746959 0.643263 0.636441
O O8 0.610299 0.932015 0.380710
O O9 0.621200 0.891669 0.889074
O O10 0.500000 0.000000 0.000000
O O11 0.070842 0.152876 0.881824
O O12 0.000000 0.000000 0.000000
O O13 0.948919 0.250000 0.553133
O O14 0.946190 0.250000 0.045290
O O15 0.392234 0.250000 0.449219
#
# Coordination Sequence:
#
# PCOD9165921 Si02
#       7
#     4   4   4   4   2   2   4
#     4  11  26  44  69  96 143 188 226 288 350 412
#     4  10  22  39  66 100 133 175 228 285 350 404
#     4  11  23  43  71 100 139 175 230 282 342 417
#     4  12  23  39  65  94 136 179 229 283 341 404
#     4  12  28  50  64  95 145 188 238 272 340 427
#     4  12  28  42  68  99 133 184 238 288 334 409
#     4  10  21  41  68 100 136 169 216 287 349 403
#
# _framework density 21.732966999999999
#
# number of rings (size 3 to 8) (size 9 to 14) (size 15 to 20)
#    0.000    1.000    4.167    2.000    3.500    2.000 
#    3.000    0.000    0.000    0.000    0.000    0.000 
#    0.000    0.000    0.000    0.000    0.000    0.000 
#
# Total GULP energy -133834.865139 kJ/mol
# GULP energy per Si atom -5576.452714 kJ/mol
# Density = 2.168350 g / cm^3
# Si number density = 21.732967 Si / 1000 Ang^3
#
#
#
# Elastic Constant Matrix: (Units=GPa)
#
#
# Indices 1 2 3 4 5 6 
#
# 1 57.0737 5.2777 -7.9372 0.0000 4.6130 0.0000
# 2 5.2777 103.2101 0.5372 0.0000 2.0444 0.0000
# 3 -7.9372 0.5372 73.5918 0.0000 5.5595 0.0000
# 4 0.0000 0.0000 0.0000 23.4675 0.0000 -4.5180
# 5 4.6130 2.0444 5.5595 0.0000 32.1257 0.0000
# 6 0.0000 0.0000 0.0000 -4.5180 0.0000 13.4801
#
#
#
# Elastic Compliance Matrix: (Units=1/GPa)
#
#
# Indices 1 2 3 4 5 6 
#
# 1 0.018143 -0.000881 0.002184 0.000000 -0.002927 0.000000
# 2 -0.000881 0.009744 -0.000131 0.000000 -0.000471 0.000000
# 3 0.002184 -0.000131 0.014032 0.000000 -0.002734 0.000000
# 4 0.000000 0.000000 0.000000 0.045551 0.000000 0.015267
# 5 -0.002927 -0.000471 -0.002734 0.000000 0.032051 0.000000
# 6 0.000000 0.000000 0.000000 0.015267 0.000000 0.079301
#
#
# Mechanical properties :
#
#
# Convention : Reuss Voigt Hill
#
# Bulk Modulus (GPa) = 22.59179 25.51457 24.05318
# Shear Modulus (GPa) = 23.67076 29.54785 26.60931
#
# Velocity S-wave (km/s) = 3.30383 3.69126 3.50290
# Velocity P-wave (km/s) = 4.99714 5.47108 5.23947
#
# Compressibility (1/GPa) = 0.04426386
#
# Stress axis : x y z
#
# Youngs Moduli (GPa) = 55.11756 102.62688 71.26813
#
# Poissons Ratio (x) = 0.09043 -0.15568
# Poissons Ratio (y) = 0.04857 0.00931
# Poissons Ratio (z) = -0.12040 0.01340
#
# Static dielectric constant tensor:
#      x y z
#    x 1.873540 0.000000 -0.090990 
#    y 0.000000 1.821810 0.000000 
#    z -0.090990 0.000000 1.929880 
# 
# From -- ./inp_files/6478.got.cif
#   From: 2010.05.17/outbox.cif.g08.bks.cpg/sg11_4_cif.got.tgz:6478.got - 2010.06.03 12:22:45.
