data_PCOD9165646
_publ_section_title
;
Structure prediction by ZEFSAII (Michael W. Deem and Ramdas Pophale) SiO2 
 PCOD9165646
Probable space group: P 21/M
;
_chemical_formula_sum "Si O2"
_cell_formula_units_Z 20
_cell_length_a 6.592897
_cell_length_b 14.820437
_cell_length_c 12.264487
_cell_angle_alpha 90.000000
_cell_angle_beta 49.339882
_cell_angle_gamma 90.000000
_cell_volume 909.060297
_symmetry_space_group_name_H-M "P 21/M"
_symmetry_group_IT_number 11
_symmetry_cell_setting 'monoclinic'
loop_
_space_group_symop_operation_xyz
x,y,z
-x,1/2+y,-z
-x,-y,-z
x,1/2-y,z
loop_
_atom_site_type_symbol
_atom_site_label
_atom_site_fract_x
_atom_site_fract_y
_atom_site_fract_z
Si Si1 0.991480 0.147669 0.703695
Si Si2 0.116263 0.856267 0.497310
Si Si3 0.413030 0.075385 0.943868
Si Si4 0.080283 0.852797 0.751966
Si Si5 0.364945 0.476291 0.715439
O O1 0.075513 0.250000 0.697222
O O2 0.044174 0.126821 0.557695
O O3 0.672643 0.136982 0.830941
O O4 0.136011 0.079577 0.733295
O O5 0.202025 0.750000 0.460305
O O6 0.979915 0.867640 0.662423
O O7 0.361848 0.925689 0.410282
O O8 0.336873 0.031585 0.855093
O O9 0.162216 0.127677 0.081607
O O10 0.500000 0.000000 0.000000
O O11 0.171007 0.750000 0.729038
O O12 0.317942 0.921903 0.694023
#
# Coordination Sequence:
#
# PCOD9165646 Si02
#       5
#     4   4   4   4   4
#     4  10  21  39  66  90 120 165 207 249 303 367
#     4   9  21  41  63  93 127 160 204 251 304 366
#     4  11  23  43  61  88 124 162 207 253 309 367
#     4  11  23  41  63  92 128 160 201 261 310 356
#     4  11  22  41  66  90 123 165 211 246 303 375
#
# _framework density 22.000741999999999
#
# number of rings (size 3 to 8) (size 9 to 14) (size 15 to 20)
#    0.000    1.600    2.000    2.400    0.000    3.200 
#    3.600    1.000    0.000    0.000    0.000    0.000 
#    0.000    0.000    0.000    0.000    0.000    0.000 
#
# Total GULP energy -111893.691182 kJ/mol
# GULP energy per Si atom -5594.684559 kJ/mol
# Density = 2.195067 g / cm^3
# Si number density = 22.000742 Si / 1000 Ang^3
#
#
#
# Elastic Constant Matrix: (Units=GPa)
#
#
# Indices 1 2 3 4 5 6 
#
# 1 69.3763 55.2654 28.5819 0.0000 17.6876 0.0000
# 2 55.2654 119.0848 47.7745 0.0000 24.5366 0.0000
# 3 28.5819 47.7745 141.8825 0.0000 34.2089 0.0000
# 4 0.0000 0.0000 0.0000 26.4398 0.0000 5.3367
# 5 17.6876 24.5366 34.2089 0.0000 38.4105 0.0000
# 6 0.0000 0.0000 0.0000 5.3367 0.0000 -1.2586
#
#
#
# Elastic Compliance Matrix: (Units=1/GPa)
#
#
# Indices 1 2 3 4 5 6 
#
# 1 0.023525 -0.009901 -0.000405 0.000000 -0.004148 0.000000
# 2 -0.009901 0.014436 -0.002219 0.000000 -0.002686 0.000000
# 3 -0.000405 -0.002219 0.009538 0.000000 -0.006891 0.000000
# 4 0.000000 0.000000 0.000000 0.020380 0.000000 0.086413
# 5 -0.004148 -0.002686 -0.006891 0.000000 0.035798 0.000000
# 6 0.000000 0.000000 0.000000 0.086413 0.000000 -0.428123
#
#
# Mechanical properties :
#
#
# Convention : Reuss Voigt Hill
#
# Bulk Modulus (GPa) = 44.54289 65.95414 55.24852
# Shear Modulus (GPa) = -17.12838 25.96645 4.41904
#
# Velocity S-wave (km/s) = -2.79325 3.43921 1.41878
# Velocity P-wave (km/s) = 3.14436 6.76861 5.27736
#
# Compressibility (1/GPa) = 0.02245027
#
# Stress axis : x y z
#
# Youngs Moduli (GPa) = 42.50723 69.27301 104.84085
#
# Poissons Ratio (x) = 0.68584 0.04250
# Poissons Ratio (y) = 0.42084 0.23260
# Poissons Ratio (z) = 0.01723 0.15369
#
# Static dielectric constant tensor:
#      x y z
#    x 1.793340 0.000000 -0.011390 
#    y 0.000000 1.799020 0.000000 
#    z -0.011390 0.000000 1.808080 
# 
# From -- ./inp_files/10057.got.cif
#   From: 2010.05.17/outbox.cif.g08.bks.cpg/sg11_6_cif.got.tgz:10057.got - 2010.06.03 12:22:45.
