data_PCOD9165320
_publ_section_title
;
Structure prediction by ZEFSAII (Michael W. Deem and Ramdas Pophale) SiO2 
 PCOD9165320
Probable space group: P 21/M
;
_chemical_formula_sum "Si O2"
_cell_formula_units_Z 28
_cell_length_a 23.380547
_cell_length_b 8.011518
_cell_length_c 20.096460
_cell_angle_alpha 90.000000
_cell_angle_beta 159.598854
_cell_angle_gamma 90.000000
_cell_volume 1312.214877
_symmetry_space_group_name_H-M "P 21/M"
_symmetry_group_IT_number 11
_symmetry_cell_setting 'monoclinic'
loop_
_space_group_symop_operation_xyz
x,y,z
-x,1/2+y,-z
-x,-y,-z
x,1/2-y,z
loop_
_atom_site_type_symbol
_atom_site_label
_atom_site_fract_x
_atom_site_fract_y
_atom_site_fract_z
Si Si1 0.882376 0.549589 0.311552
Si Si2 0.324581 0.555270 0.607239
Si Si3 0.601298 0.946080 0.451820
Si Si4 0.967975 0.548138 0.256546
Si Si5 0.036698 0.451922 0.115447
Si Si6 0.749324 0.050282 0.899885
Si Si7 0.518100 0.057903 0.943892
O O1 0.861343 0.750000 0.288536
O O2 0.954019 0.498605 0.318161
O O3 0.000000 0.500000 0.500000
O O4 0.706743 0.466612 0.130164
O O5 0.319020 0.750000 0.583502
O O6 0.415542 0.465019 0.646169
O O7 0.410470 0.538257 0.772224
O O8 0.139525 0.488535 0.412571
O O9 0.606466 0.750000 0.473904
O O10 0.781229 0.015643 0.666368
O O11 0.436975 0.016982 0.307039
O O12 0.968794 0.750000 0.255539
O O13 0.819963 0.484942 0.050211
O O14 0.039131 0.250000 0.124662
O O15 0.000000 0.500000 0.000000
O O16 0.888094 0.515031 0.000358
O O17 0.740527 0.250000 0.881028
O O18 0.469214 0.250000 0.886401
O O19 0.500000 0.000000 0.000000
#
# Coordination Sequence:
#
# PCOD9165320 Si02
#       7
#     4   4   4   4   4   4   4
#     4  11  23  40  60  86 120 160 206 258 315 376
#     4  11  22  38  61  90 122 158 202 253 309 371
#     4  10  21  39  62  90 122 160 206 252 304 368
#     4  10  22  38  59  87 120 156 199 250 304 365
#     4  10  22  40  61  89 125 161 202 253 306 369
#     4  10  21  38  62  89 119 158 204 250 303 366
#     4  12  25  41  60  85 118 159 207 260 318 378
#
# _framework density 21.337968
#
# number of rings (size 3 to 8) (size 9 to 14) (size 15 to 20)
#    0.000    1.429    1.429    3.857    0.000    7.429 
#    0.000    0.000    0.000    0.000    0.000    0.000 
#    0.000    0.000    0.000    0.000    0.000    0.000 
#
# Total GULP energy -156497.438475 kJ/mol
# GULP energy per Si atom -5589.194231 kJ/mol
# Density = 2.128940 g / cm^3
# Si number density = 21.337968 Si / 1000 Ang^3
#
#
#
# Elastic Constant Matrix: (Units=GPa)
#
#
# Indices 1 2 3 4 5 6 
#
# 1 121.1851 -1.0001 67.8294 0.0000 8.8202 0.0000
# 2 -1.0001 23.8443 -0.4949 0.0000 6.9938 0.0000
# 3 67.8294 -0.4949 138.2314 0.0000 23.9391 0.0000
# 4 0.0000 0.0000 0.0000 22.1273 0.0000 -7.1126
# 5 8.8202 6.9938 23.9391 0.0000 40.2347 0.0000
# 6 0.0000 0.0000 0.0000 -7.1126 0.0000 27.9313
#
#
#
# Elastic Compliance Matrix: (Units=1/GPa)
#
#
# Indices 1 2 3 4 5 6 
#
# 1 0.011407 0.000093 -0.005754 0.000000 0.000907 0.000000
# 2 0.000093 0.044537 0.001626 0.000000 -0.008729 0.000000
# 3 -0.005754 0.001626 0.011031 0.000000 -0.005584 0.000000
# 4 0.000000 0.000000 0.000000 0.049222 0.000000 0.012534
# 5 0.000907 -0.008729 -0.005584 0.000000 0.029495 0.000000
# 6 0.000000 0.000000 0.000000 0.012534 0.000000 0.038994
#
#
# Mechanical properties :
#
#
# Convention : Reuss Voigt Hill
#
# Bulk Modulus (GPa) = 16.97692 46.21440 31.59566
# Shear Modulus (GPa) = 23.54139 32.52043 28.03091
#
# Velocity S-wave (km/s) = 3.32514 3.90816 3.62838
# Velocity P-wave (km/s) = 4.76609 6.48616 5.69148
#
# Compressibility (1/GPa) = 0.05890350
#
# Stress axis : x y z
#
# Youngs Moduli (GPa) = 87.66278 22.45336 90.65589
#
# Poissons Ratio (x) = -0.00209 0.52166
# Poissons Ratio (y) = -0.00816 -0.14736
# Poissons Ratio (z) = 0.50443 -0.03650
#
# Static dielectric constant tensor:
#      x y z
#    x 1.757700 0.000000 0.030320 
#    y 0.000000 1.762530 0.000000 
#    z 0.030320 0.000000 1.765170 
# 
# From -- ./inp_files/66745.got.cif
#   From: 2010.05.17/outbox.cif.g08.bks.cpg/sg11_34_cif.got.tgz:66745.got - 2010.06.03 12:22:45.
