data_PCOD9165890
_publ_section_title
;
Structure prediction by ZEFSAII (Michael W. Deem and Ramdas Pophale) SiO2 
 PCOD9165890
Probable space group: P 21/M
;
_chemical_formula_sum "Si O2"
_cell_formula_units_Z 26
_cell_length_a 7.394635
_cell_length_b 15.629219
_cell_length_c 17.826699
_cell_angle_alpha 90.000000
_cell_angle_beta 143.534679
_cell_angle_gamma 90.000000
_cell_volume 1224.495193
_symmetry_space_group_name_H-M "P 21/M"
_symmetry_group_IT_number 11
_symmetry_cell_setting 'monoclinic'
loop_
_space_group_symop_operation_xyz
x,y,z
-x,1/2+y,-z
-x,-y,-z
x,1/2-y,z
loop_
_atom_site_type_symbol
_atom_site_label
_atom_site_fract_x
_atom_site_fract_y
_atom_site_fract_z
Si Si1 0.732644 0.344929 0.513515
Si Si2 0.918815 0.750000 0.106468
Si Si3 0.927363 0.750000 0.944480
Si Si4 0.798269 0.250000 0.133934
Si Si5 0.788074 0.106691 0.696698
Si Si6 0.219128 0.442636 0.124841
Si Si7 0.738849 0.951078 0.367174
Si Si8 0.888152 0.576504 0.741836
O O1 0.693346 0.250000 0.469676
O O2 0.686722 0.347964 0.587134
O O3 0.467100 0.401914 0.389355
O O4 0.071222 0.377851 0.610979
O O5 0.003209 0.667246 0.183509
O O6 0.082100 0.750000 0.079071
O O7 0.559616 0.750000 0.975284
O O8 0.756448 0.842194 0.888038
O O9 0.110272 0.750000 0.925448
O O10 0.934076 0.163491 0.216043
O O11 0.500685 0.086164 0.653319
O O12 0.939661 0.016058 0.722702
O O13 0.542637 0.488649 0.246380
O O14 0.061710 0.441428 0.153849
O O15 0.000000 0.500000 0.000000
O O16 0.000000 0.000000 0.500000
#
# Coordination Sequence:
#
# PCOD9165890 Si02
#       8
#     4   2   2   2   4   4   4   4
#     4  12  24  43  72 102 134 184 230 285 352 407
#     4  12  26  43  61 104 138 178 234 277 349 408
#     4  10  22  42  69  90 141 180 226 292 332 412
#     4  10  24  43  66  98 127 184 234 271 349 418
#     4  11  25  44  65 100 143 174 225 293 339 407
#     4  10  21  41  66 102 134 179 227 279 345 401
#     4  11  24  44  72 102 135 182 234 280 352 413
#     4  10  21  43  71  91 139 177 224 289 329 410
#
# _framework density 21.233239999999999
#
# number of rings (size 3 to 8) (size 9 to 14) (size 15 to 20)
#    0.000    1.231    4.615    2.308    1.077    5.538 
#    1.385    0.000    0.000    0.000    0.000    0.000 
#    0.000    0.000    0.000    0.000    0.000    0.000 
#
# Total GULP energy -145060.483657 kJ/mol
# GULP energy per Si atom -5579.249371 kJ/mol
# Density = 2.118491 g / cm^3
# Si number density = 21.233240 Si / 1000 Ang^3
#
#
#
# Elastic Constant Matrix: (Units=GPa)
#
#
# Indices 1 2 3 4 5 6 
#
# 1 61.3660 16.6806 14.8706 0.0000 5.6693 0.0000
# 2 16.6806 138.6397 37.5695 0.0000 15.8651 0.0000
# 3 14.8706 37.5695 101.6087 0.0000 10.5033 0.0000
# 4 0.0000 0.0000 0.0000 62.6194 0.0000 -4.4724
# 5 5.6693 15.8651 10.5033 0.0000 32.4713 0.0000
# 6 0.0000 0.0000 0.0000 -4.4724 0.0000 21.6665
#
#
#
# Elastic Compliance Matrix: (Units=1/GPa)
#
#
# Indices 1 2 3 4 5 6 
#
# 1 0.017278 -0.001381 -0.001837 0.000000 -0.001748 0.000000
# 2 -0.001381 0.008432 -0.002602 0.000000 -0.003037 0.000000
# 3 -0.001837 -0.002602 0.011285 0.000000 -0.002058 0.000000
# 4 0.000000 0.000000 0.000000 0.016208 0.000000 0.003346
# 5 -0.001748 -0.003037 -0.002058 0.000000 0.033251 0.000000
# 6 0.000000 0.000000 0.000000 0.003346 0.000000 0.046845
#
#
# Mechanical properties :
#
#
# Convention : Reuss Voigt Hill
#
# Bulk Modulus (GPa) = 39.44002 48.87287 44.15644
# Shear Modulus (GPa) = 32.59656 38.85102 35.72379
#
# Velocity S-wave (km/s) = 3.92237 4.28217 4.10621
# Velocity P-wave (km/s) = 6.25526 6.89322 6.58197
#
# Compressibility (1/GPa) = 0.02535496
#
# Stress axis : x y z
#
# Youngs Moduli (GPa) = 57.87798 118.60143 88.61105
#
# Poissons Ratio (x) = 0.16378 0.16281
# Poissons Ratio (y) = 0.07992 0.23052
# Poissons Ratio (z) = 0.10634 0.30855
#
# Static dielectric constant tensor:
#      x y z
#    x 1.778390 0.000000 -0.058190 
#    y 0.000000 2.002470 0.000000 
#    z -0.058190 0.000000 1.865450 
# 
# From -- ./inp_files/63855.got.cif
#   From: 2010.05.17/outbox.cif.g08.bks.cpg/sg11_32_cif.got.tgz:63855.got - 2010.06.03 12:22:45.
