data_PCOD9165903
_publ_section_title
;
Structure prediction by ZEFSAII (Michael W. Deem and Ramdas Pophale) SiO2 
 PCOD9165903
Probable space group: P 21/M
;
_chemical_formula_sum "Si O2"
_cell_formula_units_Z 28
_cell_length_a 5.535053
_cell_length_b 32.069832
_cell_length_c 8.601011
_cell_angle_alpha 90.000000
_cell_angle_beta 122.068365
_cell_angle_gamma 90.000000
_cell_volume 1293.791279
_symmetry_space_group_name_H-M "P 21/M"
_symmetry_group_IT_number 11
_symmetry_cell_setting 'monoclinic'
loop_
_space_group_symop_operation_xyz
x,y,z
-x,1/2+y,-z
-x,-y,-z
x,1/2-y,z
loop_
_atom_site_type_symbol
_atom_site_label
_atom_site_fract_x
_atom_site_fract_y
_atom_site_fract_z
Si Si1 0.664018 0.046899 0.685920
Si Si2 0.748141 0.997037 0.210502
Si Si3 0.770642 0.645921 0.779159
Si Si4 0.648023 0.077026 0.356571
Si Si5 0.718942 0.359616 0.818734
Si Si6 0.697979 0.201713 0.511259
Si Si7 0.884685 0.643406 0.457172
O O1 0.410112 0.029378 0.707409
O O2 0.537965 0.052811 0.470106
O O3 0.757144 0.092041 0.784683
O O4 0.957596 0.020852 0.758893
O O5 0.782570 0.043680 0.288073
O O6 0.500000 0.000000 0.000000
O O7 0.593881 0.607422 0.792852
O O8 0.562610 0.685411 0.684938
O O9 0.821083 0.634485 0.615832
O O10 0.056144 0.652479 0.973189
O O11 0.884760 0.108556 0.502414
O O12 0.725328 0.326972 0.676052
O O13 0.384686 0.358640 0.746968
O O14 0.676313 0.250000 0.539944
O O15 0.977994 0.188894 0.510520
#
# Coordination Sequence:
#
# PCOD9165903 Si02
#       7
#     4   4   4   4   4   4   4
#     4  12  24  43  67  98 140 191 236 289 351 415
#     4  12  28  41  65 103 142 186 245 297 346 406
#     4  10  23  41  69  96 135 173 228 277 346 416
#     4  11  23  43  64  96 136 186 231 286 346 409
#     4  11  23  42  69  99 133 179 228 281 347 412
#     4  10  23  45  68  96 135 171 219 282 352 426
#     4  10  21  41  66  98 133 176 225 277 353 411
#
# _framework density 21.641821
#
# number of rings (size 3 to 8) (size 9 to 14) (size 15 to 20)
#    0.000    1.143    4.286    3.000    4.000    5.143 
#    0.000    0.000    0.000    0.000    0.000    0.000 
#    0.000    0.000    0.000    0.000    0.000    0.000 
#
# Total GULP energy -156296.597419 kJ/mol
# GULP energy per Si atom -5582.021336 kJ/mol
# Density = 2.159256 g / cm^3
# Si number density = 21.641821 Si / 1000 Ang^3
#
#
#
# Elastic Constant Matrix: (Units=GPa)
#
#
# Indices 1 2 3 4 5 6 
#
# 1 74.6501 20.3681 13.8675 0.0000 27.3214 0.0000
# 2 20.3681 108.6591 16.5110 0.0000 14.8051 0.0000
# 3 13.8675 16.5110 110.3208 0.0000 49.4499 0.0000
# 4 0.0000 0.0000 0.0000 15.8988 0.0000 -3.1524
# 5 27.3214 14.8051 49.4499 0.0000 35.0341 0.0000
# 6 0.0000 0.0000 0.0000 -3.1524 0.0000 20.5816
#
#
#
# Elastic Compliance Matrix: (Units=1/GPa)
#
#
# Indices 1 2 3 4 5 6 
#
# 1 0.026370 -0.001591 0.015898 0.000000 -0.042332 0.000000
# 2 -0.001591 0.009907 0.000103 0.000000 -0.003091 0.000000
# 3 0.015898 0.000103 0.034377 0.000000 -0.060964 0.000000
# 4 0.000000 0.000000 0.000000 0.064868 0.000000 0.009936
# 5 -0.042332 -0.003091 -0.060964 0.000000 0.148912 0.000000
# 6 0.000000 0.000000 0.000000 0.009936 0.000000 0.050109
#
#
# Mechanical properties :
#
#
# Convention : Reuss Voigt Hill
#
# Bulk Modulus (GPa) = 10.05290 43.90260 26.97775
# Shear Modulus (GPa) = 14.75447 30.49512 22.62480
#
# Velocity S-wave (km/s) = 2.61388 3.75785 3.23680
# Velocity P-wave (km/s) = 3.71013 6.25768 5.14411
#
# Compressibility (1/GPa) = 0.09947377
#
# Stress axis : x y z
#
# Youngs Moduli (GPa) = 37.92215 100.94038 29.08924
#
# Poissons Ratio (x) = 0.16059 -0.46247
# Poissons Ratio (y) = 0.06033 -0.00299
# Poissons Ratio (z) = -0.60290 -0.01037
#
# Static dielectric constant tensor:
#      x y z
#    x 1.904710 0.000000 -0.022370 
#    y 0.000000 1.821030 0.000000 
#    z -0.022370 0.000000 1.776690 
# 
# From -- ./inp_files/10877.got.cif
#   From: 2010.05.17/outbox.cif.g08.bks.cpg/sg11_6_cif.got.tgz:10877.got - 2010.06.03 12:22:45.
