data_PCOD9165319
_publ_section_title
;
Structure prediction by ZEFSAII (Michael W. Deem and Ramdas Pophale) SiO2 
 PCOD9165319
Probable space group: P 21/M
;
_chemical_formula_sum "Si O2"
_cell_formula_units_Z 26
_cell_length_a 7.581163
_cell_length_b 9.630229
_cell_length_c 19.694141
_cell_angle_alpha 90.000000
_cell_angle_beta 123.129502
_cell_angle_gamma 90.000000
_cell_volume 1204.098046
_symmetry_space_group_name_H-M "P 21/M"
_symmetry_group_IT_number 11
_symmetry_cell_setting 'monoclinic'
loop_
_space_group_symop_operation_xyz
x,y,z
-x,1/2+y,-z
-x,-y,-z
x,1/2-y,z
loop_
_atom_site_type_symbol
_atom_site_label
_atom_site_fract_x
_atom_site_fract_y
_atom_site_fract_z
Si Si1 0.462453 0.091990 0.592820
Si Si2 0.570477 0.750000 0.993757
Si Si3 0.947090 0.593177 0.924410
Si Si4 0.843190 0.909493 0.270655
Si Si5 0.707534 0.478470 0.107020
Si Si6 0.627764 0.090638 0.772413
Si Si7 0.178697 0.591481 0.447981
O O1 0.392940 0.250000 0.591874
O O2 0.581860 0.045064 0.685726
O O3 0.632527 0.094016 0.568018
O O4 0.266127 0.000794 0.527457
O O5 0.487114 0.874836 0.924315
O O6 0.639806 0.627208 0.063320
O O7 0.891779 0.750000 0.933476
O O8 0.776448 0.513160 0.843711
O O9 0.155935 0.596896 0.922164
O O10 0.000000 0.500000 0.000000
O O11 0.915839 0.750000 0.273461
O O12 0.599079 0.905464 0.239543
O O13 0.979443 0.961575 0.363001
O O14 0.848718 0.997170 0.203182
O O15 0.713095 0.250000 0.790725
O O16 0.138672 0.750000 0.461337
#
# Coordination Sequence:
#
# PCOD9165319 Si02
#       7
#     4   2   4   4   4   4   4
#     4   9  18  36  58  86 118 154 196 242 297 353
#     4  10  24  38  68  88 118 158 202 252 298 350
#     4  12  28  43  62  89 121 158 202 248 301 359
#     4  10  21  38  62  89 119 157 200 245 298 356
#     4  11  23  42  63  90 120 158 201 250 298 361
#     4  10  23  40  62  88 122 158 199 248 299 356
#     4   9  18  34  59  84 114 158 199 241 292 353
#
# _framework density 21.592927
#
# number of rings (size 3 to 8) (size 9 to 14) (size 15 to 20)
#    0.000    1.846    1.538    1.385    6.462    2.462 
#    1.385    1.538    0.000    0.000    0.000    0.000 
#    0.000    0.000    0.000    0.000    0.000    0.000 
#
# Total GULP energy -144842.524866 kJ/mol
# GULP energy per Si atom -5570.866341 kJ/mol
# Density = 2.154378 g / cm^3
# Si number density = 21.592927 Si / 1000 Ang^3
#
#
#
# Elastic Constant Matrix: (Units=GPa)
#
#
# Indices 1 2 3 4 5 6 
#
# 1 34.0672 11.6185 5.0362 0.0000 0.6499 0.0000
# 2 11.6185 147.9229 99.6372 0.0000 11.0998 0.0000
# 3 5.0362 99.6372 198.5383 0.0000 3.3819 0.0000
# 4 0.0000 0.0000 0.0000 40.3274 0.0000 5.5677
# 5 0.6499 11.0998 3.3819 0.0000 30.0998 0.0000
# 6 0.0000 0.0000 0.0000 5.5677 0.0000 27.2898
#
#
#
# Elastic Compliance Matrix: (Units=1/GPa)
#
#
# Indices 1 2 3 4 5 6 
#
# 1 0.030219 -0.002836 0.000651 0.000000 0.000320 0.000000
# 2 -0.002836 0.010795 -0.005289 0.000000 -0.003325 0.000000
# 3 0.000651 -0.005289 0.007656 0.000000 0.001076 0.000000
# 4 0.000000 0.000000 0.000000 0.025516 0.000000 -0.005206
# 5 0.000320 -0.003325 0.001076 0.000000 0.034321 0.000000
# 6 0.000000 0.000000 0.000000 -0.005206 0.000000 0.037706
#
#
# Mechanical properties :
#
#
# Convention : Reuss Voigt Hill
#
# Bulk Modulus (GPa) = 29.65398 68.12358 48.88878
# Shear Modulus (GPa) = 29.00210 37.15917 33.08063
#
# Velocity S-wave (km/s) = 3.66885 4.15287 3.91834
# Velocity P-wave (km/s) = 5.63119 7.39003 6.56974
#
# Compressibility (1/GPa) = 0.03372229
#
# Stress axis : x y z
#
# Youngs Moduli (GPa) = 33.09212 92.63466 130.61239
#
# Poissons Ratio (x) = 0.26274 -0.08508
# Poissons Ratio (y) = 0.09386 0.69080
# Poissons Ratio (z) = -0.02156 0.48994
#
# Static dielectric constant tensor:
#      x y z
#    x 1.906580 0.000000 0.015070 
#    y 0.000000 1.677150 0.000000 
#    z 0.015070 0.000000 1.777450 
# 
# From -- ./inp_files/26145.got.cif
#   From: 2010.05.17/outbox.cif.g08.bks.cpg/sg11_14_cif.got.tgz:26145.got - 2010.06.03 12:22:45.
