data_PCOD9165885
_publ_section_title
;
Structure prediction by ZEFSAII (Michael W. Deem and Ramdas Pophale) SiO2 
 PCOD9165885
Probable space group: P 21/M
;
_chemical_formula_sum "Si O2"
_cell_formula_units_Z 32
_cell_length_a 8.460934
_cell_length_b 26.955530
_cell_length_c 12.442663
_cell_angle_alpha 90.000000
_cell_angle_beta 33.650602
_cell_angle_gamma 90.000000
_cell_volume 1572.493253
_symmetry_space_group_name_H-M "P 21/M"
_symmetry_group_IT_number 11
_symmetry_cell_setting 'monoclinic'
loop_
_space_group_symop_operation_xyz
x,y,z
-x,1/2+y,-z
-x,-y,-z
x,1/2-y,z
loop_
_atom_site_type_symbol
_atom_site_label
_atom_site_fract_x
_atom_site_fract_y
_atom_site_fract_z
Si Si1 0.606656 0.308579 0.024779
Si Si2 0.240629 0.587548 0.097753
Si Si3 0.601272 0.555750 0.461004
Si Si4 0.003898 0.808809 0.738835
Si Si5 0.059754 0.808932 0.956068
Si Si6 0.500807 0.362974 0.653511
Si Si7 0.307186 0.940468 0.293039
Si Si8 0.626070 0.948273 0.688522
O O1 0.668668 0.250000 0.964619
O O2 0.663539 0.313559 0.121879
O O3 0.296465 0.320966 0.149776
O O4 0.797495 0.352996 0.866686
O O5 0.364818 0.563009 0.134370
O O6 0.939463 0.561025 0.251106
O O7 0.449041 0.578092 0.880921
O O8 0.500000 0.500000 0.500000
O O9 0.472771 0.594494 0.451412
O O10 0.538667 0.569028 0.619770
O O11 0.005450 0.750000 0.746627
O O12 0.058426 0.826438 0.831840
O O13 0.256814 0.824855 0.517236
O O14 0.995382 0.750000 0.990687
O O15 0.804652 0.837301 0.161408
O O16 0.561877 0.392199 0.727746
O O17 0.965732 0.939779 0.506192
O O18 0.419289 0.992362 0.276026
#
# Coordination Sequence:
#
# PCOD9165885 Si02
#       8
#     4   4   4   4   4   4   4   4
#     4  10  21  41  65  94 128 161 210 270 321 389
#     4  11  22  41  65  89 121 173 218 256 334 386
#     4  11  24  41  58  89 131 164 213 270 315 378
#     4  10  23  42  66  97 130 168 214 266 329 393
#     4  10  22  42  65  93 129 166 212 268 318 389
#     4  12  22  40  65  92 128 168 211 261 330 384
#     4  10  22  39  61  91 126 162 212 269 310 377
#     4  10  22  41  61  87 126 168 213 263 315 380
#
# _framework density 20.349848999999999
#
# number of rings (size 3 to 8) (size 9 to 14) (size 15 to 20)
#    0.000    1.500    2.500    2.250    1.750    0.500 
#    4.500    0.625    0.000    9.000    0.000    0.000 
#    0.000    0.000    0.000    0.000    0.000    0.000 
#
# Total GULP energy -178504.521808 kJ/mol
# GULP energy per Si atom -5578.266306 kJ/mol
# Density = 2.030353 g / cm^3
# Si number density = 20.349849 Si / 1000 Ang^3
#
#
#
# Elastic Constant Matrix: (Units=GPa)
#
#
# Indices 1 2 3 4 5 6 
#
# 1 83.9488 22.1405 16.0195 0.0000 -1.8416 0.0000
# 2 22.1405 2.4569 26.5163 0.0000 15.3597 0.0000
# 3 16.0195 26.5163 68.2889 0.0000 15.7140 0.0000
# 4 0.0000 0.0000 0.0000 29.3702 0.0000 3.5998
# 5 -1.8416 15.3597 15.7140 0.0000 7.8294 0.0000
# 6 0.0000 0.0000 0.0000 3.5998 0.0000 23.2568
#
#
#
# Elastic Compliance Matrix: (Units=1/GPa)
#
#
# Indices 1 2 3 4 5 6 
#
# 1 0.009912 0.009871 -0.004159 0.000000 -0.008686 0.000000
# 2 0.009871 -0.025653 -0.008305 0.000000 0.069318 0.000000
# 3 -0.004159 -0.008305 0.028468 0.000000 -0.041822 0.000000
# 4 0.000000 0.000000 0.000000 0.034707 0.000000 -0.005372
# 5 -0.008686 0.069318 -0.041822 0.000000 0.073632 0.000000
# 6 0.000000 0.000000 0.000000 -0.005372 0.000000 0.043830
#
#
# Mechanical properties :
#
#
# Convention : Reuss Voigt Hill
#
# Bulk Modulus (GPa) = 132.63613 31.56081 82.09847
# Shear Modulus (GPa) = 28.96962 18.09251 23.53107
#
# Velocity S-wave (km/s) = 3.77713 2.98497 3.40417
# Velocity P-wave (km/s) = 9.18377 5.23668 7.47544
#
# Compressibility (1/GPa) = 0.00753942
#
# Stress axis : x y z
#
# Youngs Moduli (GPa) = 100.89035 -38.98118 35.12716
#
# Poissons Ratio (x) = 0.38479 0.14611
# Poissons Ratio (y) = -0.99592 0.29174
# Poissons Ratio (z) = 0.41964 -0.32375
#
# Static dielectric constant tensor:
#      x y z
#    x 1.776930 0.000000 -0.012950 
#    y 0.000000 1.733400 0.000000 
#    z -0.012950 0.000000 1.713330 
# 
# From -- ./inp_files/33206.got.cif
#   From: 2010.05.17/outbox.cif.g08.bks.cpg/sg11_17_cif.got.tgz:33206.got - 2010.06.03 12:22:45.
