data_PCOD9165633
_publ_section_title
;
Structure prediction by ZEFSAII (Michael W. Deem and Ramdas Pophale) SiO2 
 PCOD9165633
Probable space group: P 21/M
;
_chemical_formula_sum "Si O2"
_cell_formula_units_Z 24
_cell_length_a 7.915662
_cell_length_b 13.243565
_cell_length_c 15.331831
_cell_angle_alpha 90.000000
_cell_angle_beta 138.404648
_cell_angle_gamma 90.000000
_cell_volume 1067.004627
_symmetry_space_group_name_H-M "P 21/M"
_symmetry_group_IT_number 11
_symmetry_cell_setting 'monoclinic'
loop_
_space_group_symop_operation_xyz
x,y,z
-x,1/2+y,-z
-x,-y,-z
x,1/2-y,z
loop_
_atom_site_type_symbol
_atom_site_label
_atom_site_fract_x
_atom_site_fract_y
_atom_site_fract_z
Si Si1 0.453075 0.630923 0.987263
Si Si2 0.195487 0.448259 0.453118
Si Si3 0.355595 0.006473 0.797888
Si Si4 0.407652 0.865626 0.265303
Si Si5 0.950021 0.530876 0.880509
Si Si6 0.441589 0.132698 0.375147
O O1 0.438679 0.750000 0.981714
O O2 0.194258 0.583536 0.930331
O O3 0.714753 0.608121 0.773228
O O4 0.521337 0.414290 0.100001
O O5 0.353073 0.375398 0.577555
O O6 0.321476 0.557873 0.519734
O O7 0.254063 0.403779 0.380243
O O8 0.896233 0.463029 0.343992
O O9 0.505772 0.070830 0.785033
O O10 0.325600 0.088125 0.864694
O O11 0.348663 0.750000 0.223468
O O12 0.165151 0.928162 0.206892
O O13 0.000000 0.500000 0.000000
O O14 0.503958 0.250000 0.406201
#
# Coordination Sequence:
#
# PCOD9165633 Si02
#       6
#     4   4   4   4   4   4
#     4  11  24  44  70  95 132 178 215 269 333 385
#     4  10  22  40  64  96 131 168 220 272 313 396
#     4  11  23  42  67  96 135 171 219 267 326 395
#     4  11  24  42  67  98 135 176 214 270 332 380
#     4  11  22  40  67  95 127 166 222 268 316 394
#     4  10  21  39  65  93 127 172 215 267 329 381
#
# _framework density 22.492871999999998
#
# number of rings (size 3 to 8) (size 9 to 14) (size 15 to 20)
#    0.000    1.333    3.333    2.000    0.000    2.667 
#    0.000    8.333    0.000    0.000    0.000    0.000 
#    0.000    0.000    0.000    0.000    0.000    0.000 
#
# Total GULP energy -133943.301189 kJ/mol
# GULP energy per Si atom -5580.970883 kJ/mol
# Density = 2.244168 g / cm^3
# Si number density = 22.492872 Si / 1000 Ang^3
#
#
#
# Elastic Constant Matrix: (Units=GPa)
#
#
# Indices 1 2 3 4 5 6 
#
# 1 51.5172 23.1867 7.8495 0.0000 -16.5611 0.0000
# 2 23.1867 147.0131 7.3038 0.0000 -13.2124 0.0000
# 3 7.8495 7.3038 97.1762 0.0000 -16.2898 0.0000
# 4 0.0000 0.0000 0.0000 17.6637 0.0000 -5.6803
# 5 -16.5611 -13.2124 -16.2898 0.0000 30.0519 0.0000
# 6 0.0000 0.0000 0.0000 -5.6803 0.0000 22.7324
#
#
#
# Elastic Compliance Matrix: (Units=1/GPa)
#
#
# Indices 1 2 3 4 5 6 
#
# 1 0.024640 -0.002776 0.000319 0.000000 0.012531 0.000000
# 2 -0.002776 0.007395 -0.000047 0.000000 0.001696 0.000000
# 3 0.000319 -0.000047 0.011323 0.000000 0.006293 0.000000
# 4 0.000000 0.000000 0.000000 0.061560 0.000000 0.015382
# 5 0.012531 0.001696 0.006293 0.000000 0.044338 0.000000
# 6 0.000000 0.000000 0.000000 0.015382 0.000000 0.047834
#
#
# Mechanical properties :
#
#
# Convention : Reuss Voigt Hill
#
# Bulk Modulus (GPa) = 26.07585 41.37629 33.72607
# Shear Modulus (GPa) = 23.26863 31.24737 27.25800
#
# Velocity S-wave (km/s) = 3.21984 3.73126 3.48494
# Velocity P-wave (km/s) = 5.04393 6.08262 5.58746
#
# Compressibility (1/GPa) = 0.03834966
#
# Stress axis : x y z
#
# Youngs Moduli (GPa) = 40.58419 135.23262 88.31385
#
# Poissons Ratio (x) = 0.37538 -0.02817
# Poissons Ratio (y) = 0.11266 0.00418
# Poissons Ratio (z) = -0.01294 0.00640
#
# Static dielectric constant tensor:
#      x y z
#    x 1.923810 0.000000 0.008600 
#    y 0.000000 1.785500 0.000000 
#    z 0.008600 0.000000 1.946300 
# 
# From -- ./inp_files/64636.got.cif
#   From: 2010.05.17/outbox.cif.g08.bks.cpg/sg11_33_cif.got.tgz:64636.got - 2010.06.03 12:22:45.
