data_PCOD9165165
_publ_section_title
;
Structure prediction by ZEFSAII (Michael W. Deem and Ramdas Pophale) SiO2 
 PCOD9165165
Probable space group: P 21/M
;
_chemical_formula_sum "Si O2"
_cell_formula_units_Z 32
_cell_length_a 13.752449
_cell_length_b 9.000812
_cell_length_c 23.493875
_cell_angle_alpha 90.000000
_cell_angle_beta 146.129404
_cell_angle_gamma 90.000000
_cell_volume 1620.765919
_symmetry_space_group_name_H-M "P 21/M"
_symmetry_group_IT_number 11
_symmetry_cell_setting 'monoclinic'
loop_
_space_group_symop_operation_xyz
x,y,z
-x,1/2+y,-z
-x,-y,-z
x,1/2-y,z
loop_
_atom_site_type_symbol
_atom_site_label
_atom_site_fract_x
_atom_site_fract_y
_atom_site_fract_z
Si Si1 0.228958 0.926897 0.956762
Si Si2 0.752626 0.926846 0.472168
Si Si3 0.332440 0.571608 0.447472
Si Si4 0.056420 0.429084 0.087118
Si Si5 0.476769 0.922978 0.830263
Si Si6 0.557896 0.576412 0.741399
Si Si7 0.947560 0.923530 0.232264
Si Si8 0.109481 0.074899 0.659957
O O1 0.248201 0.750000 0.968114
O O2 0.406044 0.001785 0.064586
O O3 0.075163 0.971016 0.926373
O O4 0.169864 0.979205 0.866001
O O5 0.762707 0.750000 0.481127
O O6 0.695448 0.998689 0.504488
O O7 0.604116 0.978348 0.356581
O O8 0.943002 0.994054 0.551673
O O9 0.500000 0.500000 0.500000
O O10 0.349257 0.750000 0.461322
O O11 0.153467 0.541984 0.325963
O O12 0.051707 0.250000 0.078984
O O13 0.258244 0.469516 0.196814
O O14 0.000000 0.500000 0.000000
O O15 0.448139 0.750000 0.829140
O O16 0.577018 0.933706 0.818784
O O17 0.292589 0.003487 0.732794
O O18 0.522517 0.750000 0.710175
O O19 0.920352 0.750000 0.205326
O O20 0.907692 0.943209 0.279767
O O21 0.104017 0.250000 0.644526
#
# Coordination Sequence:
#
# PCOD9165165 Si02
#       8
#     4   4   4   4   4   4   4   4
#     4  11  23  37  59  91 122 157 199 244 295 353
#     4  11  23  39  61  90 120 157 201 245 298 360
#     4  10  21  38  59  86 120 158 201 249 299 353
#     4  10  21  38  59  85 119 159 197 242 297 349
#     4  11  23  40  64  89 117 157 201 249 301 356
#     4  10  22  40  60  87 122 160 199 244 297 354
#     4   9  21  40  60  84 116 155 196 241 297 352
#     4  10  22  43  66  87 118 156 196 253 305 352
#
# _framework density 19.743751
#
# number of rings (size 3 to 8) (size 9 to 14) (size 15 to 20)
#    0.000    1.750    1.250    3.375    1.750    6.000 
#    0.000    0.000    0.000    0.000    0.000    0.000 
#    0.000    0.000    0.000    0.000    0.000    0.000 
#
# Total GULP energy -178838.944748 kJ/mol
# GULP energy per Si atom -5588.717023 kJ/mol
# Density = 1.969881 g / cm^3
# Si number density = 19.743751 Si / 1000 Ang^3
#
#
#
# Elastic Constant Matrix: (Units=GPa)
#
#
# Indices 1 2 3 4 5 6 
#
# 1 24.7367 12.8252 3.4147 0.0000 21.9810 0.0000
# 2 12.8252 83.3552 49.9452 0.0000 5.3757 0.0000
# 3 3.4147 49.9452 98.6764 0.0000 11.5782 0.0000
# 4 0.0000 0.0000 0.0000 37.9694 0.0000 2.2247
# 5 21.9810 5.3757 11.5782 0.0000 33.0512 0.0000
# 6 0.0000 0.0000 0.0000 2.2247 0.0000 26.2766
#
#
#
# Elastic Compliance Matrix: (Units=1/GPa)
#
#
# Indices 1 2 3 4 5 6 
#
# 1 0.130287 -0.025638 0.018924 0.000000 -0.089108 0.000000
# 2 -0.025638 0.022266 -0.012471 0.000000 0.017798 0.000000
# 3 0.018924 -0.012471 0.017760 0.000000 -0.016779 0.000000
# 4 0.000000 0.000000 0.000000 0.026468 0.000000 -0.002241
# 5 -0.089108 0.017798 -0.016779 0.000000 0.092501 0.000000
# 6 0.000000 0.000000 0.000000 -0.002241 0.000000 0.038246
#
#
# Mechanical properties :
#
#
# Convention : Reuss Voigt Hill
#
# Bulk Modulus (GPa) = 7.57911 37.68208 22.63059
# Shear Modulus (GPa) = 12.19864 28.83166 20.51515
#
# Velocity S-wave (km/s) = 2.48835 3.82552 3.22696
# Velocity P-wave (km/s) = 3.47893 6.21610 5.03700
#
# Compressibility (1/GPa) = 0.13194168
#
# Stress axis : x y z
#
# Youngs Moduli (GPa) = 7.67537 44.91067 56.30524
#
# Poissons Ratio (x) = 1.15144 -1.06550
# Poissons Ratio (y) = 0.19678 0.70220
# Poissons Ratio (z) = -0.14525 0.56009
#
# Static dielectric constant tensor:
#      x y z
#    x 1.705840 0.000000 0.005110 
#    y 0.000000 1.706010 0.000000 
#    z 0.005110 0.000000 1.677900 
# 
# From -- ./inp_files/55573.got.cif
#   From: 2010.05.17/outbox.cif.g08.bks.cpg/sg11_28_cif.got.tgz:55573.got - 2010.06.03 12:22:45.
