data_PCOD9165521
_publ_section_title
;
Structure prediction by ZEFSAII (Michael W. Deem and Ramdas Pophale) SiO2 
 PCOD9165521
Probable space group: P 21/M
;
_chemical_formula_sum "Si O2"
_cell_formula_units_Z 28
_cell_length_a 9.295638
_cell_length_b 9.128439
_cell_length_c 27.255735
_cell_angle_alpha 90.000000
_cell_angle_beta 141.188050
_cell_angle_gamma 90.000000
_cell_volume 1449.570308
_symmetry_space_group_name_H-M "P 21/M"
_symmetry_group_IT_number 11
_symmetry_cell_setting 'monoclinic'
loop_
_space_group_symop_operation_xyz
x,y,z
-x,1/2+y,-z
-x,-y,-z
x,1/2-y,z
loop_
_atom_site_type_symbol
_atom_site_label
_atom_site_fract_x
_atom_site_fract_y
_atom_site_fract_z
Si Si1 0.856252 0.576904 0.301963
Si Si2 0.185371 0.425365 0.013195
Si Si3 0.237631 0.083704 0.565382
Si Si4 0.565987 0.074978 0.739075
Si Si5 0.283593 0.417428 0.463699
Si Si6 0.943272 0.425711 0.122322
Si Si7 0.279508 0.575993 0.831618
O O1 0.901588 0.750000 0.312817
O O2 0.610136 0.553772 0.262773
O O3 0.846671 0.511500 0.244917
O O4 0.050952 0.498435 0.385962
O O5 0.146401 0.250000 0.001329
O O6 0.161595 0.494000 0.952778
O O7 0.447510 0.451399 0.099510
O O8 0.000000 0.500000 0.000000
O O9 0.189618 0.250000 0.569122
O O10 0.425390 0.026883 0.653283
O O11 0.320130 0.084535 0.531702
O O12 0.000000 0.000000 0.500000
O O13 0.618221 0.250000 0.749583
O O14 0.796452 0.983341 0.805150
O O15 0.500000 0.500000 0.500000
O O16 0.270881 0.250000 0.442920
O O17 0.935965 0.250000 0.113717
O O18 0.812380 0.461473 0.138403
O O19 0.241771 0.750000 0.814635
#
# Coordination Sequence:
#
# PCOD9165521 Si02
#       7
#     4   4   4   4   4   4   4
#     4  11  23  40  63  89 120 161 205 253 307 363
#     4  11  23  42  68  95 126 162 203 250 300 360
#     4  10  21  39  62  88 119 158 205 255 308 363
#     4  10  22  40  61  89 123 159 205 255 305 364
#     4  11  24  40  61  89 123 162 205 255 310 367
#     4  11  24  41  63  93 125 161 203 248 304 361
#     4  10  24  43  62  90 127 163 202 250 302 361
#
# _framework density 19.316068000000001
#
# number of rings (size 3 to 8) (size 9 to 14) (size 15 to 20)
#    0.000    1.429    1.429    3.000    2.000    6.857 
#    0.000    0.000    0.000    0.000    0.000    0.000 
#    0.000    0.000    0.000    0.000    0.000    0.000 
#
# Total GULP energy -156481.958232 kJ/mol
# GULP energy per Si atom -5588.641365 kJ/mol
# Density = 1.927210 g / cm^3
# Si number density = 19.316068 Si / 1000 Ang^3
#
#
#
# Elastic Constant Matrix: (Units=GPa)
#
#
# Indices 1 2 3 4 5 6 
#
# 1 82.7237 38.2190 7.2095 0.0000 -7.4620 0.0000
# 2 38.2190 65.0797 25.0406 0.0000 -5.0802 0.0000
# 3 7.2095 25.0406 66.8518 0.0000 -18.7608 0.0000
# 4 0.0000 0.0000 0.0000 35.2880 0.0000 0.2061
# 5 -7.4620 -5.0802 -18.7608 0.0000 35.5453 0.0000
# 6 0.0000 0.0000 0.0000 0.2061 0.0000 31.7508
#
#
#
# Elastic Compliance Matrix: (Units=1/GPa)
#
#
# Indices 1 2 3 4 5 6 
#
# 1 0.017295 -0.011162 0.003389 0.000000 0.003824 0.000000
# 2 -0.011162 0.025198 -0.009252 0.000000 -0.003625 0.000000
# 3 0.003389 -0.009252 0.020997 0.000000 0.010471 0.000000
# 4 0.000000 0.000000 0.000000 0.028339 0.000000 -0.000184
# 5 0.003824 -0.003625 0.010471 0.000000 0.033945 0.000000
# 6 0.000000 0.000000 0.000000 -0.000184 0.000000 0.031496
#
#
# Mechanical properties :
#
#
# Convention : Reuss Voigt Hill
#
# Bulk Modulus (GPa) = 33.96761 39.51035 36.73898
# Shear Modulus (GPa) = 24.85909 30.12923 27.49416
#
# Velocity S-wave (km/s) = 3.59132 3.95372 3.77687
# Velocity P-wave (km/s) = 5.90086 6.42974 6.17097
#
# Compressibility (1/GPa) = 0.02943981
#
# Stress axis : x y z
#
# Youngs Moduli (GPa) = 57.81991 39.68596 47.62574
#
# Poissons Ratio (x) = 0.44299 -0.16141
# Poissons Ratio (y) = 0.64540 0.44063
# Poissons Ratio (z) = -0.19595 0.36717
#
# Static dielectric constant tensor:
#      x y z
#    x 1.640220 0.000000 -0.008320 
#    y 0.000000 1.666020 0.000000 
#    z -0.008320 0.000000 1.653320 
# 
# From -- ./inp_files/28133.got.cif
#   From: 2010.05.17/outbox.cif.g08.bks.cpg/sg11_15_cif.got.tgz:28133.got - 2010.06.03 12:22:45.
