data_PCOD9165770
_publ_section_title
;
Structure prediction by ZEFSAII (Michael W. Deem and Ramdas Pophale) SiO2 
 PCOD9165770
Probable space group: P 21/M
;
_chemical_formula_sum "Si O2"
_cell_formula_units_Z 32
_cell_length_a 11.502203
_cell_length_b 18.670948
_cell_length_c 9.878123
_cell_angle_alpha 90.000000
_cell_angle_beta 129.180635
_cell_angle_gamma 90.000000
_cell_volume 1644.417515
_symmetry_space_group_name_H-M "P 21/M"
_symmetry_group_IT_number 11
_symmetry_cell_setting 'monoclinic'
loop_
_space_group_symop_operation_xyz
x,y,z
-x,1/2+y,-z
-x,-y,-z
x,1/2-y,z
loop_
_atom_site_type_symbol
_atom_site_label
_atom_site_fract_x
_atom_site_fract_y
_atom_site_fract_z
Si Si1 0.929219 0.663537 0.351845
Si Si2 0.272258 0.167859 0.029347
Si Si3 0.888079 0.068716 0.913039
Si Si4 0.396052 0.945765 0.095377
Si Si5 0.152752 0.335865 0.212221
Si Si6 0.268412 0.409091 0.567717
Si Si7 0.800732 0.426920 0.532060
Si Si8 0.543622 0.097544 0.151967
O O1 0.947558 0.750000 0.369377
O O2 0.812168 0.637106 0.376602
O O3 0.082307 0.620144 0.467434
O O4 0.857153 0.636543 0.157967
O O5 0.230066 0.250000 0.012034
O O6 0.266089 0.140027 0.175855
O O7 0.428140 0.161997 0.068299
O O8 0.744476 0.059987 0.907073
O O9 0.830627 0.078405 0.715324
O O10 0.991460 0.133654 0.045492
O O11 0.000000 0.000000 0.000000
O O12 0.552593 0.915068 0.273272
O O13 0.435904 0.028213 0.090526
O O14 0.371961 0.910511 0.928844
O O15 0.147294 0.250000 0.226250
O O16 0.217875 0.372327 0.392603
O O17 0.202375 0.489784 0.514186
O O18 0.642703 0.398943 0.359116
#
# Coordination Sequence:
#
# PCOD9165770 Si02
#       8
#     4   4   4   4   4   4   4   4
#     4  11  23  42  65  90 129 173 215 262 318 384
#     4  10  21  40  65  86 122 174 217 256 315 387
#     4  12  24  42  64  95 131 171 208 268 323 382
#     4  10  24  40  64  93 127 163 208 265 319 377
#     4  11  24  42  65  95 130 173 216 262 321 388
#     4  11  23  42  65  97 127 165 217 268 323 381
#     4  11  25  37  67  99 125 167 215 266 319 386
#     4  10  22  41  61  93 126 160 211 267 317 376
#
# _framework density 19.459778
#
# number of rings (size 3 to 8) (size 9 to 14) (size 15 to 20)
#    0.000    1.250    3.750    1.500    3.500    1.500 
#    0.000    1.875    0.000    0.000    0.000    0.000 
#    0.000    0.000    0.000    0.000    0.000    0.000 
#
# Total GULP energy -178384.390639 kJ/mol
# GULP energy per Si atom -5574.512207 kJ/mol
# Density = 1.941549 g / cm^3
# Si number density = 19.459778 Si / 1000 Ang^3
#
#
#
# Elastic Constant Matrix: (Units=GPa)
#
#
# Indices 1 2 3 4 5 6 
#
# 1 133.4818 28.4770 32.9448 0.0000 -7.0214 0.0000
# 2 28.4770 59.1043 25.8229 0.0000 7.8023 0.0000
# 3 32.9448 25.8229 109.3860 0.0000 -11.0113 0.0000
# 4 0.0000 0.0000 0.0000 -0.7757 0.0000 -0.6527
# 5 -7.0214 7.8023 -11.0113 0.0000 21.6480 0.0000
# 6 0.0000 0.0000 0.0000 -0.6527 0.0000 22.5026
#
#
#
# Elastic Compliance Matrix: (Units=1/GPa)
#
#
# Indices 1 2 3 4 5 6 
#
# 1 0.008911 -0.004214 -0.001312 0.000000 0.003742 0.000000
# 2 -0.004214 0.022939 -0.005392 0.000000 -0.012377 0.000000
# 3 -0.001312 -0.005392 0.011555 0.000000 0.007395 0.000000
# 4 0.000000 0.000000 0.000000 -1.258453 0.000000 -0.036501
# 5 0.003742 -0.012377 0.007395 0.000000 0.055630 0.000000
# 6 0.000000 0.000000 0.000000 -0.036501 0.000000 0.043381
#
#
# Mechanical properties :
#
#
# Convention : Reuss Voigt Hill
#
# Bulk Modulus (GPa) = 46.36488 52.94017 49.65253
# Shear Modulus (GPa) = -4.59977 22.99014 9.19518
#
# Velocity S-wave (km/s) = -1.53911 3.44091 2.17612
# Velocity P-wave (km/s) = 4.55184 6.56128 5.64667
#
# Compressibility (1/GPa) = 0.02156805
#
# Stress axis : x y z
#
# Youngs Moduli (GPa) = 112.21523 43.59317 86.54600
#
# Poissons Ratio (x) = 0.18371 0.11359
# Poissons Ratio (y) = 0.47289 0.46666
# Poissons Ratio (z) = 0.14728 0.23506
#
# Static dielectric constant tensor:
#      x y z
#    x 1.702980 0.000000 -0.053890 
#    y 0.000000 1.702010 0.000000 
#    z -0.053890 0.000000 1.734450 
# 
# From -- ./inp_files/19403.got.cif
#   From: 2010.05.17/outbox.cif.g08.bks.cpg/sg11_10_cif.got.tgz:19403.got - 2010.06.03 12:22:45.
