data_PCOD9165787
_publ_section_title
;
Structure prediction by ZEFSAII (Michael W. Deem and Ramdas Pophale) SiO2 
 PCOD9165787
Probable space group: P 21/M
;
_chemical_formula_sum "Si O2"
_cell_formula_units_Z 28
_cell_length_a 15.799321
_cell_length_b 8.802880
_cell_length_c 11.667775
_cell_angle_alpha 90.000000
_cell_angle_beta 56.547438
_cell_angle_gamma 90.000000
_cell_volume 1353.928165
_symmetry_space_group_name_H-M "P 21/M"
_symmetry_group_IT_number 11
_symmetry_cell_setting 'monoclinic'
loop_
_space_group_symop_operation_xyz
x,y,z
-x,1/2+y,-z
-x,-y,-z
x,1/2-y,z
loop_
_atom_site_type_symbol
_atom_site_label
_atom_site_fract_x
_atom_site_fract_y
_atom_site_fract_z
Si Si1 0.784090 0.068796 0.399052
Si Si2 0.484628 0.578237 0.189405
Si Si3 0.862152 0.930823 0.857024
Si Si4 0.562031 0.927364 0.556616
Si Si5 0.887616 0.568580 0.096336
Si Si6 0.041719 0.069929 0.586823
Si Si7 0.661436 0.574776 0.867972
O O1 0.787904 0.250000 0.400283
O O2 0.670042 0.008657 0.489920
O O3 0.831100 0.009976 0.243834
O O4 0.852576 0.000634 0.449966
O O5 0.477705 0.750000 0.239359
O O6 0.497821 0.460971 0.281758
O O7 0.383235 0.533308 0.195804
O O8 0.577883 0.571360 0.031651
O O9 0.885045 0.750000 0.828404
O O10 0.768740 0.966470 0.843047
O O11 0.836737 0.956547 0.009467
O O12 0.959371 0.025146 0.745041
O O13 0.577368 0.750000 0.526170
O O14 0.500000 0.000000 0.500000
O O15 0.892439 0.750000 0.112879
O O16 0.000000 0.500000 0.000000
O O17 0.051315 0.250000 0.568469
O O18 0.000000 0.000000 0.500000
O O19 0.666717 0.750000 0.822138
#
# Coordination Sequence:
#
# PCOD9165787 Si02
#       7
#     4   4   4   4   4   4   4
#     4  12  26  46  69  97 131 173 222 273 329 392
#     4  10  21  40  65  94 128 168 215 267 322 382
#     4  10  22  40  64  94 129 169 215 265 322 387
#     4  12  27  47  69  96 130 172 220 271 330 393
#     4  11  22  39  65  95 129 169 213 264 320 382
#     4  12  26  44  67  96 133 176 221 271 328 394
#     4   9  20  39  64  93 127 169 212 263 323 381
#
# _framework density 20.680564
#
# number of rings (size 3 to 8) (size 9 to 14) (size 15 to 20)
#    0.000    1.143    1.429    4.714    4.000    1.714 
#    0.000    0.000    0.000    0.000    0.000    0.000 
#    0.000    0.000    0.000    0.000    0.000    0.000 
#
# Total GULP energy -156687.217465 kJ/mol
# GULP energy per Si atom -5595.972052 kJ/mol
# Density = 2.063349 g / cm^3
# Si number density = 20.680564 Si / 1000 Ang^3
#
#
#
# Elastic Constant Matrix: (Units=GPa)
#
#
# Indices 1 2 3 4 5 6 
#
# 1 121.3678 56.3618 11.2185 0.0000 5.9367 0.0000
# 2 56.3618 139.3337 29.0434 0.0000 8.4550 0.0000
# 3 11.2185 29.0434 45.4813 0.0000 13.3881 0.0000
# 4 0.0000 0.0000 0.0000 38.4201 0.0000 3.1436
# 5 5.9367 8.4550 13.3881 0.0000 32.6304 0.0000
# 6 0.0000 0.0000 0.0000 3.1436 0.0000 35.0693
#
#
#
# Elastic Compliance Matrix: (Units=1/GPa)
#
#
# Indices 1 2 3 4 5 6 
#
# 1 0.010172 -0.004144 0.000416 0.000000 -0.000948 0.000000
# 2 -0.004144 0.009967 -0.005464 0.000000 0.000413 0.000000
# 3 0.000416 -0.005464 0.028411 0.000000 -0.010317 0.000000
# 4 0.000000 0.000000 0.000000 0.026220 0.000000 -0.002350
# 5 -0.000948 0.000413 -0.010317 0.000000 0.034944 0.000000
# 6 0.000000 0.000000 0.000000 -0.002350 0.000000 0.028726
#
#
# Mechanical properties :
#
#
# Convention : Reuss Voigt Hill
#
# Bulk Modulus (GPa) = 33.15045 55.49223 44.32134
# Shear Modulus (GPa) = 29.96180 35.19456 32.57818
#
# Velocity S-wave (km/s) = 3.81043 4.12979 3.97332
# Velocity P-wave (km/s) = 5.95178 7.04496 6.52132
#
# Compressibility (1/GPa) = 0.03016551
#
# Stress axis : x y z
#
# Youngs Moduli (GPa) = 98.31275 100.32970 35.19797
#
# Poissons Ratio (x) = 0.41574 -0.01465
# Poissons Ratio (y) = 0.40738 0.19233
# Poissons Ratio (z) = -0.04091 0.54824
#
# Static dielectric constant tensor:
#      x y z
#    x 1.683450 0.000000 0.034400 
#    y 0.000000 1.712010 0.000000 
#    z 0.034400 0.000000 1.744170 
# 
# From -- ./inp_files/37867.got.cif
#   From: 2010.05.17/outbox.cif.g08.bks.cpg/sg11_19_cif.got.tgz:37867.got - 2010.06.03 12:22:45.
