data_PCOD9165184
_publ_section_title
;
Structure prediction by ZEFSAII (Michael W. Deem and Ramdas Pophale) SiO2 
 PCOD9165184
Probable space group: P 21/M
;
_chemical_formula_sum "Si O2"
_cell_formula_units_Z 32
_cell_length_a 11.808919
_cell_length_b 19.590779
_cell_length_c 13.296373
_cell_angle_alpha 90.000000
_cell_angle_beta 33.995934
_cell_angle_gamma 90.000000
_cell_volume 1719.930882
_symmetry_space_group_name_H-M "P 21/M"
_symmetry_group_IT_number 11
_symmetry_cell_setting 'monoclinic'
loop_
_space_group_symop_operation_xyz
x,y,z
-x,1/2+y,-z
-x,-y,-z
x,1/2-y,z
loop_
_atom_site_type_symbol
_atom_site_label
_atom_site_fract_x
_atom_site_fract_y
_atom_site_fract_z
Si Si1 0.968016 0.078346 0.986598
Si Si2 0.740892 0.328165 0.564056
Si Si3 0.800308 0.330276 0.757842
Si Si4 0.532681 0.048784 0.273477
Si Si5 0.316344 0.103253 0.866832
Si Si6 0.916604 0.924927 0.754178
Si Si7 0.086330 0.074762 0.667454
Si Si8 0.542284 0.570310 0.907718
O O1 0.125448 0.120929 0.936993
O O2 0.024849 0.084233 0.828253
O O3 0.727539 0.089941 0.170337
O O4 0.000000 0.000000 0.000000
O O5 0.779913 0.250000 0.507662
O O6 0.797469 0.338149 0.639704
O O7 0.503525 0.345396 0.729183
O O8 0.884545 0.378548 0.396043
O O9 0.789479 0.250000 0.789111
O O10 0.992966 0.365817 0.667756
O O11 0.606842 0.371507 0.941994
O O12 0.326212 0.067390 0.480268
O O13 0.498863 0.060663 0.179462
O O14 0.588132 0.968705 0.240801
O O15 0.222173 0.091049 0.046693
O O16 0.774092 0.912470 0.762834
O O17 0.985222 0.003436 0.707261
O O18 0.500000 0.500000 0.000000
#
# Coordination Sequence:
#
# PCOD9165184 Si02
#       8
#     4   4   4   4   4   4   4   4
#     4  10  21  38  59  95 122 151 207 258 303 356
#     4  11  25  41  59  90 124 161 206 250 312 375
#     4  11  23  41  63  90 128 166 197 247 316 381
#     4  11  21  35  61  94 121 153 201 253 304 362
#     4  11  21  38  61  88 123 159 199 255 310 354
#     4  12  22  35  65  94 123 159 203 252 308 367
#     4  12  22  38  65  94 125 161 201 260 310 361
#     4  12  19  36  62  91 121 157 204 247 303 368
#
# _framework density 18.605398000000001
#
# number of rings (size 3 to 8) (size 9 to 14) (size 15 to 20)
#    0.000    0.750    8.750    0.750    0.000    5.000 
#    0.000    1.250    0.000    0.000    0.000    0.000 
#    0.000    0.000    0.000    0.000    0.000    0.000 
#
# Total GULP energy -178745.407244 kJ/mol
# GULP energy per Si atom -5585.793976 kJ/mol
# Density = 1.856305 g / cm^3
# Si number density = 18.605398 Si / 1000 Ang^3
#
#
#
# Elastic Constant Matrix: (Units=GPa)
#
#
# Indices 1 2 3 4 5 6 
#
# 1 82.4047 9.5167 17.5694 0.0000 -35.0785 0.0000
# 2 9.5167 59.4985 18.5385 0.0000 -1.8266 0.0000
# 3 17.5694 18.5385 98.6398 0.0000 -30.5296 0.0000
# 4 0.0000 0.0000 0.0000 16.5559 0.0000 2.6443
# 5 -35.0785 -1.8266 -30.5296 0.0000 27.4722 0.0000
# 6 0.0000 0.0000 0.0000 2.6443 0.0000 7.1214
#
#
#
# Elastic Compliance Matrix: (Units=1/GPa)
#
#
# Indices 1 2 3 4 5 6 
#
# 1 0.036193 -0.008298 0.014093 0.000000 0.061324 0.000000
# 2 -0.008298 0.020030 -0.007855 0.000000 -0.017993 0.000000
# 3 0.014093 -0.007855 0.022120 0.000000 0.042055 0.000000
# 4 0.000000 0.000000 0.000000 0.064210 0.000000 -0.023842
# 5 0.061324 -0.017993 0.042055 0.000000 0.160242 0.000000
# 6 0.000000 0.000000 0.000000 -0.023842 0.000000 0.149275
#
#
# Mechanical properties :
#
#
# Convention : Reuss Voigt Hill
#
# Bulk Modulus (GPa) = 13.47283 36.86580 25.16931
# Shear Modulus (GPa) = 10.39652 23.22446 16.81049
#
# Velocity S-wave (km/s) = 2.36644 3.53691 3.00913
# Velocity P-wave (km/s) = 3.83716 6.04460 5.06266
#
# Compressibility (1/GPa) = 0.07422346
#
# Stress axis : x y z
#
# Youngs Moduli (GPa) = 27.62928 49.92635 45.20759
#
# Poissons Ratio (x) = 0.41427 -0.63711
# Poissons Ratio (y) = 0.22926 0.35512
# Poissons Ratio (z) = -0.38938 0.39219
#
# Static dielectric constant tensor:
#      x y z
#    x 1.664200 0.000000 -0.020740 
#    y 0.000000 1.611430 0.000000 
#    z -0.020740 0.000000 1.663760 
# 
# From -- ./inp_files/50665.got.cif
#   From: 2010.05.17/outbox.cif.g08.bks.cpg/sg11_26_cif.got.tgz:50665.got - 2010.06.03 12:22:45.
