data_PCOD9165012
_publ_section_title
;
Structure prediction by ZEFSAII (Michael W. Deem and Ramdas Pophale) SiO2 
 PCOD9165012
Probable space group: P 21/M
;
_chemical_formula_sum "Si O2"
_cell_formula_units_Z 28
_cell_length_a 12.185424
_cell_length_b 8.581212
_cell_length_c 15.923337
_cell_angle_alpha 90.000000
_cell_angle_beta 119.765933
_cell_angle_gamma 90.000000
_cell_volume 1445.351587
_symmetry_space_group_name_H-M "P 21/M"
_symmetry_group_IT_number 11
_symmetry_cell_setting 'monoclinic'
loop_
_space_group_symop_operation_xyz
x,y,z
-x,1/2+y,-z
-x,-y,-z
x,1/2-y,z
loop_
_atom_site_type_symbol
_atom_site_label
_atom_site_fract_x
_atom_site_fract_y
_atom_site_fract_z
Si Si1 0.956911 0.438235 0.573258
Si Si2 0.898470 0.938368 0.028111
Si Si3 0.576477 0.935901 0.108687
Si Si4 0.671563 0.062650 0.504869
Si Si5 0.629157 0.565771 0.851238
Si Si6 0.417375 0.566021 0.342073
Si Si7 0.867663 0.940280 0.205789
O O1 0.961861 0.250000 0.574490
O O2 0.812040 0.483818 0.533735
O O3 0.000000 0.500000 0.500000
O O4 0.045255 0.492208 0.683881
O O5 0.902909 0.750000 0.027530
O O6 0.916767 0.988020 0.132041
O O7 0.756802 0.986600 0.946772
O O8 0.000000 0.000000 0.000000
O O9 0.579308 0.750000 0.104286
O O10 0.721944 0.990670 0.162666
O O11 0.495395 0.986132 0.158337
O O12 0.500000 0.000000 0.000000
O O13 0.656956 0.250000 0.489352
O O14 0.647104 0.026881 0.593545
O O15 0.563877 0.978989 0.410178
O O16 0.616931 0.750000 0.859646
O O17 0.639354 0.525715 0.757431
O O18 0.403801 0.750000 0.322161
O O19 0.868135 0.750000 0.206078
#
# Coordination Sequence:
#
# PCOD9165012 Si02
#       7
#     4   4   4   4   4   4   4
#     4  10  22  40  61  85 115 154 198 246 295 352
#     4  10  22  40  61  87 121 159 197 242 293 352
#     4  11  21  38  61  87 118 154 198 242 292 350
#     4   9  20  39  60  84 116 153 195 244 301 355
#     4  11  23  39  59  88 123 155 193 245 298 349
#     4  10  21  37  61  89 115 152 197 243 296 355
#     4   9  20  40  62  83 116 157 194 240 298 350
#
# _framework density 19.372449
#
# number of rings (size 3 to 8) (size 9 to 14) (size 15 to 20)
#    0.000    2.000    1.429    1.286    4.000    2.286 
#    0.000    1.429    0.000    0.000    0.000    0.000 
#    0.000    0.000    0.000    0.000    0.000    0.000 
#
# Total GULP energy -156384.431107 kJ/mol
# GULP energy per Si atom -5585.158254 kJ/mol
# Density = 1.932836 g / cm^3
# Si number density = 19.372449 Si / 1000 Ang^3
#
#
#
# Elastic Constant Matrix: (Units=GPa)
#
#
# Indices 1 2 3 4 5 6 
#
# 1 141.4311 19.0680 60.6623 0.0000 3.4715 0.0000
# 2 19.0680 12.1075 12.5100 0.0000 0.1695 0.0000
# 3 60.6623 12.5100 120.5063 0.0000 -8.0603 0.0000
# 4 0.0000 0.0000 0.0000 31.1814 0.0000 -5.4434
# 5 3.4715 0.1695 -8.0603 0.0000 20.1862 0.0000
# 6 0.0000 0.0000 0.0000 -5.4434 0.0000 29.2775
#
#
#
# Elastic Compliance Matrix: (Units=1/GPa)
#
#
# Indices 1 2 3 4 5 6 
#
# 1 0.010667 -0.012281 -0.004326 0.000000 -0.003459 0.000000
# 2 -0.012281 0.107100 -0.004988 0.000000 -0.000779 0.000000
# 3 -0.004326 -0.004988 0.011350 0.000000 0.005318 0.000000
# 4 0.000000 0.000000 0.000000 0.033146 0.000000 0.006163
# 5 -0.003459 -0.000779 0.005318 0.000000 0.052264 0.000000
# 6 0.000000 0.000000 0.000000 0.006163 0.000000 0.035302
#
#
# Mechanical properties :
#
#
# Convention : Reuss Voigt Hill
#
# Bulk Modulus (GPa) = 11.63794 50.94727 31.29260
# Shear Modulus (GPa) = 15.54440 28.24933 21.89686
#
# Velocity S-wave (km/s) = 2.83573 3.82281 3.36565
# Velocity P-wave (km/s) = 4.09174 6.77060 5.59390
#
# Compressibility (1/GPa) = 0.08592589
#
# Stress axis : x y z
#
# Youngs Moduli (GPa) = 93.74983 9.33710 88.10922
#
# Poissons Ratio (x) = 0.11467 0.38116
# Poissons Ratio (y) = 1.15131 0.43951
# Poissons Ratio (z) = 0.40556 0.04658
#
# Static dielectric constant tensor:
#      x y z
#    x 1.668910 0.000000 -0.005600 
#    y 0.000000 1.669530 0.000000 
#    z -0.005600 0.000000 1.665510 
# 
# From -- ./inp_files/38418.got.cif
#   From: 2010.05.17/outbox.cif.g08.bks.cpg/sg11_20_cif.got.tgz:38418.got - 2010.06.03 12:22:45.
