data_PCOD9165369
_publ_section_title
;
Structure prediction by ZEFSAII (Michael W. Deem and Ramdas Pophale) SiO2 
 PCOD9165369
Probable space group: P 21/M
;
_chemical_formula_sum "Si O2"
_cell_formula_units_Z 28
_cell_length_a 15.534953
_cell_length_b 8.591893
_cell_length_c 12.453645
_cell_angle_alpha 90.000000
_cell_angle_beta 128.355664
_cell_angle_gamma 90.000000
_cell_volume 1303.489849
_symmetry_space_group_name_H-M "P 21/M"
_symmetry_group_IT_number 11
_symmetry_cell_setting 'monoclinic'
loop_
_space_group_symop_operation_xyz
x,y,z
-x,1/2+y,-z
-x,-y,-z
x,1/2-y,z
loop_
_atom_site_type_symbol
_atom_site_label
_atom_site_fract_x
_atom_site_fract_y
_atom_site_fract_z
Si Si1 0.209850 0.567413 0.103482
Si Si2 0.877002 0.932807 0.752176
Si Si3 0.609929 0.930796 0.036928
Si Si4 0.445590 0.935943 0.228102
Si Si5 0.911169 0.932179 0.192708
Si Si6 0.812379 0.431030 0.315738
Si Si7 0.700778 0.565047 0.442312
O O1 0.186114 0.750000 0.095787
O O2 0.140657 0.474851 0.137869
O O3 0.340821 0.545657 0.225101
O O4 0.172261 0.516055 0.955169
O O5 0.903588 0.750000 0.761322
O O6 0.764566 0.965902 0.601553
O O7 0.971305 0.030510 0.767366
O O8 0.626867 0.750000 0.078137
O O9 0.591644 0.955662 0.897969
O O10 0.500000 0.000000 0.000000
O O11 0.706525 0.033560 0.159864
O O12 0.445483 0.750000 0.198716
O O13 0.571829 0.978766 0.350752
O O14 0.885951 0.750000 0.171916
O O15 0.904191 0.988890 0.311220
O O16 0.837434 0.250000 0.343731
O O17 0.771758 0.492267 0.399910
O O18 0.701962 0.750000 0.423689
#
# Coordination Sequence:
#
# PCOD9165369 Si02
#       7
#     4   4   4   4   4   4   4
#     4  11  23  41  67  97 128 163 210 266 322 376
#     4  11  25  45  66  90 126 170 217 265 316 375
#     4  12  22  34  57  91 129 168 208 257 314 375
#     4  10  21  38  63  93 128 166 208 259 312 372
#     4  12  25  43  68  95 125 163 213 268 322 379
#     4  12  24  39  63  96 130 165 207 261 320 383
#     4  10  23  43  65  92 129 173 214 256 310 379
#
# _framework density 21.480798
#
# number of rings (size 3 to 8) (size 9 to 14) (size 15 to 20)
#    0.000    0.857    2.857    5.143    0.000    2.857 
#    0.000    0.000    0.000    0.000    0.000    0.000 
#    0.000    0.000    0.000    0.000    0.000    0.000 
#
# Total GULP energy -156378.068247 kJ/mol
# GULP energy per Si atom -5584.931009 kJ/mol
# Density = 2.143191 g / cm^3
# Si number density = 21.480798 Si / 1000 Ang^3
#
#
#
# Elastic Constant Matrix: (Units=GPa)
#
#
# Indices 1 2 3 4 5 6 
#
# 1 75.1569 8.9425 0.3760 0.0000 -3.2926 0.0000
# 2 8.9425 35.7168 4.4532 0.0000 -2.3228 0.0000
# 3 0.3760 4.4532 45.5027 0.0000 -5.8548 0.0000
# 4 0.0000 0.0000 0.0000 20.0644 0.0000 -6.2057
# 5 -3.2926 -2.3228 -5.8548 0.0000 18.5303 0.0000
# 6 0.0000 0.0000 0.0000 -6.2057 0.0000 25.7217
#
#
#
# Elastic Compliance Matrix: (Units=1/GPa)
#
#
# Indices 1 2 3 4 5 6 
#
# 1 0.013800 -0.003375 0.000498 0.000000 0.002186 0.000000
# 2 -0.003375 0.029308 -0.002548 0.000000 0.002269 0.000000
# 3 0.000498 -0.002548 0.023133 0.000000 0.007078 0.000000
# 4 0.000000 0.000000 0.000000 0.053858 0.000000 0.012994
# 5 0.002186 0.002269 0.007078 0.000000 0.056875 0.000000
# 6 0.000000 0.000000 0.000000 0.012994 0.000000 0.042013
#
#
# Mechanical properties :
#
#
# Convention : Reuss Voigt Hill
#
# Bulk Modulus (GPa) = 18.05398 20.43554 19.24476
# Shear Modulus (GPa) = 20.13673 22.37027 21.25350
#
# Velocity S-wave (km/s) = 3.06507 3.23059 3.14891
# Velocity P-wave (km/s) = 4.57702 4.84248 4.71162
#
# Compressibility (1/GPa) = 0.05538945
#
# Stress axis : x y z
#
# Youngs Moduli (GPa) = 72.46181 34.11992 43.22882
#
# Poissons Ratio (x) = 0.11516 -0.02151
# Poissons Ratio (y) = 0.24457 0.11017
# Poissons Ratio (z) = -0.03605 0.08695
#
# Static dielectric constant tensor:
#      x y z
#    x 1.793610 0.000000 0.022770 
#    y 0.000000 1.735360 0.000000 
#    z 0.022770 0.000000 1.769020 
# 
# From -- ./inp_files/38463.got.cif
#   From: 2010.05.17/outbox.cif.g08.bks.cpg/sg11_20_cif.got.tgz:38463.got - 2010.06.03 12:22:45.
