data_PCOD9165599
_publ_section_title
;
Structure prediction by ZEFSAII (Michael W. Deem and Ramdas Pophale) SiO2 
 PCOD9165599
Probable space group: P 21/M
;
_chemical_formula_sum "Si O2"
_cell_formula_units_Z 24
_cell_length_a 15.038058
_cell_length_b 8.765894
_cell_length_c 15.372752
_cell_angle_alpha 90.000000
_cell_angle_beta 39.987411
_cell_angle_gamma 90.000000
_cell_volume 1302.246929
_symmetry_space_group_name_H-M "P 21/M"
_symmetry_group_IT_number 11
_symmetry_cell_setting 'monoclinic'
loop_
_space_group_symop_operation_xyz
x,y,z
-x,1/2+y,-z
-x,-y,-z
x,1/2-y,z
loop_
_atom_site_type_symbol
_atom_site_label
_atom_site_fract_x
_atom_site_fract_y
_atom_site_fract_z
Si Si1 0.339606 0.068317 0.841783
Si Si2 0.157423 0.932822 0.131819
Si Si3 0.834112 0.932950 0.367579
Si Si4 0.349781 0.067559 0.135738
Si Si5 0.632883 0.567702 0.677217
Si Si6 0.353306 0.931795 0.641279
O O1 0.330064 0.250000 0.844745
O O2 0.492005 0.019307 0.760201
O O3 0.320029 0.997467 0.761165
O O4 0.230431 0.002885 0.992418
O O5 0.171967 0.750000 0.118515
O O6 0.995234 0.971331 0.255450
O O7 0.237512 0.996153 0.155687
O O8 0.822735 0.750000 0.362020
O O9 0.749063 0.969048 0.518975
O O10 0.761099 0.017389 0.342548
O O11 0.353012 0.250000 0.121506
O O12 0.322266 0.034369 0.257851
O O13 0.500000 0.000000 0.000000
O O14 0.604298 0.750000 0.693332
O O15 0.364686 0.750000 0.636814
O O16 0.500000 0.000000 0.500000
#
# Coordination Sequence:
#
# PCOD9165599 Si02
#       6
#     4   4   4   4   4   4
#     4  12  24  39  64  94 123 164 212 258 309 374
#     4  11  24  42  63  91 129 168 206 261 319 370
#     4  10  23  43  65  91 126 166 210 259 315 370
#     4  11  22  37  62  93 126 164 211 260 311 373
#     4  10  21  39  64  91 123 163 208 261 310 365
#     4  12  24  40  65  95 127 163 207 258 310 372
#
# _framework density 18.429684999999999
#
# number of rings (size 3 to 8) (size 9 to 14) (size 15 to 20)
#    0.000    1.000    3.333    4.000    0.000    3.333 
#    0.000    0.000    0.000    0.000    0.000    0.000 
#    0.000    0.000    0.000    0.000    0.000    0.000 
#
# Total GULP energy -134246.276825 kJ/mol
# GULP energy per Si atom -5593.594868 kJ/mol
# Density = 1.838774 g / cm^3
# Si number density = 18.429685 Si / 1000 Ang^3
#
#
#
# Elastic Constant Matrix: (Units=GPa)
#
#
# Indices 1 2 3 4 5 6 
#
# 1 158.7834 84.5957 83.1509 0.0000 8.4144 0.0000
# 2 84.5957 103.5237 77.8544 0.0000 2.2832 0.0000
# 3 83.1509 77.8544 142.3258 0.0000 4.4420 0.0000
# 4 0.0000 0.0000 0.0000 13.5613 0.0000 5.5956
# 5 8.4144 2.2832 4.4420 0.0000 39.4784 0.0000
# 6 0.0000 0.0000 0.0000 5.5956 0.0000 37.3720
#
#
#
# Elastic Compliance Matrix: (Units=1/GPa)
#
#
# Indices 1 2 3 4 5 6 
#
# 1 0.011875 -0.007626 -0.002710 0.000000 -0.001785 0.000000
# 2 -0.007626 0.021308 -0.007238 0.000000 0.001207 0.000000
# 3 -0.002710 -0.007238 0.012582 0.000000 -0.000419 0.000000
# 4 0.000000 0.000000 0.000000 0.078595 0.000000 -0.011768
# 5 -0.001785 0.001207 -0.000419 0.000000 0.025688 0.000000
# 6 0.000000 0.000000 0.000000 -0.011768 0.000000 0.028520
#
#
# Mechanical properties :
#
#
# Convention : Reuss Voigt Hill
#
# Bulk Modulus (GPa) = 94.19838 99.53719 96.86778
# Shear Modulus (GPa) = 23.01438 28.68447 25.84943
#
# Velocity S-wave (km/s) = 3.53762 3.94944 3.74919
# Velocity P-wave (km/s) = 8.24073 8.65586 8.45084
#
# Compressibility (1/GPa) = 0.01061589
#
# Stress axis : x y z
#
# Youngs Moduli (GPa) = 84.21264 46.93059 79.47775
#
# Poissons Ratio (x) = 0.35789 0.21541
# Poissons Ratio (y) = 0.64220 0.57528
# Poissons Ratio (z) = 0.22825 0.33970
#
# Static dielectric constant tensor:
#      x y z
#    x 1.605090 0.000000 0.010800 
#    y 0.000000 1.619340 0.000000 
#    z 0.010800 0.000000 1.609280 
# 
# From -- ./inp_files/51485.got.cif
#   From: 2010.05.17/outbox.cif.g08.bks.cpg/sg11_26_cif.got.tgz:51485.got - 2010.06.03 12:22:45.
