data_PCOD9165594
_publ_section_title
;
Structure prediction by ZEFSAII (Michael W. Deem and Ramdas Pophale) SiO2 
 PCOD9165594
Probable space group: P 21/M
;
_chemical_formula_sum "Si O2"
_cell_formula_units_Z 24
_cell_length_a 20.432123
_cell_length_b 14.995978
_cell_length_c 12.009545
_cell_angle_alpha 90.000000
_cell_angle_beta 20.525965
_cell_angle_gamma 90.000000
_cell_volume 1290.227133
_symmetry_space_group_name_H-M "P 21/M"
_symmetry_group_IT_number 11
_symmetry_cell_setting 'monoclinic'
loop_
_space_group_symop_operation_xyz
x,y,z
-x,1/2+y,-z
-x,-y,-z
x,1/2-y,z
loop_
_atom_site_type_symbol
_atom_site_label
_atom_site_fract_x
_atom_site_fract_y
_atom_site_fract_z
Si Si1 0.558581 0.155909 0.215532
Si Si2 0.367319 0.086948 0.722698
Si Si3 0.005389 0.643764 0.804616
Si Si4 0.181795 0.350162 0.668304
Si Si5 0.786121 0.976639 0.814728
Si Si6 0.280551 0.008749 0.327748
O O1 0.654653 0.250000 0.038830
O O2 0.486254 0.154927 0.458447
O O3 0.376560 0.149055 0.426934
O O4 0.680936 0.070451 0.998310
O O5 0.500000 0.000000 0.500000
O O6 0.166960 0.091754 0.979553
O O7 0.308163 0.090716 0.946129
O O8 0.002267 0.750000 0.781568
O O9 0.188128 0.589328 0.479828
O O10 0.972510 0.637163 0.989821
O O11 0.161243 0.250000 0.653446
O O12 0.189111 0.427429 0.566177
O O13 0.758316 0.950220 0.731588
O O14 0.000000 0.000000 0.500000
O O15 0.500000 0.000000 0.000000
#
# Coordination Sequence:
#
# PCOD9165594 Si02
#       6
#     4   4   4   4   4   4
#     4   9  18  36  61  84 109 153 201 239 284 362
#     4   9  18  35  61  85 115 149 194 244 294 349
#     4  10  21  39  64  89 116 162 215 248 286 370
#     4   9  19  38  60  85 115 152 202 247 293 355
#     4  11  21  37  55  86 122 152 190 247 303 362
#     4  12  23  37  60  89 123 163 198 248 312 357
#
# _framework density 18.601375000000001
#
# number of rings (size 3 to 8) (size 9 to 14) (size 15 to 20)
#    0.000    2.000    3.333    2.000    0.000    1.333 
#    0.000    2.500    0.000    0.000    0.000    0.000 
#    0.000    0.000    0.000    0.000    0.000    0.000 
#
# Total GULP energy -133627.147110 kJ/mol
# GULP energy per Si atom -5567.797796 kJ/mol
# Density = 1.855904 g / cm^3
# Si number density = 18.601375 Si / 1000 Ang^3
#
#
#
# Elastic Constant Matrix: (Units=GPa)
#
#
# Indices 1 2 3 4 5 6 
#
# 1 100.0842 28.9203 23.6941 0.0000 20.8415 0.0000
# 2 28.9203 72.0465 15.8054 0.0000 5.2961 0.0000
# 3 23.6941 15.8054 67.0370 0.0000 -3.4954 0.0000
# 4 0.0000 0.0000 0.0000 21.1144 0.0000 2.0448
# 5 20.8415 5.2961 -3.4954 0.0000 34.5923 0.0000
# 6 0.0000 0.0000 0.0000 2.0448 0.0000 14.4536
#
#
#
# Elastic Compliance Matrix: (Units=1/GPa)
#
#
# Indices 1 2 3 4 5 6 
#
# 1 0.013900 -0.004012 -0.004395 0.000000 -0.008204 0.000000
# 2 -0.004012 0.016032 -0.002376 0.000000 -0.000277 0.000000
# 3 -0.004395 -0.002376 0.017279 0.000000 0.004758 0.000000
# 4 0.000000 0.000000 0.000000 0.048019 0.000000 -0.006793
# 5 -0.008204 -0.000277 0.004758 0.000000 0.034374 0.000000
# 6 0.000000 0.000000 0.000000 -0.006793 0.000000 0.070148
#
#
# Mechanical properties :
#
#
# Convention : Reuss Voigt Hill
#
# Bulk Modulus (GPa) = 38.99506 41.77859 40.38682
# Shear Modulus (GPa) = 21.75175 25.41527 23.58351
#
# Velocity S-wave (km/s) = 3.42330 3.70037 3.56453
# Velocity P-wave (km/s) = 6.05263 6.38481 6.22094
#
# Compressibility (1/GPa) = 0.02564428
#
# Stress axis : x y z
#
# Youngs Moduli (GPa) = 71.94312 62.37445 57.87462
#
# Poissons Ratio (x) = 0.25027 0.25434
# Poissons Ratio (y) = 0.28866 0.13752
# Poissons Ratio (z) = 0.31617 0.14821
#
# Static dielectric constant tensor:
#      x y z
#    x -0.985610 0.000000 1.837080 
#    y 0.000000 1.631360 0.000000 
#    z 1.837080 0.000000 0.418120 
# 
# From -- ./inp_files/31571.got.cif
#   From: 2010.05.17/outbox.cif.g08.bks.cpg/sg11_16_cif.got.tgz:31571.got - 2010.06.03 12:22:45.
