data_PCOD9165666
_publ_section_title
;
Structure prediction by ZEFSAII (Michael W. Deem and Ramdas Pophale) SiO2 
 PCOD9165666
Probable space group: P 21/M
;
_chemical_formula_sum "Si O2"
_cell_formula_units_Z 16
_cell_length_a 13.630661
_cell_length_b 10.488421
_cell_length_c 5.360670
_cell_angle_alpha 90.000000
_cell_angle_beta 99.543804
_cell_angle_gamma 90.000000
_cell_volume 755.776008
_symmetry_space_group_name_H-M "P 21/M"
_symmetry_group_IT_number 11
_symmetry_cell_setting 'monoclinic'
loop_
_space_group_symop_operation_xyz
x,y,z
-x,1/2+y,-z
-x,-y,-z
x,1/2-y,z
loop_
_atom_site_type_symbol
_atom_site_label
_atom_site_fract_x
_atom_site_fract_y
_atom_site_fract_z
Si Si1 0.469492 0.750000 0.278126
Si Si2 0.115085 0.032053 0.045029
Si Si3 0.600780 0.750000 0.835689
Si Si4 0.208898 0.387136 0.581777
Si Si5 0.314049 0.975041 0.260915
O O1 0.533104 0.750000 0.558550
O O2 0.399759 0.624747 0.254506
O O3 0.534111 0.750000 0.054675
O O4 0.139255 0.110083 0.306494
O O5 0.206252 0.930050 0.110446
O O6 0.141722 0.093718 0.792984
O O7 0.000000 0.000000 0.000000
O O8 0.661712 0.615692 0.845073
O O9 0.258628 0.250000 0.621633
O O10 0.290692 0.493194 0.543158
#
# Coordination Sequence:
#
# PCOD9165666 Si02
#       5
#     2   4   2   4   4
#     4  12  28  42  65  99 131 169 218 280 332 365
#     4  10  22  40  65  97 134 167 213 263 328 386
#     4  12  26  44  69  91 129 175 228 260 322 395
#     4  10  21  39  68  93 133 169 220 255 319 385
#     4  10  25  43  68  97 132 170 217 271 322 386
#
# _framework density 21.170292
#
# number of rings (size 3 to 8) (size 9 to 14) (size 15 to 20)
#    1.500    0.000    1.250    3.000    8.750    0.000 
#    4.500    0.000    0.000    0.000    0.000    0.000 
#    0.000    0.000    0.000    0.000    0.000    0.000 
#
# Total GULP energy -89070.195733 kJ/mol
# GULP energy per Si atom -5566.887233 kJ/mol
# Density = 2.112211 g / cm^3
# Si number density = 21.170292 Si / 1000 Ang^3
#
#
#
# Elastic Constant Matrix: (Units=GPa)
#
#
# Indices 1 2 3 4 5 6 
#
# 1 173.8075 55.4698 67.7285 0.0000 -11.8736 0.0000
# 2 55.4698 81.8026 32.3242 0.0000 -12.2322 0.0000
# 3 67.7285 32.3242 174.8033 0.0000 -25.9780 0.0000
# 4 0.0000 0.0000 0.0000 3.0208 0.0000 -4.9417
# 5 -11.8736 -12.2322 -25.9780 0.0000 31.2651 0.0000
# 6 0.0000 0.0000 0.0000 -4.9417 0.0000 19.9235
#
#
#
# Elastic Compliance Matrix: (Units=1/GPa)
#
#
# Indices 1 2 3 4 5 6 
#
# 1 0.008128 -0.004675 -0.002393 0.000000 -0.000731 0.000000
# 2 -0.004675 0.016237 -0.000583 0.000000 0.004093 0.000000
# 3 -0.002393 -0.000583 0.007515 0.000000 0.005107 0.000000
# 4 0.000000 0.000000 0.000000 0.557062 0.000000 0.138170
# 5 -0.000731 0.004093 0.005107 0.000000 0.037552 0.000000
# 6 0.000000 0.000000 0.000000 0.138170 0.000000 0.084463
#
#
# Mechanical properties :
#
#
# Convention : Reuss Voigt Hill
#
# Bulk Modulus (GPa) = 60.32399 82.38428 71.35413
# Shear Modulus (GPa) = 6.83260 29.16793 18.00027
#
# Velocity S-wave (km/s) = 1.79846 3.71587 2.91909
# Velocity P-wave (km/s) = 5.73316 7.57692 6.71859
#
# Compressibility (1/GPa) = 0.01657715
#
# Stress axis : x y z
#
# Youngs Moduli (GPa) = 123.02656 61.58716 133.07053
#
# Poissons Ratio (x) = 0.28794 0.31850
# Poissons Ratio (y) = 0.57519 0.07756
# Poissons Ratio (z) = 0.29446 0.03589
#
# Static dielectric constant tensor:
#      x y z
#    x 1.778490 0.000000 0.024430 
#    y 0.000000 1.789790 0.000000 
#    z 0.024430 0.000000 1.830650 
# 
# From -- ./inp_files/3750.got.cif
#   From: 2010.05.17/outbox.cif.g08.bks.cpg/sg11_2_cif.got.tgz:3750.got - 2010.06.03 12:22:45.
