data_PCOD9165768
_publ_section_title
;
Structure prediction by ZEFSAII (Michael W. Deem and Ramdas Pophale) SiO2 
 PCOD9165768
Probable space group: P 21/M
;
_chemical_formula_sum "Si O2"
_cell_formula_units_Z 30
_cell_length_a 5.432230
_cell_length_b 13.800432
_cell_length_c 18.322329
_cell_angle_alpha 90.000000
_cell_angle_beta 62.323397
_cell_angle_gamma 90.000000
_cell_volume 1216.412745
_symmetry_space_group_name_H-M "P 21/M"
_symmetry_group_IT_number 11
_symmetry_cell_setting 'monoclinic'
loop_
_space_group_symop_operation_xyz
x,y,z
-x,1/2+y,-z
-x,-y,-z
x,1/2-y,z
loop_
_atom_site_type_symbol
_atom_site_label
_atom_site_fract_x
_atom_site_fract_y
_atom_site_fract_z
Si Si1 0.047627 0.515087 0.776964
Si Si2 0.643410 0.362088 0.785408
Si Si3 0.694932 0.864923 0.921241
Si Si4 0.699981 0.970420 0.068009
Si Si5 0.967775 0.356606 0.352846
Si Si6 0.260128 0.250000 0.584200
Si Si7 0.307725 0.398639 0.450957
Si Si8 0.560526 0.083751 0.639482
O O1 0.872595 0.416313 0.802597
O O2 0.983894 0.586650 0.852741
O O3 0.928622 0.568425 0.721077
O O4 0.356524 0.492004 0.708932
O O5 0.635232 0.250000 0.803262
O O6 0.355923 0.413080 0.849880
O O7 0.710053 0.371421 0.690141
O O8 0.686976 0.750000 0.912359
O O9 0.477632 0.931096 0.906705
O O10 0.619000 0.895234 0.014393
O O11 0.000000 0.000000 0.000000
O O12 0.996083 0.250000 0.316642
O O13 0.150379 0.362932 0.400114
O O14 0.637905 0.372440 0.411787
O O15 0.184015 0.336675 0.534278
O O16 0.385293 0.165706 0.623053
O O17 0.295679 0.515752 0.441679
#
# Coordination Sequence:
#
# PCOD9165768 Si02
#       8
#     4   4   4   4   4   2   4   4
#     4  10  23  40  64  93 132 176 222 284 335 409
#     4  11  22  40  64  94 131 174 225 276 338 413
#     4  10  21  40  64  98 137 178 231 279 337 407
#     4  10  22  40  64  98 139 177 224 281 341 406
#     4  11  20  42  69  95 133 173 225 276 350 411
#     4  12  24  46  66  96 130 172 230 274 360 426
#     4  11  24  44  66  98 132 175 223 292 345 412
#     4  11  24  44  64  94 133 174 225 285 345 420
#
# _framework density 24.662682
#
# number of rings (size 3 to 8) (size 9 to 14) (size 15 to 20)
#    0.000    1.333    3.333    2.000    0.933    1.067 
#    4.800    2.000    0.000    0.000    0.000    0.000 
#    0.000    0.000    0.000    0.000    0.000    0.000 
#
# Total GULP energy -167114.561226 kJ/mol
# GULP energy per Si atom -5570.485374 kJ/mol
# Density = 2.460655 g / cm^3
# Si number density = 24.662682 Si / 1000 Ang^3
#
#
#
# Elastic Constant Matrix: (Units=GPa)
#
#
# Indices 1 2 3 4 5 6 
#
# 1 74.8672 19.0940 32.4288 0.0000 1.5578 0.0000
# 2 19.0940 193.7996 51.5147 0.0000 -6.4127 0.0000
# 3 32.4288 51.5147 146.6667 0.0000 3.8999 0.0000
# 4 0.0000 0.0000 0.0000 36.6551 0.0000 14.2240
# 5 1.5578 -6.4127 3.8999 0.0000 49.6138 0.0000
# 6 0.0000 0.0000 0.0000 14.2240 0.0000 -0.7029
#
#
#
# Elastic Compliance Matrix: (Units=1/GPa)
#
#
# Indices 1 2 3 4 5 6 
#
# 1 0.014851 -0.000665 -0.003042 0.000000 -0.000313 0.000000
# 2 -0.000665 0.005761 -0.001901 0.000000 0.000915 0.000000
# 3 -0.003042 -0.001901 0.008179 0.000000 -0.000793 0.000000
# 4 0.000000 0.000000 0.000000 0.003082 0.000000 0.062362
# 5 -0.000313 0.000915 -0.000793 0.000000 0.020346 0.000000
# 6 0.000000 0.000000 0.000000 0.062362 0.000000 -0.160707
#
#
# Mechanical properties :
#
#
# Convention : Reuss Voigt Hill
#
# Bulk Modulus (GPa) = 56.89514 69.04538 62.97026
# Shear Modulus (GPa) = -54.69577 37.93293 -8.38142
#
# Velocity S-wave (km/s) = -4.71441 3.92608 -1.84548
# Velocity P-wave (km/s) = 2.55242 6.97200 4.58770
#
# Compressibility (1/GPa) = 0.01757619
#
# Stress axis : x y z
#
# Youngs Moduli (GPa) = 67.33733 173.58059 122.25810
#
# Poissons Ratio (x) = 0.11543 0.37187
# Poissons Ratio (y) = 0.04478 0.23238
# Poissons Ratio (z) = 0.20482 0.32994
#
# Static dielectric constant tensor:
#      x y z
#    x 2.084260 0.000000 -0.047740 
#    y 0.000000 1.930370 0.000000 
#    z -0.047740 0.000000 2.020990 
# 
# From -- ./inp_files/57034.got.cif
#   From: 2010.05.17/outbox.cif.g08.bks.cpg/sg11_29_cif.got.tgz:57034.got - 2010.06.03 12:22:45.
