data_PCOD9165507
_publ_section_title
;
Structure prediction by ZEFSAII (Michael W. Deem and Ramdas Pophale) SiO2 
 PCOD9165507
Probable space group: P 21/M
;
_chemical_formula_sum "Si O2"
_cell_formula_units_Z 30
_cell_length_a 20.848816
_cell_length_b 13.808634
_cell_length_c 6.618981
_cell_angle_alpha 90.000000
_cell_angle_beta 130.461762
_cell_angle_gamma 90.000000
_cell_volume 1449.826868
_symmetry_space_group_name_H-M "P 21/M"
_symmetry_group_IT_number 11
_symmetry_cell_setting 'monoclinic'
loop_
_space_group_symop_operation_xyz
x,y,z
-x,1/2+y,-z
-x,-y,-z
x,1/2-y,z
loop_
_atom_site_type_symbol
_atom_site_label
_atom_site_fract_x
_atom_site_fract_y
_atom_site_fract_z
Si Si1 0.898432 0.922896 0.861807
Si Si2 0.160426 0.921136 0.932668
Si Si3 0.284032 0.359327 0.584672
Si Si4 0.173978 0.750000 0.277330
Si Si5 0.077099 0.897158 0.360269
Si Si6 0.587704 0.530807 0.427751
Si Si7 0.426102 0.635595 0.922862
Si Si8 0.679818 0.484921 0.004019
O O1 0.815613 0.860990 0.655533
O O2 0.912836 0.991950 0.696384
O O3 0.984493 0.868725 0.091606
O O4 0.877340 0.994566 0.004699
O O5 0.090710 0.889024 0.626171
O O6 0.188675 0.834966 0.135958
O O7 0.239216 0.957156 0.961161
O O8 0.315554 0.250000 0.666558
O O9 0.331156 0.415045 0.500385
O O10 0.303255 0.422555 0.821584
O O11 0.145723 0.833819 0.384495
O O12 0.509484 0.599158 0.210212
O O13 0.605142 0.510389 0.696048
O O14 0.577050 0.429405 0.285933
O O15 0.424472 0.750000 0.883410
O O16 0.348652 0.601306 0.905102
#
# Coordination Sequence:
#
# PCOD9165507 Si02
#       8
#     4   4   4   2   4   4   4   4
#     4  10  21  39  62  86 121 168 210 264 318 367
#     4  11  21  41  62  91 127 168 210 258 325 375
#     4  11  23  40  64  93 124 168 212 265 318 375
#     4  10  24  36  60  90 120 168 208 262 314 368
#     4  10  21  40  61  86 126 165 211 264 313 372
#     4  10  22  45  64  92 136 164 210 260 317 375
#     4  10  23  41  68  98 125 170 210 258 313 377
#     4  11  23  41  64  95 131 166 209 261 317 383
#
# _framework density 20.692125000000001
#
# number of rings (size 3 to 8) (size 9 to 14) (size 15 to 20)
#    0.000    1.600    2.667    1.600    1.867    1.600 
#    2.400    0.000    0.000    0.000    0.000    0.000 
#    0.000    0.000    0.000    0.000    0.000    0.000 
#
# Total GULP energy -167172.746218 kJ/mol
# GULP energy per Si atom -5572.424874 kJ/mol
# Density = 2.064503 g / cm^3
# Si number density = 20.692125 Si / 1000 Ang^3
#
#
#
# Elastic Constant Matrix: (Units=GPa)
#
#
# Indices 1 2 3 4 5 6 
#
# 1 49.2895 12.8765 12.4689 0.0000 -0.2200 0.0000
# 2 12.8765 130.5605 22.3728 0.0000 -7.5473 0.0000
# 3 12.4689 22.3728 65.7436 0.0000 0.3781 0.0000
# 4 0.0000 0.0000 0.0000 9.0623 0.0000 -2.7466
# 5 -0.2200 -7.5473 0.3781 0.0000 35.1720 0.0000
# 6 0.0000 0.0000 0.0000 -2.7466 0.0000 9.4658
#
#
#
# Elastic Compliance Matrix: (Units=1/GPa)
#
#
# Indices 1 2 3 4 5 6 
#
# 1 0.021590 -0.001526 -0.003575 0.000000 -0.000154 0.000000
# 2 -0.001526 0.008354 -0.002564 0.000000 0.001811 0.000000
# 3 -0.003575 -0.002564 0.016765 0.000000 -0.000753 0.000000
# 4 0.000000 0.000000 0.000000 0.120987 0.000000 0.035106
# 5 -0.000154 0.001811 -0.000753 0.000000 0.028827 0.000000
# 6 0.000000 0.000000 0.000000 0.035106 0.000000 0.115830
#
#
# Mechanical properties :
#
#
# Convention : Reuss Voigt Hill
#
# Bulk Modulus (GPa) = 31.86639 37.89223 34.87931
# Shear Modulus (GPa) = 14.78664 23.93172 19.35918
#
# Velocity S-wave (km/s) = 2.67610 3.40452 3.06205
# Velocity P-wave (km/s) = 4.99824 5.81433 5.42166
#
# Compressibility (1/GPa) = 0.03138103
#
# Stress axis : x y z
#
# Youngs Moduli (GPa) = 46.31667 119.70651 59.64660
#
# Poissons Ratio (x) = 0.18263 0.21322
# Poissons Ratio (y) = 0.07066 0.15293
# Poissons Ratio (z) = 0.16557 0.30691
#
# Static dielectric constant tensor:
#      x y z
#    x 1.756360 0.000000 0.054740 
#    y 0.000000 1.728640 0.000000 
#    z 0.054740 0.000000 1.765930 
# 
# From -- ./inp_files/9062.got.cif
#   From: 2010.05.17/outbox.cif.g08.bks.cpg/sg11_5_cif.got.tgz:9062.got - 2010.06.03 12:22:45.
