data_PCOD9165425
_publ_section_title
;
Structure prediction by ZEFSAII (Michael W. Deem and Ramdas Pophale) SiO2 
 PCOD9165425
Probable space group: P 21/M
;
_chemical_formula_sum "Si O2"
_cell_formula_units_Z 24
_cell_length_a 15.163850
_cell_length_b 14.406645
_cell_length_c 10.510529
_cell_angle_alpha 90.000000
_cell_angle_beta 154.033862
_cell_angle_gamma 90.000000
_cell_volume 1005.338294
_symmetry_space_group_name_H-M "P 21/M"
_symmetry_group_IT_number 11
_symmetry_cell_setting 'monoclinic'
loop_
_space_group_symop_operation_xyz
x,y,z
-x,1/2+y,-z
-x,-y,-z
x,1/2-y,z
loop_
_atom_site_type_symbol
_atom_site_label
_atom_site_fract_x
_atom_site_fract_y
_atom_site_fract_z
Si Si1 0.704037 0.862295 0.118802
Si Si2 0.809985 0.473983 0.670826
Si Si3 0.453678 0.353337 0.612597
Si Si4 0.546579 0.589116 0.649628
Si Si5 0.260044 0.642115 0.642191
Si Si6 0.880873 0.358227 0.251826
O O1 0.721648 0.750000 0.124238
O O2 0.894925 0.898323 0.446369
O O3 0.690137 0.905554 0.958915
O O4 0.495054 0.879899 0.920215
O O5 0.675240 0.567413 0.485314
O O6 0.670453 0.398570 0.563852
O O7 0.862170 0.427076 0.606044
O O8 0.000000 0.500000 0.000000
O O9 0.440762 0.250000 0.654940
O O10 0.386667 0.345938 0.378669
O O11 0.689124 0.384391 0.918779
O O12 0.500000 0.500000 0.500000
O O13 0.226013 0.750000 0.563086
O O14 0.204661 0.633000 0.716523
O O15 0.912518 0.250000 0.260165
#
# Coordination Sequence:
#
# PCOD9165425 Si02
#       6
#     4   4   4   4   4   4
#     4   9  17  33  57  80 106 148 195 238 289 349
#     4  10  22  38  57  87 121 151 198 245 291 353
#     4  10  21  39  59  85 120 154 192 245 300 350
#     4   9  19  35  54  79 111 142 190 240 282 345
#     4   9  19  36  58  84 116 153 200 248 288 351
#     4   9  19  35  58  86 115 153 199 242 296 356
#
# _framework density 23.872561999999999
#
# number of rings (size 3 to 8) (size 9 to 14) (size 15 to 20)
#    0.000    2.667    0.000    0.500    4.667    2.000 
#    3.000    7.500    0.000    0.000    0.000    0.000 
#    0.000    0.000    0.000    0.000    0.000    0.000 
#
# Total GULP energy -133863.764209 kJ/mol
# GULP energy per Si atom -5577.656842 kJ/mol
# Density = 2.381823 g / cm^3
# Si number density = 23.872562 Si / 1000 Ang^3
#
#
#
# Elastic Constant Matrix: (Units=GPa)
#
#
# Indices 1 2 3 4 5 6 
#
# 1 28.0570 11.9371 -7.0076 0.0000 -3.6711 0.0000
# 2 11.9371 83.9928 8.9843 0.0000 -4.4848 0.0000
# 3 -7.0076 8.9843 132.2540 0.0000 0.4302 0.0000
# 4 0.0000 0.0000 0.0000 29.0362 0.0000 -4.2781
# 5 -3.6711 -4.4848 0.4302 0.0000 26.9952 0.0000
# 6 0.0000 0.0000 0.0000 -4.2781 0.0000 19.8440
#
#
#
# Elastic Compliance Matrix: (Units=1/GPa)
#
#
# Indices 1 2 3 4 5 6 
#
# 1 0.039206 -0.005600 0.002444 0.000000 0.004362 0.000000
# 2 -0.005600 0.012902 -0.001178 0.000000 0.001401 0.000000
# 3 0.002444 -0.001178 0.007771 0.000000 0.000013 0.000000
# 4 0.000000 0.000000 0.000000 0.035570 0.000000 0.007668
# 5 0.004362 0.001401 0.000013 0.000000 0.037869 0.000000
# 6 0.000000 0.000000 0.000000 0.007668 0.000000 0.052046
#
#
# Mechanical properties :
#
#
# Convention : Reuss Voigt Hill
#
# Bulk Modulus (GPa) = 19.52759 30.23681 24.88220
# Shear Modulus (GPa) = 23.68513 30.53442 27.10978
#
# Velocity S-wave (km/s) = 3.15326 3.58027 3.37353
# Velocity P-wave (km/s) = 4.63196 5.45752 5.06160
#
# Compressibility (1/GPa) = 0.05120960
#
# Stress axis : x y z
#
# Youngs Moduli (GPa) = 25.50656 77.50446 128.68935
#
# Poissons Ratio (x) = 0.43405 -0.31446
# Poissons Ratio (y) = 0.14285 0.15157
# Poissons Ratio (z) = -0.06233 0.09128
#
# Static dielectric constant tensor:
#      x y z
#    x 1.942930 0.000000 -0.016650 
#    y 0.000000 2.069570 0.000000 
#    z -0.016650 0.000000 1.953700 
# 
# From -- ./inp_files/41916.got.cif
#   From: 2010.05.17/outbox.cif.g08.bks.cpg/sg11_21_cif.got.tgz:41916.got - 2010.06.03 12:22:45.
