data_PCOD9165601
_publ_section_title
;
Structure prediction by ZEFSAII (Michael W. Deem and Ramdas Pophale) SiO2 
 PCOD9165601
Probable space group: P 21/M
;
_chemical_formula_sum "Si O2"
_cell_formula_units_Z 24
_cell_length_a 9.710965
_cell_length_b 8.760817
_cell_length_c 12.964036
_cell_angle_alpha 90.000000
_cell_angle_beta 101.130259
_cell_angle_gamma 90.000000
_cell_volume 1082.183023
_symmetry_space_group_name_H-M "P 21/M"
_symmetry_group_IT_number 11
_symmetry_cell_setting 'monoclinic'
loop_
_space_group_symop_operation_xyz
x,y,z
-x,1/2+y,-z
-x,-y,-z
x,1/2-y,z
loop_
_atom_site_type_symbol
_atom_site_label
_atom_site_fract_x
_atom_site_fract_y
_atom_site_fract_z
Si Si1 0.887446 0.431522 0.903475
Si Si2 0.006773 0.569818 0.312642
Si Si3 0.270653 0.430246 0.441178
Si Si4 0.350653 0.071492 0.007206
Si Si5 0.463932 0.569037 0.643682
Si Si6 0.265053 0.928319 0.792634
O O1 0.886182 0.250000 0.915882
O O2 0.931581 0.465722 0.792716
O O3 0.735812 0.496884 0.912645
O O4 0.000000 0.500000 0.000000
O O5 0.977459 0.750000 0.316000
O O6 0.126716 0.520567 0.409273
O O7 0.864296 0.473668 0.298923
O O8 0.242208 0.250000 0.436294
O O9 0.362588 0.475470 0.553389
O O10 0.376361 0.468901 0.361471
O O11 0.365536 0.250000 0.027151
O O12 0.260257 0.035246 0.891358
O O13 0.500000 0.000000 0.000000
O O14 0.446119 0.750000 0.618259
O O15 0.408940 0.545934 0.750959
O O16 0.256541 0.750000 0.821031
#
# Coordination Sequence:
#
# PCOD9165601 Si02
#       6
#     4   4   4   4   4   4
#     4  11  23  41  64  91 124 165 206 253 306 361
#     4  11  24  40  61  91 124 162 205 250 303 365
#     4  10  21  39  64  92 120 158 202 249 305 365
#     4  12  26  43  63  91 126 164 208 255 306 366
#     4   9  21  41  63  90 122 156 198 251 307 365
#     4  11  23  41  64  91 123 160 204 255 308 364
#
# _framework density 22.177394
#
# number of rings (size 3 to 8) (size 9 to 14) (size 15 to 20)
#    0.000    1.333    1.667    3.500    2.333    4.667 
#    0.000    0.000    0.000    0.000    0.000    0.000 
#    0.000    0.000    0.000    0.000    0.000    0.000 
#
# Total GULP energy -134308.194437 kJ/mol
# GULP energy per Si atom -5596.174768 kJ/mol
# Density = 2.212692 g / cm^3
# Si number density = 22.177394 Si / 1000 Ang^3
#
#
#
# Elastic Constant Matrix: (Units=GPa)
#
#
# Indices 1 2 3 4 5 6 
#
# 1 92.4240 19.7016 -3.4577 0.0000 -2.6150 0.0000
# 2 19.7016 48.8305 6.5374 0.0000 -12.8062 0.0000
# 3 -3.4577 6.5374 26.7825 0.0000 1.5919 0.0000
# 4 0.0000 0.0000 0.0000 27.9856 0.0000 5.0965
# 5 -2.6150 -12.8062 1.5919 0.0000 40.5203 0.0000
# 6 0.0000 0.0000 0.0000 5.0965 0.0000 35.2176
#
#
#
# Elastic Compliance Matrix: (Units=1/GPa)
#
#
# Indices 1 2 3 4 5 6 
#
# 1 0.012086 -0.005563 0.002983 0.000000 -0.001095 0.000000
# 2 -0.005563 0.025855 -0.007511 0.000000 0.008107 0.000000
# 3 0.002983 -0.007511 0.039779 0.000000 -0.003744 0.000000
# 4 0.000000 0.000000 0.000000 0.036700 0.000000 -0.005311
# 5 -0.001095 0.008107 -0.003744 0.000000 0.027318 0.000000
# 6 0.000000 0.000000 0.000000 -0.005311 0.000000 0.029163
#
#
# Mechanical properties :
#
#
# Convention : Reuss Voigt Hill
#
# Bulk Modulus (GPa) = 17.37962 23.73329 20.55645
# Shear Modulus (GPa) = 23.77975 30.42841 27.10408
#
# Velocity S-wave (km/s) = 3.27808 3.70813 3.49972
# Velocity P-wave (km/s) = 4.70971 5.39059 5.06161
#
# Compressibility (1/GPa) = 0.05753866
#
# Stress axis : x y z
#
# Youngs Moduli (GPa) = 82.73907 38.67665 25.13896
#
# Poissons Ratio (x) = 0.21516 -0.07500
# Poissons Ratio (y) = 0.46029 0.18882
# Poissons Ratio (z) = -0.24684 0.29051
#
# Static dielectric constant tensor:
#      x y z
#    x 1.835850 0.000000 -0.004370 
#    y 0.000000 1.731580 0.000000 
#    z -0.004370 0.000000 1.854580 
# 
# From -- ./inp_files/46608.got.cif
#   From: 2010.05.17/outbox.cif.g08.bks.cpg/sg11_24_cif.got.tgz:46608.got - 2010.06.03 12:22:45.
