data_PCOD9165790
_publ_section_title
;
Structure prediction by ZEFSAII (Michael W. Deem and Ramdas Pophale) SiO2 
 PCOD9165790
Probable space group: P 21/M
;
_chemical_formula_sum "Si O2"
_cell_formula_units_Z 22
_cell_length_a 7.650766
_cell_length_b 8.737898
_cell_length_c 14.290139
_cell_angle_alpha 90.000000
_cell_angle_beta 86.313842
_cell_angle_gamma 90.000000
_cell_volume 953.342458
_symmetry_space_group_name_H-M "P 21/M"
_symmetry_group_IT_number 11
_symmetry_cell_setting 'monoclinic'
loop_
_space_group_symop_operation_xyz
x,y,z
-x,1/2+y,-z
-x,-y,-z
x,1/2-y,z
loop_
_atom_site_type_symbol
_atom_site_label
_atom_site_fract_x
_atom_site_fract_y
_atom_site_fract_z
Si Si1 0.527782 0.750000 0.921095
Si Si2 0.691758 0.430930 0.606761
Si Si3 0.838219 0.073618 0.197567
Si Si4 0.798490 0.750000 0.085912
Si Si5 0.762537 0.965329 0.807376
Si Si6 0.201916 0.750000 0.063145
Si Si7 0.692004 0.433261 0.402845
O O1 0.587877 0.885922 0.851509
O O2 0.662739 0.750000 0.005149
O O3 0.341111 0.750000 0.976080
O O4 0.714986 0.250000 0.621887
O O5 0.756604 0.516724 0.696464
O O6 0.769374 0.472675 0.502324
O O7 0.486801 0.472923 0.604325
O O8 0.763822 0.250000 0.190277
O O9 0.807160 0.035778 0.307962
O O10 0.044918 0.094361 0.174325
O O11 0.782764 0.915769 0.142609
O O12 0.998918 0.750000 0.041311
O O13 0.761565 0.113916 0.869077
O O14 0.652733 0.250000 0.407847
#
# Coordination Sequence:
#
# PCOD9165790 Si02
#       7
#     2   4   4   2   4   2   4
#     4  12  26  46  65 100 134 176 235 284 347 405
#     4  10  21  40  65  94 137 171 219 277 334 418
#     4  10  22  44  66 100 135 172 228 278 341 413
#     4  10  26  46  73  97 138 187 223 292 347 402
#     4  11  23  43  62  93 130 172 222 280 338 403
#     4  10  24  46  66  97 128 175 236 278 344 409
#     4   9  21  39  64 101 129 173 220 270 344 408
#
# _framework density 23.076699999999999
#
# number of rings (size 3 to 8) (size 9 to 14) (size 15 to 20)
#    0.000    1.818    1.818    0.545    5.091    3.636 
#    4.909    0.000    0.000    0.000    0.000    0.000 
#    0.000    0.000    0.000    0.000    0.000    0.000 
#
# Total GULP energy -122660.362871 kJ/mol
# GULP energy per Si atom -5575.471040 kJ/mol
# Density = 2.302418 g / cm^3
# Si number density = 23.076700 Si / 1000 Ang^3
#
#
#
# Elastic Constant Matrix: (Units=GPa)
#
#
# Indices 1 2 3 4 5 6 
#
# 1 80.9920 13.4562 -24.7876 0.0000 10.7883 0.0000
# 2 13.4562 92.8166 52.1482 0.0000 -5.4739 0.0000
# 3 -24.7876 52.1482 297.6547 0.0000 -42.3185 0.0000
# 4 0.0000 0.0000 0.0000 38.7793 0.0000 -5.2181
# 5 10.7883 -5.4739 -42.3185 0.0000 59.5436 0.0000
# 6 0.0000 0.0000 0.0000 -5.2181 0.0000 27.4619
#
#
#
# Elastic Compliance Matrix: (Units=1/GPa)
#
#
# Indices 1 2 3 4 5 6 
#
# 1 0.013465 -0.002824 0.001371 0.000000 -0.001725 0.000000
# 2 -0.002824 0.012553 -0.002445 0.000000 -0.000072 0.000000
# 3 0.001371 -0.002445 0.004266 0.000000 0.002559 0.000000
# 4 0.000000 0.000000 0.000000 0.026464 0.000000 0.005028
# 5 -0.001725 -0.000072 0.002559 0.000000 0.018919 0.000000
# 6 0.000000 0.000000 0.000000 0.005028 0.000000 0.037370
#
#
# Mechanical properties :
#
#
# Convention : Reuss Voigt Hill
#
# Bulk Modulus (GPa) = 44.46769 61.45521 52.96145
# Shear Modulus (GPa) = 38.96281 53.86673 46.41477
#
# Velocity S-wave (km/s) = 4.11348 4.83665 4.48965
# Velocity P-wave (km/s) = 6.47088 7.60786 7.06229
#
# Compressibility (1/GPa) = 0.02248824
#
# Stress axis : x y z
#
# Youngs Moduli (GPa) = 74.26424 79.66489 234.42203
#
# Poissons Ratio (x) = 0.22498 -0.32136
# Poissons Ratio (y) = 0.20973 0.57306
# Poissons Ratio (z) = -0.10181 0.19475
#
# Static dielectric constant tensor:
#      x y z
#    x 1.870090 0.000000 0.035190 
#    y 0.000000 1.893590 0.000000 
#    z 0.035190 0.000000 1.856800 
# 
# From -- ./inp_files/46519.got.cif
#   From: 2010.05.17/outbox.cif.g08.bks.cpg/sg11_24_cif.got.tgz:46519.got - 2010.06.03 12:22:45.
