data_PCOD9165387
_publ_section_title
;
Structure prediction by ZEFSAII (Michael W. Deem and Ramdas Pophale) SiO2 
 PCOD9165387
Probable space group: P 21/M
;
_chemical_formula_sum "Si O2"
_cell_formula_units_Z 20
_cell_length_a 15.530491
_cell_length_b 11.375854
_cell_length_c 5.031305
_cell_angle_alpha 90.000000
_cell_angle_beta 73.816373
_cell_angle_gamma 90.000000
_cell_volume 853.669865
_symmetry_space_group_name_H-M "P 21/M"
_symmetry_group_IT_number 11
_symmetry_cell_setting 'monoclinic'
loop_
_space_group_symop_operation_xyz
x,y,z
-x,1/2+y,-z
-x,-y,-z
x,1/2-y,z
loop_
_atom_site_type_symbol
_atom_site_label
_atom_site_fract_x
_atom_site_fract_y
_atom_site_fract_z
Si Si1 0.483644 0.115548 0.819123
Si Si2 0.065861 0.927619 0.630272
Si Si3 0.883431 0.875171 0.020313
Si Si4 0.649392 0.034050 0.364738
Si Si5 0.769433 0.461831 0.779471
O O1 0.479880 0.250000 0.933281
O O2 0.393901 0.081768 0.733754
O O3 0.565126 0.109911 0.537428
O O4 0.500000 0.000000 0.000000
O O5 0.147178 0.879983 0.384100
O O6 0.989028 0.862706 0.858570
O O7 0.115844 0.017180 0.780573
O O8 0.000000 0.000000 0.500000
O O9 0.852457 0.750000 0.152992
O O10 0.819514 0.919644 0.838924
O O11 0.705574 0.015154 0.584485
O O12 0.711322 0.085766 0.076610
#
# Coordination Sequence:
#
# PCOD9165387 Si02
#       5
#     4   4   4   4   4
#     4  11  26  49  77 107 148 191 237 295 368 441
#     4   9  20  38  61  86 136 173 215 272 335 402
#     4  10  21  38  64  96 132 177 228 283 345 408
#     4  11  24  46  70 103 139 182 232 290 360 424
#     4  11  21  43  68  98 136 176 229 292 348 418
#
# _framework density 23.428260999999999
#
# number of rings (size 3 to 8) (size 9 to 14) (size 15 to 20)
#    0.000    1.600    4.000    0.000    0.000    8.000 
#    0.000    2.000    0.000    4.800    0.000    0.000 
#    0.000    0.000    0.000    0.000    0.000    0.000 
#
# Total GULP energy -111353.500625 kJ/mol
# GULP energy per Si atom -5567.675031 kJ/mol
# Density = 2.337494 g / cm^3
# Si number density = 23.428261 Si / 1000 Ang^3
#
#
#
# Elastic Constant Matrix: (Units=GPa)
#
#
# Indices 1 2 3 4 5 6 
#
# 1 126.7682 8.1461 47.4612 0.0000 11.0871 0.0000
# 2 8.1461 123.0870 22.1460 0.0000 12.8391 0.0000
# 3 47.4612 22.1460 139.1034 0.0000 -14.2787 0.0000
# 4 0.0000 0.0000 0.0000 -66.0060 0.0000 1.5829
# 5 11.0871 12.8391 -14.2787 0.0000 71.1155 0.0000
# 6 0.0000 0.0000 0.0000 1.5829 0.0000 -6.5295
#
#
#
# Elastic Compliance Matrix: (Units=1/GPa)
#
#
# Indices 1 2 3 4 5 6 
#
# 1 0.009359 0.000231 -0.003455 0.000000 -0.002195 0.000000
# 2 0.000231 0.008605 -0.001646 0.000000 -0.001920 0.000000
# 3 -0.003455 -0.001646 0.008899 0.000000 0.002623 0.000000
# 4 0.000000 0.000000 0.000000 -0.015239 0.000000 -0.003694
# 5 -0.002195 -0.001920 0.002623 0.000000 0.015277 0.000000
# 6 0.000000 0.000000 0.000000 -0.003694 0.000000 -0.154047
#
#
# Mechanical properties :
#
#
# Convention : Reuss Voigt Hill
#
# Bulk Modulus (GPa) = 58.39966 60.49613 59.44790
# Shear Modulus (GPa) = -44.76392 20.46302 -12.15045
#
# Velocity S-wave (km/s) = -4.37588 2.95860 -2.27980
# Velocity P-wave (km/s) = 0.74156 6.12772 4.30111
#
# Compressibility (1/GPa) = 0.01712339
#
# Stress axis : x y z
#
# Youngs Moduli (GPa) = 106.84711 116.20503 112.37075
#
# Poissons Ratio (x) = -0.02687 0.38828
# Poissons Ratio (y) = -0.02470 0.18497
# Poissons Ratio (z) = 0.36920 0.19128
#
# Static dielectric constant tensor:
#      x y z
#    x 1.684020 0.000000 -0.165170 
#    y 0.000000 1.493590 0.000000 
#    z -0.165170 0.000000 1.916150 
# 
# From -- ./inp_files/7582.got.cif
#   From: 2010.05.17/outbox.cif.g08.bks.cpg/sg11_4_cif.got.tgz:7582.got - 2010.06.03 12:22:45.
