data_PCOD9165424
_publ_section_title
;
Structure prediction by ZEFSAII (Michael W. Deem and Ramdas Pophale) SiO2 
 PCOD9165424
Probable space group: P 21/M
;
_chemical_formula_sum "Si O2"
_cell_formula_units_Z 32
_cell_length_a 35.548740
_cell_length_b 8.651823
_cell_length_c 14.371719
_cell_angle_alpha 90.000000
_cell_angle_beta 22.995195
_cell_angle_gamma 90.000000
_cell_volume 1726.763077
_symmetry_space_group_name_H-M "P 21/M"
_symmetry_group_IT_number 11
_symmetry_cell_setting 'monoclinic'
loop_
_space_group_symop_operation_xyz
x,y,z
-x,1/2+y,-z
-x,-y,-z
x,1/2-y,z
loop_
_atom_site_type_symbol
_atom_site_label
_atom_site_fract_x
_atom_site_fract_y
_atom_site_fract_z
Si Si1 0.112238 0.564243 0.940355
Si Si2 0.276089 0.936615 0.708433
Si Si3 0.629874 0.567745 0.330481
Si Si4 0.434364 0.065499 0.857420
Si Si5 0.710608 0.431781 0.957557
Si Si6 0.112179 0.063725 0.540550
Si Si7 0.891594 0.934546 0.244258
Si Si8 0.476907 0.564740 0.153457
O O1 0.112974 0.750000 0.931575
O O2 0.000490 0.518012 0.208457
O O3 0.180799 0.519260 0.869039
O O4 0.151355 0.499818 0.753101
O O5 0.276719 0.750000 0.720740
O O6 0.369614 0.976389 0.432894
O O7 0.291428 0.019504 0.771576
O O8 0.609768 0.750000 0.380792
O O9 0.533910 0.474427 0.577577
O O10 0.666029 0.520782 0.146708
O O11 0.417869 0.250000 0.892342
O O12 0.451595 0.016769 0.925407
O O13 0.350858 0.979349 0.992910
O O14 0.704007 0.250000 0.989275
O O15 0.819584 0.483154 0.688785
O O16 0.117639 0.250000 0.517899
O O17 0.148702 0.024753 0.562277
O O18 0.894522 0.750000 0.232083
O O19 0.000000 0.000000 0.000000
O O20 0.481208 0.750000 0.139296
O O21 0.500000 0.500000 0.000000
#
# Coordination Sequence:
#
# PCOD9165424 Si02
#       8
#     4   4   4   4   4   4   4   4
#     4   9  18  34  57  80 107 143 183 225 270 318
#     4   9  19  37  57  79 107 143 183 223 267 318
#     4  11  22  38  59  82 107 137 176 223 269 322
#     4  10  21  39  59  81 110 143 178 219 266 319
#     4  12  24  37  56  81 107 140 178 222 273 324
#     4   9  19  35  52  77 110 142 177 224 273 316
#     4   9  17  30  50  74 104 139 177 219 264 313
#     4   9  19  34  54  80 113 145 174 213 260 308
#
# _framework density 18.531783999999998
#
# number of rings (size 3 to 8) (size 9 to 14) (size 15 to 20)
#    0.000    2.250    0.000    4.875    0.000    6.500 
#    0.000    3.125    0.000    0.000    0.000    0.000 
#    0.000    0.000    0.000    0.000    0.000    0.000 
#
# Total GULP energy -178563.541215 kJ/mol
# GULP energy per Si atom -5580.110663 kJ/mol
# Density = 1.848961 g / cm^3
# Si number density = 18.531784 Si / 1000 Ang^3
#
#
#
# Elastic Constant Matrix: (Units=GPa)
#
#
# Indices 1 2 3 4 5 6 
#
# 1 96.0771 9.2783 33.1473 0.0000 -1.7206 0.0000
# 2 9.2783 16.7769 -1.9399 0.0000 -0.8389 0.0000
# 3 33.1473 -1.9399 41.9679 0.0000 9.8392 0.0000
# 4 0.0000 0.0000 0.0000 26.1368 0.0000 3.9909
# 5 -1.7206 -0.8389 9.8392 0.0000 27.9178 0.0000
# 6 0.0000 0.0000 0.0000 3.9909 0.0000 32.5508
#
#
#
# Elastic Compliance Matrix: (Units=1/GPa)
#
#
# Indices 1 2 3 4 5 6 
#
# 1 0.016791 -0.010738 -0.015179 0.000000 0.006062 0.000000
# 2 -0.010738 0.066814 0.012268 0.000000 -0.002978 0.000000
# 3 -0.015179 0.012268 0.039806 0.000000 -0.014596 0.000000
# 4 0.000000 0.000000 0.000000 0.038990 0.000000 -0.004780
# 5 0.006062 -0.002978 -0.014596 0.000000 0.041248 0.000000
# 6 0.000000 0.000000 0.000000 -0.004780 0.000000 0.031307
#
#
# Mechanical properties :
#
#
# Convention : Reuss Voigt Hill
#
# Bulk Modulus (GPa) = 10.40465 26.19926 18.30196
# Shear Modulus (GPa) = 16.98993 24.94349 20.96671
#
# Velocity S-wave (km/s) = 3.03115 3.67275 3.36727
# Velocity P-wave (km/s) = 4.22814 5.67041 5.00154
#
# Compressibility (1/GPa) = 0.09611087
#
# Stress axis : x y z
#
# Youngs Moduli (GPa) = 59.55630 14.96695 25.12203
#
# Poissons Ratio (x) = 0.16072 0.38134
# Poissons Ratio (y) = 0.63952 -0.30819
# Poissons Ratio (z) = 0.90403 -0.18361
#
# Static dielectric constant tensor:
#      x y z
#    x 1.653170 0.000000 -0.008340 
#    y 0.000000 1.619260 0.000000 
#    z -0.008340 0.000000 1.637690 
# 
# From -- ./inp_files/45236.got.cif
#   From: 2010.05.17/outbox.cif.g08.bks.cpg/sg11_23_cif.got.tgz:45236.got - 2010.06.03 12:22:45.
