data_PCOD9165772
_publ_section_title
;
Structure prediction by ZEFSAII (Michael W. Deem and Ramdas Pophale) SiO2 
 PCOD9165772
Probable space group: P 21/M
;
_chemical_formula_sum "Si O2"
_cell_formula_units_Z 24
_cell_length_a 12.117153
_cell_length_b 8.833172
_cell_length_c 12.060317
_cell_angle_alpha 90.000000
_cell_angle_beta 88.432847
_cell_angle_gamma 90.000000
_cell_volume 1290.367830
_symmetry_space_group_name_H-M "P 21/M"
_symmetry_group_IT_number 11
_symmetry_cell_setting 'monoclinic'
loop_
_space_group_symop_operation_xyz
x,y,z
-x,1/2+y,-z
-x,-y,-z
x,1/2-y,z
loop_
_atom_site_type_symbol
_atom_site_label
_atom_site_fract_x
_atom_site_fract_y
_atom_site_fract_z
Si Si1 0.545218 0.568987 0.336011
Si Si2 0.409645 0.068678 0.920802
Si Si3 0.022357 0.930310 0.178120
Si Si4 0.321751 0.930375 0.470868
Si Si5 0.169697 0.569677 0.957470
Si Si6 0.912337 0.569255 0.588352
O O1 0.561015 0.750000 0.349973
O O2 0.560197 0.531585 0.207275
O O3 0.632390 0.483434 0.411325
O O4 0.422229 0.533302 0.383586
O O5 0.407439 0.250000 0.931565
O O6 0.290337 0.000758 0.950928
O O7 0.500000 0.000000 0.000000
O O8 0.013924 0.750000 0.195253
O O9 0.057957 0.009617 0.290109
O O10 0.111040 0.958478 0.077642
O O11 0.907624 0.994807 0.133835
O O12 0.304015 0.750000 0.470178
O O13 0.209664 0.013084 0.441194
O O14 0.174003 0.750000 0.940587
O O15 0.917665 0.750000 0.584794
O O16 0.000000 0.500000 0.500000
#
# Coordination Sequence:
#
# PCOD9165772 Si02
#       6
#     4   4   4   4   4   4
#     4   9  21  41  63  88 122 163 203 249 305 362
#     4  11  24  40  61  91 126 163 207 255 305 362
#     4  10  22  42  66  91 123 162 205 254 307 363
#     4  10  21  40  65  91 121 159 204 252 305 364
#     4  10  22  41  65  92 124 163 206 252 307 366
#     4  12  26  42  63  92 125 161 205 253 307 366
#
# _framework density 18.599346000000001
#
# number of rings (size 3 to 8) (size 9 to 14) (size 15 to 20)
#    0.000    1.667    0.000    3.500    4.667    4.000 
#    0.000    0.000    0.000    0.000    0.000    0.000 
#    0.000    0.000    0.000    0.000    0.000    0.000 
#
# Total GULP energy -134193.478480 kJ/mol
# GULP energy per Si atom -5591.394937 kJ/mol
# Density = 1.855701 g / cm^3
# Si number density = 18.599346 Si / 1000 Ang^3
#
#
#
# Elastic Constant Matrix: (Units=GPa)
#
#
# Indices 1 2 3 4 5 6 
#
# 1 185.9218 95.2797 106.3766 0.0000 24.6390 0.0000
# 2 95.2797 115.9517 94.1465 0.0000 13.1119 0.0000
# 3 106.3766 94.1465 140.1623 0.0000 22.6593 0.0000
# 4 0.0000 0.0000 0.0000 36.3366 0.0000 5.4185
# 5 24.6390 13.1119 22.6593 0.0000 17.1764 0.0000
# 6 0.0000 0.0000 0.0000 5.4185 0.0000 39.9645
#
#
#
# Elastic Compliance Matrix: (Units=1/GPa)
#
#
# Indices 1 2 3 4 5 6 
#
# 1 0.011215 -0.005349 -0.003785 0.000000 -0.007010 0.000000
# 2 -0.005349 0.021641 -0.011498 0.000000 0.006322 0.000000
# 3 -0.003785 -0.011498 0.019618 0.000000 -0.011673 0.000000
# 4 0.000000 0.000000 0.000000 0.028088 0.000000 -0.003808
# 5 -0.007010 0.006322 -0.011673 0.000000 0.078849 0.000000
# 6 0.000000 0.000000 0.000000 -0.003808 0.000000 0.025539
#
#
# Mechanical properties :
#
#
# Convention : Reuss Voigt Hill
#
# Bulk Modulus (GPa) = 89.22113 114.84903 102.03508
# Shear Modulus (GPa) = 21.74379 28.44435 25.09407
#
# Velocity S-wave (km/s) = 3.42286 3.91489 3.67712
# Velocity P-wave (km/s) = 7.98095 9.07294 8.54441
#
# Compressibility (1/GPa) = 0.01120811
#
# Stress axis : x y z
#
# Youngs Moduli (GPa) = 89.16947 46.20817 50.97440
#
# Poissons Ratio (x) = 0.24719 0.19293
# Poissons Ratio (y) = 0.47701 0.58613
# Poissons Ratio (z) = 0.33749 0.53132
#
# Static dielectric constant tensor:
#      x y z
#    x 1.607710 0.000000 -0.016540 
#    y 0.000000 1.619430 0.000000 
#    z -0.016540 0.000000 1.616650 
# 
# From -- ./inp_files/33805.got.cif
#   From: 2010.05.17/outbox.cif.g08.bks.cpg/sg11_17_cif.got.tgz:33805.got - 2010.06.03 12:22:45.
