data_PCOD9165132
_publ_section_title
;
Structure prediction by ZEFSAII (Michael W. Deem and Ramdas Pophale) SiO2 
 PCOD9165132
Probable space group: P 21/M
;
_chemical_formula_sum "Si O2"
_cell_formula_units_Z 24
_cell_length_a 32.320289
_cell_length_b 8.605602
_cell_length_c 9.411886
_cell_angle_alpha 90.000000
_cell_angle_beta 150.694448
_cell_angle_gamma 90.000000
_cell_volume 1281.316816
_symmetry_space_group_name_H-M "P 21/M"
_symmetry_group_IT_number 11
_symmetry_cell_setting 'monoclinic'
loop_
_space_group_symop_operation_xyz
x,y,z
-x,1/2+y,-z
-x,-y,-z
x,1/2-y,z
loop_
_atom_site_type_symbol
_atom_site_label
_atom_site_fract_x
_atom_site_fract_y
_atom_site_fract_z
Si Si1 0.077847 0.435816 0.825301
Si Si2 0.422101 0.564360 0.679595
Si Si3 0.418978 0.936501 0.338858
Si Si4 0.233109 0.937730 0.109944
Si Si5 0.236484 0.064035 0.798655
Si Si6 0.920162 0.063774 0.848861
O O1 0.073560 0.250000 0.819213
O O2 0.000000 0.500000 0.500000
O O3 0.162562 0.489574 0.998669
O O4 0.075049 0.504542 0.975256
O O5 0.424028 0.750000 0.695324
O O6 0.430057 0.522710 0.537936
O O7 0.327711 0.515079 0.442075
O O8 0.500000 0.500000 0.000000
O O9 0.413374 0.750000 0.309042
O O10 0.500000 0.000000 0.500000
O O11 0.329498 0.010290 0.026506
O O12 0.227092 0.750000 0.093378
O O13 0.223292 0.994535 0.917714
O O14 0.232273 0.250000 0.792881
O O15 0.164279 0.999144 0.479606
O O16 0.920698 0.250000 0.848042
O O17 0.000000 0.000000 0.000000
#
# Coordination Sequence:
#
# PCOD9165132 Si02
#       6
#     4   4   4   4   4   4
#     4  12  25  42  63  90 120 155 196 241 291 350
#     4   9  20  36  57  83 115 151 192 237 287 342
#     4  10  21  38  58  85 118 156 198 245 297 354
#     4  10  21  40  61  86 119 157 197 243 295 350
#     4  11  22  39  62  89 118 155 199 246 297 354
#     4  12  25  43  64  89 120 156 195 242 295 352
#
# _framework density 18.730730999999999
#
# number of rings (size 3 to 8) (size 9 to 14) (size 15 to 20)
#    0.000    1.333    0.000    7.500    0.000    5.333 
#    0.000    3.333    0.000    0.000    0.000    0.000 
#    0.000    0.000    0.000    0.000    0.000    0.000 
#
# Total GULP energy -134190.604841 kJ/mol
# GULP energy per Si atom -5591.275202 kJ/mol
# Density = 1.868810 g / cm^3
# Si number density = 18.730731 Si / 1000 Ang^3
#
#
#
# Elastic Constant Matrix: (Units=GPa)
#
#
# Indices 1 2 3 4 5 6 
#
# 1 140.3712 52.5833 97.5341 0.0000 27.2416 0.0000
# 2 52.5833 132.7550 68.1344 0.0000 7.9611 0.0000
# 3 97.5341 68.1344 209.1046 0.0000 9.2972 0.0000
# 4 0.0000 0.0000 0.0000 39.9228 0.0000 1.0060
# 5 27.2416 7.9611 9.2972 0.0000 31.0296 0.0000
# 6 0.0000 0.0000 0.0000 1.0060 0.0000 38.0597
#
#
#
# Elastic Compliance Matrix: (Units=1/GPa)
#
#
# Indices 1 2 3 4 5 6 
#
# 1 0.013320 -0.002077 -0.005108 0.000000 -0.009631 0.000000
# 2 -0.002077 0.009435 -0.002107 0.000000 0.000034 0.000000
# 3 -0.005108 -0.002107 0.007731 0.000000 0.002709 0.000000
# 4 0.000000 0.000000 0.000000 0.025065 0.000000 -0.000662
# 5 -0.009631 0.000034 0.002709 0.000000 0.039862 0.000000
# 6 0.000000 0.000000 0.000000 -0.000662 0.000000 0.026292
#
#
# Mechanical properties :
#
#
# Convention : Reuss Voigt Hill
#
# Bulk Modulus (GPa) = 84.01945 102.08162 93.05053
# Shear Modulus (GPa) = 34.66051 39.40100 37.03075
#
# Velocity S-wave (km/s) = 4.30637 4.59142 4.45118
# Velocity P-wave (km/s) = 8.34747 9.09539 8.72944
#
# Compressibility (1/GPa) = 0.01190201
#
# Stress axis : x y z
#
# Youngs Moduli (GPa) = 75.07340 105.99257 129.34898
#
# Poissons Ratio (x) = 0.22013 0.66073
# Poissons Ratio (y) = 0.15592 0.27253
# Poissons Ratio (z) = 0.38349 0.22332
#
# Static dielectric constant tensor:
#      x y z
#    x 1.626350 0.000000 0.002170 
#    y 0.000000 1.628070 0.000000 
#    z 0.002170 0.000000 1.642470 
# 
# From -- ./inp_files/29147.got.cif
#   From: 2010.05.17/outbox.cif.g08.bks.cpg/sg11_15_cif.got.tgz:29147.got - 2010.06.03 12:22:45.
