data_PCOD9165153
_publ_section_title
;
Structure prediction by ZEFSAII (Michael W. Deem and Ramdas Pophale) SiO2 
 PCOD9165153
Probable space group: P 21/M
;
_chemical_formula_sum "Si O2"
_cell_formula_units_Z 28
_cell_length_a 16.524898
_cell_length_b 7.830064
_cell_length_c 22.590301
_cell_angle_alpha 90.000000
_cell_angle_beta 25.629821
_cell_angle_gamma 90.000000
_cell_volume 1264.350617
_symmetry_space_group_name_H-M "P 21/M"
_symmetry_group_IT_number 11
_symmetry_cell_setting 'monoclinic'
loop_
_space_group_symop_operation_xyz
x,y,z
-x,1/2+y,-z
-x,-y,-z
x,1/2-y,z
loop_
_atom_site_type_symbol
_atom_site_label
_atom_site_fract_x
_atom_site_fract_y
_atom_site_fract_z
Si Si1 0.221739 0.542384 0.711038
Si Si2 0.778281 0.458177 0.791874
Si Si3 0.407527 0.048217 0.468299
Si Si4 0.191649 0.049133 0.497449
Si Si5 0.594057 0.448491 0.031883
Si Si6 0.895416 0.955629 0.008736
Si Si7 0.482804 0.053186 0.787788
O O1 0.226367 0.750000 0.706372
O O2 0.392287 0.480767 0.640968
O O3 0.266851 0.477525 0.615959
O O4 0.027072 0.486503 0.867865
O O5 0.763821 0.250000 0.798334
O O6 0.608265 0.530397 0.865613
O O7 0.980771 0.517862 0.636235
O O8 0.740827 0.507524 0.885081
O O9 0.436367 0.250000 0.439963
O O10 0.315558 0.975381 0.469735
O O11 0.168921 0.250000 0.524838
O O12 0.317734 0.030899 0.356164
O O13 0.629664 0.250000 0.020561
O O14 0.586357 0.541427 0.099354
O O15 0.883581 0.750000 0.012889
O O16 0.684882 0.023265 0.141359
O O17 0.000000 0.000000 0.000000
O O18 0.509182 0.250000 0.754897
#
# Coordination Sequence:
#
# PCOD9165153 Si02
#       7
#     4   4   4   4   4   4   4
#     4   9  18  33  51  75 107 145 185 229 281 333
#     4   9  20  39  63  89 117 149 190 240 291 346
#     4   9  18  32  53  79 108 141 184 232 279 333
#     4  10  21  38  59  84 114 152 193 238 288 342
#     4  10  21  39  63  90 117 150 191 235 291 351
#     4  10  22  38  56  80 112 153 196 238 286 338
#     4  11  24  39  57  86 121 155 195 240 288 344
#
# _framework density 22.145754
#
# number of rings (size 3 to 8) (size 9 to 14) (size 15 to 20)
#    0.000    2.286    0.000    1.714    2.000    5.143 
#    0.000    2.857    0.000    0.000    0.000    0.000 
#    0.000    0.000    0.000    0.000    0.000    0.000 
#
# Total GULP energy -156387.110383 kJ/mol
# GULP energy per Si atom -5585.253942 kJ/mol
# Density = 2.209535 g / cm^3
# Si number density = 22.145754 Si / 1000 Ang^3
#
#
#
# Elastic Constant Matrix: (Units=GPa)
#
#
# Indices 1 2 3 4 5 6 
#
# 1 36.8969 -3.3440 6.7696 0.0000 3.5477 0.0000
# 2 -3.3440 26.2688 -2.2128 0.0000 -3.4773 0.0000
# 3 6.7696 -2.2128 126.6683 0.0000 -11.8485 0.0000
# 4 0.0000 0.0000 0.0000 20.7233 0.0000 6.0855
# 5 3.5477 -3.4773 -11.8485 0.0000 17.1563 0.0000
# 6 0.0000 0.0000 0.0000 6.0855 0.0000 22.2909
#
#
#
# Elastic Compliance Matrix: (Units=1/GPa)
#
#
# Indices 1 2 3 4 5 6 
#
# 1 0.028374 0.002533 -0.002109 0.000000 -0.006811 0.000000
# 2 0.002533 0.039621 0.001346 0.000000 0.008436 0.000000
# 3 -0.002109 0.001346 0.008656 0.000000 0.006687 0.000000
# 4 0.000000 0.000000 0.000000 0.052461 0.000000 -0.014322
# 5 -0.006811 0.008436 0.006687 0.000000 0.066024 0.000000
# 6 0.000000 0.000000 0.000000 -0.014322 0.000000 0.048771
#
#
# Mechanical properties :
#
#
# Convention : Reuss Voigt Hill
#
# Bulk Modulus (GPa) = 12.47041 21.36216 16.91629
# Shear Modulus (GPa) = 18.71971 24.60885 21.66428
#
# Velocity S-wave (km/s) = 2.91055 3.33712 3.13111
# Velocity P-wave (km/s) = 4.11562 4.95132 4.55269
#
# Compressibility (1/GPa) = 0.08018984
#
# Stress axis : x y z
#
# Youngs Moduli (GPa) = 35.24356 25.23943 115.52149
#
# Poissons Ratio (x) = -0.06393 0.24366
# Poissons Ratio (y) = -0.08926 -0.15548
# Poissons Ratio (z) = 0.07434 -0.03397
#
# Static dielectric constant tensor:
#      x y z
#    x 1.807500 0.000000 -0.010790 
#    y 0.000000 1.813180 0.000000 
#    z -0.010790 0.000000 1.828200 
# 
# From -- ./inp_files/65350.got.cif
#   From: 2010.05.17/outbox.cif.g08.bks.cpg/sg11_33_cif.got.tgz:65350.got - 2010.06.03 12:22:45.
