data_PCOD9165030
_publ_section_title
;
Structure prediction by ZEFSAII (Michael W. Deem and Ramdas Pophale) SiO2 
 PCOD9165030
Probable space group: P 21/M
;
_chemical_formula_sum "Si O2"
_cell_formula_units_Z 30
_cell_length_a 13.316655
_cell_length_b 12.155743
_cell_length_c 9.551692
_cell_angle_alpha 90.000000
_cell_angle_beta 87.198908
_cell_angle_gamma 90.000000
_cell_volume 1544.321669
_symmetry_space_group_name_H-M "P 21/M"
_symmetry_group_IT_number 11
_symmetry_cell_setting 'monoclinic'
loop_
_space_group_symop_operation_xyz
x,y,z
-x,1/2+y,-z
-x,-y,-z
x,1/2-y,z
loop_
_atom_site_type_symbol
_atom_site_label
_atom_site_fract_x
_atom_site_fract_y
_atom_site_fract_z
Si Si1 0.767681 0.456273 0.408451
Si Si2 0.668701 0.250000 0.570416
Si Si3 0.074152 0.874610 0.085970
Si Si4 0.173113 0.127565 0.357091
Si Si5 0.664333 0.623692 0.208624
Si Si6 0.267327 0.033016 0.080467
Si Si7 0.429622 0.868313 0.162650
Si Si8 0.969056 0.067395 0.224386
O O1 0.714107 0.347803 0.468022
O O2 0.806009 0.531824 0.533918
O O3 0.697007 0.534650 0.320095
O O4 0.863693 0.423674 0.308090
O O5 0.623568 0.343750 0.684942
O O6 0.091218 0.750000 0.130154
O O7 0.177151 0.943964 0.081118
O O8 0.034103 0.879332 0.929779
O O9 0.997596 0.940008 0.190786
O O10 0.189746 0.250000 0.413000
O O11 0.243085 0.106987 0.216619
O O12 0.059119 0.116496 0.309223
O O13 0.679746 0.750000 0.253848
O O14 0.546575 0.610917 0.180570
O O15 0.726703 0.600466 0.062859
O O16 0.370012 0.965431 0.093113
O O17 0.420421 0.750000 0.084599
#
# Coordination Sequence:
#
# PCOD9165030 Si02
#       8
#     4   2   4   4   4   4   4   4
#     4  12  24  44  64  96 126 172 214 262 321 383
#     4  10  24  44  68  90 134 166 212 272 322 376
#     4  10  21  37  62  90 128 168 206 266 315 373
#     4  11  23  40  62  90 128 168 207 258 319 385
#     4  11  24  41  67  95 131 165 215 271 318 381
#     4  11  20  41  64  94 128 164 216 258 319 381
#     4   9  20  43  64  94 125 168 209 263 323 376
#     4  10  23  40  56  93 124 162 218 256 314 375
#
# _framework density 19.426006000000001
#
# number of rings (size 3 to 8) (size 9 to 14) (size 15 to 20)
#    0.400    1.067    2.667    2.400    1.867    1.600 
#    1.200    0.000    1.467    0.000    0.000    0.000 
#    0.000    0.000    0.000    0.000    0.000    0.000 
#
# Total GULP energy -167005.279749 kJ/mol
# GULP energy per Si atom -5566.842658 kJ/mol
# Density = 1.938179 g / cm^3
# Si number density = 19.426006 Si / 1000 Ang^3
#
#
#
# Elastic Constant Matrix: (Units=GPa)
#
#
# Indices 1 2 3 4 5 6 
#
# 1 27.4258 8.9690 -5.4347 0.0000 -0.2723 0.0000
# 2 8.9690 94.8011 5.5147 0.0000 -9.5265 0.0000
# 3 -5.4347 5.5147 45.4714 0.0000 -14.5923 0.0000
# 4 0.0000 0.0000 0.0000 -10.4296 0.0000 11.4553
# 5 -0.2723 -9.5265 -14.5923 0.0000 18.8300 0.0000
# 6 0.0000 0.0000 0.0000 11.4553 0.0000 3.7985
#
#
#
# Elastic Compliance Matrix: (Units=1/GPa)
#
#
# Indices 1 2 3 4 5 6 
#
# 1 0.038940 -0.003692 0.006233 0.000000 0.003526 0.000000
# 2 -0.003692 0.011476 0.000017 0.000000 0.005766 0.000000
# 3 0.006233 0.000017 0.030302 0.000000 0.023582 0.000000
# 4 0.000000 0.000000 0.000000 -0.022234 0.000000 0.067052
# 5 0.003526 0.005766 0.023582 0.000000 0.074350 0.000000
# 6 0.000000 0.000000 0.000000 0.067052 0.000000 0.061048
#
#
# Mechanical properties :
#
#
# Convention : Reuss Voigt Hill
#
# Bulk Modulus (GPa) = 11.65030 20.64403 16.14717
# Shear Modulus (GPa) = 23.00147 13.01639 18.00893
#
# Velocity S-wave (km/s) = 3.44474 2.59134 3.04806
# Velocity P-wave (km/s) = 4.67247 4.42758 4.55167
#
# Compressibility (1/GPa) = 0.08583467
#
# Stress axis : x y z
#
# Youngs Moduli (GPa) = 25.68066 87.13725 33.00074
#
# Poissons Ratio (x) = 0.32174 -0.20570
# Poissons Ratio (y) = 0.09482 -0.00057
# Poissons Ratio (z) = -0.16008 -0.00150
#
# Static dielectric constant tensor:
#      x y z
#    x 1.676090 0.000000 0.011940 
#    y 0.000000 1.676870 0.000000 
#    z 0.011940 0.000000 1.663190 
# 
# From -- ./inp_files/21267.got.cif
#   From: 2010.05.17/outbox.cif.g08.bks.cpg/sg11_11_cif.got.tgz:21267.got - 2010.06.03 12:22:45.
