data_PCOD9165927
_publ_section_title
;
Structure prediction by ZEFSAII (Michael W. Deem and Ramdas Pophale) SiO2 
 PCOD9165927
Probable space group: P 21/M
;
_chemical_formula_sum "Si O2"
_cell_formula_units_Z 28
_cell_length_a 8.595348
_cell_length_b 25.143599
_cell_length_c 8.846743
_cell_angle_alpha 90.000000
_cell_angle_beta 136.363314
_cell_angle_gamma 90.000000
_cell_volume 1319.397628
_symmetry_space_group_name_H-M "P 21/M"
_symmetry_group_IT_number 11
_symmetry_cell_setting 'monoclinic'
loop_
_space_group_symop_operation_xyz
x,y,z
-x,1/2+y,-z
-x,-y,-z
x,1/2-y,z
loop_
_atom_site_type_symbol
_atom_site_label
_atom_site_fract_x
_atom_site_fract_y
_atom_site_fract_z
Si Si1 0.843253 0.449417 0.403278
Si Si2 0.197194 0.808731 0.446014
Si Si3 0.652590 0.869785 0.797430
Si Si4 0.595224 0.512806 0.731030
Si Si5 0.666702 0.093676 0.960465
Si Si6 0.934411 0.309962 0.000900
Si Si7 0.804259 0.869750 0.245271
O O1 0.610012 0.469460 0.306545
O O2 0.000000 0.500000 0.500000
O O3 0.999959 0.413668 0.619523
O O4 0.781338 0.420955 0.201859
O O5 0.287744 0.750000 0.547257
O O6 0.394260 0.852366 0.596910
O O7 0.125522 0.809396 0.219735
O O8 0.970652 0.819414 0.386061
O O9 0.723381 0.930626 0.808352
O O10 0.698342 0.863006 0.006721
O O11 0.808275 0.830060 0.811775
O O12 0.500000 0.500000 0.500000
O O13 0.693015 0.459218 0.874721
O O14 0.784659 0.145420 0.975047
O O15 0.401311 0.109693 0.795564
O O16 0.905083 0.250000 0.038718
#
# Coordination Sequence:
#
# PCOD9165927 Si02
#       7
#     4   4   4   4   4   4   4
#     4  12  24  43  65  96 140 180 219 273 341 409
#     4  10  21  41  68  96 126 174 229 283 339 405
#     4  11  22  42  67  95 134 174 221 275 339 407
#     4  12  25  40  67 103 135 175 225 275 338 413
#     4  12  25  43  67 102 139 182 224 281 352 408
#     4  10  25  44  66  95 133 177 226 281 337 402
#     4  11  22  41  66  92 131 175 221 273 336 403
#
# _framework density 21.221805
#
# number of rings (size 3 to 8) (size 9 to 14) (size 15 to 20)
#    0.000    0.857    4.286    2.571    4.000    2.857 
#    0.000    2.143    0.000    0.000    0.000    0.000 
#    0.000    0.000    0.000    0.000    0.000    0.000 
#
# Total GULP energy -156163.720998 kJ/mol
# GULP energy per Si atom -5577.275750 kJ/mol
# Density = 2.117350 g / cm^3
# Si number density = 21.221805 Si / 1000 Ang^3
#
#
#
# Elastic Constant Matrix: (Units=GPa)
#
#
# Indices 1 2 3 4 5 6 
#
# 1 32.8750 46.7135 25.6239 0.0000 15.6485 0.0000
# 2 46.7135 152.9731 21.9855 0.0000 17.4699 0.0000
# 3 25.6239 21.9855 57.7812 0.0000 16.9594 0.0000
# 4 0.0000 0.0000 0.0000 32.2286 0.0000 5.5239
# 5 15.6485 17.4699 16.9594 0.0000 31.7147 0.0000
# 6 0.0000 0.0000 0.0000 5.5239 0.0000 38.7039
#
#
#
# Elastic Compliance Matrix: (Units=1/GPa)
#
#
# Indices 1 2 3 4 5 6 
#
# 1 0.091126 -0.021869 -0.026604 0.000000 -0.018690 0.000000
# 2 -0.021869 0.012388 0.004532 0.000000 0.001544 0.000000
# 3 -0.026604 0.004532 0.028777 0.000000 -0.004758 0.000000
# 4 0.000000 0.000000 0.000000 0.031806 0.000000 -0.004539
# 5 -0.018690 0.001544 -0.004758 0.000000 0.042447 0.000000
# 6 0.000000 0.000000 0.000000 -0.004539 0.000000 0.026485
#
#
# Mechanical properties :
#
#
# Convention : Reuss Voigt Hill
#
# Bulk Modulus (GPa) = 22.51904 48.03056 35.27480
# Shear Modulus (GPa) = 14.89358 30.48319 22.68839
#
# Velocity S-wave (km/s) = 2.65204 3.79411 3.27327
# Velocity P-wave (km/s) = 4.47348 6.47113 5.56271
#
# Compressibility (1/GPa) = 0.04440687
#
# Stress axis : x y z
#
# Youngs Moduli (GPa) = 10.97382 80.72517 34.75002
#
# Poissons Ratio (x) = 1.76539 0.92450
# Poissons Ratio (y) = 0.23999 -0.15748
# Poissons Ratio (z) = 0.29195 -0.36582
#
# Static dielectric constant tensor:
#      x y z
#    x 2.103990 0.000000 0.144390 
#    y 0.000000 1.772760 0.000000 
#    z 0.144390 0.000000 1.695560 
# 
# From -- ./inp_files/15216.got.cif
#   From: 2010.05.17/outbox.cif.g08.bks.cpg/sg11_8_cif.got.tgz:15216.got - 2010.06.03 12:22:45.
