data_PCOD9165673
_publ_section_title
;
Structure prediction by ZEFSAII (Michael W. Deem and Ramdas Pophale) SiO2 
 PCOD9165673
Probable space group: P 21/M
;
_chemical_formula_sum "Si O2"
_cell_formula_units_Z 20
_cell_length_a 8.799000
_cell_length_b 10.251891
_cell_length_c 13.503214
_cell_angle_alpha 90.000000
_cell_angle_beta 109.014471
_cell_angle_gamma 90.000000
_cell_volume 1151.613452
_symmetry_space_group_name_H-M "P 21/M"
_symmetry_group_IT_number 11
_symmetry_cell_setting 'monoclinic'
loop_
_space_group_symop_operation_xyz
x,y,z
-x,1/2+y,-z
-x,-y,-z
x,1/2-y,z
loop_
_atom_site_type_symbol
_atom_site_label
_atom_site_fract_x
_atom_site_fract_y
_atom_site_fract_z
Si Si1 0.008999 0.750000 0.155531
Si Si2 0.527166 0.019543 0.209109
Si Si3 0.607598 0.250000 0.076704
Si Si4 0.353472 0.250000 0.844467
Si Si5 0.030893 0.750000 0.923294
Si Si6 0.452501 0.099986 0.405012
Si Si7 0.181939 0.480458 0.209110
O O1 0.829433 0.750000 0.158872
O O2 0.101895 0.619787 0.207692
O O3 0.006773 0.750000 0.035747
O O4 0.584603 0.123391 0.140906
O O5 0.554452 0.072548 0.326262
O O6 0.332186 0.006742 0.164376
O O7 0.605791 0.880214 0.207693
O O8 0.782201 0.250000 0.064401
O O9 0.471029 0.250000 0.964251
O O10 0.943699 0.876609 0.859092
O O11 0.469441 0.250000 0.438899
O O12 0.271803 0.072543 0.326264
O O13 0.500000 0.000000 0.500000
#
# Coordination Sequence:
#
# PCOD9165673 Si02
#       7
#     2   4   2   2   2   4   4
#     4  12  24  36  58  91 129 171 211 248 304 377
#     4  10  21  40  59  90 124 156 211 258 305 366
#     4  12  22  38  60  87 129 173 207 250 314 369
#     4  12  24  36  58  91 129 171 211 248 304 377
#     4  12  22  38  60  87 129 173 207 250 314 369
#     4  10  22  40  72  96 120 156 214 268 313 366
#     4  10  21  40  59  90 124 156 211 258 305 366
#
# _framework density 17.366938000000001
#
# number of rings (size 3 to 8) (size 9 to 14) (size 15 to 20)
#    1.200    0.000    2.000    6.000    2.800    0.000 
#    0.000    0.000    0.000    7.200    0.000    0.000 
#    0.000    0.000    0.000    0.000    0.000    0.000 
#
# Total GULP energy -111588.582538 kJ/mol
# GULP energy per Si atom -5579.429127 kJ/mol
# Density = 1.732741 g / cm^3
# Si number density = 17.366938 Si / 1000 Ang^3
#
#
#
# Elastic Constant Matrix: (Units=GPa)
#
#
# Indices 1 2 3 4 5 6 
#
# 1 114.4806 45.7769 2.8662 0.0000 -6.1872 0.0000
# 2 45.7769 172.4004 36.0791 0.0000 -0.6606 0.0000
# 3 2.8662 36.0791 69.2113 0.0000 3.0924 0.0000
# 4 0.0000 0.0000 0.0000 31.9440 0.0000 0.1460
# 5 -6.1872 -0.6606 3.0924 0.0000 11.2251 0.0000
# 6 0.0000 0.0000 0.0000 0.1460 0.0000 29.9525
#
#
#
# Elastic Compliance Matrix: (Units=1/GPa)
#
#
# Indices 1 2 3 4 5 6 
#
# 1 0.010132 -0.002844 0.000831 0.000000 0.005188 0.000000
# 2 -0.002844 0.007329 -0.003697 0.000000 -0.000118 0.000000
# 3 0.000831 -0.003697 0.016534 0.000000 -0.004314 0.000000
# 4 0.000000 0.000000 0.000000 0.031306 0.000000 -0.000153
# 5 0.005188 -0.000118 -0.004314 0.000000 0.093128 0.000000
# 6 0.000000 0.000000 0.000000 -0.000153 0.000000 0.033387
#
#
# Mechanical properties :
#
#
# Convention : Reuss Voigt Hill
#
# Bulk Modulus (GPa) = 44.29813 58.39297 51.34555
# Shear Modulus (GPa) = 23.72349 32.71565 28.21957
#
# Velocity S-wave (km/s) = 3.69997 4.34497 4.03538
# Velocity P-wave (km/s) = 6.61934 7.67253 7.16531
#
# Compressibility (1/GPa) = 0.02257432
#
# Stress axis : x y z
#
# Youngs Moduli (GPa) = 98.69624 136.44301 60.48030
#
# Poissons Ratio (x) = 0.38810 -0.05028
# Poissons Ratio (y) = 0.28074 0.22363
# Poissons Ratio (z) = -0.08205 0.50450
#
# Static dielectric constant tensor:
#      x y z
#    x 1.572500 0.000000 0.000030 
#    y 0.000000 1.578660 0.000000 
#    z 0.000030 0.000000 1.572990 
# 
# From -- ./inp_files/46457.got.cif
#   From: 2010.05.17/outbox.cif.g08.bks.cpg/sg11_24_cif.got.tgz:46457.got - 2010.06.03 12:22:45.
