data_PCOD9165381
_publ_section_title
;
Structure prediction by ZEFSAII (Michael W. Deem and Ramdas Pophale) SiO2 
 PCOD9165381
Probable space group: P 21/M
;
_chemical_formula_sum "Si O2"
_cell_formula_units_Z 20
_cell_length_a 8.799610
_cell_length_b 15.342747
_cell_length_c 7.022867
_cell_angle_alpha 90.000000
_cell_angle_beta 95.599464
_cell_angle_gamma 90.000000
_cell_volume 943.634291
_symmetry_space_group_name_H-M "P 21/M"
_symmetry_group_IT_number 11
_symmetry_cell_setting 'monoclinic'
loop_
_space_group_symop_operation_xyz
x,y,z
-x,1/2+y,-z
-x,-y,-z
x,1/2-y,z
loop_
_atom_site_type_symbol
_atom_site_label
_atom_site_fract_x
_atom_site_fract_y
_atom_site_fract_z
Si Si1 0.599558 0.350546 0.951129
Si Si2 0.426677 0.090712 0.565863
Si Si3 0.844405 0.650148 0.229095
Si Si4 0.121476 0.556121 0.131485
Si Si5 0.670221 0.895507 0.833476
O O1 0.579093 0.250000 0.001037
O O2 0.542859 0.363702 0.726732
O O3 0.219184 0.350946 0.997502
O O4 0.773535 0.380867 0.982385
O O5 0.270361 0.087553 0.669638
O O6 0.380765 0.144642 0.372197
O O7 0.512515 0.906490 0.929818
O O8 0.834279 0.750000 0.294622
O O9 0.016114 0.613488 0.256420
O O10 0.241243 0.483642 0.215981
O O11 0.000000 0.500000 0.000000
O O12 0.500000 0.000000 0.500000
#
# Coordination Sequence:
#
# PCOD9165381 Si02
#       5
#     4   4   4   4   4
#     4  11  23  40  63  92 125 158 202 259 305 348
#     4  11  22  37  64  90 116 157 210 251 299 362
#     4  10  23  40  60  89 126 160 197 254 311 353
#     4  10  21  38  64  87 122 160 202 243 300 369
#     4  10  21  39  64  90 118 158 209 248 295 360
#
# _framework density 21.194651
#
# number of rings (size 3 to 8) (size 9 to 14) (size 15 to 20)
#    0.000    1.600    2.000    3.600    5.600    4.000 
#    0.000    0.000    0.000    4.800    0.000    0.000 
#    0.000    0.000    0.000    0.000    0.000    0.000 
#
# Total GULP energy -111418.670142 kJ/mol
# GULP energy per Si atom -5570.933507 kJ/mol
# Density = 2.114641 g / cm^3
# Si number density = 21.194651 Si / 1000 Ang^3
#
#
#
# Elastic Constant Matrix: (Units=GPa)
#
#
# Indices 1 2 3 4 5 6 
#
# 1 158.5080 55.5374 24.2951 0.0000 -20.2417 0.0000
# 2 55.5374 86.5844 11.2428 0.0000 -10.0375 0.0000
# 3 24.2951 11.2428 102.4758 0.0000 5.0217 0.0000
# 4 0.0000 0.0000 0.0000 14.7334 0.0000 -4.0892
# 5 -20.2417 -10.0375 5.0217 0.0000 19.3129 0.0000
# 6 0.0000 0.0000 0.0000 -4.0892 0.0000 17.0695
#
#
#
# Elastic Compliance Matrix: (Units=1/GPa)
#
#
# Indices 1 2 3 4 5 6 
#
# 1 0.009299 -0.004794 -0.002060 0.000000 0.007791 0.000000
# 2 -0.004794 0.015055 -0.000661 0.000000 0.002972 0.000000
# 3 -0.002060 -0.000661 0.010577 0.000000 -0.005253 0.000000
# 4 0.000000 0.000000 0.000000 0.072707 0.000000 0.017418
# 5 0.007791 0.002972 -0.005253 0.000000 0.062855 0.000000
# 6 0.000000 0.000000 0.000000 0.017418 0.000000 0.062757
#
#
# Mechanical properties :
#
#
# Convention : Reuss Voigt Hill
#
# Bulk Modulus (GPa) = 50.25058 58.85764 54.55411
# Shear Modulus (GPa) = 19.61450 27.32268 23.46859
#
# Velocity S-wave (km/s) = 3.04541 3.59434 3.33120
# Velocity P-wave (km/s) = 6.01054 6.71238 6.37113
#
# Compressibility (1/GPa) = 0.01990027
#
# Stress axis : x y z
#
# Youngs Moduli (GPa) = 107.53567 66.42425 94.54641
#
# Poissons Ratio (x) = 0.31844 0.19481
# Poissons Ratio (y) = 0.51553 0.06247
# Poissons Ratio (z) = 0.22157 0.04389
#
# Static dielectric constant tensor:
#      x y z
#    x 1.792110 0.000000 0.010710 
#    y 0.000000 1.805760 0.000000 
#    z 0.010710 0.000000 1.800270 
# 
# From -- ./inp_files/12714.got.cif
#   From: 2010.05.17/outbox.cif.g08.bks.cpg/sg11_7_cif.got.tgz:12714.got - 2010.06.03 12:22:45.
