data_PCOD9165308
_publ_section_title
;
Structure prediction by ZEFSAII (Michael W. Deem and Ramdas Pophale) SiO2 
 PCOD9165308
Probable space group: P 21/M
;
_chemical_formula_sum "Si O2"
_cell_formula_units_Z 24
_cell_length_a 6.409879
_cell_length_b 21.452915
_cell_length_c 8.819483
_cell_angle_alpha 90.000000
_cell_angle_beta 79.656325
_cell_angle_gamma 90.000000
_cell_volume 1193.062883
_symmetry_space_group_name_H-M "P 21/M"
_symmetry_group_IT_number 11
_symmetry_cell_setting 'monoclinic'
loop_
_space_group_symop_operation_xyz
x,y,z
-x,1/2+y,-z
-x,-y,-z
x,1/2-y,z
loop_
_atom_site_type_symbol
_atom_site_label
_atom_site_fract_x
_atom_site_fract_y
_atom_site_fract_z
Si Si1 0.782993 0.678269 0.287222
Si Si2 0.048517 0.085758 0.169775
Si Si3 0.541228 0.906732 0.087901
Si Si4 0.345608 0.986787 0.718595
Si Si5 0.274728 0.419409 0.454068
Si Si6 0.172156 0.677013 0.008798
O O1 0.732452 0.750000 0.310882
O O2 0.618559 0.644747 0.197703
O O3 0.768640 0.642735 0.446758
O O4 0.008366 0.672528 0.171674
O O5 0.111910 0.079858 0.336851
O O6 0.863854 0.035382 0.168069
O O7 0.951655 0.151376 0.123082
O O8 0.261646 0.077557 0.045993
O O9 0.509546 0.968389 0.194772
O O10 0.356032 0.872833 0.020615
O O11 0.268269 0.025817 0.581537
O O12 0.489857 0.929267 0.645603
O O13 0.236034 0.750000 0.985695
#
# Coordination Sequence:
#
# PCOD9165308 Si02
#       6
#     4   4   4   4   4   4
#     4   9  20  39  61  83 109 151 199 239 286 343
#     4  11  22  37  58  87 118 152 190 237 293 344
#     4  10  21  38  62  85 114 152 194 241 289 343
#     4  10  22  39  58  87 120 155 194 234 286 347
#     4  10  22  37  58  87 121 154 190 238 288 344
#     4  10  22  40  61  85 113 148 196 245 289 341
#
# _framework density 20.116292999999999
#
# number of rings (size 3 to 8) (size 9 to 14) (size 15 to 20)
#    0.000    2.000    0.000    2.500    0.000   12.000 
#    0.000    2.500    0.000    0.000    0.000    0.000 
#    0.000    0.000    0.000    0.000    0.000    0.000 
#
# Total GULP energy -133905.311304 kJ/mol
# GULP energy per Si atom -5579.387971 kJ/mol
# Density = 2.007051 g / cm^3
# Si number density = 20.116293 Si / 1000 Ang^3
#
#
#
# Elastic Constant Matrix: (Units=GPa)
#
#
# Indices 1 2 3 4 5 6 
#
# 1 64.5789 44.8341 33.9971 0.0000 11.2899 0.0000
# 2 44.8341 98.5293 57.4122 0.0000 2.5431 0.0000
# 3 33.9971 57.4122 79.8818 0.0000 20.4395 0.0000
# 4 0.0000 0.0000 0.0000 29.8990 0.0000 -4.5938
# 5 11.2899 2.5431 20.4395 0.0000 31.4759 0.0000
# 6 0.0000 0.0000 0.0000 -4.5938 0.0000 28.0857
#
#
#
# Elastic Compliance Matrix: (Units=1/GPa)
#
#
# Indices 1 2 3 4 5 6 
#
# 1 0.024497 -0.010245 -0.001230 0.000000 -0.007160 0.000000
# 2 -0.010245 0.023648 -0.015695 0.000000 0.011956 0.000000
# 3 -0.001230 -0.015695 0.028644 0.000000 -0.016891 0.000000
# 4 0.000000 0.000000 0.000000 0.034308 0.000000 0.005612
# 5 -0.007160 0.011956 -0.016891 0.000000 0.044341 0.000000
# 6 0.000000 0.000000 0.000000 0.005612 0.000000 0.036523
#
#
# Mechanical properties :
#
#
# Convention : Reuss Voigt Hill
#
# Bulk Modulus (GPa) = 44.54687 57.27519 50.91103
# Shear Modulus (GPa) = 19.70162 25.00856 22.35509
#
# Velocity S-wave (km/s) = 3.13291 3.52973 3.33722
# Velocity P-wave (km/s) = 5.93966 6.71906 6.34135
#
# Compressibility (1/GPa) = 0.02244827
#
# Stress axis : x y z
#
# Youngs Moduli (GPa) = 40.82094 42.28688 34.91088
#
# Poissons Ratio (x) = 0.43324 0.04295
# Poissons Ratio (y) = 0.41823 0.54793
# Poissons Ratio (z) = 0.05022 0.66369
#
# Static dielectric constant tensor:
#      x y z
#    x 1.726420 0.000000 0.005560 
#    y 0.000000 1.704230 0.000000 
#    z 0.005560 0.000000 1.720930 
# 
# From -- ./inp_files/5321.got.cif
#   From: 2010.05.17/outbox.cif.g08.bks.cpg/sg11_3_cif.got.tgz:5321.got - 2010.06.03 12:22:45.
