data_PCOD9165850
_publ_section_title
;
Structure prediction by ZEFSAII (Michael W. Deem and Ramdas Pophale) SiO2 
 PCOD9165850
Probable space group: P 21/M
;
_chemical_formula_sum "Si O2"
_cell_formula_units_Z 28
_cell_length_a 5.745240
_cell_length_b 19.285868
_cell_length_c 10.630359
_cell_angle_alpha 90.000000
_cell_angle_beta 74.312236
_cell_angle_gamma 90.000000
_cell_volume 1133.988381
_symmetry_space_group_name_H-M "P 21/M"
_symmetry_group_IT_number 11
_symmetry_cell_setting 'monoclinic'
loop_
_space_group_symop_operation_xyz
x,y,z
-x,1/2+y,-z
-x,-y,-z
x,1/2-y,z
loop_
_atom_site_type_symbol
_atom_site_label
_atom_site_fract_x
_atom_site_fract_y
_atom_site_fract_z
Si Si1 0.815547 0.562083 0.000620
Si Si2 0.918193 0.945566 0.615689
Si Si3 0.209993 0.667585 0.941216
Si Si4 0.611143 0.407605 0.324682
Si Si5 0.523336 0.675110 0.411541
Si Si6 0.044565 0.863618 0.367157
Si Si7 0.337729 0.555831 0.142129
O O1 0.682008 0.522630 0.906973
O O2 0.941487 0.635006 0.959349
O O3 0.616184 0.566462 0.138957
O O4 0.000000 0.500000 0.000000
O O5 0.628656 0.951060 0.672838
O O6 0.122469 0.940620 0.694168
O O7 0.956827 0.875149 0.523845
O O8 0.000000 0.000000 0.500000
O O9 0.214219 0.750000 0.965135
O O10 0.354947 0.647852 0.792722
O O11 0.299527 0.617546 0.042525
O O12 0.546384 0.380900 0.473813
O O13 0.506469 0.750000 0.477030
O O14 0.307319 0.672886 0.340735
O O15 0.805994 0.666362 0.334589
O O16 0.130637 0.929722 0.273152
#
# Coordination Sequence:
#
# PCOD9165850 Si02
#       7
#     4   4   4   4   4   4   4
#     4   9  22  43  66  91 125 178 225 272 337 402
#     4  10  22  40  64  97 128 171 219 278 335 400
#     4  11  25  42  65  99 136 182 228 281 346 422
#     4  10  23  41  63  94 131 173 222 272 335 401
#     4  10  21  41  62  90 125 171 217 265 330 394
#     4  10  23  38  64  94 126 166 216 275 333 396
#     4  10  23  43  64  97 131 174 226 284 346 407
#
# _framework density 24.691611000000002
#
# number of rings (size 3 to 8) (size 9 to 14) (size 15 to 20)
#    0.000    2.000    0.000    1.286    8.000    4.000 
#    0.000    1.429    0.000    0.000    0.000    0.000 
#    0.000    0.000    0.000    0.000    0.000    0.000 
#
# Total GULP energy -155931.164785 kJ/mol
# GULP energy per Si atom -5568.970171 kJ/mol
# Density = 2.463541 g / cm^3
# Si number density = 24.691611 Si / 1000 Ang^3
#
#
#
# Elastic Constant Matrix: (Units=GPa)
#
#
# Indices 1 2 3 4 5 6 
#
# 1 201.5820 51.7089 33.5054 0.0000 -19.2274 0.0000
# 2 51.7089 108.1193 22.5374 0.0000 -3.6592 0.0000
# 3 33.5054 22.5374 73.5632 0.0000 -8.9866 0.0000
# 4 0.0000 0.0000 0.0000 28.1620 0.0000 0.3556
# 5 -19.2274 -3.6592 -8.9866 0.0000 43.7733 0.0000
# 6 0.0000 0.0000 0.0000 0.3556 0.0000 12.4696
#
#
#
# Elastic Compliance Matrix: (Units=1/GPa)
#
#
# Indices 1 2 3 4 5 6 
#
# 1 0.006089 -0.002474 -0.001758 0.000000 0.002107 0.000000
# 2 -0.002474 0.010887 -0.002288 0.000000 -0.000646 0.000000
# 3 -0.001758 -0.002288 0.015363 0.000000 0.002191 0.000000
# 4 0.000000 0.000000 0.000000 0.035522 0.000000 -0.001013
# 5 0.002107 -0.000646 0.002191 0.000000 0.024166 0.000000
# 6 0.000000 0.000000 0.000000 -0.001013 0.000000 0.080224
#
#
# Mechanical properties :
#
#
# Convention : Reuss Voigt Hill
#
# Bulk Modulus (GPa) = 51.81445 66.52978 59.17211
# Shear Modulus (GPa) = 26.07938 35.24851 30.66394
#
# Velocity S-wave (km/s) = 3.25346 3.78239 3.52785
# Velocity P-wave (km/s) = 5.92819 6.78808 6.37266
#
# Compressibility (1/GPa) = 0.01929964
#
# Stress axis : x y z
#
# Youngs Moduli (GPa) = 164.24333 91.85004 65.09234
#
# Poissons Ratio (x) = 0.22725 0.11442
# Poissons Ratio (y) = 0.40637 0.14890
# Poissons Ratio (z) = 0.28870 0.21011
#
# Static dielectric constant tensor:
#      x y z
#    x 2.134530 0.000000 0.004850 
#    y 0.000000 2.081810 0.000000 
#    z 0.004850 0.000000 2.121620 
# 
# From -- ./inp_files/29962.got.cif
#   From: 2010.05.17/outbox.cif.g08.bks.cpg/sg11_15_cif.got.tgz:29962.got - 2010.06.03 12:22:45.
