data_PCOD9165098
_publ_section_title
;
Structure prediction by ZEFSAII (Michael W. Deem and Ramdas Pophale) SiO2 
 PCOD9165098
Probable space group: P 21/M
;
_chemical_formula_sum "Si O2"
_cell_formula_units_Z 24
_cell_length_a 23.792331
_cell_length_b 7.631823
_cell_length_c 12.222551
_cell_angle_alpha 90.000000
_cell_angle_beta 153.295415
_cell_angle_gamma 90.000000
_cell_volume 997.357864
_symmetry_space_group_name_H-M "P 21/M"
_symmetry_group_IT_number 11
_symmetry_cell_setting 'monoclinic'
loop_
_space_group_symop_operation_xyz
x,y,z
-x,1/2+y,-z
-x,-y,-z
x,1/2-y,z
loop_
_atom_site_type_symbol
_atom_site_label
_atom_site_fract_x
_atom_site_fract_y
_atom_site_fract_z
Si Si1 0.469639 0.454854 0.098597
Si Si2 0.073501 0.956188 0.354705
Si Si3 0.290843 0.550178 0.597500
Si Si4 0.464359 0.042526 0.561601
Si Si5 0.801803 0.534811 0.955009
Si Si6 0.857727 0.957763 0.288108
O O1 0.464920 0.250000 0.059369
O O2 0.609324 0.526260 0.314228
O O3 0.450195 0.466784 0.193938
O O4 0.373090 0.549857 0.852112
O O5 0.059025 0.750000 0.306907
O O6 0.159502 0.032129 0.407153
O O7 0.148439 0.970566 0.600150
O O8 0.934019 0.026703 0.135093
O O9 0.266265 0.750000 0.519907
O O10 0.467279 0.250000 0.580341
O O11 0.320783 0.979081 0.322837
O O12 0.500000 0.000000 0.500000
O O13 0.805783 0.750000 0.964360
O O14 0.786521 0.477863 0.055696
O O15 0.839422 0.750000 0.264994
O O16 0.000000 0.000000 0.500000
#
# Coordination Sequence:
#
# PCOD9165098 Si02
#       6
#     4   4   4   4   4   4
#     4  10  21  38  57  81 113 146 182 227 273 323
#     4   9  17  32  54  80 105 135 176 224 275 322
#     4   9  19  36  60  85 109 140 182 229 276 325
#     4  11  23  39  57  79 109 148 188 224 271 328
#     4   8  17  33  51  73 106 141 175 218 269 322
#     4   9  16  28  46  72 104 139 173 213 264 316
#
# _framework density 24.063578
#
# number of rings (size 3 to 8) (size 9 to 14) (size 15 to 20)
#    0.000    2.667    0.000    2.500    2.333    1.333 
#    0.000    8.333    0.000    0.000    0.000    0.000 
#    0.000    0.000    0.000    0.000    0.000    0.000 
#
# Total GULP energy -133904.152737 kJ/mol
# GULP energy per Si atom -5579.339697 kJ/mol
# Density = 2.400881 g / cm^3
# Si number density = 24.063578 Si / 1000 Ang^3
#
#
#
# Elastic Constant Matrix: (Units=GPa)
#
#
# Indices 1 2 3 4 5 6 
#
# 1 99.1095 -6.2252 2.5948 0.0000 18.6659 0.0000
# 2 -6.2252 65.7355 -5.4341 0.0000 4.4114 0.0000
# 3 2.5948 -5.4341 61.7351 0.0000 -2.8279 0.0000
# 4 0.0000 0.0000 0.0000 9.8776 0.0000 -2.7804
# 5 18.6659 4.4114 -2.8279 0.0000 39.1184 0.0000
# 6 0.0000 0.0000 0.0000 -2.7804 0.0000 13.4790
#
#
#
# Elastic Compliance Matrix: (Units=1/GPa)
#
#
# Indices 1 2 3 4 5 6 
#
# 1 0.011241 0.001388 -0.000605 0.000000 -0.005564 0.000000
# 2 0.001388 0.015600 0.001208 0.000000 -0.002334 0.000000
# 3 -0.000605 0.001208 0.016391 0.000000 0.001337 0.000000
# 4 0.000000 0.000000 0.000000 0.107480 0.000000 0.022171
# 5 -0.005564 -0.002334 0.001337 0.000000 0.028578 0.000000
# 6 0.000000 0.000000 0.000000 0.022171 0.000000 0.078763
#
#
# Mechanical properties :
#
#
# Convention : Reuss Voigt Hill
#
# Bulk Modulus (GPa) = 21.18028 23.16123 22.17075
# Shear Modulus (GPa) = 18.53155 28.20463 23.36809
#
# Velocity S-wave (km/s) = 2.77809 3.42729 3.11963
# Velocity P-wave (km/s) = 4.37165 5.03067 4.71269
#
# Compressibility (1/GPa) = 0.04721374
#
# Stress axis : x y z
#
# Youngs Moduli (GPa) = 88.96196 64.10083 61.00805
#
# Poissons Ratio (x) = -0.08896 0.03692
# Poissons Ratio (y) = -0.12347 -0.07369
# Poissons Ratio (z) = 0.05384 -0.07743
#
# Static dielectric constant tensor:
#      x y z
#    x 1.973860 0.000000 0.038370 
#    y 0.000000 1.895020 0.000000 
#    z 0.038370 0.000000 1.959890 
# 
# From -- ./inp_files/44037.got.cif
#   From: 2010.05.17/outbox.cif.g08.bks.cpg/sg11_23_cif.got.tgz:44037.got - 2010.06.03 12:22:45.
