data_PCOD9165175
_publ_section_title
;
Structure prediction by ZEFSAII (Michael W. Deem and Ramdas Pophale) SiO2 
 PCOD9165175
Probable space group: P 21/M
;
_chemical_formula_sum "Si O2"
_cell_formula_units_Z 32
_cell_length_a 21.285641
_cell_length_b 8.728249
_cell_length_c 26.655286
_cell_angle_alpha 90.000000
_cell_angle_beta 20.767447
_cell_angle_gamma 90.000000
_cell_volume 1755.926248
_symmetry_space_group_name_H-M "P 21/M"
_symmetry_group_IT_number 11
_symmetry_cell_setting 'monoclinic'
loop_
_space_group_symop_operation_xyz
x,y,z
-x,1/2+y,-z
-x,-y,-z
x,1/2-y,z
loop_
_atom_site_type_symbol
_atom_site_label
_atom_site_fract_x
_atom_site_fract_y
_atom_site_fract_z
Si Si1 0.750105 0.067184 0.450949
Si Si2 0.303936 0.931997 0.151052
Si Si3 0.503354 0.433654 0.442144
Si Si4 0.805070 0.433862 0.139445
Si Si5 0.162121 0.433151 0.155474
Si Si6 0.517777 0.933950 0.158628
Si Si7 0.521892 0.434502 0.267547
Si Si8 0.187041 0.066854 0.342944
O O1 0.724847 0.250000 0.471811
O O2 0.959042 0.035823 0.293187
O O3 0.655228 0.999651 0.472921
O O4 0.649479 0.993966 0.573824
O O5 0.310521 0.750000 0.153577
O O6 0.206443 0.975337 0.172637
O O7 0.216873 0.011420 0.263946
O O8 0.500000 0.000000 0.000000
O O9 0.500000 0.500000 0.500000
O O10 0.492560 0.250000 0.451217
O O11 0.682089 0.476777 0.278610
O O12 0.816920 0.250000 0.129205
O O13 0.693056 0.480822 0.173563
O O14 0.000000 0.500000 0.000000
O O15 0.179661 0.250000 0.152241
O O16 0.305563 0.471631 0.005450
O O17 0.501324 0.750000 0.172593
O O18 0.528435 0.998675 0.206912
O O19 0.348239 0.002191 0.256208
O O20 0.516209 0.250000 0.270053
O O21 0.186836 0.250000 0.345965
O O22 0.000000 0.000000 0.500000
#
# Coordination Sequence:
#
# PCOD9165175 Si02
#       8
#     4   4   4   4   4   4   4   4
#     4  10  21  39  62  89 119 156 200 245 296 356
#     4  12  24  41  65  91 122 160 202 250 305 360
#     4  10  21  38  59  87 121 156 196 244 295 352
#     4   9  20  37  58  85 117 154 197 244 292 348
#     4  10  23  41  62  88 121 157 201 249 301 359
#     4  11  23  41  63  88 120 158 200 248 300 355
#     4  10  22  40  59  85 122 159 198 246 297 356
#     4  12  26  44  65  91 122 158 202 252 304 362
#
# _framework density 18.224001000000001
#
# number of rings (size 3 to 8) (size 9 to 14) (size 15 to 20)
#    0.000    1.500    1.250    4.500    1.750    5.500 
#    0.000    3.750    0.000    0.000    0.000    0.000 
#    0.000    0.000    0.000    0.000    0.000    0.000 
#
# Total GULP energy -178832.880111 kJ/mol
# GULP energy per Si atom -5588.527503 kJ/mol
# Density = 1.818252 g / cm^3
# Si number density = 18.224001 Si / 1000 Ang^3
#
#
#
# Elastic Constant Matrix: (Units=GPa)
#
#
# Indices 1 2 3 4 5 6 
#
# 1 165.2354 77.4609 102.9916 0.0000 19.7158 0.0000
# 2 77.4609 101.8461 81.7757 0.0000 0.3408 0.0000
# 3 102.9916 81.7757 173.3814 0.0000 -3.0270 0.0000
# 4 0.0000 0.0000 0.0000 28.9998 0.0000 -2.2451
# 5 19.7158 0.3408 -3.0270 0.0000 29.0949 0.0000
# 6 0.0000 0.0000 0.0000 -2.2451 0.0000 38.0985
#
#
#
# Elastic Compliance Matrix: (Units=1/GPa)
#
#
# Indices 1 2 3 4 5 6 
#
# 1 0.013144 -0.005738 -0.005265 0.000000 -0.009387 0.000000
# 2 -0.005738 0.018335 -0.005185 0.000000 0.003134 0.000000
# 3 -0.005265 -0.005185 0.011425 0.000000 0.004817 0.000000
# 4 0.000000 0.000000 0.000000 0.034641 0.000000 0.002041
# 5 -0.009387 0.003134 0.004817 0.000000 0.041196 0.000000
# 6 0.000000 0.000000 0.000000 0.002041 0.000000 0.026368
#
#
# Mechanical properties :
#
#
# Convention : Reuss Voigt Hill
#
# Bulk Modulus (GPa) = 94.98309 107.21326 101.09818
# Shear Modulus (GPa) = 27.62527 31.12096 29.37312
#
# Velocity S-wave (km/s) = 3.89765 4.13691 4.01906
# Velocity P-wave (km/s) = 8.51401 9.04307 8.78253
#
# Compressibility (1/GPa) = 0.01052819
#
# Stress axis : x y z
#
# Youngs Moduli (GPa) = 76.08237 54.53995 87.52795
#
# Poissons Ratio (x) = 0.31292 0.46086
# Poissons Ratio (y) = 0.43652 0.45383
# Poissons Ratio (z) = 0.40060 0.28279
#
# Static dielectric constant tensor:
#      x y z
#    x 1.594710 0.000000 -0.005540 
#    y 0.000000 1.611140 0.000000 
#    z -0.005540 0.000000 1.609170 
# 
# From -- ./inp_files/72084.got.cif
#   From: 2010.05.17/outbox.cif.g08.bks.cpg/sg11_37_cif.got.tgz:72084.got - 2010.06.03 12:22:45.
