data_PCOD9165600
_publ_section_title
;
Structure prediction by ZEFSAII (Michael W. Deem and Ramdas Pophale) SiO2 
 PCOD9165600
Probable space group: P 21/M
;
_chemical_formula_sum "Si O2"
_cell_formula_units_Z 32
_cell_length_a 15.963698
_cell_length_b 16.770646
_cell_length_c 12.057455
_cell_angle_alpha 90.000000
_cell_angle_beta 150.806354
_cell_angle_gamma 90.000000
_cell_volume 1574.518127
_symmetry_space_group_name_H-M "P 21/M"
_symmetry_group_IT_number 11
_symmetry_cell_setting 'monoclinic'
loop_
_space_group_symop_operation_xyz
x,y,z
-x,1/2+y,-z
-x,-y,-z
x,1/2-y,z
loop_
_atom_site_type_symbol
_atom_site_label
_atom_site_fract_x
_atom_site_fract_y
_atom_site_fract_z
Si Si1 0.299866 0.084827 0.959120
Si Si2 0.848512 0.448858 0.770731
Si Si3 0.610689 0.659212 0.155349
Si Si4 0.007485 0.387695 0.330501
Si Si5 0.951394 0.422086 0.653951
Si Si6 0.734230 0.418173 0.195225
Si Si7 0.500715 0.980331 0.369383
Si Si8 0.738757 0.341426 0.847982
O O1 0.403618 0.045259 0.180669
O O2 0.390919 0.143935 0.979445
O O3 0.123297 0.117675 0.805148
O O4 0.253481 0.010736 0.824067
O O5 0.912518 0.404359 0.735490
O O6 0.698540 0.511408 0.564183
O O7 0.773638 0.385996 0.772220
O O8 0.000000 0.500000 0.000000
O O9 0.567385 0.750000 0.129255
O O10 0.802771 0.641063 0.420098
O O11 0.463530 0.606232 0.042028
O O12 0.013825 0.482327 0.311973
O O13 0.873332 0.376005 0.276905
O O14 0.916302 0.346324 0.121406
O O15 0.795746 0.405581 0.391534
O O16 0.399424 0.896776 0.245994
O O17 0.500000 0.000000 0.500000
O O18 0.684106 0.250000 0.772966
#
# Coordination Sequence:
#
# PCOD9165600 Si02
#       8
#     4   4   4   4   4   4   4   4
#     4  11  20  41  65  91 124 166 218 261 316 388
#     4  11  22  39  65  95 128 168 224 264 318 393
#     4  12  26  39  59  97 136 172 211 263 332 391
#     4  11  21  41  66  95 129 167 210 270 325 385
#     4  11  19  38  68  95 119 163 223 267 309 378
#     4  11  22  39  64  93 126 166 217 261 317 388
#     4  10  21  39  64  92 119 167 218 263 309 390
#     4  11  23  42  65  94 132 169 209 276 339 380
#
# _framework density 20.323678000000001
#
# number of rings (size 3 to 8) (size 9 to 14) (size 15 to 20)
#    0.000    1.000    6.250    3.000    1.750    1.000 
#    0.000    6.875    0.000    0.000    0.000    0.000 
#    0.000    0.000    0.000    0.000    0.000    0.000 
#
# Total GULP energy -178696.177171 kJ/mol
# GULP energy per Si atom -5584.255537 kJ/mol
# Density = 2.027742 g / cm^3
# Si number density = 20.323678 Si / 1000 Ang^3
#
#
#
# Elastic Constant Matrix: (Units=GPa)
#
#
# Indices 1 2 3 4 5 6 
#
# 1 101.0213 3.0401 32.4375 0.0000 5.3899 0.0000
# 2 3.0401 47.4734 6.1697 0.0000 6.6371 0.0000
# 3 32.4375 6.1697 120.2276 0.0000 7.6546 0.0000
# 4 0.0000 0.0000 0.0000 6.4422 0.0000 -0.3568
# 5 5.3899 6.6371 7.6546 0.0000 43.7326 0.0000
# 6 0.0000 0.0000 0.0000 -0.3568 0.0000 8.9089
#
#
#
# Elastic Compliance Matrix: (Units=1/GPa)
#
#
# Indices 1 2 3 4 5 6 
#
# 1 0.010870 -0.000210 -0.002871 0.000000 -0.000805 0.000000
# 2 -0.000210 0.021623 -0.000855 0.000000 -0.003106 0.000000
# 3 -0.002871 -0.000855 0.009208 0.000000 -0.001128 0.000000
# 4 0.000000 0.000000 0.000000 0.155571 0.000000 0.006230
# 5 -0.000805 -0.003106 -0.001128 0.000000 0.023634 0.000000
# 6 0.000000 0.000000 0.000000 0.006230 0.000000 0.112496
#
#
# Mechanical properties :
#
#
# Convention : Reuss Voigt Hill
#
# Bulk Modulus (GPa) = 29.56073 39.11296 34.33685
# Shear Modulus (GPa) = 14.18233 26.95508 20.56870
#
# Velocity S-wave (km/s) = 2.64450 3.64578 3.18473
# Velocity P-wave (km/s) = 4.88887 6.08351 5.51861
#
# Compressibility (1/GPa) = 0.03382866
#
# Stress axis : x y z
#
# Youngs Moduli (GPa) = 91.99668 46.24641 108.60403
#
# Poissons Ratio (x) = 0.00973 0.31176
# Poissons Ratio (y) = 0.01936 0.09287
# Poissons Ratio (z) = 0.26409 0.03955
#
# Static dielectric constant tensor:
#      x y z
#    x 1.753200 0.000000 -0.000650 
#    y 0.000000 1.750350 0.000000 
#    z -0.000650 0.000000 1.745890 
# 
# From -- ./inp_files/40043.got.cif
#   From: 2010.05.17/outbox.cif.g08.bks.cpg/sg11_21_cif.got.tgz:40043.got - 2010.06.03 12:22:45.
