data_PCOD9165135
_publ_section_title
;
Structure prediction by ZEFSAII (Michael W. Deem and Ramdas Pophale) SiO2 
 PCOD9165135
Probable space group: P 21/M
;
_chemical_formula_sum "Si O2"
_cell_formula_units_Z 30
_cell_length_a 19.273456
_cell_length_b 13.814046
_cell_length_c 12.862168
_cell_angle_alpha 90.000000
_cell_angle_beta 25.436573
_cell_angle_gamma 90.000000
_cell_volume 1470.854227
_symmetry_space_group_name_H-M "P 21/M"
_symmetry_group_IT_number 11
_symmetry_cell_setting 'monoclinic'
loop_
_space_group_symop_operation_xyz
x,y,z
-x,1/2+y,-z
-x,-y,-z
x,1/2-y,z
loop_
_atom_site_type_symbol
_atom_site_label
_atom_site_fract_x
_atom_site_fract_y
_atom_site_fract_z
Si Si1 0.995898 0.140540 0.591259
Si Si2 0.500000 0.500000 0.000000
Si Si3 0.487546 0.636499 0.440439
Si Si4 0.286642 0.137804 0.677697
Si Si5 0.037932 0.561697 0.797396
Si Si6 0.124111 0.859564 0.017609
Si Si7 0.614200 0.477307 0.609719
Si Si8 0.155666 0.939413 0.412074
O O1 0.062668 0.250000 0.496974
O O2 0.903052 0.116039 0.610633
O O3 0.883461 0.135612 0.846164
O O4 0.126189 0.055116 0.431872
O O5 0.460301 0.508670 0.177684
O O6 0.341798 0.569864 0.187836
O O7 0.518506 0.750000 0.381043
O O8 0.611628 0.601757 0.359989
O O9 0.305062 0.627129 0.731087
O O10 0.497418 0.580167 0.319413
O O11 0.321049 0.250000 0.617132
O O12 0.343078 0.078250 0.502494
O O13 0.100870 0.119818 0.957171
O O14 0.212483 0.575539 0.612070
O O15 0.053136 0.586258 0.654165
O O16 0.986596 0.447885 0.871555
O O17 0.069270 0.750000 0.063262
#
# Coordination Sequence:
#
# PCOD9165135 Si02
#       8
#     4   2   4   4   4   4   4   4
#     4   9  18  34  59  86 115 157 203 248 293 347
#     4  10  24  42  62  86 124 164 200 244 300 362
#     4  10  22  38  60  90 118 153 198 245 302 352
#     4  11  24  39  61  93 120 152 199 250 297 351
#     4  10  21  38  58  87 118 156 196 238 297 357
#     4   9  18  33  58  88 118 150 196 245 294 353
#     4  11  23  42  62  87 121 162 197 244 300 356
#     4   9  20  38  58  84 120 157 201 244 295 353
#
# _framework density 20.396311000000001
#
# number of rings (size 3 to 8) (size 9 to 14) (size 15 to 20)
#    0.000    2.133    1.333    0.800    1.867    3.733 
#    0.000    7.333    0.000    0.000    0.000    0.000 
#    0.000    0.000    0.000    0.000    0.000    0.000 
#
# Total GULP energy -167041.642499 kJ/mol
# GULP energy per Si atom -5568.054750 kJ/mol
# Density = 2.034989 g / cm^3
# Si number density = 20.396311 Si / 1000 Ang^3
#
#
#
# Elastic Constant Matrix: (Units=GPa)
#
#
# Indices 1 2 3 4 5 6 
#
# 1 93.1019 8.4638 19.1175 0.0000 24.8904 0.0000
# 2 8.4638 42.4725 -8.3911 0.0000 9.5420 0.0000
# 3 19.1175 -8.3911 56.6508 0.0000 20.0369 0.0000
# 4 0.0000 0.0000 0.0000 10.9735 0.0000 -0.7906
# 5 24.8904 9.5420 20.0369 0.0000 19.5730 0.0000
# 6 0.0000 0.0000 0.0000 -0.7906 0.0000 6.2070
#
#
#
# Elastic Compliance Matrix: (Units=1/GPa)
#
#
# Indices 1 2 3 4 5 6 
#
# 1 0.017040 0.004078 0.005049 0.000000 -0.028826 0.000000
# 2 0.004078 0.035824 0.018719 0.000000 -0.041813 0.000000
# 3 0.005049 0.018719 0.037966 0.000000 -0.054412 0.000000
# 4 0.000000 0.000000 0.000000 0.091973 0.000000 0.011715
# 5 -0.028826 -0.041813 -0.054412 0.000000 0.163834 0.000000
# 6 0.000000 0.000000 0.000000 0.011715 0.000000 0.162600
#
#
# Mechanical properties :
#
#
# Convention : Reuss Voigt Hill
#
# Bulk Modulus (GPa) = 6.82492 25.62286 16.22389
# Shear Modulus (GPa) = 9.95255 18.88637 14.41946
#
# Velocity S-wave (km/s) = 2.21137 3.04628 2.66176
# Velocity P-wave (km/s) = 3.14224 4.99628 4.17352
#
# Compressibility (1/GPa) = 0.14652183
#
# Stress axis : x y z
#
# Youngs Moduli (GPa) = 58.68581 27.91430 26.33949
#
# Poissons Ratio (x) = -0.11383 -0.13299
# Poissons Ratio (y) = -0.23932 -0.49305
# Poissons Ratio (z) = -0.29632 -0.52252
#
# Static dielectric constant tensor:
#      x y z
#    x 1.723430 0.000000 -0.015190 
#    y 0.000000 1.736990 0.000000 
#    z -0.015190 0.000000 1.703510 
# 
# From -- ./inp_files/41558.got.cif
#   From: 2010.05.17/outbox.cif.g08.bks.cpg/sg11_21_cif.got.tgz:41558.got - 2010.06.03 12:22:45.
