data_PCOD9165716
_publ_section_title
;
Structure prediction by ZEFSAII (Michael W. Deem and Ramdas Pophale) SiO2 
 PCOD9165716
Probable space group: P 21/M
;
_chemical_formula_sum "Si O2"
_cell_formula_units_Z 32
_cell_length_a 24.321122
_cell_length_b 8.608273
_cell_length_c 14.757079
_cell_angle_alpha 90.000000
_cell_angle_beta 147.959558
_cell_angle_gamma 90.000000
_cell_volume 1639.079194
_symmetry_space_group_name_H-M "P 21/M"
_symmetry_group_IT_number 11
_symmetry_cell_setting 'monoclinic'
loop_
_space_group_symop_operation_xyz
x,y,z
-x,1/2+y,-z
-x,-y,-z
x,1/2-y,z
loop_
_atom_site_type_symbol
_atom_site_label
_atom_site_fract_x
_atom_site_fract_y
_atom_site_fract_z
Si Si1 0.620835 0.937215 0.261742
Si Si2 0.381720 0.937380 0.935991
Si Si3 0.045947 0.434588 0.657181
Si Si4 0.391874 0.435730 0.311807
Si Si5 0.806897 0.939268 0.644798
Si Si6 0.277425 0.936729 0.978225
Si Si7 0.012311 0.064562 0.239049
Si Si8 0.187561 0.437332 0.139752
O O1 0.621559 0.750000 0.261031
O O2 0.699143 0.989480 0.448990
O O3 0.656138 0.996299 0.212597
O O4 0.502333 0.987252 0.112720
O O5 0.379409 0.750000 0.928262
O O6 0.318345 0.985166 0.936071
O O7 0.046931 0.250000 0.655559
O O8 0.163168 0.495489 0.833935
O O9 0.979785 0.490660 0.650872
O O10 0.000000 0.500000 0.500000
O O11 0.500000 0.500000 0.500000
O O12 0.398329 0.250000 0.312148
O O13 0.299343 0.472108 0.253121
O O14 0.355544 0.506433 0.165280
O O15 0.807098 0.750000 0.646759
O O16 0.819114 0.989532 0.765303
O O17 0.899688 0.988480 0.708448
O O18 0.271975 0.750000 0.973273
O O19 0.018565 0.250000 0.256514
O O20 0.902163 0.016347 0.043496
O O21 0.173363 0.250000 0.115759
#
# Coordination Sequence:
#
# PCOD9165716 Si02
#       8
#     4   4   4   4   4   4   4   4
#     4   9  18  36  59  84 116 155 196 243 292 352
#     4   9  20  36  58  85 118 156 194 240 298 353
#     4  12  26  44  65  91 124 164 206 253 310 370
#     4  11  24  40  63  92 125 166 209 255 309 364
#     4   9  20  36  60  89 115 153 203 248 300 358
#     4  11  23  41  65  94 126 161 204 254 308 370
#     4  11  22  39  62  90 122 156 199 251 305 362
#     4  10  21  40  63  86 118 160 203 249 305 365
#
# _framework density 19.523156
#
# number of rings (size 3 to 8) (size 9 to 14) (size 15 to 20)
#    0.000    1.750    1.250    2.625    3.500    1.500 
#    0.000    1.875    0.000    0.000    0.000    0.000 
#    0.000    0.000    0.000    0.000    0.000    0.000 
#
# Total GULP energy -178834.163067 kJ/mol
# GULP energy per Si atom -5588.567596 kJ/mol
# Density = 1.947872 g / cm^3
# Si number density = 19.523156 Si / 1000 Ang^3
#
#
#
# Elastic Constant Matrix: (Units=GPa)
#
#
# Indices 1 2 3 4 5 6 
#
# 1 95.4156 17.3133 -8.0365 0.0000 -25.1924 0.0000
# 2 17.3133 38.1872 7.4381 0.0000 -5.6920 0.0000
# 3 -8.0365 7.4381 54.6050 0.0000 -23.6449 0.0000
# 4 0.0000 0.0000 0.0000 27.7500 0.0000 -7.6948
# 5 -25.1924 -5.6920 -23.6449 0.0000 32.5221 0.0000
# 6 0.0000 0.0000 0.0000 -7.6948 0.0000 24.8841
#
#
#
# Elastic Compliance Matrix: (Units=1/GPa)
#
#
# Indices 1 2 3 4 5 6 
#
# 1 0.019587 -0.008083 0.014509 0.000000 0.024306 0.000000
# 2 -0.008083 0.030436 -0.008378 0.000000 -0.007026 0.000000
# 3 0.014509 -0.008378 0.037686 0.000000 0.037172 0.000000
# 4 0.000000 0.000000 0.000000 0.039416 0.000000 0.012188
# 5 0.024306 -0.007026 0.037172 0.000000 0.075372 0.000000
# 6 0.000000 0.000000 0.000000 0.012188 0.000000 0.043955
#
#
# Mechanical properties :
#
#
# Convention : Reuss Voigt Hill
#
# Bulk Modulus (GPa) = 11.93262 24.62641 18.27951
# Shear Modulus (GPa) = 17.96677 28.46409 23.21543
#
# Velocity S-wave (km/s) = 3.03690 3.82247 3.45211
# Velocity P-wave (km/s) = 4.29213 5.66772 5.02720
#
# Compressibility (1/GPa) = 0.08380392
#
# Stress axis : x y z
#
# Youngs Moduli (GPa) = 51.05501 32.85558 26.53511
#
# Poissons Ratio (x) = 0.26558 -0.38499
# Poissons Ratio (y) = 0.41269 0.22231
# Poissons Ratio (z) = -0.74074 0.27526
#
# Static dielectric constant tensor:
#      x y z
#    x 1.679620 0.000000 0.008760 
#    y 0.000000 1.658490 0.000000 
#    z 0.008760 0.000000 1.658720 
# 
# From -- ./inp_files/55581.got.cif
#   From: 2010.05.17/outbox.cif.g08.bks.cpg/sg11_28_cif.got.tgz:55581.got - 2010.06.03 12:22:45.
