data_PCOD9165130
_publ_section_title
;
Structure prediction by ZEFSAII (Michael W. Deem and Ramdas Pophale) SiO2 
 PCOD9165130
Probable space group: P 21/M
;
_chemical_formula_sum "Si O2"
_cell_formula_units_Z 24
_cell_length_a 15.078265
_cell_length_b 13.878159
_cell_length_c 5.360794
_cell_angle_alpha 90.000000
_cell_angle_beta 96.313950
_cell_angle_gamma 90.000000
_cell_volume 1114.987472
_symmetry_space_group_name_H-M "P 21/M"
_symmetry_group_IT_number 11
_symmetry_cell_setting 'monoclinic'
loop_
_space_group_symop_operation_xyz
x,y,z
-x,1/2+y,-z
-x,-y,-z
x,1/2-y,z
loop_
_atom_site_type_symbol
_atom_site_label
_atom_site_fract_x
_atom_site_fract_y
_atom_site_fract_z
Si Si1 0.741900 0.550228 0.115016
Si Si2 0.729256 0.428961 0.615184
Si Si3 0.937976 0.949057 0.184053
Si Si4 0.556089 0.864341 0.922972
Si Si5 0.530623 0.364437 0.602305
Si Si6 0.910004 0.145108 0.484310
O O1 0.732946 0.508980 0.394009
O O2 0.840538 0.593447 0.098285
O O3 0.657642 0.616740 0.031333
O O4 0.735712 0.468999 0.897938
O O5 0.633357 0.379660 0.564252
O O6 0.816165 0.362932 0.599505
O O7 0.001167 0.868892 0.324346
O O8 0.913544 0.044737 0.335730
O O9 0.000000 0.000000 0.000000
O O10 0.541449 0.750000 0.900664
O O11 0.494358 0.901530 0.130186
O O12 0.530812 0.903774 0.641601
O O13 0.514240 0.250000 0.612059
O O14 0.912972 0.250000 0.356834
#
# Coordination Sequence:
#
# PCOD9165130 Si02
#       6
#     4   4   4   4   4   4
#     4  11  23  38  63  86 120 159 199 253 307 362
#     4  11  22  38  61  91 119 157 199 251 309 366
#     4  10  21  42  62  88 129 161 203 266 312 367
#     4  10  22  39  57  83 119 159 201 246 298 364
#     4  10  21  38  58  84 122 157 196 250 299 357
#     4  10  22  40  64  92 123 163 208 255 316 380
#
# _framework density 21.524906999999999
#
# number of rings (size 3 to 8) (size 9 to 14) (size 15 to 20)
#    0.000    1.667    1.667    2.500    0.000    5.333 
#    0.000    1.667    0.000    0.000    0.000    0.000 
#    0.000    0.000    0.000    0.000    0.000    0.000 
#
# Total GULP energy -133809.887346 kJ/mol
# GULP energy per Si atom -5575.411973 kJ/mol
# Density = 2.147592 g / cm^3
# Si number density = 21.524907 Si / 1000 Ang^3
#
#
#
# Elastic Constant Matrix: (Units=GPa)
#
#
# Indices 1 2 3 4 5 6 
#
# 1 122.4004 -7.0752 44.8427 0.0000 1.8194 0.0000
# 2 -7.0752 52.4432 11.0060 0.0000 -5.6823 0.0000
# 3 44.8427 11.0060 57.2760 0.0000 -3.2504 0.0000
# 4 0.0000 0.0000 0.0000 15.9101 0.0000 4.5571
# 5 1.8194 -5.6823 -3.2504 0.0000 37.6953 0.0000
# 6 0.0000 0.0000 0.0000 4.5571 0.0000 16.5868
#
#
#
# Elastic Compliance Matrix: (Units=1/GPa)
#
#
# Indices 1 2 3 4 5 6 
#
# 1 0.012167 0.003701 -0.010289 0.000000 -0.000917 0.000000
# 2 0.003701 0.021269 -0.006847 0.000000 0.002437 0.000000
# 3 -0.010289 -0.006847 0.026932 0.000000 0.001787 0.000000
# 4 0.000000 0.000000 0.000000 0.068222 0.000000 -0.018744
# 5 -0.000917 0.002437 0.001787 0.000000 0.027094 0.000000
# 6 0.000000 0.000000 0.000000 -0.018744 0.000000 0.065438
#
#
# Mechanical properties :
#
#
# Convention : Reuss Voigt Hill
#
# Bulk Modulus (GPa) = 29.85159 36.62963 33.24061
# Shear Modulus (GPa) = 19.29333 26.26151 22.77742
#
# Velocity S-wave (km/s) = 2.99712 3.49671 3.25651
# Velocity P-wave (km/s) = 5.08679 5.77555 5.44208
#
# Compressibility (1/GPa) = 0.03349906
#
# Stress axis : x y z
#
# Youngs Moduli (GPa) = 82.18944 47.01776 37.13067
#
# Poissons Ratio (x) = -0.17404 0.38204
# Poissons Ratio (y) = -0.30422 0.25422
# Poissons Ratio (z) = 0.84566 0.32191
#
# Static dielectric constant tensor:
#      x y z
#    x 1.838290 0.000000 0.012820 
#    y 0.000000 1.794270 0.000000 
#    z 0.012820 0.000000 1.856580 
# 
# From -- ./inp_files/6468.got.cif
#   From: 2010.05.17/outbox.cif.g08.bks.cpg/sg11_4_cif.got.tgz:6468.got - 2010.06.03 12:22:45.
