data_PCOD9165054
_publ_section_title
;
Structure prediction by ZEFSAII (Michael W. Deem and Ramdas Pophale) SiO2 
 PCOD9165054
Probable space group: P 21/M
;
_chemical_formula_sum "Si O2"
_cell_formula_units_Z 24
_cell_length_a 18.143020
_cell_length_b 15.410389
_cell_length_c 9.959554
_cell_angle_alpha 90.000000
_cell_angle_beta 155.872737
_cell_angle_gamma 90.000000
_cell_volume 1138.247033
_symmetry_space_group_name_H-M "P 21/M"
_symmetry_group_IT_number 11
_symmetry_cell_setting 'monoclinic'
loop_
_space_group_symop_operation_xyz
x,y,z
-x,1/2+y,-z
-x,-y,-z
x,1/2-y,z
loop_
_atom_site_type_symbol
_atom_site_label
_atom_site_fract_x
_atom_site_fract_y
_atom_site_fract_z
Si Si1 0.770520 0.016137 0.415426
Si Si2 0.886101 0.967401 0.185014
Si Si3 0.697693 0.147107 0.536635
Si Si4 0.110048 0.344641 0.264173
Si Si5 0.457064 0.504190 0.236094
Si Si6 0.731804 0.843450 0.759490
O O1 0.764813 0.921946 0.475704
O O2 0.720612 0.092639 0.435412
O O3 0.646246 0.019160 0.077298
O O4 0.979517 0.016890 0.715088
O O5 0.692646 0.008643 0.895804
O O6 0.831934 0.867965 0.064213
O O7 0.000000 0.000000 0.500000
O O8 0.654059 0.250000 0.447722
O O9 0.555406 0.089177 0.383849
O O10 0.896975 0.143224 0.934969
O O11 0.165312 0.250000 0.410185
O O12 0.132425 0.340783 0.140599
O O13 0.597590 0.579998 0.497224
O O14 0.641652 0.750000 0.619109
#
# Coordination Sequence:
#
# PCOD9165054 Si02
#       6
#     4   4   4   4   4   4
#     4  11  21  41  63  90 128 168 208 259 312 377
#     4  10  23  42  65  88 125 168 211 254 316 378
#     4  11  22  37  61  91 123 164 214 262 309 363
#     4  10  21  37  63  94 123 165 214 261 313 370
#     4  11  24  40  61  97 128 166 206 261 317 369
#     4  11  22  40  66  94 127 167 210 259 314 375
#
# _framework density 21.085055000000001
#
# number of rings (size 3 to 8) (size 9 to 14) (size 15 to 20)
#    0.000    1.333    3.333    2.500    0.000    2.000 
#    0.000    7.500    0.000    1.000    0.000    0.000 
#    0.000    0.000    0.000    0.000    0.000    0.000 
#
# Total GULP energy -133691.593101 kJ/mol
# GULP energy per Si atom -5570.483046 kJ/mol
# Density = 2.103706 g / cm^3
# Si number density = 21.085055 Si / 1000 Ang^3
#
#
#
# Elastic Constant Matrix: (Units=GPa)
#
#
# Indices 1 2 3 4 5 6 
#
# 1 67.8708 40.8823 30.0495 0.0000 9.0104 0.0000
# 2 40.8823 184.5451 61.2434 0.0000 -12.5911 0.0000
# 3 30.0495 61.2434 78.6109 0.0000 11.8740 0.0000
# 4 0.0000 0.0000 0.0000 8.8985 0.0000 1.9758
# 5 9.0104 -12.5911 11.8740 0.0000 49.8474 0.0000
# 6 0.0000 0.0000 0.0000 1.9758 0.0000 15.0695
#
#
#
# Elastic Compliance Matrix: (Units=1/GPa)
#
#
# Indices 1 2 3 4 5 6 
#
# 1 0.018878 -0.002901 -0.004491 0.000000 -0.003075 0.000000
# 2 -0.002901 0.008326 -0.005990 0.000000 0.004054 0.000000
# 3 -0.004491 -0.005990 0.019927 0.000000 -0.005448 0.000000
# 4 0.000000 0.000000 0.000000 0.115748 0.000000 -0.015176
# 5 -0.003075 0.004054 -0.005448 0.000000 0.022939 0.000000
# 6 0.000000 0.000000 0.000000 -0.015176 0.000000 0.068349
#
#
# Mechanical properties :
#
#
# Convention : Reuss Voigt Hill
#
# Bulk Modulus (GPa) = 49.10109 66.15304 57.62707
# Shear Modulus (GPa) = 17.37790 28.01984 22.69887
#
# Velocity S-wave (km/s) = 2.87397 3.64936 3.28462
# Velocity P-wave (km/s) = 5.86094 7.01424 6.46337
#
# Compressibility (1/GPa) = 0.02036615
#
# Stress axis : x y z
#
# Youngs Moduli (GPa) = 52.97053 120.10764 50.18297
#
# Poissons Ratio (x) = 0.34848 0.22539
# Poissons Ratio (y) = 0.15369 0.30058
# Poissons Ratio (z) = 0.23791 0.71941
#
# Static dielectric constant tensor:
#      x y z
#    x 1.821260 0.000000 0.005290 
#    y 0.000000 1.761490 0.000000 
#    z 0.005290 0.000000 1.781410 
# 
# From -- ./inp_files/43435.got.cif
#   From: 2010.05.17/outbox.cif.g08.bks.cpg/sg11_22_cif.got.tgz:43435.got - 2010.06.03 12:22:45.
