data_PCOD9165139
_publ_section_title
;
Structure prediction by ZEFSAII (Michael W. Deem and Ramdas Pophale) SiO2 
 PCOD9165139
Probable space group: P 21/M
;
_chemical_formula_sum "Si O2"
_cell_formula_units_Z 28
_cell_length_a 9.396954
_cell_length_b 8.812072
_cell_length_c 29.831280
_cell_angle_alpha 90.000000
_cell_angle_beta 38.188385
_cell_angle_gamma 90.000000
_cell_volume 1527.216124
_symmetry_space_group_name_H-M "P 21/M"
_symmetry_group_IT_number 11
_symmetry_cell_setting 'monoclinic'
loop_
_space_group_symop_operation_xyz
x,y,z
-x,1/2+y,-z
-x,-y,-z
x,1/2-y,z
loop_
_atom_site_type_symbol
_atom_site_label
_atom_site_fract_x
_atom_site_fract_y
_atom_site_fract_z
Si Si1 0.003001 0.933085 0.861077
Si Si2 0.464151 0.432799 0.280854
Si Si3 0.840792 0.566740 0.000519
Si Si4 0.074476 0.931081 0.434360
Si Si5 0.246871 0.931973 0.563027
Si Si6 0.692422 0.431414 0.859425
Si Si7 0.848198 0.568756 0.727724
O O1 0.989061 0.750000 0.862406
O O2 0.268848 0.975412 0.786783
O O3 0.836361 0.000815 0.864900
O O4 0.928663 0.979771 0.929511
O O5 0.445206 0.250000 0.290576
O O6 0.322435 0.511071 0.355688
O O7 0.336770 0.471179 0.265412
O O8 0.852034 0.750000 0.000070
O O9 0.575021 0.520031 0.072091
O O10 0.000000 0.500000 0.000000
O O11 0.069703 0.750000 0.437072
O O12 0.000000 0.000000 0.500000
O O13 0.896782 0.994220 0.441579
O O14 0.252000 0.750000 0.556384
O O15 0.098584 0.964591 0.644571
O O16 0.500000 0.000000 0.500000
O O17 0.699022 0.250000 0.860551
O O18 0.796795 0.485536 0.786475
O O19 0.832376 0.750000 0.738865
#
# Coordination Sequence:
#
# PCOD9165139 Si02
#       7
#     4   4   4   4   4   4   4
#     4  10  21  38  59  81 111 149 185 223 275 333
#     4   9  19  37  59  82 107 141 188 234 275 331
#     4  10  22  39  59  84 111 145 186 227 272 325
#     4  11  22  37  58  83 113 149 187 232 283 335
#     4  10  21  38  59  84 113 147 188 233 280 335
#     4  11  23  36  54  84 117 144 181 231 275 319
#     4   9  19  37  59  80 108 147 185 222 273 334
#
# _framework density 18.334014
#
# number of rings (size 3 to 8) (size 9 to 14) (size 15 to 20)
#    0.000    2.000    0.000    4.286    0.000    7.429 
#    0.000    1.429    0.000    0.000    0.000    0.000 
#    0.000    0.000    0.000    0.000    0.000    0.000 
#
# Total GULP energy -156408.553714 kJ/mol
# GULP energy per Si atom -5586.019776 kJ/mol
# Density = 1.829228 g / cm^3
# Si number density = 18.334014 Si / 1000 Ang^3
#
#
#
# Elastic Constant Matrix: (Units=GPa)
#
#
# Indices 1 2 3 4 5 6 
#
# 1 137.1303 51.5616 117.0849 0.0000 -4.3552 0.0000
# 2 51.5616 57.4073 73.2940 0.0000 0.2298 0.0000
# 3 117.0849 73.2940 196.8148 0.0000 0.1438 0.0000
# 4 0.0000 0.0000 0.0000 30.1816 0.0000 0.9199
# 5 -4.3552 0.2298 0.1438 0.0000 38.6592 0.0000
# 6 0.0000 0.0000 0.0000 0.9199 0.0000 35.0923
#
#
#
# Elastic Compliance Matrix: (Units=1/GPa)
#
#
# Indices 1 2 3 4 5 6 
#
# 1 0.015420 -0.004086 -0.007653 0.000000 0.001790 0.000000
# 2 -0.004086 0.034292 -0.010339 0.000000 -0.000626 0.000000
# 3 -0.007653 -0.010339 0.013485 0.000000 -0.000851 0.000000
# 4 0.000000 0.000000 0.000000 0.033159 0.000000 -0.000869
# 5 0.001790 -0.000626 -0.000851 0.000000 0.026076 0.000000
# 6 0.000000 0.000000 0.000000 -0.000869 0.000000 0.028519
#
#
# Mechanical properties :
#
#
# Convention : Reuss Voigt Hill
#
# Bulk Modulus (GPa) = 52.52003 97.24816 74.88410
# Shear Modulus (GPa) = 24.81962 30.74744 27.78353
#
# Velocity S-wave (km/s) = 3.68332 4.09965 3.89705
# Velocity P-wave (km/s) = 6.84087 8.69293 7.82191
#
# Compressibility (1/GPa) = 0.01904035
#
# Stress axis : x y z
#
# Youngs Moduli (GPa) = 64.85211 29.16096 74.15902
#
# Poissons Ratio (x) = 0.11915 0.56752
# Poissons Ratio (y) = 0.26499 0.76675
# Poissons Ratio (z) = 0.49630 0.30150
#
# Static dielectric constant tensor:
#      x y z
#    x 1.587630 0.000000 -0.010660 
#    y 0.000000 1.615030 0.000000 
#    z -0.010660 0.000000 1.624630 
# 
# From -- ./inp_files/28331.got.cif
#   From: 2010.05.17/outbox.cif.g08.bks.cpg/sg11_15_cif.got.tgz:28331.got - 2010.06.03 12:22:45.
