data_PCOD9165902
_publ_section_title
;
Structure prediction by ZEFSAII (Michael W. Deem and Ramdas Pophale) SiO2 
 PCOD9165902
Probable space group: P 21/M
;
_chemical_formula_sum "Si O2"
_cell_formula_units_Z 16
_cell_length_a 5.137852
_cell_length_b 20.407886
_cell_length_c 5.770308
_cell_angle_alpha 90.000000
_cell_angle_beta 85.806547
_cell_angle_gamma 90.000000
_cell_volume 603.412593
_symmetry_space_group_name_H-M "P 21/M"
_symmetry_group_IT_number 11
_symmetry_cell_setting 'monoclinic'
loop_
_space_group_symop_operation_xyz
x,y,z
-x,1/2+y,-z
-x,-y,-z
x,1/2-y,z
loop_
_atom_site_type_symbol
_atom_site_label
_atom_site_fract_x
_atom_site_fract_y
_atom_site_fract_z
Si Si1 0.777885 0.250000 0.649159
Si Si2 0.253258 0.250000 0.965291
Si Si3 0.751488 0.453652 0.994657
Si Si4 0.405901 0.923761 0.496547
Si Si5 0.174396 0.176671 0.388064
O O1 0.874281 0.189698 0.480438
O O2 0.000584 0.250000 0.827833
O O3 0.522499 0.250000 0.816072
O O4 0.223425 0.181760 0.111846
O O5 0.737551 0.417832 0.745085
O O6 0.500000 0.500000 0.000000
O O7 0.737434 0.416402 0.242648
O O8 0.000000 0.500000 0.000000
O O9 0.664849 0.878475 0.495476
O O10 0.500000 0.000000 0.500000
O O11 0.298830 0.250000 0.428858
#
# Coordination Sequence:
#
# PCOD9165902 Si02
#       5
#     2   2   4   4   4
#     4   9  20  41  64  88 132 167 216 270 335 395
#     4   9  20  41  62  92 128 173 214 272 333 397
#     4  10  22  42  63  92 128 170 213 266 324 389
#     4  10  21  41  66  97 133 174 224 275 333 401
#     4   8  22  37  64  96 128 171 222 274 334 399
#
# _framework density 26.515855999999999
#
# number of rings (size 3 to 8) (size 9 to 14) (size 15 to 20)
#    1.500    1.000    0.000    0.750    3.500    4.000 
#    9.000   10.000    0.000    0.000    0.000    0.000 
#    0.000    0.000    0.000    0.000    0.000    0.000 
#
# Total GULP energy -89229.286344 kJ/mol
# GULP energy per Si atom -5576.830396 kJ/mol
# Density = 2.645550 g / cm^3
# Si number density = 26.515856 Si / 1000 Ang^3
#
#
#
# Elastic Constant Matrix: (Units=GPa)
#
#
# Indices 1 2 3 4 5 6 
#
# 1 141.5903 15.5789 72.4228 0.0000 -35.6045 0.0000
# 2 15.5789 116.2029 40.6704 0.0000 -1.9786 0.0000
# 3 72.4228 40.6704 238.9292 0.0000 0.0332 0.0000
# 4 0.0000 0.0000 0.0000 63.3975 0.0000 5.3857
# 5 -35.6045 -1.9786 0.0332 0.0000 54.5816 0.0000
# 6 0.0000 0.0000 0.0000 5.3857 0.0000 45.8101
#
#
#
# Elastic Compliance Matrix: (Units=1/GPa)
#
#
# Indices 1 2 3 4 5 6 
#
# 1 0.010377 -0.000186 -0.003115 0.000000 0.006764 0.000000
# 2 -0.000186 0.009160 -0.001503 0.000000 0.000212 0.000000
# 3 -0.003115 -0.001503 0.005386 0.000000 -0.002090 0.000000
# 4 0.000000 0.000000 0.000000 0.015933 0.000000 -0.001873
# 5 0.006764 0.000212 -0.002090 0.000000 0.022743 0.000000
# 6 0.000000 0.000000 0.000000 -0.001873 0.000000 0.022049
#
#
# Mechanical properties :
#
#
# Convention : Reuss Voigt Hill
#
# Bulk Modulus (GPa) = 65.29199 83.78516 74.53858
# Shear Modulus (GPa) = 49.82049 57.29453 53.55751
#
# Velocity S-wave (km/s) = 4.33932 4.65345 4.49913
# Velocity P-wave (km/s) = 7.05574 7.78071 7.42708
#
# Compressibility (1/GPa) = 0.01531581
#
# Stress axis : x y z
#
# Youngs Moduli (GPa) = 96.36437 109.16821 185.68055
#
# Poissons Ratio (x) = 0.02030 0.57836
# Poissons Ratio (y) = 0.01791 0.27906
# Poissons Ratio (z) = 0.30016 0.16407
#
# Static dielectric constant tensor:
#      x y z
#    x 2.054230 0.000000 0.001450 
#    y 0.000000 2.306870 0.000000 
#    z 0.001450 0.000000 2.260140 
# 
# From -- ./inp_files/586.got.cif
#   From: 2010.05.17/outbox.cif.g08.bks.cpg/sg11_1_cif.got.tgz:586.got - 2010.06.03 12:22:45.
