data_PCOD9165575
_publ_section_title
;
Structure prediction by ZEFSAII (Michael W. Deem and Ramdas Pophale) SiO2 
 PCOD9165575
Probable space group: P 21/M
;
_chemical_formula_sum "Si O2"
_cell_formula_units_Z 28
_cell_length_a 8.194169
_cell_length_b 8.165368
_cell_length_c 29.115046
_cell_angle_alpha 90.000000
_cell_angle_beta 44.926911
_cell_angle_gamma 90.000000
_cell_volume 1375.714927
_symmetry_space_group_name_H-M "P 21/M"
_symmetry_group_IT_number 11
_symmetry_cell_setting 'monoclinic'
loop_
_space_group_symop_operation_xyz
x,y,z
-x,1/2+y,-z
-x,-y,-z
x,1/2-y,z
loop_
_atom_site_type_symbol
_atom_site_label
_atom_site_fract_x
_atom_site_fract_y
_atom_site_fract_z
Si Si1 0.107288 0.945768 0.342168
Si Si2 0.728807 0.934071 0.930511
Si Si3 0.792517 0.053586 0.574208
Si Si4 0.042101 0.437432 0.204246
Si Si5 0.279948 0.553906 0.653422
Si Si6 0.062725 0.057323 0.936680
Si Si7 0.591153 0.442607 0.801798
O O1 0.085196 0.750000 0.350002
O O2 0.151530 0.008876 0.384970
O O3 0.331379 0.981070 0.265570
O O4 0.881055 0.001535 0.357838
O O5 0.672252 0.750000 0.926815
O O6 0.851761 0.019249 0.862403
O O7 0.917718 0.944501 0.932033
O O8 0.500000 0.000000 0.000000
O O9 0.783152 0.250000 0.578088
O O10 0.547352 0.995268 0.602275
O O11 0.000000 0.000000 0.500000
O O12 0.974199 0.250000 0.206130
O O13 0.254032 0.443422 0.197277
O O14 0.837202 0.512316 0.275783
O O15 0.264622 0.750000 0.657827
O O16 0.000837 0.250000 0.943619
O O17 0.328316 0.039865 0.869112
O O18 0.000000 0.000000 0.000000
O O19 0.653642 0.250000 0.797034
#
# Coordination Sequence:
#
# PCOD9165575 Si02
#       7
#     4   4   4   4   4   4   4
#     4   9  20  40  63  89 120 158 204 249 299 357
#     4  11  23  38  55  79 112 151 195 241 293 351
#     4  11  24  41  64  92 125 162 202 251 303 363
#     4   9  20  37  57  83 114 148 188 238 295 350
#     4  10  21  39  63  92 124 159 201 249 305 364
#     4  11  23  37  55  80 112 150 193 241 295 351
#     4   9  19  36  58  83 110 144 190 240 289 345
#
# _framework density 20.353054
#
# number of rings (size 3 to 8) (size 9 to 14) (size 15 to 20)
#    0.000    2.000    0.000    2.571    2.000    6.857 
#    0.000    0.000    0.000    0.000    0.000    0.000 
#    0.000    0.000    0.000    0.000    0.000    0.000 
#
# Total GULP energy -156078.611620 kJ/mol
# GULP energy per Si atom -5574.236129 kJ/mol
# Density = 2.030673 g / cm^3
# Si number density = 20.353054 Si / 1000 Ang^3
#
#
#
# Elastic Constant Matrix: (Units=GPa)
#
#
# Indices 1 2 3 4 5 6 
#
# 1 69.2789 7.5004 62.7853 0.0000 0.3042 0.0000
# 2 7.5004 28.2460 21.9394 0.0000 -5.5129 0.0000
# 3 62.7853 21.9394 143.7984 0.0000 2.0752 0.0000
# 4 0.0000 0.0000 0.0000 22.8423 0.0000 -2.1222
# 5 0.3042 -5.5129 2.0752 0.0000 42.7762 0.0000
# 6 0.0000 0.0000 0.0000 -2.1222 0.0000 23.1707
#
#
#
# Elastic Compliance Matrix: (Units=1/GPa)
#
#
# Indices 1 2 3 4 5 6 
#
# 1 0.024002 0.002152 -0.010817 0.000000 0.000631 0.000000
# 2 0.002152 0.041680 -0.007381 0.000000 0.005714 0.000000
# 3 -0.010817 -0.007381 0.012825 0.000000 -0.001497 0.000000
# 4 0.000000 0.000000 0.000000 0.044154 0.000000 0.004044
# 5 0.000631 0.005714 -0.001497 0.000000 0.024182 0.000000
# 6 0.000000 0.000000 0.000000 0.004044 0.000000 0.043528
#
#
# Mechanical properties :
#
#
# Convention : Reuss Voigt Hill
#
# Bulk Modulus (GPa) = 21.54517 47.30816 34.42667
# Shear Modulus (GPa) = 21.01403 27.69771 24.35587
#
# Velocity S-wave (km/s) = 3.21670 3.69299 3.46304
# Velocity P-wave (km/s) = 4.94013 6.44038 5.73948
#
# Compressibility (1/GPa) = 0.04641412
#
# Stress axis : x y z
#
# Youngs Moduli (GPa) = 41.66335 23.99212 77.97319
#
# Poissons Ratio (x) = -0.05163 0.84345
# Poissons Ratio (y) = -0.08965 0.57554
# Poissons Ratio (z) = 0.45068 0.17709
#
# Static dielectric constant tensor:
#      x y z
#    x 1.682110 0.000000 0.051750 
#    y 0.000000 1.797260 0.000000 
#    z 0.051750 0.000000 1.631060 
# 
# From -- ./inp_files/70814.got.cif
#   From: 2010.05.17/outbox.cif.g08.bks.cpg/sg11_36_cif.got.tgz:70814.got - 2010.06.03 12:22:45.
