data_PCOD9165920
_publ_section_title
;
Structure prediction by ZEFSAII (Michael W. Deem and Ramdas Pophale) SiO2 
 PCOD9165920
Probable space group: P 21/M
;
_chemical_formula_sum "Si O2"
_cell_formula_units_Z 32
_cell_length_a 9.738644
_cell_length_b 26.399088
_cell_length_c 5.555379
_cell_angle_alpha 90.000000
_cell_angle_beta 88.973029
_cell_angle_gamma 90.000000
_cell_volume 1428.010300
_symmetry_space_group_name_H-M "P 21/M"
_symmetry_group_IT_number 11
_symmetry_cell_setting 'monoclinic'
loop_
_space_group_symop_operation_xyz
x,y,z
-x,1/2+y,-z
-x,-y,-z
x,1/2-y,z
loop_
_atom_site_type_symbol
_atom_site_label
_atom_site_fract_x
_atom_site_fract_y
_atom_site_fract_z
Si Si1 0.972398 0.599980 0.077276
Si Si2 0.245294 0.192436 0.329645
Si Si3 0.952293 0.307389 0.571321
Si Si4 0.567789 0.085153 0.991130
Si Si5 0.398354 0.482200 0.296398
Si Si6 0.867468 0.023244 0.619181
Si Si7 0.687979 0.635403 0.175701
Si Si8 0.187095 0.615408 0.703794
O O1 0.009959 0.651353 0.224534
O O2 0.067006 0.553568 0.161385
O O3 0.810681 0.593782 0.133830
O O4 0.032655 0.607344 0.810316
O O5 0.298047 0.250000 0.335377
O O6 0.292792 0.162863 0.568743
O O7 0.081031 0.195170 0.383194
O O8 0.284722 0.169235 0.067421
O O9 0.930363 0.250000 0.661103
O O10 0.822309 0.332535 0.441647
O O11 0.698552 0.113738 0.092940
O O12 0.461180 0.069522 0.202233
O O13 0.608784 0.029898 0.888634
O O14 0.467181 0.114662 0.818022
O O15 0.500000 0.500000 0.500000
O O16 0.239651 0.477770 0.359854
O O17 0.790574 0.066889 0.467292
O O18 0.000000 0.000000 0.500000
#
# Coordination Sequence:
#
# PCOD9165920 Si02
#       8
#     4   4   4   4   4   4   4   4
#     4  10  22  39  60  92 131 158 222 272 321 381
#     4  10  21  41  67  99 131 165 216 273 331 394
#     4   9  20  38  65  93 122 166 212 267 332 388
#     4  11  26  40  64  88 127 176 215 264 324 400
#     4  11  24  43  59  88 125 172 217 255 328 399
#     4  11  25  38  65  93 128 168 217 284 325 385
#     4  11  24  40  68  98 126 177 216 270 331 388
#     4  11  21  42  60  92 126 166 212 270 327 386
#
# _framework density 22.408802999999999
#
# number of rings (size 3 to 8) (size 9 to 14) (size 15 to 20)
#    0.000    1.500    3.750    0.375    5.250    1.500 
#    0.000    1.250    0.000    0.000    0.000    0.000 
#    0.000    0.000    0.000    0.000    0.000    0.000 
#
# Total GULP energy -178512.920272 kJ/mol
# GULP energy per Si atom -5578.528759 kJ/mol
# Density = 2.235780 g / cm^3
# Si number density = 22.408803 Si / 1000 Ang^3
#
#
#
# Elastic Constant Matrix: (Units=GPa)
#
#
# Indices 1 2 3 4 5 6 
#
# 1 101.0075 10.2098 -2.8754 0.0000 14.1952 0.0000
# 2 10.2098 49.0052 9.7648 0.0000 6.7183 0.0000
# 3 -2.8754 9.7648 57.9584 0.0000 5.9729 0.0000
# 4 0.0000 0.0000 0.0000 26.7043 0.0000 -6.1010
# 5 14.1952 6.7183 5.9729 0.0000 37.3896 0.0000
# 6 0.0000 0.0000 0.0000 -6.1010 0.0000 15.8722
#
#
#
# Elastic Compliance Matrix: (Units=1/GPa)
#
#
# Indices 1 2 3 4 5 6 
#
# 1 0.010681 -0.001941 0.001260 0.000000 -0.003908 0.000000
# 2 -0.001941 0.021871 -0.003510 0.000000 -0.002632 0.000000
# 3 0.001260 -0.003510 0.018191 0.000000 -0.002754 0.000000
# 4 0.000000 0.000000 0.000000 0.041052 0.000000 0.015780
# 5 -0.003908 -0.002632 -0.002754 0.000000 0.029142 0.000000
# 6 0.000000 0.000000 0.000000 0.015780 0.000000 0.069069
#
#
# Mechanical properties :
#
#
# Convention : Reuss Voigt Hill
#
# Bulk Modulus (GPa) = 23.60617 26.90771 25.25694
# Shear Modulus (GPa) = 23.52848 28.71801 26.12324
#
# Velocity S-wave (km/s) = 3.24383 3.58376 3.41802
# Velocity P-wave (km/s) = 4.95854 5.39983 5.18388
#
# Compressibility (1/GPa) = 0.04236180
#
# Stress axis : x y z
#
# Youngs Moduli (GPa) = 93.62013 45.72357 54.97130
#
# Poissons Ratio (x) = 0.08873 -0.06924
# Poissons Ratio (y) = 0.18168 0.19293
# Poissons Ratio (z) = -0.11792 0.16048
#
# Static dielectric constant tensor:
#      x y z
#    x 1.951780 0.000000 -0.095230 
#    y 0.000000 1.858220 0.000000 
#    z -0.095230 0.000000 2.037760 
# 
# From -- ./inp_files/3418.got.cif
#   From: 2010.05.17/outbox.cif.g08.bks.cpg/sg11_2_cif.got.tgz:3418.got - 2010.06.03 12:22:45.
