data_PCOD9165630
_publ_section_title
;
Structure prediction by ZEFSAII (Michael W. Deem and Ramdas Pophale) SiO2 
 PCOD9165630
Probable space group: P 21/M
;
_chemical_formula_sum "Si O2"
_cell_formula_units_Z 28
_cell_length_a 21.292906
_cell_length_b 8.699627
_cell_length_c 16.026649
_cell_angle_alpha 90.000000
_cell_angle_beta 151.584272
_cell_angle_gamma 90.000000
_cell_volume 1412.741361
_symmetry_space_group_name_H-M "P 21/M"
_symmetry_group_IT_number 11
_symmetry_cell_setting 'monoclinic'
loop_
_space_group_symop_operation_xyz
x,y,z
-x,1/2+y,-z
-x,-y,-z
x,1/2-y,z
loop_
_atom_site_type_symbol
_atom_site_label
_atom_site_fract_x
_atom_site_fract_y
_atom_site_fract_z
Si Si1 0.140443 0.066232 0.062215
Si Si2 0.844040 0.934772 0.402147
Si Si3 0.679504 0.065821 0.871233
Si Si4 0.432809 0.566370 0.664248
Si Si5 0.144732 0.564636 0.765720
Si Si6 0.154687 0.935464 0.264709
Si Si7 0.576841 0.933964 0.169082
O O1 0.152217 0.250000 0.071489
O O2 0.243619 0.990337 0.120279
O O3 0.162450 0.010391 0.182448
O O4 0.987857 0.022849 0.863306
O O5 0.844612 0.750000 0.396741
O O6 0.730085 0.978351 0.333297
O O7 0.991910 0.984726 0.598581
O O8 0.811948 0.000744 0.273237
O O9 0.671479 0.250000 0.861798
O O10 0.534866 0.996241 0.715203
O O11 0.765558 0.015287 0.052447
O O12 0.439396 0.750000 0.674429
O O13 0.283122 0.519378 0.467096
O O14 0.470362 0.499511 0.798251
O O15 0.148320 0.750000 0.766219
O O16 0.155953 0.750000 0.256571
O O17 0.564712 0.750000 0.155742
O O18 0.500000 0.000000 0.000000
#
# Coordination Sequence:
#
# PCOD9165630 Si02
#       7
#     4   4   4   4   4   4   4
#     4  10  21  39  65  93 120 153 195 245 301 357
#     4   9  19  35  54  78 107 147 192 240 292 343
#     4  11  23  38  59  87 120 158 198 243 297 356
#     4  11  24  41  61  87 122 159 201 249 296 353
#     4   9  19  35  54  79 111 146 191 240 288 343
#     4   9  21  42  64  90 121 155 197 244 298 358
#     4  11  23  38  58  83 117 158 203 247 297 353
#
# _framework density 19.819621999999999
#
# number of rings (size 3 to 8) (size 9 to 14) (size 15 to 20)
#    0.000    2.000    0.000    2.571    2.000    6.857 
#    0.000    0.000    0.000    0.000    0.000    0.000 
#    0.000    0.000    0.000    0.000    0.000    0.000 
#
# Total GULP energy -156445.833024 kJ/mol
# GULP energy per Si atom -5587.351179 kJ/mol
# Density = 1.977451 g / cm^3
# Si number density = 19.819622 Si / 1000 Ang^3
#
#
#
# Elastic Constant Matrix: (Units=GPa)
#
#
# Indices 1 2 3 4 5 6 
#
# 1 116.7268 27.7733 27.9106 0.0000 21.8213 0.0000
# 2 27.7733 29.4711 25.2468 0.0000 8.3061 0.0000
# 3 27.9106 25.2468 76.8382 0.0000 5.7866 0.0000
# 4 0.0000 0.0000 0.0000 24.7820 0.0000 -1.2173
# 5 21.8213 8.3061 5.7866 0.0000 20.3086 0.0000
# 6 0.0000 0.0000 0.0000 -1.2173 0.0000 35.1990
#
#
#
# Elastic Compliance Matrix: (Units=1/GPa)
#
#
# Indices 1 2 3 4 5 6 
#
# 1 0.012631 -0.008094 -0.001181 0.000000 -0.009924 0.000000
# 2 -0.008094 0.057511 -0.015165 0.000000 -0.010504 0.000000
# 3 -0.001181 -0.015165 0.018255 0.000000 0.002270 0.000000
# 4 0.000000 0.000000 0.000000 0.040421 0.000000 0.001398
# 5 -0.009924 -0.010504 0.002270 0.000000 0.063553 0.000000
# 6 0.000000 0.000000 0.000000 0.001398 0.000000 0.028458
#
#
# Mechanical properties :
#
#
# Convention : Reuss Voigt Hill
#
# Bulk Modulus (GPa) = 25.30616 42.76640 34.03628
# Shear Modulus (GPa) = 17.67520 25.53160 21.60340
#
# Velocity S-wave (km/s) = 2.98955 3.59304 3.30510
# Velocity P-wave (km/s) = 4.97116 6.23201 5.63695
#
# Compressibility (1/GPa) = 0.03951607
#
# Stress axis : x y z
#
# Youngs Moduli (GPa) = 79.17288 17.38788 54.77851
#
# Poissons Ratio (x) = 0.14074 0.06470
# Poissons Ratio (y) = 0.64083 0.83074
# Poissons Ratio (z) = 0.09351 0.26369
#
# Static dielectric constant tensor:
#      x y z
#    x 1.678190 0.000000 0.033950 
#    y 0.000000 1.663480 0.000000 
#    z 0.033950 0.000000 1.714690 
# 
# From -- ./inp_files/54530.got.cif
#   From: 2010.05.17/outbox.cif.g08.bks.cpg/sg11_28_cif.got.tgz:54530.got - 2010.06.03 12:22:45.
