data_PCOD9165047
_publ_section_title
;
Structure prediction by ZEFSAII (Michael W. Deem and Ramdas Pophale) SiO2 
 PCOD9165047
Probable space group: P 21/M
;
_chemical_formula_sum "Si O2"
_cell_formula_units_Z 18
_cell_length_a 19.675052
_cell_length_b 10.255290
_cell_length_c 8.517792
_cell_angle_alpha 90.000000
_cell_angle_beta 30.041386
_cell_angle_gamma 90.000000
_cell_volume 860.406657
_symmetry_space_group_name_H-M "P 21/M"
_symmetry_group_IT_number 11
_symmetry_cell_setting 'monoclinic'
loop_
_space_group_symop_operation_xyz
x,y,z
-x,1/2+y,-z
-x,-y,-z
x,1/2-y,z
loop_
_atom_site_type_symbol
_atom_site_label
_atom_site_fract_x
_atom_site_fract_y
_atom_site_fract_z
Si Si1 0.863899 0.250000 0.692897
Si Si2 0.242696 0.250000 0.331518
Si Si3 0.255726 0.525257 0.856653
Si Si4 0.842741 0.509672 0.290258
Si Si5 0.293110 0.750000 0.318152
Si Si6 0.554746 0.250000 0.666364
Si Si7 0.823193 0.750000 0.873541
O O1 0.747366 0.250000 0.787602
O O2 0.028386 0.250000 0.334253
O O3 0.832281 0.120333 0.857242
O O4 0.218382 0.126985 0.489760
O O5 0.144628 0.250000 0.377038
O O6 0.395144 0.250000 0.963560
O O7 0.184505 0.485768 0.838124
O O8 0.378335 0.621051 0.550284
O O9 0.264035 0.382299 0.920228
O O10 0.779108 0.379119 0.482086
O O11 0.000000 0.500000 0.000000
O O12 0.420360 0.750000 0.191047
#
# Coordination Sequence:
#
# PCOD9165047 Si02
#       7
#     2   2   4   4   2   2   2
#     4  11  20  38  62  94 124 155 198 256 312 349
#     4  12  25  40  63  88 124 158 201 246 292 368
#     4  10  22  39  60  86 126 158 198 250 299 358
#     4  11  21  39  62  90 118 156 199 250 303 352
#     4  10  21  37  63  86 119 159 201 244 290 356
#     4   9  24  45  58  84 120 170 204 232 296 361
#     4  12  22  36  62  96 119 156 202 256 308 346
#
# _framework density 20.920339999999999
#
# number of rings (size 3 to 8) (size 9 to 14) (size 15 to 20)
#    0.000    1.333    0.000    6.667    0.000    4.444 
#    0.000    5.556    0.000    0.000    0.000    0.000 
#    0.000    0.000    0.000    0.000    0.000    0.000 
#
# Total GULP energy -100248.074944 kJ/mol
# GULP energy per Si atom -5569.337497 kJ/mol
# Density = 2.087272 g / cm^3
# Si number density = 20.920340 Si / 1000 Ang^3
#
#
#
# Elastic Constant Matrix: (Units=GPa)
#
#
# Indices 1 2 3 4 5 6 
#
# 1 90.2212 43.6493 24.0674 0.0000 28.1149 0.0000
# 2 43.6493 182.3973 34.4360 0.0000 12.1314 0.0000
# 3 24.0674 34.4360 66.5767 0.0000 -9.7667 0.0000
# 4 0.0000 0.0000 0.0000 17.3052 0.0000 23.4216
# 5 28.1149 12.1314 -9.7667 0.0000 35.9314 0.0000
# 6 0.0000 0.0000 0.0000 23.4216 0.0000 33.3211
#
#
#
# Elastic Compliance Matrix: (Units=1/GPa)
#
#
# Indices 1 2 3 4 5 6 
#
# 1 0.019621 -0.001942 -0.008587 0.000000 -0.017032 0.000000
# 2 -0.001942 0.006601 -0.002934 0.000000 -0.001507 0.000000
# 3 -0.008587 -0.002934 0.021636 0.000000 0.013591 0.000000
# 4 0.000000 0.000000 0.000000 1.187711 0.000000 -0.834850
# 5 -0.017032 -0.001507 0.013591 0.000000 0.045360 0.000000
# 6 0.000000 0.000000 0.000000 -0.834850 0.000000 0.616833
#
#
# Mechanical properties :
#
#
# Convention : Reuss Voigt Hill
#
# Bulk Modulus (GPa) = 47.77087 60.38896 54.07991
# Shear Modulus (GPa) = 2.58844 33.11435 17.85139
#
# Velocity S-wave (km/s) = 1.11354 3.98286 2.92430
# Velocity P-wave (km/s) = 4.95354 7.07670 6.10808
#
# Compressibility (1/GPa) = 0.02093326
#
# Stress axis : x y z
#
# Youngs Moduli (GPa) = 50.96474 151.48637 46.21974
#
# Poissons Ratio (x) = 0.29411 0.39691
# Poissons Ratio (y) = 0.09895 0.13559
# Poissons Ratio (z) = 0.43766 0.44441
#
# Static dielectric constant tensor:
#      x y z
#    x 1.909830 0.000000 0.097640 
#    y 0.000000 1.761690 0.000000 
#    z 0.097640 0.000000 1.777930 
# 
# From -- ./inp_files/15733.got.cif
#   From: 2010.05.17/outbox.cif.g08.bks.cpg/sg11_8_cif.got.tgz:15733.got - 2010.06.03 12:22:45.
