data_PCOD9165897
_publ_section_title
;
Structure prediction by ZEFSAII (Michael W. Deem and Ramdas Pophale) SiO2 
 PCOD9165897
Probable space group: P 21/M
;
_chemical_formula_sum "Si O2"
_cell_formula_units_Z 32
_cell_length_a 28.946422
_cell_length_b 8.797046
_cell_length_c 12.118434
_cell_angle_alpha 90.000000
_cell_angle_beta 32.721199
_cell_angle_gamma 90.000000
_cell_volume 1668.074488
_symmetry_space_group_name_H-M "P 21/M"
_symmetry_group_IT_number 11
_symmetry_cell_setting 'monoclinic'
loop_
_space_group_symop_operation_xyz
x,y,z
-x,1/2+y,-z
-x,-y,-z
x,1/2-y,z
loop_
_atom_site_type_symbol
_atom_site_label
_atom_site_fract_x
_atom_site_fract_y
_atom_site_fract_z
Si Si1 0.245750 0.933619 0.152291
Si Si2 0.405938 0.568484 0.678062
Si Si3 0.326734 0.925662 0.599615
Si Si4 0.591833 0.073364 0.799731
Si Si5 0.752281 0.568007 0.605034
Si Si6 0.090301 0.928963 0.849762
Si Si7 0.850052 0.924265 0.056276
Si Si8 0.094452 0.429803 0.307713
O O1 0.244081 0.750000 0.160107
O O2 0.244995 0.001380 0.276638
O O3 0.162981 0.990918 0.250542
O O4 0.332436 0.981611 0.912415
O O5 0.500000 0.500000 0.500000
O O6 0.413103 0.750000 0.675551
O O7 0.371927 0.536727 0.623370
O O8 0.294380 0.750000 0.672958
O O9 0.386812 0.932230 0.373022
O O10 0.249624 0.039492 0.734056
O O11 0.591952 0.250000 0.833877
O O12 0.666192 0.988401 0.717456
O O13 0.500000 0.000000 0.000000
O O14 0.754835 0.750000 0.603058
O O15 0.832745 0.505814 0.373304
O O16 0.091941 0.750000 0.825361
O O17 0.104308 0.964711 0.950379
O O18 0.000000 0.000000 0.000000
O O19 0.869221 0.750000 0.048397
O O20 0.874305 0.948120 0.880862
O O21 0.091300 0.250000 0.339623
O O22 0.000000 0.500000 0.500000
#
# Coordination Sequence:
#
# PCOD9165897 Si02
#       8
#     4   4   4   4   4   4   4   4
#     4  11  24  44  67  94 130 172 217 267 323 388
#     4  10  23  41  64  95 128 167 213 262 319 377
#     4  10  21  41  66  92 125 167 212 266 324 379
#     4  11  24  42  66  97 131 171 218 267 323 387
#     4  12  26  45  67  95 132 172 215 269 328 390
#     4  12  26  45  69  97 131 171 217 267 322 387
#     4  11  23  41  67  97 128 167 216 267 323 383
#     4  11  25  43  66  97 131 171 217 267 322 385
#
# _framework density 19.183796999999998
#
# number of rings (size 3 to 8) (size 9 to 14) (size 15 to 20)
#    0.000    1.000    2.500    3.750    3.500    3.500 
#    0.000    0.000    0.000    0.000    0.000    0.000 
#    0.000    0.000    0.000    0.000    0.000    0.000 
#
# Total GULP energy -178922.383415 kJ/mol
# GULP energy per Si atom -5591.324482 kJ/mol
# Density = 1.914013 g / cm^3
# Si number density = 19.183797 Si / 1000 Ang^3
#
#
#
# Elastic Constant Matrix: (Units=GPa)
#
#
# Indices 1 2 3 4 5 6 
#
# 1 105.0856 53.8207 44.2494 0.0000 -3.8372 0.0000
# 2 53.8207 119.9937 57.5179 0.0000 1.3709 0.0000
# 3 44.2494 57.5179 97.4803 0.0000 -15.8107 0.0000
# 4 0.0000 0.0000 0.0000 33.7696 0.0000 -3.1502
# 5 -3.8372 1.3709 -15.8107 0.0000 34.2232 0.0000
# 6 0.0000 0.0000 0.0000 -3.1502 0.0000 39.3446
#
#
#
# Elastic Compliance Matrix: (Units=1/GPa)
#
#
# Indices 1 2 3 4 5 6 
#
# 1 0.013145 -0.004239 -0.003458 0.000000 0.000046 0.000000
# 2 -0.004239 0.013497 -0.006707 0.000000 -0.004115 0.000000
# 3 -0.003458 -0.006707 0.017044 0.000000 0.007755 0.000000
# 4 0.000000 0.000000 0.000000 0.029835 0.000000 0.002389
# 5 0.000046 -0.004115 0.007755 0.000000 0.032973 0.000000
# 6 0.000000 0.000000 0.000000 0.002389 0.000000 0.025608
#
#
# Mechanical properties :
#
#
# Convention : Reuss Voigt Hill
#
# Bulk Modulus (GPa) = 67.21736 70.41505 68.81621
# Shear Modulus (GPa) = 30.14440 32.59894 31.37167
#
# Velocity S-wave (km/s) = 3.96832 4.12672 4.04830
# Velocity P-wave (km/s) = 7.49076 7.71308 7.60273
#
# Compressibility (1/GPa) = 0.01487711
#
# Stress axis : x y z
#
# Youngs Moduli (GPa) = 76.07545 74.09105 58.67277
#
# Poissons Ratio (x) = 0.31404 0.20292
# Poissons Ratio (y) = 0.32245 0.39353
# Poissons Ratio (z) = 0.26310 0.49694
#
# Static dielectric constant tensor:
#      x y z
#    x 1.479470 0.000000 0.101020 
#    y 0.000000 1.658540 0.000000 
#    z 0.101020 0.000000 1.531280 
# 
# From -- ./inp_files/45128.got.cif
#   From: 2010.05.17/outbox.cif.g08.bks.cpg/sg11_23_cif.got.tgz:45128.got - 2010.06.03 12:22:45.
