data_PCOD9165422
_publ_section_title
;
Structure prediction by ZEFSAII (Michael W. Deem and Ramdas Pophale) SiO2 
 PCOD9165422
Probable space group: P 21/M
;
_chemical_formula_sum "Si O2"
_cell_formula_units_Z 28
_cell_length_a 13.838616
_cell_length_b 17.858768
_cell_length_c 19.147633
_cell_angle_alpha 90.000000
_cell_angle_beta 18.406187
_cell_angle_gamma 90.000000
_cell_volume 1494.186019
_symmetry_space_group_name_H-M "P 21/M"
_symmetry_group_IT_number 11
_symmetry_cell_setting 'monoclinic'
loop_
_space_group_symop_operation_xyz
x,y,z
-x,1/2+y,-z
-x,-y,-z
x,1/2-y,z
loop_
_atom_site_type_symbol
_atom_site_label
_atom_site_fract_x
_atom_site_fract_y
_atom_site_fract_z
Si Si1 0.579537 0.834230 0.674413
Si Si2 0.227479 0.460765 0.731102
Si Si3 0.106180 0.938542 0.482468
Si Si4 0.730891 0.335938 0.743393
Si Si5 0.100329 0.662640 0.128558
Si Si6 0.384669 0.507805 0.776263
Si Si7 0.493695 0.914598 0.975008
O O1 0.559549 0.750000 0.657613
O O2 0.443089 0.903092 0.723338
O O3 0.927614 0.848835 0.459196
O O4 0.381589 0.834140 0.881101
O O5 0.500000 0.500000 0.500000
O O6 0.322668 0.462556 0.747714
O O7 0.155579 0.383302 0.739489
O O8 0.886516 0.497518 0.978962
O O9 0.305180 0.881007 0.302457
O O10 0.802185 0.902318 0.720886
O O11 0.304283 0.977474 0.405117
O O12 0.000000 0.000000 0.500000
O O13 0.698195 0.250000 0.751787
O O14 0.508669 0.363746 0.955443
O O15 0.028577 0.750000 0.196279
O O16 0.215632 0.612688 0.115321
O O17 0.500000 0.000000 0.000000
#
# Coordination Sequence:
#
# PCOD9165422 Si02
#       7
#     4   4   4   4   4   4   4
#     4   9  17  34  59  85 123 156 192 251 309 363
#     4  10  23  38  62  87 118 160 211 263 309 357
#     4  12  21  38  62  89 128 168 204 249 323 385
#     4  11  23  36  55  91 130 164 202 246 307 383
#     4  10  21  40  63  91 123 160 207 260 312 371
#     4  10  21  39  58  91 119 158 212 257 304 374
#     4  12  23  34  62  98 126 159 201 256 317 385
#
# _framework density 18.7393
#
# number of rings (size 3 to 8) (size 9 to 14) (size 15 to 20)
#    0.000    1.429    4.286    1.286    4.000    0.571 
#    0.000    0.714    0.000    3.429    0.000    0.000 
#    0.000    0.000    0.000    0.000    0.000    0.000 
#
# Total GULP energy -156005.114228 kJ/mol
# GULP energy per Si atom -5571.611222 kJ/mol
# Density = 1.869665 g / cm^3
# Si number density = 18.739300 Si / 1000 Ang^3
#
#
#
# Elastic Constant Matrix: (Units=GPa)
#
#
# Indices 1 2 3 4 5 6 
#
# 1 78.4590 60.9387 11.4887 0.0000 -0.0409 0.0000
# 2 60.9387 113.2637 24.2900 0.0000 -11.4733 0.0000
# 3 11.4887 24.2900 54.9954 0.0000 9.8893 0.0000
# 4 0.0000 0.0000 0.0000 23.5448 0.0000 -0.1275
# 5 -0.0409 -11.4733 9.8893 0.0000 34.1651 0.0000
# 6 0.0000 0.0000 0.0000 -0.1275 0.0000 22.2841
#
#
#
# Elastic Compliance Matrix: (Units=1/GPa)
#
#
# Indices 1 2 3 4 5 6 
#
# 1 0.022624 -0.013088 0.001941 0.000000 -0.004930 0.000000
# 2 -0.013088 0.018121 -0.006710 0.000000 0.008012 0.000000
# 3 0.001941 -0.006710 0.022308 0.000000 -0.008708 0.000000
# 4 0.000000 0.000000 0.000000 0.042473 0.000000 0.000243
# 5 -0.004930 0.008012 -0.008708 0.000000 0.034475 0.000000
# 6 0.000000 0.000000 0.000000 0.000243 0.000000 0.044876
#
#
# Mechanical properties :
#
#
# Convention : Reuss Voigt Hill
#
# Bulk Modulus (GPa) = 36.57898 48.90588 42.74243
# Shear Modulus (GPa) = 21.76702 25.99885 23.88294
#
# Velocity S-wave (km/s) = 3.41188 3.72882 3.57386
# Velocity P-wave (km/s) = 5.92314 6.68532 6.31573
#
# Compressibility (1/GPa) = 0.02733811
#
# Stress axis : x y z
#
# Youngs Moduli (GPa) = 44.20071 55.18383 44.82781
#
# Poissons Ratio (x) = 0.72224 -0.08700
# Poissons Ratio (y) = 0.57850 0.30081
# Poissons Ratio (z) = -0.08579 0.37030
#
# Static dielectric constant tensor:
#      x y z
#    x 1.643780 0.000000 0.012070 
#    y 0.000000 1.696930 0.000000 
#    z 0.012070 0.000000 1.689000 
# 
# From -- ./inp_files/59707.got.cif
#   From: 2010.05.17/outbox.cif.g08.bks.cpg/sg11_30_cif.got.tgz:59707.got - 2010.06.03 12:22:45.
