data_PCOD9165602
_publ_section_title
;
Structure prediction by ZEFSAII (Michael W. Deem and Ramdas Pophale) SiO2 
 PCOD9165602
Probable space group: P 21/M
;
_chemical_formula_sum "Si O2"
_cell_formula_units_Z 14
_cell_length_a 8.407492
_cell_length_b 5.453583
_cell_length_c 25.263842
_cell_angle_alpha 90.000000
_cell_angle_beta 37.348065
_cell_angle_gamma 90.000000
_cell_volume 702.732321
_symmetry_space_group_name_H-M "P 21/M"
_symmetry_group_IT_number 11
_symmetry_cell_setting 'monoclinic'
loop_
_space_group_symop_operation_xyz
x,y,z
-x,1/2+y,-z
-x,-y,-z
x,1/2-y,z
loop_
_atom_site_type_symbol
_atom_site_label
_atom_site_fract_x
_atom_site_fract_y
_atom_site_fract_z
Si Si1 0.483285 0.750000 0.536244
Si Si2 0.042776 0.750000 0.057514
Si Si3 0.084411 0.750000 0.174004
Si Si4 0.191625 0.750000 0.715307
Si Si5 0.223946 0.250000 0.391662
Si Si6 0.316785 0.250000 0.943212
Si Si7 0.054443 0.750000 0.429184
O O1 0.500000 0.500000 0.500000
O O2 0.237869 0.750000 0.640173
O O3 0.752997 0.750000 0.496267
O O4 0.049368 0.750000 0.119480
O O5 0.189223 0.499851 0.000486
O O6 0.768215 0.750000 0.096735
O O7 0.949628 0.499617 0.230064
O O8 0.381183 0.750000 0.118163
O O9 0.484677 0.750000 0.662214
O O10 0.968397 0.250000 0.500103
O O11 0.188842 0.506965 0.372467
#
# Coordination Sequence:
#
# PCOD9165602 Si02
#       7
#     2   2   2   2   2   2   2
#     4  11  22  39  58  80 112 155 205 253 302 362
#     4  10  21  39  64  92 120 162 205 245 284 349
#     4  12  22  39  62  91 128 161 193 245 313 361
#     4  11  24  38  57  85 120 155 196 252 312 366
#     4   9  17  33  52  75 101 134 183 237 287 337
#     4  10  21  39  64  92 124 159 206 242 283 359
#     4   9  17  31  55  75  95 134 188 242 285 334
#
# _framework density 19.922236999999999
#
# number of rings (size 3 to 8) (size 9 to 14) (size 15 to 20)
#    0.000    1.714    0.000    5.143    0.000    4.571 
#    0.000    8.571    0.000    0.000    0.000    0.000 
#    0.000    0.000    0.000    0.000    0.000    0.000 
#
# Total GULP energy -77990.747060 kJ/mol
# GULP energy per Si atom -5570.767647 kJ/mol
# Density = 1.987689 g / cm^3
# Si number density = 19.922237 Si / 1000 Ang^3
#
#
#
# Elastic Constant Matrix: (Units=GPa)
#
#
# Indices 1 2 3 4 5 6 
#
# 1 124.8166 63.2171 74.9984 0.0000 -3.1273 0.0000
# 2 63.2171 236.1329 73.9691 0.0000 2.7338 0.0000
# 3 74.9984 73.9691 87.7643 0.0000 0.1983 0.0000
# 4 0.0000 0.0000 0.0000 27.4775 0.0000 -12.2109
# 5 -3.1273 2.7338 0.1983 0.0000 26.1301 0.0000
# 6 0.0000 0.0000 0.0000 -12.2109 0.0000 31.8507
#
#
#
# Elastic Compliance Matrix: (Units=1/GPa)
#
#
# Indices 1 2 3 4 5 6 
#
# 1 0.016581 -0.000032 -0.014147 0.000000 0.002095 0.000000
# 2 -0.000032 0.005762 -0.004828 0.000000 -0.000570 0.000000
# 3 -0.014147 -0.004828 0.027556 0.000000 -0.001397 0.000000
# 4 0.000000 0.000000 0.000000 0.043867 0.000000 0.016818
# 5 0.002095 -0.000570 -0.001397 0.000000 0.038591 0.000000
# 6 0.000000 0.000000 0.000000 0.016818 0.000000 0.037844
#
#
# Mechanical properties :
#
#
# Convention : Reuss Voigt Hill
#
# Bulk Modulus (GPa) = 84.13886 97.00924 90.57405
# Shear Modulus (GPa) = 23.56516 32.86027 28.21272
#
# Velocity S-wave (km/s) = 3.44300 4.06572 3.76725
# Velocity P-wave (km/s) = 7.62437 8.41664 8.03028
#
# Compressibility (1/GPa) = 0.01188511
#
# Stress axis : x y z
#
# Youngs Moduli (GPa) = 60.31070 173.53663 36.28970
#
# Poissons Ratio (x) = 0.00549 0.51339
# Poissons Ratio (y) = 0.00191 0.17522
# Poissons Ratio (z) = 0.85322 0.83790
#
# Static dielectric constant tensor:
#      x y z
#    x 1.817520 0.000000 0.099230 
#    y 0.000000 1.702390 0.000000 
#    z 0.099230 0.000000 1.752540 
# 
# From -- ./inp_files/46331.got.cif
#   From: 2010.05.17/outbox.cif.g08.bks.cpg/sg11_24_cif.got.tgz:46331.got - 2010.06.03 12:22:45.
