data_PCOD9165882
_publ_section_title
;
Structure prediction by ZEFSAII (Michael W. Deem and Ramdas Pophale) SiO2 
 PCOD9165882
Probable space group: P 21/M
;
_chemical_formula_sum "Si O2"
_cell_formula_units_Z 28
_cell_length_a 12.855069
_cell_length_b 8.945563
_cell_length_c 14.841633
_cell_angle_alpha 90.000000
_cell_angle_beta 58.288307
_cell_angle_gamma 90.000000
_cell_volume 1451.918298
_symmetry_space_group_name_H-M "P 21/M"
_symmetry_group_IT_number 11
_symmetry_cell_setting 'monoclinic'
loop_
_space_group_symop_operation_xyz
x,y,z
-x,1/2+y,-z
-x,-y,-z
x,1/2-y,z
loop_
_atom_site_type_symbol
_atom_site_label
_atom_site_fract_x
_atom_site_fract_y
_atom_site_fract_z
Si Si1 0.495641 0.570778 0.267238
Si Si2 0.987487 0.569561 0.103747
Si Si3 0.049187 0.426136 0.568353
Si Si4 0.716925 0.570467 0.289255
Si Si5 0.839816 0.426488 0.814614
Si Si6 0.303443 0.571340 0.512631
Si Si7 0.583622 0.572059 0.884675
O O1 0.488894 0.750000 0.254665
O O2 0.629946 0.534410 0.244540
O O3 0.401706 0.533890 0.390765
O O4 0.459967 0.487537 0.192559
O O5 0.987313 0.750000 0.097971
O O6 0.856911 0.525958 0.206583
O O7 0.098325 0.526506 0.119380
O O8 0.000000 0.500000 0.000000
O O9 0.072230 0.250000 0.544643
O O10 0.173109 0.505181 0.542695
O O11 0.000000 0.500000 0.500000
O O12 0.945798 0.441062 0.691782
O O13 0.713472 0.750000 0.303277
O O14 0.668180 0.495781 0.402423
O O15 0.807070 0.250000 0.834856
O O16 0.721902 0.519037 0.840372
O O17 0.297234 0.750000 0.521695
O O18 0.574903 0.750000 0.891835
O O19 0.500000 0.500000 0.000000
#
# Coordination Sequence:
#
# PCOD9165882 Si02
#       7
#     4   4   4   4   4   4   4
#     4  10  23  42  64  92 129 168 210 260 310 368
#     4  10  22  40  63  93 124 161 206 258 314 370
#     4  11  22  38  61  89 125 166 206 256 310 369
#     4  10  21  41  65  91 126 168 208 253 316 373
#     4  10  22  43  65  89 125 163 204 255 311 365
#     4  11  22  37  60  94 130 166 208 256 310 369
#     4  12  27  45  67  93 123 163 210 259 312 372
#
# _framework density 19.284832000000002
#
# number of rings (size 3 to 8) (size 9 to 14) (size 15 to 20)
#    0.000    1.429    1.429    3.429    2.000    7.429 
#    0.000    0.000    0.000    0.000    0.000    0.000 
#    0.000    0.000    0.000    0.000    0.000    0.000 
#
# Total GULP energy -156578.197633 kJ/mol
# GULP energy per Si atom -5592.078487 kJ/mol
# Density = 1.924094 g / cm^3
# Si number density = 19.284832 Si / 1000 Ang^3
#
#
#
# Elastic Constant Matrix: (Units=GPa)
#
#
# Indices 1 2 3 4 5 6 
#
# 1 142.3450 52.9863 42.7741 0.0000 22.4664 0.0000
# 2 52.9863 57.1567 42.2550 0.0000 12.4578 0.0000
# 3 42.7741 42.2550 77.6225 0.0000 26.8370 0.0000
# 4 0.0000 0.0000 0.0000 35.5665 0.0000 8.3333
# 5 22.4664 12.4578 26.8370 0.0000 38.9413 0.0000
# 6 0.0000 0.0000 0.0000 8.3333 0.0000 25.9194
#
#
#
# Elastic Compliance Matrix: (Units=1/GPa)
#
#
# Indices 1 2 3 4 5 6 
#
# 1 0.011129 -0.009904 0.000503 0.000000 -0.003599 0.000000
# 2 -0.009904 0.038228 -0.017197 0.000000 0.005336 0.000000
# 3 0.000503 -0.017197 0.026473 0.000000 -0.013033 0.000000
# 4 0.000000 0.000000 0.000000 0.030407 0.000000 -0.009776
# 5 -0.003599 0.005336 -0.013033 0.000000 0.035031 0.000000
# 6 0.000000 0.000000 0.000000 -0.009776 0.000000 0.041724
#
#
# Mechanical properties :
#
#
# Convention : Reuss Voigt Hill
#
# Bulk Modulus (GPa) = 44.18232 61.46168 52.82200
# Shear Modulus (GPa) = 20.51430 29.35934 24.93682
#
# Velocity S-wave (km/s) = 3.26506 3.90603 3.59984
# Velocity P-wave (km/s) = 6.09707 7.23066 6.68793
#
# Compressibility (1/GPa) = 0.02263349
#
# Stress axis : x y z
#
# Youngs Moduli (GPa) = 89.85728 26.15884 37.77441
#
# Poissons Ratio (x) = 0.25909 -0.01901
# Poissons Ratio (y) = 0.88999 0.64961
# Poissons Ratio (z) = -0.04523 0.44985
#
# Static dielectric constant tensor:
#      x y z
#    x 1.624500 0.000000 -0.019480 
#    y 0.000000 1.645050 0.000000 
#    z -0.019480 0.000000 1.642110 
# 
# From -- ./inp_files/49144.got.cif
#   From: 2010.05.17/outbox.cif.g08.bks.cpg/sg11_25_cif.got.tgz:49144.got - 2010.06.03 12:22:45.
