data_PCOD9165127
_publ_section_title
;
Structure prediction by ZEFSAII (Michael W. Deem and Ramdas Pophale) SiO2 
 PCOD9165127
Probable space group: P 21/M
;
_chemical_formula_sum "Si O2"
_cell_formula_units_Z 28
_cell_length_a 20.454142
_cell_length_b 8.354265
_cell_length_c 13.828798
_cell_angle_alpha 90.000000
_cell_angle_beta 144.476167
_cell_angle_gamma 90.000000
_cell_volume 1373.033505
_symmetry_space_group_name_H-M "P 21/M"
_symmetry_group_IT_number 11
_symmetry_cell_setting 'monoclinic'
loop_
_space_group_symop_operation_xyz
x,y,z
-x,1/2+y,-z
-x,-y,-z
x,1/2-y,z
loop_
_atom_site_type_symbol
_atom_site_label
_atom_site_fract_x
_atom_site_fract_y
_atom_site_fract_z
Si Si1 0.205545 0.058738 0.563793
Si Si2 0.607743 0.442252 0.069091
Si Si3 0.689536 0.945263 0.514567
Si Si4 0.880073 0.943502 0.894288
Si Si5 0.024358 0.060397 0.636774
Si Si6 0.206996 0.443200 0.002988
Si Si7 0.435506 0.556890 0.203993
O O1 0.193743 0.250000 0.547091
O O2 0.268875 0.006415 0.542221
O O3 0.281899 0.011117 0.746911
O O4 0.083316 0.982638 0.427724
O O5 0.612082 0.250000 0.076941
O O6 0.500000 0.500000 0.000000
O O7 0.592989 0.493486 0.940375
O O8 0.688054 0.750000 0.512994
O O9 0.780216 0.997637 0.702676
O O10 0.561891 0.998627 0.379819
O O11 0.880252 0.750000 0.894222
O O12 0.852545 0.997558 0.969959
O O13 0.000000 0.000000 0.000000
O O14 0.035397 0.250000 0.643545
O O15 0.135661 0.996495 0.824592
O O16 0.000000 0.000000 0.500000
O O17 0.204015 0.250000 0.998467
O O18 0.335770 0.495798 0.151151
O O19 0.435449 0.750000 0.205996
#
# Coordination Sequence:
#
# PCOD9165127 Si02
#       7
#     4   4   4   4   4   4   4
#     4  11  21  36  58  85 117 151 194 241 290 344
#     4  11  21  35  56  84 119 157 196 237 285 341
#     4   9  19  37  59  84 114 151 189 234 287 344
#     4  10  21  40  64  86 114 148 189 238 293 346
#     4  11  23  39  57  82 116 152 194 240 292 350
#     4  10  23  40  58  85 119 151 187 243 297 338
#     4  10  21  38  58  83 116 154 196 232 278 351
#
# _framework density 20.392802
#
# number of rings (size 3 to 8) (size 9 to 14) (size 15 to 20)
#    0.000    1.714    1.429    3.000    0.000    5.714 
#    0.000    1.429    0.000    0.000    0.000    0.000 
#    0.000    0.000    0.000    0.000    0.000    0.000 
#
# Total GULP energy -156500.149516 kJ/mol
# GULP energy per Si atom -5589.291054 kJ/mol
# Density = 2.034639 g / cm^3
# Si number density = 20.392802 Si / 1000 Ang^3
#
#
#
# Elastic Constant Matrix: (Units=GPa)
#
#
# Indices 1 2 3 4 5 6 
#
# 1 135.0069 13.3930 68.3132 0.0000 13.4095 0.0000
# 2 13.3930 12.5074 11.1259 0.0000 -8.8415 0.0000
# 3 68.3132 11.1259 159.2789 0.0000 6.7359 0.0000
# 4 0.0000 0.0000 0.0000 25.2315 0.0000 9.6150
# 5 13.4095 -8.8415 6.7359 0.0000 35.6418 0.0000
# 6 0.0000 0.0000 0.0000 9.6150 0.0000 30.2194
#
#
#
# Elastic Compliance Matrix: (Units=1/GPa)
#
#
# Indices 1 2 3 4 5 6 
#
# 1 0.011288 -0.013860 -0.003577 0.000000 -0.007009 0.000000
# 2 -0.013860 0.124804 -0.004338 0.000000 0.036994 0.000000
# 3 -0.003577 -0.004338 0.008169 0.000000 -0.001274 0.000000
# 4 0.000000 0.000000 0.000000 0.045101 0.000000 -0.014350
# 5 -0.007009 0.036994 -0.001274 0.000000 0.040112 0.000000
# 6 0.000000 0.000000 0.000000 -0.014350 0.000000 0.037657
#
#
# Mechanical properties :
#
#
# Convention : Reuss Voigt Hill
#
# Bulk Modulus (GPa) = 9.92934 54.71749 32.32341
# Shear Modulus (GPa) = 14.52425 32.48260 23.50343
#
# Velocity S-wave (km/s) = 2.67165 3.99538 3.39858
# Velocity P-wave (km/s) = 3.79428 6.94075 5.59333
#
# Compressibility (1/GPa) = 0.10071167
#
# Stress axis : x y z
#
# Youngs Moduli (GPa) = 88.58947 8.01256 122.41090
#
# Poissons Ratio (x) = 0.11106 0.43783
# Poissons Ratio (y) = 1.22789 0.53098
# Poissons Ratio (z) = 0.31686 0.03476
#
# Static dielectric constant tensor:
#      x y z
#    x 1.710070 0.000000 -0.012090 
#    y 0.000000 1.712190 0.000000 
#    z -0.012090 0.000000 1.720370 
# 
# From -- ./inp_files/54637.got.cif
#   From: 2010.05.17/outbox.cif.g08.bks.cpg/sg11_28_cif.got.tgz:54637.got - 2010.06.03 12:22:45.
