data_PCOD9165643
_publ_section_title
;
Structure prediction by ZEFSAII (Michael W. Deem and Ramdas Pophale) SiO2 
 PCOD9165643
Probable space group: P 21/M
;
_chemical_formula_sum "Si O2"
_cell_formula_units_Z 28
_cell_length_a 12.140430
_cell_length_b 14.742210
_cell_length_c 6.968116
_cell_angle_alpha 90.000000
_cell_angle_beta 55.420848
_cell_angle_gamma 90.000000
_cell_volume 1026.816401
_symmetry_space_group_name_H-M "P 21/M"
_symmetry_group_IT_number 11
_symmetry_cell_setting 'monoclinic'
loop_
_space_group_symop_operation_xyz
x,y,z
-x,1/2+y,-z
-x,-y,-z
x,1/2-y,z
loop_
_atom_site_type_symbol
_atom_site_label
_atom_site_fract_x
_atom_site_fract_y
_atom_site_fract_z
Si Si1 0.601275 0.857625 0.426573
Si Si2 0.168876 0.056773 0.278411
Si Si3 0.953956 0.415601 0.174301
Si Si4 0.739750 0.349947 0.874062
Si Si5 0.456753 0.397201 0.068954
Si Si6 0.674759 0.355000 0.394013
Si Si7 0.873410 0.851167 0.283560
O O1 0.593127 0.750000 0.397148
O O2 0.577931 0.874905 0.675614
O O3 0.474470 0.896818 0.437282
O O4 0.755069 0.885124 0.256927
O O5 0.192011 0.948231 0.230221
O O6 0.877117 0.916601 0.461420
O O7 0.050647 0.090348 0.258869
O O8 0.312466 0.108308 0.106717
O O9 0.797491 0.406838 0.367287
O O10 0.994749 0.342457 0.973235
O O11 0.000000 0.500000 0.000000
O O12 0.806582 0.250000 0.775608
O O13 0.598103 0.347373 0.898438
O O14 0.701012 0.355741 0.138078
O O15 0.500000 0.500000 0.000000
O O16 0.680034 0.250000 0.445501
O O17 0.836351 0.750000 0.388952
#
# Coordination Sequence:
#
# PCOD9165643 Si02
#       7
#     4   4   4   4   4   4   4
#     4   8  15  32  59  86 116 162 214 262 323 389
#     4  10  21  39  65  97 130 172 225 277 325 397
#     4  12  24  40  63  94 136 176 222 269 331 397
#     4   9  16  32  61  92 127 176 221 267 335 397
#     4   8  14  26  53  88 120 158 212 266 323 382
#     4   9  17  33  60  88 122 171 217 262 329 397
#     4  10  23  43  68  98 132 174 222 280 339 393
#
# _framework density 27.268750000000001
#
# number of rings (size 3 to 8) (size 9 to 14) (size 15 to 20)
#    0.000    2.571    1.429    1.714    0.000    2.286 
#    0.000    0.714    0.000    4.286    0.000    4.000 
#    0.000    0.000    0.000    0.000    0.000    0.000 
#
# Total GULP energy -156595.970862 kJ/mol
# GULP energy per Si atom -5592.713245 kJ/mol
# Density = 2.720669 g / cm^3
# Si number density = 27.268750 Si / 1000 Ang^3
#
#
#
# Elastic Constant Matrix: (Units=GPa)
#
#
# Indices 1 2 3 4 5 6 
#
# 1 206.8403 18.8057 37.9523 0.0000 -27.9283 0.0000
# 2 18.8057 132.8186 9.7491 0.0000 1.0625 0.0000
# 3 37.9523 9.7491 92.5376 0.0000 -17.5445 0.0000
# 4 0.0000 0.0000 0.0000 32.1780 0.0000 -3.0054
# 5 -27.9283 1.0625 -17.5445 0.0000 58.7027 0.0000
# 6 0.0000 0.0000 0.0000 -3.0054 0.0000 26.3723
#
#
#
# Elastic Compliance Matrix: (Units=1/GPa)
#
#
# Indices 1 2 3 4 5 6 
#
# 1 0.005507 -0.000665 -0.001791 0.000000 0.002097 0.000000
# 2 -0.000665 0.007677 -0.000660 0.000000 -0.000653 0.000000
# 3 -0.001791 -0.000660 0.012139 0.000000 0.002788 0.000000
# 4 0.000000 0.000000 0.000000 0.031412 0.000000 0.003580
# 5 0.002097 -0.000653 0.002788 0.000000 0.018878 0.000000
# 6 0.000000 0.000000 0.000000 0.003580 0.000000 0.038326
#
#
# Mechanical properties :
#
#
# Convention : Reuss Voigt Hill
#
# Bulk Modulus (GPa) = 52.37990 62.80121 57.59055
# Shear Modulus (GPa) = 39.51527 47.82989 43.67258
#
# Velocity S-wave (km/s) = 3.81084 4.19264 4.00629
# Velocity P-wave (km/s) = 6.21400 6.82042 6.52426
#
# Compressibility (1/GPa) = 0.01909129
#
# Stress axis : x y z
#
# Youngs Moduli (GPa) = 181.59285 130.26140 82.37910
#
# Poissons Ratio (x) = 0.08663 0.14753
# Poissons Ratio (y) = 0.12076 0.05435
# Poissons Ratio (z) = 0.32522 0.08594
#
# Static dielectric constant tensor:
#      x y z
#    x 2.101780 0.000000 -0.042200 
#    y 0.000000 -0.355360 0.000000 
#    z -0.042200 0.000000 2.196380 
# 
# From -- ./inp_files/35854.got.cif
#   From: 2010.05.17/outbox.cif.g08.bks.cpg/sg11_18_cif.got.tgz:35854.got - 2010.06.03 12:22:45.
