data_PCOD9165060
_publ_section_title
;
Structure prediction by ZEFSAII (Michael W. Deem and Ramdas Pophale) SiO2 
 PCOD9165060
Probable space group: P 21/M
;
_chemical_formula_sum "Si O2"
_cell_formula_units_Z 24
_cell_length_a 10.069459
_cell_length_b 8.611849
_cell_length_c 22.555658
_cell_angle_alpha 90.000000
_cell_angle_beta 148.512357
_cell_angle_gamma 90.000000
_cell_volume 1021.622063
_symmetry_space_group_name_H-M "P 21/M"
_symmetry_group_IT_number 11
_symmetry_cell_setting 'monoclinic'
loop_
_space_group_symop_operation_xyz
x,y,z
-x,1/2+y,-z
-x,-y,-z
x,1/2-y,z
loop_
_atom_site_type_symbol
_atom_site_label
_atom_site_fract_x
_atom_site_fract_y
_atom_site_fract_z
Si Si1 0.631507 0.003026 0.175586
Si Si2 0.258800 0.438018 0.569749
Si Si3 0.860223 0.432088 0.060237
Si Si4 0.196814 0.077833 0.412920
Si Si5 0.955410 0.083040 0.753571
Si Si6 0.626759 0.935374 0.807082
O O1 0.785093 0.903245 0.185810
O O2 0.493617 0.964455 0.185244
O O3 0.379202 0.045411 0.042059
O O4 0.884340 0.092098 0.293860
O O5 0.266009 0.250000 0.575015
O O6 0.263869 0.485491 0.502822
O O7 0.480899 0.514759 0.692224
O O8 0.000000 0.500000 0.500000
O O9 0.782844 0.250000 0.026971
O O10 0.984147 0.464681 0.171243
O O11 0.078104 0.460120 0.094660
O O12 0.298907 0.250000 0.443681
O O13 0.240297 0.975700 0.370975
O O14 0.878818 0.250000 0.749008
O O15 0.588909 0.750000 0.805257
#
# Coordination Sequence:
#
# PCOD9165060 Si02
#       6
#     4   4   4   4   4   4
#     4  10  21  37  64  87 121 156 206 246 297 357
#     4  11  21  37  62  90 121 158 202 254 303 361
#     4  11  24  41  61  88 128 166 202 246 306 367
#     4   9  20  36  60  87 115 151 197 248 301 349
#     4  10  22  38  62  92 120 156 207 252 299 360
#     4  11  24  41  62  92 126 164 201 249 309 364
#
# _framework density 23.492054
#
# number of rings (size 3 to 8) (size 9 to 14) (size 15 to 20)
#    1.000    0.667    1.667    3.000    0.000    6.000 
#    0.000    0.833    0.000    0.000    0.000    0.000 
#    0.000    0.000    0.000    0.000    0.000    0.000 
#
# Total GULP energy -133651.242876 kJ/mol
# GULP energy per Si atom -5568.801786 kJ/mol
# Density = 2.343859 g / cm^3
# Si number density = 23.492054 Si / 1000 Ang^3
#
#
#
# Elastic Constant Matrix: (Units=GPa)
#
#
# Indices 1 2 3 4 5 6 
#
# 1 123.7181 34.4055 36.6557 0.0000 0.6830 0.0000
# 2 34.4055 32.4487 8.8422 0.0000 1.7054 0.0000
# 3 36.6557 8.8422 86.5881 0.0000 -18.5439 0.0000
# 4 0.0000 0.0000 0.0000 54.5850 0.0000 -39.4293
# 5 0.6830 1.7054 -18.5439 0.0000 48.5622 0.0000
# 6 0.0000 0.0000 0.0000 -39.4293 0.0000 24.0554
#
#
#
# Elastic Compliance Matrix: (Units=1/GPa)
#
#
# Indices 1 2 3 4 5 6 
#
# 1 0.012850 -0.012323 -0.004495 0.000000 -0.001464 0.000000
# 2 -0.012323 0.043812 0.000490 0.000000 -0.001178 0.000000
# 3 -0.004495 0.000490 0.014606 0.000000 0.005623 0.000000
# 4 0.000000 0.000000 0.000000 -0.099563 0.000000 -0.163195
# 5 -0.001464 -0.001178 0.005623 0.000000 0.022801 0.000000
# 6 0.000000 0.000000 0.000000 -0.163195 0.000000 -0.225923
#
#
# Mechanical properties :
#
#
# Convention : Reuss Voigt Hill
#
# Bulk Modulus (GPa) = 25.89798 44.72910 35.31354
# Shear Modulus (GPa) = -26.89743 36.29729 4.69993
#
# Velocity S-wave (km/s) = -3.38739 3.93502 1.41598
# Velocity P-wave (km/s) = 2.06184 6.30296 4.21166
#
# Compressibility (1/GPa) = 0.03861305
#
# Stress axis : x y z
#
# Youngs Moduli (GPa) = 77.82303 22.82479 68.46474
#
# Poissons Ratio (x) = 0.28126 0.30775
# Poissons Ratio (y) = 0.95899 -0.03357
# Poissons Ratio (z) = 0.34981 -0.01119
#
# Static dielectric constant tensor:
#      x y z
#    x 1.890230 0.000000 0.037850 
#    y 0.000000 1.824060 0.000000 
#    z 0.037850 0.000000 1.929850 
# 
# From -- ./inp_files/68468.got.cif
#   From: 2010.05.17/outbox.cif.g08.bks.cpg/sg11_35_cif.got.tgz:68468.got - 2010.06.03 12:22:45.
