data_PCOD9165949
_publ_section_title
;
Structure prediction by ZEFSAII (Michael W. Deem and Ramdas Pophale) SiO2 
 PCOD9165949
Probable space group: P 21/M
;
_chemical_formula_sum "Si O2"
_cell_formula_units_Z 20
_cell_length_a 7.391739
_cell_length_b 19.167693
_cell_length_c 9.672601
_cell_angle_alpha 90.000000
_cell_angle_beta 51.040054
_cell_angle_gamma 90.000000
_cell_volume 1065.633867
_symmetry_space_group_name_H-M "P 21/M"
_symmetry_group_IT_number 11
_symmetry_cell_setting 'monoclinic'
loop_
_space_group_symop_operation_xyz
x,y,z
-x,1/2+y,-z
-x,-y,-z
x,1/2-y,z
loop_
_atom_site_type_symbol
_atom_site_label
_atom_site_fract_x
_atom_site_fract_y
_atom_site_fract_z
Si Si1 0.345192 0.013605 0.356215
Si Si2 0.164803 0.932601 0.914565
Si Si3 0.866522 0.830101 0.873029
Si Si4 0.072689 0.885381 0.505064
Si Si5 0.636329 0.401710 0.881225
O O1 0.594650 0.043372 0.272963
O O2 0.153321 0.073573 0.442922
O O3 0.236253 0.947636 0.489192
O O4 0.370316 0.977421 0.191942
O O5 0.028524 0.872159 0.900978
O O6 0.237228 0.908085 0.033503
O O7 0.000000 0.000000 0.000000
O O8 0.834042 0.750000 0.928746
O O9 0.990359 0.835105 0.664139
O O10 0.618748 0.869326 0.982706
O O11 0.215203 0.858323 0.304477
#
# Coordination Sequence:
#
# PCOD9165949 Si02
#       5
#     4   4   4   4   4
#     4   9  18  36  67  95 118 153 208 260 324 359
#     4  12  21  37  69  99 126 158 214 274 316 370
#     4  12  26  42  60  90 130 175 212 256 322 391
#     4   9  20  40  64  90 123 159 209 258 314 380
#     4  10  21  42  64  89 125 165 201 260 319 376
#
# _framework density 18.768172
#
# number of rings (size 3 to 8) (size 9 to 14) (size 15 to 20)
#    1.200    0.400    4.000    1.800    0.000    2.400 
#    3.600    0.000    0.000    0.000    0.000    0.000 
#    0.000    0.000    0.000    0.000    0.000    0.000 
#
# Total GULP energy -111459.872220 kJ/mol
# GULP energy per Si atom -5572.993611 kJ/mol
# Density = 1.872546 g / cm^3
# Si number density = 18.768172 Si / 1000 Ang^3
#
#
#
# Elastic Constant Matrix: (Units=GPa)
#
#
# Indices 1 2 3 4 5 6 
#
# 1 137.3277 44.5903 57.5759 0.0000 -15.1736 0.0000
# 2 44.5903 71.0876 18.9545 0.0000 -10.4707 0.0000
# 3 57.5759 18.9545 91.3291 0.0000 -21.3037 0.0000
# 4 0.0000 0.0000 0.0000 19.1124 0.0000 1.8933
# 5 -15.1736 -10.4707 -21.3037 0.0000 15.5324 0.0000
# 6 0.0000 0.0000 0.0000 1.8933 0.0000 6.5056
#
#
#
# Elastic Compliance Matrix: (Units=1/GPa)
#
#
# Indices 1 2 3 4 5 6 
#
# 1 0.011762 -0.005844 -0.006530 0.000000 -0.001405 0.000000
# 2 -0.005844 0.018604 0.002083 0.000000 0.009690 0.000000
# 3 -0.006530 0.002083 0.019812 0.000000 0.022198 0.000000
# 4 0.000000 0.000000 0.000000 0.053875 0.000000 -0.015679
# 5 -0.001405 0.009690 0.022198 0.000000 0.099988 0.000000
# 6 0.000000 0.000000 0.000000 -0.015679 0.000000 0.158277
#
#
# Mechanical properties :
#
#
# Convention : Reuss Voigt Hill
#
# Bulk Modulus (GPa) = 33.78705 60.22064 47.00385
# Shear Modulus (GPa) = 12.73029 20.13832 16.43430
#
# Velocity S-wave (km/s) = 2.60723 3.27923 2.96234
# Velocity P-wave (km/s) = 5.20624 6.81865 6.06626
#
# Compressibility (1/GPa) = 0.02959714
#
# Stress axis : x y z
#
# Youngs Moduli (GPa) = 85.02195 53.75068 50.47511
#
# Poissons Ratio (x) = 0.31409 0.32960
# Poissons Ratio (y) = 0.49683 -0.10514
# Poissons Ratio (z) = 0.55518 -0.11197
#
# Static dielectric constant tensor:
#      x y z
#    x 1.627540 0.000000 0.003330 
#    y 0.000000 1.654570 0.000000 
#    z 0.003330 0.000000 1.710160 
# 
# From -- ./inp_files/10215.got.cif
#   From: 2010.05.17/outbox.cif.g08.bks.cpg/sg11_6_cif.got.tgz:10215.got - 2010.06.03 12:22:45.
