data_PCOD9165295
_publ_section_title
;
Structure prediction by ZEFSAII (Michael W. Deem and Ramdas Pophale) SiO2 
 PCOD9165295
Probable space group: P 21/M
;
_chemical_formula_sum "Si O2"
_cell_formula_units_Z 32
_cell_length_a 12.146741
_cell_length_b 8.571738
_cell_length_c 27.393050
_cell_angle_alpha 90.000000
_cell_angle_beta 27.556480
_cell_angle_gamma 90.000000
_cell_volume 1319.459470
_symmetry_space_group_name_H-M "P 21/M"
_symmetry_group_IT_number 11
_symmetry_cell_setting 'monoclinic'
loop_
_space_group_symop_operation_xyz
x,y,z
-x,1/2+y,-z
-x,-y,-z
x,1/2-y,z
loop_
_atom_site_type_symbol
_atom_site_label
_atom_site_fract_x
_atom_site_fract_y
_atom_site_fract_z
Si Si1 0.462872 0.068870 0.575733
Si Si2 0.673816 0.929474 0.670403
Si Si3 0.904097 0.570493 0.190462
Si Si4 0.572089 0.433629 0.808319
Si Si5 0.079810 0.566704 0.020053
Si Si6 0.737222 0.573065 0.886448
Si Si7 0.182575 0.066164 0.492137
Si Si8 0.022699 0.434279 0.686909
O O1 0.523249 0.250000 0.541358
O O2 0.307259 0.071870 0.687196
O O3 0.278819 0.003229 0.606769
O O4 0.689977 0.973693 0.506620
O O5 0.613044 0.750000 0.703880
O O6 0.652243 0.958178 0.620922
O O7 0.545166 0.033768 0.761263
O O8 0.953992 0.960925 0.571096
O O9 0.002337 0.750000 0.154401
O O10 0.078192 0.438765 0.142067
O O11 0.894509 0.535596 0.136754
O O12 0.573421 0.250000 0.816699
O O13 0.348075 0.505428 0.924575
O O14 0.835249 0.495092 0.720123
O O15 0.097608 0.750000 0.007415
O O16 0.000000 0.500000 0.000000
O O17 0.710487 0.750000 0.879209
O O18 0.853085 0.462966 0.800336
O O19 0.500000 0.500000 0.000000
O O20 0.115673 0.250000 0.518595
O O21 0.061179 0.250000 0.664546
#
# Coordination Sequence:
#
# PCOD9165295 Si02
#       8
#     4   4   4   4   4   4   4   4
#     4   9  18  35  60  87 118 154 192 241 295 344
#     4  10  22  40  62  89 118 154 193 240 296 351
#     4   9  20  37  54  77 110 149 192 237 285 337
#     4  11  23  40  62  86 118 158 198 243 294 352
#     4  11  24  40  57  83 117 157 202 245 293 349
#     4  11  20  30  50  76 104 142 188 238 286 334
#     4  10  21  38  61  91 120 148 191 243 292 350
#     4   9  20  38  57  82 115 153 195 238 289 347
#
# _framework density 24.252355000000001
#
# number of rings (size 3 to 8) (size 9 to 14) (size 15 to 20)
#    0.000    2.000    0.000    4.125    1.750    7.500 
#    0.000    0.625    0.000    0.000    0.000    0.000 
#    0.000    0.000    0.000    0.000    0.000    0.000 
#
# Total GULP energy -178675.378029 kJ/mol
# GULP energy per Si atom -5583.605563 kJ/mol
# Density = 2.419716 g / cm^3
# Si number density = 24.252355 Si / 1000 Ang^3
#
#
#
# Elastic Constant Matrix: (Units=GPa)
#
#
# Indices 1 2 3 4 5 6 
#
# 1 142.4356 18.0069 -6.1105 0.0000 -3.4177 0.0000
# 2 18.0069 31.4876 -3.5954 0.0000 -6.5261 0.0000
# 3 -6.1105 -3.5954 54.4388 0.0000 -12.7091 0.0000
# 4 0.0000 0.0000 0.0000 26.9275 0.0000 0.2277
# 5 -3.4177 -6.5261 -12.7091 0.0000 37.4627 0.0000
# 6 0.0000 0.0000 0.0000 0.2277 0.0000 33.5633
#
#
#
# Elastic Compliance Matrix: (Units=1/GPa)
#
#
# Indices 1 2 3 4 5 6 
#
# 1 0.007586 -0.004235 0.000609 0.000000 0.000161 0.000000
# 2 -0.004235 0.036060 0.003565 0.000000 0.007105 0.000000
# 3 0.000609 0.003565 0.020451 0.000000 0.007614 0.000000
# 4 0.000000 0.000000 0.000000 0.037139 0.000000 -0.000252
# 5 0.000161 0.007105 0.007614 0.000000 0.030529 0.000000
# 6 0.000000 0.000000 0.000000 -0.000252 0.000000 0.029796
#
#
# Mechanical properties :
#
#
# Convention : Reuss Voigt Hill
#
# Bulk Modulus (GPa) = 15.63118 27.21821 21.42470
# Shear Modulus (GPa) = 27.32121 34.26144 30.79133
#
# Velocity S-wave (km/s) = 3.36004 3.76268 3.56704
# Velocity P-wave (km/s) = 4.63814 5.48856 5.08117
#
# Compressibility (1/GPa) = 0.06397468
#
# Stress axis : x y z
#
# Youngs Moduli (GPa) = 131.81893 27.73144 48.89801
#
# Poissons Ratio (x) = 0.11745 -0.02980
# Poissons Ratio (y) = 0.55830 -0.17431
# Poissons Ratio (z) = -0.08033 -0.09886
#
# Static dielectric constant tensor:
#      x y z
#    x 2.014790 0.000000 -0.041460 
#    y 0.000000 1.825800 0.000000 
#    z -0.041460 0.000000 1.938040 
# 
# From -- ./inp_files/73105.got.cif
#   From: 2010.05.17/outbox.cif.g08.bks.cpg/sg11_37_cif.got.tgz:73105.got - 2010.06.03 12:22:45.
