data_PCOD9165562
_publ_section_title
;
Structure prediction by ZEFSAII (Michael W. Deem and Ramdas Pophale) SiO2 
 PCOD9165562
Probable space group: P 21/M
;
_chemical_formula_sum "Si O2"
_cell_formula_units_Z 28
_cell_length_a 28.404090
_cell_length_b 8.276678
_cell_length_c 9.679607
_cell_angle_alpha 90.000000
_cell_angle_beta 33.907502
_cell_angle_gamma 90.000000
_cell_volume 1269.448381
_symmetry_space_group_name_H-M "P 21/M"
_symmetry_group_IT_number 11
_symmetry_cell_setting 'monoclinic'
loop_
_space_group_symop_operation_xyz
x,y,z
-x,1/2+y,-z
-x,-y,-z
x,1/2-y,z
loop_
_atom_site_type_symbol
_atom_site_label
_atom_site_fract_x
_atom_site_fract_y
_atom_site_fract_z
Si Si1 0.619439 0.946608 0.437216
Si Si2 0.566260 0.440255 0.152510
Si Si3 0.156647 0.437672 0.786911
Si Si4 0.352540 0.054493 0.315842
Si Si5 0.887620 0.434100 0.391452
Si Si6 0.276516 0.439141 0.064141
Si Si7 0.015024 0.937518 0.308897
O O1 0.618370 0.750000 0.436152
O O2 0.627489 0.993620 0.576210
O O3 0.697865 0.996028 0.151346
O O4 0.529454 0.999472 0.594986
O O5 0.572372 0.250000 0.172509
O O6 0.589071 0.465388 0.936058
O O7 0.637229 0.538938 0.060426
O O8 0.155385 0.250000 0.829668
O O9 0.254176 0.484469 0.528152
O O10 0.110493 0.460856 0.752261
O O11 0.109230 0.533822 0.022330
O O12 0.362553 0.250000 0.277261
O O13 0.896168 0.250000 0.325249
O O14 0.956226 0.474342 0.340017
O O15 0.797599 0.463653 0.683485
O O16 0.252429 0.250000 0.121325
O O17 0.993612 0.750000 0.357447
O O18 0.000000 0.000000 0.500000
#
# Coordination Sequence:
#
# PCOD9165562 Si02
#       7
#     4   4   4   4   4   4   4
#     4   9  21  38  59  89 124 166 213 266 322 377
#     4  11  21  37  60  89 126 165 213 267 318 377
#     4  11  23  42  69  98 130 172 217 262 318 381
#     4  10  21  39  63  90 124 167 213 259 316 381
#     4  12  25  44  68  97 131 168 216 266 319 381
#     4  11  22  39  63  90 124 168 216 264 323 383
#     4  12  27  47  71 101 136 169 208 258 317 379
#
# _framework density 22.056823999999999
#
# number of rings (size 3 to 8) (size 9 to 14) (size 15 to 20)
#    0.000    1.143    1.429    5.143    2.000    0.571 
#    0.000    4.286    0.000    0.000    0.000    0.000 
#    0.000    0.000    0.000    0.000    0.000    0.000 
#
# Total GULP energy -156697.616761 kJ/mol
# GULP energy per Si atom -5596.343456 kJ/mol
# Density = 2.200662 g / cm^3
# Si number density = 22.056824 Si / 1000 Ang^3
#
#
#
# Elastic Constant Matrix: (Units=GPa)
#
#
# Indices 1 2 3 4 5 6 
#
# 1 44.7399 -11.8383 2.8725 0.0000 -1.8460 0.0000
# 2 -11.8383 32.1167 -1.3258 0.0000 -7.6025 0.0000
# 3 2.8725 -1.3258 91.6002 0.0000 11.3138 0.0000
# 4 0.0000 0.0000 0.0000 25.9208 0.0000 5.2195
# 5 -1.8460 -7.6025 11.3138 0.0000 30.4748 0.0000
# 6 0.0000 0.0000 0.0000 5.2195 0.0000 23.1364
#
#
#
# Elastic Compliance Matrix: (Units=1/GPa)
#
#
# Indices 1 2 3 4 5 6 
#
# 1 0.025365 0.010383 -0.001210 0.000000 0.004576 0.000000
# 2 0.010383 0.037369 -0.001063 0.000000 0.010346 0.000000
# 3 -0.001210 -0.001063 0.011509 0.000000 -0.004611 0.000000
# 4 0.000000 0.000000 0.000000 0.040415 0.000000 -0.009117
# 5 0.004576 0.010346 -0.004611 0.000000 0.037384 0.000000
# 6 0.000000 0.000000 0.000000 -0.009117 0.000000 0.045279
#
#
# Mechanical properties :
#
#
# Convention : Reuss Voigt Hill
#
# Bulk Modulus (GPa) = 11.05422 16.43040 13.74231
# Shear Modulus (GPa) = 23.66806 27.82297 25.74551
#
# Velocity S-wave (km/s) = 3.27930 3.55550 3.42019
# Velocity P-wave (km/s) = 4.40011 4.93161 4.67342
#
# Compressibility (1/GPa) = 0.09046315
#
# Stress axis : x y z
#
# Youngs Moduli (GPa) = 39.42403 26.76034 86.88757
#
# Poissons Ratio (x) = -0.27785 0.10516
# Poissons Ratio (y) = -0.40934 0.09232
# Poissons Ratio (z) = 0.04772 0.02843
#
# Static dielectric constant tensor:
#      x y z
#    x 1.840460 0.000000 0.024130 
#    y 0.000000 1.763250 0.000000 
#    z 0.024130 0.000000 1.833780 
# 
# From -- ./inp_files/28255.got.cif
#   From: 2010.05.17/outbox.cif.g08.bks.cpg/sg11_15_cif.got.tgz:28255.got - 2010.06.03 12:22:45.
