data_PCOD9165695
_publ_section_title
;
Structure prediction by ZEFSAII (Michael W. Deem and Ramdas Pophale) SiO2 
 PCOD9165695
Probable space group: P 21/M
;
_chemical_formula_sum "Si O2"
_cell_formula_units_Z 32
_cell_length_a 23.284572
_cell_length_b 9.153690
_cell_length_c 14.566720
_cell_angle_alpha 90.000000
_cell_angle_beta 149.090868
_cell_angle_gamma 90.000000
_cell_volume 1594.840310
_symmetry_space_group_name_H-M "P 21/M"
_symmetry_group_IT_number 11
_symmetry_cell_setting 'monoclinic'
loop_
_space_group_symop_operation_xyz
x,y,z
-x,1/2+y,-z
-x,-y,-z
x,1/2-y,z
loop_
_atom_site_type_symbol
_atom_site_label
_atom_site_fract_x
_atom_site_fract_y
_atom_site_fract_z
Si Si1 0.204740 0.576234 0.510784
Si Si2 0.465510 0.425892 0.240997
Si Si3 0.320887 0.421192 0.381012
Si Si4 0.534177 0.423348 0.140497
Si Si5 0.119411 0.583550 0.764540
Si Si6 0.904314 0.922226 0.808617
Si Si7 0.850956 0.917275 0.377824
Si Si8 0.738923 0.925199 0.907980
O O1 0.183555 0.750000 0.484686
O O2 0.334041 0.552836 0.658918
O O3 0.122194 0.499354 0.324899
O O4 0.193066 0.506066 0.595462
O O5 0.470010 0.250000 0.246298
O O6 0.577782 0.486677 0.440274
O O7 0.464511 0.474836 0.133573
O O8 0.361115 0.468296 0.160509
O O9 0.353345 0.250000 0.423791
O O10 0.210465 0.434434 0.291071
O O11 0.291417 0.465973 0.236939
O O12 0.517883 0.250000 0.107071
O O13 0.500000 0.500000 0.000000
O O14 0.159360 0.750000 0.818071
O O15 0.169940 0.494559 0.748030
O O16 0.985713 0.585368 0.571599
O O17 0.152981 0.504263 0.904111
O O18 0.929605 0.750000 0.830485
O O19 0.000000 0.000000 0.000000
O O20 0.809400 0.750000 0.320684
O O21 0.753628 0.750000 0.931704
#
# Coordination Sequence:
#
# PCOD9165695 Si02
#       8
#     4   4   4   4   4   4   4   4
#     4  11  23  41  64  92 124 161 204 254 306 363
#     4  10  21  40  62  86 118 156 198 245 302 359
#     4  10  22  40  61  88 119 155 199 247 303 358
#     4  10  23  40  60  89 122 160 203 250 304 361
#     4  10  22  40  60  89 120 155 199 245 297 355
#     4  11  24  41  62  91 124 163 207 254 308 367
#     4  10  22  40  62  87 120 159 198 244 300 357
#     4  10  22  38  60  89 120 155 197 247 301 355
#
# _framework density 20.064705
#
# number of rings (size 3 to 8) (size 9 to 14) (size 15 to 20)
#    0.000    1.750    1.250    1.875    3.500    4.500 
#    0.000    0.000    0.000    0.000    0.000    0.000 
#    0.000    0.000    0.000    0.000    0.000    0.000 
#
# Total GULP energy -178868.883171 kJ/mol
# GULP energy per Si atom -5589.652599 kJ/mol
# Density = 2.001904 g / cm^3
# Si number density = 20.064705 Si / 1000 Ang^3
#
#
#
# Elastic Constant Matrix: (Units=GPa)
#
#
# Indices 1 2 3 4 5 6 
#
# 1 74.1840 19.6383 -6.9470 0.0000 -23.3578 0.0000
# 2 19.6383 56.3155 19.4296 0.0000 -4.1313 0.0000
# 3 -6.9470 19.4296 59.2133 0.0000 -20.7924 0.0000
# 4 0.0000 0.0000 0.0000 36.2812 0.0000 -6.7096
# 5 -23.3578 -4.1313 -20.7924 0.0000 31.3330 0.0000
# 6 0.0000 0.0000 0.0000 -6.7096 0.0000 26.7699
#
#
#
# Elastic Compliance Matrix: (Units=1/GPa)
#
#
# Indices 1 2 3 4 5 6 
#
# 1 0.030048 -0.015017 0.020370 0.000000 0.033937 0.000000
# 2 -0.015017 0.027650 -0.017582 0.000000 -0.019216 0.000000
# 3 0.020370 -0.017582 0.038547 0.000000 0.038447 0.000000
# 4 0.000000 0.000000 0.000000 0.028902 0.000000 0.007244
# 5 0.033937 -0.019216 0.038447 0.000000 0.080194 0.000000
# 6 0.000000 0.000000 0.000000 0.007244 0.000000 0.039171
#
#
# Mechanical properties :
#
#
# Convention : Reuss Voigt Hill
#
# Bulk Modulus (GPa) = 13.93001 28.21719 21.07360
# Shear Modulus (GPa) = 17.07065 29.38295 23.22680
#
# Velocity S-wave (km/s) = 2.91998 3.83091 3.40604
# Velocity P-wave (km/s) = 4.28089 5.80185 5.09840
#
# Compressibility (1/GPa) = 0.07178745
#
# Stress axis : x y z
#
# Youngs Moduli (GPa) = 33.27970 36.16626 25.94206
#
# Poissons Ratio (x) = 0.54309 -0.52843
# Poissons Ratio (y) = 0.49975 0.45612
# Poissons Ratio (z) = -0.67789 0.63588
#
# Static dielectric constant tensor:
#      x y z
#    x 1.705300 0.000000 0.016210 
#    y 0.000000 1.675850 0.000000 
#    z 0.016210 0.000000 1.690160 
# 
# From -- ./inp_files/55547.got.cif
#   From: 2010.05.17/outbox.cif.g08.bks.cpg/sg11_28_cif.got.tgz:55547.got - 2010.06.03 12:22:45.
