data_PCOD9165430
_publ_section_title
;
Structure prediction by ZEFSAII (Michael W. Deem and Ramdas Pophale) SiO2 
 PCOD9165430
Probable space group: P 21/M
;
_chemical_formula_sum "Si O2"
_cell_formula_units_Z 32
_cell_length_a 20.050693
_cell_length_b 9.737261
_cell_length_c 25.707437
_cell_angle_alpha 90.000000
_cell_angle_beta 17.637862
_cell_angle_gamma 90.000000
_cell_volume 1520.782793
_symmetry_space_group_name_H-M "P 21/M"
_symmetry_group_IT_number 11
_symmetry_cell_setting 'monoclinic'
loop_
_space_group_symop_operation_xyz
x,y,z
-x,1/2+y,-z
-x,-y,-z
x,1/2-y,z
loop_
_atom_site_type_symbol
_atom_site_label
_atom_site_fract_x
_atom_site_fract_y
_atom_site_fract_z
Si Si1 0.104417 0.590658 0.877402
Si Si2 0.217926 0.092900 0.274240
Si Si3 0.820145 0.091660 0.022381
Si Si4 0.920415 0.586475 0.734853
Si Si5 0.420401 0.409053 0.510644
Si Si6 0.293869 0.900969 0.307449
Si Si7 0.427931 0.592960 0.325316
Si Si8 0.956523 0.407989 0.805804
O O1 0.034021 0.750000 0.929534
O O2 0.367192 0.589188 0.684271
O O3 0.018714 0.509145 0.890502
O O4 0.000000 0.500000 0.000000
O O5 0.293681 0.250000 0.217323
O O6 0.207795 0.040989 0.222290
O O7 0.962576 0.092152 0.483646
O O8 0.339658 0.007926 0.228040
O O9 0.851622 0.250000 0.015905
O O10 0.813984 0.091885 0.964402
O O11 0.605612 0.021824 0.206940
O O12 0.885867 0.750000 0.766312
O O13 0.182218 0.566956 0.528674
O O14 0.871498 0.504210 0.823292
O O15 0.500000 0.500000 0.500000
O O16 0.382046 0.250000 0.556204
O O17 0.201213 0.452697 0.643172
O O18 0.332540 0.750000 0.256486
O O19 0.416827 0.912108 0.270694
O O20 0.489790 0.750000 0.294167
O O21 0.972430 0.250000 0.775566
#
# Coordination Sequence:
#
# PCOD9165430 Si02
#       8
#     4   4   4   4   4   4   4   4
#     4  11  24  40  60  85 111 141 176 218 269 320
#     4   8  14  26  45  72 106 135 170 215 259 311
#     4  11  23  39  57  78 108 144 180 221 268 316
#     4   9  19  34  53  80 109 141 177 219 268 316
#     4  10  21  39  60  81 106 138 178 220 264 315
#     4   8  14  26  46  72 104 139 172 211 262 313
#     4   9  19  35  53  79 112 142 178 222 266 319
#     4  10  22  38  55  78 108 140 177 223 265 312
#
# _framework density 21.041795
#
# number of rings (size 3 to 8) (size 9 to 14) (size 15 to 20)
#    0.000    2.500    1.250    2.250    1.750    3.500 
#    0.000    2.500    0.000    0.750    0.000    0.000 
#    0.000    0.000    0.000    0.000    0.000    0.000 
#
# Total GULP energy -178534.744182 kJ/mol
# GULP energy per Si atom -5579.210756 kJ/mol
# Density = 2.099390 g / cm^3
# Si number density = 21.041795 Si / 1000 Ang^3
#
#
#
# Elastic Constant Matrix: (Units=GPa)
#
#
# Indices 1 2 3 4 5 6 
#
# 1 82.1568 38.5679 -2.5037 0.0000 22.7820 0.0000
# 2 38.5679 90.8695 22.1234 0.0000 8.4945 0.0000
# 3 -2.5037 22.1234 44.0678 0.0000 -3.5257 0.0000
# 4 0.0000 0.0000 0.0000 16.8936 0.0000 5.1334
# 5 22.7820 8.4945 -3.5257 0.0000 17.4571 0.0000
# 6 0.0000 0.0000 0.0000 5.1334 0.0000 37.5209
#
#
#
# Elastic Compliance Matrix: (Units=1/GPa)
#
#
# Indices 1 2 3 4 5 6 
#
# 1 0.023305 -0.008334 0.003455 0.000000 -0.025661 0.000000
# 2 -0.008334 0.016562 -0.008703 0.000000 0.001059 0.000000
# 3 0.003455 -0.008703 0.027683 0.000000 0.005317 0.000000
# 4 0.000000 0.000000 0.000000 0.061761 0.000000 -0.008450
# 5 -0.025661 0.001059 0.005317 0.000000 0.091330 0.000000
# 6 0.000000 0.000000 0.000000 -0.008450 0.000000 0.027808
#
#
# Mechanical properties :
#
#
# Convention : Reuss Voigt Hill
#
# Bulk Modulus (GPa) = 24.76117 37.05217 30.90667
# Shear Modulus (GPa) = 17.29647 24.96810 21.13229
#
# Velocity S-wave (km/s) = 2.87017 3.44844 3.17251
# Velocity P-wave (km/s) = 4.77253 5.78815 5.30470
#
# Compressibility (1/GPa) = 0.04038582
#
# Stress axis : x y z
#
# Youngs Moduli (GPa) = 42.90905 60.37983 36.12278
#
# Poissons Ratio (x) = 0.50319 -0.12480
# Poissons Ratio (y) = 0.35759 0.31439
# Poissons Ratio (z) = -0.14824 0.52550
#
# Static dielectric constant tensor:
#      x y z
#    x 1.788660 0.000000 -0.016980 
#    y 0.000000 1.737600 0.000000 
#    z -0.016980 0.000000 1.793330 
# 
# From -- ./inp_files/72057.got.cif
#   From: 2010.05.17/outbox.cif.g08.bks.cpg/sg11_37_cif.got.tgz:72057.got - 2010.06.03 12:22:45.
