data_PCOD9165954
_publ_section_title
;
Structure prediction by ZEFSAII (Michael W. Deem and Ramdas Pophale) SiO2 
 PCOD9165954
Probable space group: P 21/M
;
_chemical_formula_sum "Si O2"
_cell_formula_units_Z 32
_cell_length_a 23.682026
_cell_length_b 8.752303
_cell_length_c 14.601355
_cell_angle_alpha 90.000000
_cell_angle_beta 31.646125
_cell_angle_gamma 90.000000
_cell_volume 1587.894897
_symmetry_space_group_name_H-M "P 21/M"
_symmetry_group_IT_number 11
_symmetry_cell_setting 'monoclinic'
loop_
_space_group_symop_operation_xyz
x,y,z
-x,1/2+y,-z
-x,-y,-z
x,1/2-y,z
loop_
_atom_site_type_symbol
_atom_site_label
_atom_site_fract_x
_atom_site_fract_y
_atom_site_fract_z
Si Si1 0.104911 0.434253 0.804775
Si Si2 0.454270 0.066399 0.156984
Si Si3 0.781906 0.432175 0.522560
Si Si4 0.686367 0.564403 0.365261
Si Si5 0.858773 0.927727 0.604380
Si Si6 0.280173 0.432175 0.887591
Si Si7 0.538152 0.434120 0.233583
Si Si8 0.882761 0.427039 0.764172
O O1 0.098494 0.250000 0.809536
O O2 0.129791 0.499056 0.669258
O O3 0.209309 0.480107 0.720771
O O4 0.000000 0.500000 0.000000
O O5 0.447737 0.250000 0.161343
O O6 0.530702 0.025117 0.136958
O O7 0.334899 0.001914 0.339775
O O8 0.500000 0.000000 0.000000
O O9 0.779841 0.250000 0.517641
O O10 0.807179 0.481767 0.591681
O O11 0.685526 0.750000 0.365961
O O12 0.694700 0.511163 0.249197
O O13 0.575092 0.516269 0.565052
O O14 0.826539 0.750000 0.645319
O O15 0.988326 0.936423 0.414801
O O16 0.837628 0.997379 0.733567
O O17 0.282827 0.250000 0.883056
O O18 0.366342 0.493813 0.840935
O O19 0.165486 0.488821 0.081845
O O20 0.545672 0.250000 0.229424
O O21 0.851313 0.250000 0.809273
#
# Coordination Sequence:
#
# PCOD9165954 Si02
#       8
#     4   4   4   4   4   4   4   4
#     4  11  23  43  66  95 130 169 215 264 320 379
#     4  11  24  43  67  93 128 169 213 265 320 382
#     4  12  25  42  66  97 130 169 212 262 322 385
#     4   9  20  41  64  87 121 162 203 253 310 367
#     4  10  22  41  65  90 122 163 207 256 310 370
#     4  11  23  37  61  93 123 159 204 254 309 371
#     4  10  21  42  65  86 120 164 204 255 315 368
#     4  10  22  41  62  90 124 161 205 255 308 370
#
# _framework density 20.152467000000001
#
# number of rings (size 3 to 8) (size 9 to 14) (size 15 to 20)
#    0.000    1.500    1.250    3.375    3.500    2.500 
#    0.000    2.500    0.000    0.000    0.000    0.000 
#    0.000    0.000    0.000    0.000    0.000    0.000 
#
# Total GULP energy -178936.276409 kJ/mol
# GULP energy per Si atom -5591.758638 kJ/mol
# Density = 2.010660 g / cm^3
# Si number density = 20.152467 Si / 1000 Ang^3
#
#
#
# Elastic Constant Matrix: (Units=GPa)
#
#
# Indices 1 2 3 4 5 6 
#
# 1 65.2039 21.9434 -2.4860 0.0000 20.5622 0.0000
# 2 21.9434 72.1695 9.0464 0.0000 6.0767 0.0000
# 3 -2.4860 9.0464 58.8375 0.0000 18.5882 0.0000
# 4 0.0000 0.0000 0.0000 35.9426 0.0000 -0.3458
# 5 20.5622 6.0767 18.5882 0.0000 33.9316 0.0000
# 6 0.0000 0.0000 0.0000 -0.3458 0.0000 29.0041
#
#
#
# Elastic Compliance Matrix: (Units=1/GPa)
#
#
# Indices 1 2 3 4 5 6 
#
# 1 0.023123 -0.006528 0.007302 0.000000 -0.016844 0.000000
# 2 -0.006528 0.016045 -0.003730 0.000000 0.003126 0.000000
# 3 0.007302 -0.003730 0.023055 0.000000 -0.016387 0.000000
# 4 0.000000 0.000000 0.000000 0.027825 0.000000 0.000332
# 5 -0.016844 0.003126 -0.016387 0.000000 0.048095 0.000000
# 6 0.000000 0.000000 0.000000 0.000332 0.000000 0.034482
#
#
# Mechanical properties :
#
#
# Convention : Reuss Voigt Hill
#
# Bulk Modulus (GPa) = 17.75832 28.13538 22.94685
# Shear Modulus (GPa) = 25.34092 30.95614 28.14853
#
# Velocity S-wave (km/s) = 3.54992 3.92356 3.74140
# Velocity P-wave (km/s) = 5.06297 5.87514 5.48411
#
# Compressibility (1/GPa) = 0.05631163
#
# Stress axis : x y z
#
# Youngs Moduli (GPa) = 43.24611 62.32278 43.37444
#
# Poissons Ratio (x) = 0.40683 -0.31672
# Poissons Ratio (y) = 0.28230 0.16180
# Poissons Ratio (z) = -0.31578 0.23249
#
# Static dielectric constant tensor:
#      x y z
#    x 1.694970 0.000000 -0.000660 
#    y 0.000000 1.683460 0.000000 
#    z -0.000660 0.000000 1.711180 
# 
# From -- ./inp_files/55584.got.cif
#   From: 2010.05.17/outbox.cif.g08.bks.cpg/sg11_28_cif.got.tgz:55584.got - 2010.06.03 12:22:45.
