data_PCOD9165207
_publ_section_title
;
Structure prediction by ZEFSAII (Michael W. Deem and Ramdas Pophale) SiO2 
 PCOD9165207
Probable space group: P 21/M
;
_chemical_formula_sum "Si O2"
_cell_formula_units_Z 32
_cell_length_a 19.350484
_cell_length_b 13.778343
_cell_length_c 7.932452
_cell_angle_alpha 90.000000
_cell_angle_beta 39.459883
_cell_angle_gamma 90.000000
_cell_volume 1344.118809
_symmetry_space_group_name_H-M "P 21/M"
_symmetry_group_IT_number 11
_symmetry_cell_setting 'monoclinic'
loop_
_space_group_symop_operation_xyz
x,y,z
-x,1/2+y,-z
-x,-y,-z
x,1/2-y,z
loop_
_atom_site_type_symbol
_atom_site_label
_atom_site_fract_x
_atom_site_fract_y
_atom_site_fract_z
Si Si1 0.613897 0.363989 0.412249
Si Si2 0.217715 0.501961 0.089566
Si Si3 0.309990 0.635054 0.342471
Si Si4 0.460902 0.133394 0.197791
Si Si5 0.088142 0.554586 0.624555
Si Si6 0.620132 0.633587 0.027663
Si Si7 0.753600 0.862009 0.244020
Si Si8 0.930697 0.855859 0.171011
O O1 0.618468 0.250000 0.360454
O O2 0.657286 0.374096 0.523302
O O3 0.486601 0.390711 0.659385
O O4 0.692279 0.422537 0.142971
O O5 0.119785 0.554641 0.369653
O O6 0.276834 0.425782 0.103349
O O7 0.185351 0.436061 0.991876
O O8 0.292142 0.750000 0.343934
O O9 0.202530 0.577261 0.501757
O O10 0.414285 0.601936 0.036029
O O11 0.463645 0.250000 0.208088
O O12 0.370429 0.101232 0.500722
O O13 0.415209 0.112982 0.097517
O O14 0.049137 0.446703 0.747707
O O15 0.006131 0.629704 0.864050
O O16 0.638076 0.750000 0.005729
O O17 0.753757 0.750000 0.183036
O O18 0.810051 0.860144 0.320050
O O19 0.949466 0.750000 0.211718
#
# Coordination Sequence:
#
# PCOD9165207 Si02
#       8
#     4   4   4   4   4   4   4   4
#     4   9  20  36  53  78 119 164 197 230 277 335
#     4  12  23  34  54  86 121 149 184 235 291 344
#     4   9  18  37  62  87 117 154 197 239 277 325
#     4   8  16  33  59  87 118 157 196 232 271 327
#     4  11  24  39  62  91 113 143 190 240 290 344
#     4   9  18  34  54  81 118 159 199 234 275 329
#     4  10  21  38  60  86 118 156 192 229 281 341
#     4  10  23  45  66  82 108 147 194 243 284 333
#
# _framework density 23.807417000000001
#
# number of rings (size 3 to 8) (size 9 to 14) (size 15 to 20)
#    0.000    2.250    0.000    4.125    0.000    5.500 
#    0.000    5.625    0.000    3.000    0.000    0.000 
#    0.000    0.000    0.000    0.000    0.000    0.000 
#
# Total GULP energy -179080.016566 kJ/mol
# GULP energy per Si atom -5596.250518 kJ/mol
# Density = 2.375323 g / cm^3
# Si number density = 23.807417 Si / 1000 Ang^3
#
#
#
# Elastic Constant Matrix: (Units=GPa)
#
#
# Indices 1 2 3 4 5 6 
#
# 1 26.9643 -8.8861 -16.3122 0.0000 -1.8573 0.0000
# 2 -8.8861 90.1119 13.0889 0.0000 0.1612 0.0000
# 3 -16.3122 13.0889 106.0307 0.0000 -0.2553 0.0000
# 4 0.0000 0.0000 0.0000 22.9193 0.0000 1.3321
# 5 -1.8573 0.1612 -0.2553 0.0000 26.6044 0.0000
# 6 0.0000 0.0000 0.0000 1.3321 0.0000 25.1231
#
#
#
# Elastic Compliance Matrix: (Units=1/GPa)
#
#
# Indices 1 2 3 4 5 6 
#
# 1 0.042038 0.003258 0.006072 0.000000 0.002973 0.000000
# 2 0.003258 0.011553 -0.000925 0.000000 0.000149 0.000000
# 3 0.006072 -0.000925 0.010481 0.000000 0.000530 0.000000
# 4 0.000000 0.000000 0.000000 0.043766 0.000000 -0.002321
# 5 0.002973 0.000149 0.000530 0.000000 0.037799 0.000000
# 6 0.000000 0.000000 0.000000 -0.002321 0.000000 0.039927
#
#
# Mechanical properties :
#
#
# Convention : Reuss Voigt Hill
#
# Bulk Modulus (GPa) = 12.36349 22.09866 17.23108
# Shear Modulus (GPa) = 25.54756 30.61046 28.07901
#
# Velocity S-wave (km/s) = 3.27936 3.58963 3.43800
# Velocity P-wave (km/s) = 4.42079 5.14616 4.79721
#
# Compressibility (1/GPa) = 0.08088328
#
# Stress axis : x y z
#
# Youngs Moduli (GPa) = 23.78799 86.56042 95.41239
#
# Poissons Ratio (x) = -0.28202 -0.57937
# Poissons Ratio (y) = -0.07750 0.08821
# Poissons Ratio (z) = -0.14445 0.08003
#
# Static dielectric constant tensor:
#      x y z
#    x 1.902720 0.000000 0.020010 
#    y 0.000000 1.892410 0.000000 
#    z 0.020010 0.000000 1.935400 
# 
# From -- ./inp_files/27770.got.cif
#   From: 2010.05.17/outbox.cif.g08.bks.cpg/sg11_14_cif.got.tgz:27770.got - 2010.06.03 12:22:45.
