data_PCOD9165881
_publ_section_title
;
Structure prediction by ZEFSAII (Michael W. Deem and Ramdas Pophale) SiO2 
 PCOD9165881
Probable space group: P 21/M
;
_chemical_formula_sum "Si O2"
_cell_formula_units_Z 24
_cell_length_a 14.389497
_cell_length_b 8.614811
_cell_length_c 17.675834
_cell_angle_alpha 90.000000
_cell_angle_beta 144.242269
_cell_angle_gamma 90.000000
_cell_volume 1280.416148
_symmetry_space_group_name_H-M "P 21/M"
_symmetry_group_IT_number 11
_symmetry_cell_setting 'monoclinic'
loop_
_space_group_symop_operation_xyz
x,y,z
-x,1/2+y,-z
-x,-y,-z
x,1/2-y,z
loop_
_atom_site_type_symbol
_atom_site_label
_atom_site_fract_x
_atom_site_fract_y
_atom_site_fract_z
Si Si1 0.533069 0.437651 0.780110
Si Si2 0.177618 0.065263 0.125154
Si Si3 0.048891 0.063152 0.613878
Si Si4 0.581006 0.936828 0.129002
Si Si5 0.676831 0.434225 0.625092
Si Si6 0.233481 0.435739 0.474070
O O1 0.540783 0.250000 0.784848
O O2 0.696391 0.502015 0.853407
O O3 0.495486 0.489114 0.841343
O O4 0.384688 0.480547 0.627048
O O5 0.173830 0.250000 0.117706
O O6 0.242542 0.012111 0.249487
O O7 0.000000 0.000000 0.000000
O O8 0.033602 0.250000 0.606301
O O9 0.232614 0.022136 0.748677
O O10 0.927943 0.984622 0.591746
O O11 0.000000 0.000000 0.500000
O O12 0.570188 0.750000 0.121402
O O13 0.500000 0.000000 0.000000
O O14 0.500000 0.500000 0.500000
O O15 0.672930 0.250000 0.633571
O O16 0.759333 0.479546 0.601276
O O17 0.241220 0.250000 0.468721
#
# Coordination Sequence:
#
# PCOD9165881 Si02
#       6
#     4   4   4   4   4   4
#     4  10  21  41  65  90 127 169 212 263 320 384
#     4  12  26  44  67  96 130 171 215 265 324 386
#     4  11  22  39  62  92 127 164 213 265 317 379
#     4  10  23  42  63  91 127 167 208 259 316 376
#     4  12  24  41  65  96 129 166 213 265 318 381
#     4  11  22  39  65  96 130 169 213 265 322 378
#
# _framework density 18.743905999999999
#
# number of rings (size 3 to 8) (size 9 to 14) (size 15 to 20)
#    0.000    1.000    3.333    4.000    0.000    4.000 
#    0.000    3.333    0.000    0.000    0.000    0.000 
#    0.000    0.000    0.000    0.000    0.000    0.000 
#
# Total GULP energy -134192.099053 kJ/mol
# GULP energy per Si atom -5591.337461 kJ/mol
# Density = 1.870124 g / cm^3
# Si number density = 18.743906 Si / 1000 Ang^3
#
#
#
# Elastic Constant Matrix: (Units=GPa)
#
#
# Indices 1 2 3 4 5 6 
#
# 1 157.0859 25.1774 70.5715 0.0000 12.6610 0.0000
# 2 25.1774 60.5254 33.9478 0.0000 9.2398 0.0000
# 3 70.5715 33.9478 155.3220 0.0000 9.7216 0.0000
# 4 0.0000 0.0000 0.0000 32.0725 0.0000 0.2000
# 5 12.6610 9.2398 9.7216 0.0000 30.8637 0.0000
# 6 0.0000 0.0000 0.0000 0.2000 0.0000 39.4394
#
#
#
# Elastic Compliance Matrix: (Units=1/GPa)
#
#
# Indices 1 2 3 4 5 6 
#
# 1 0.008225 -0.001250 -0.003342 0.000000 -0.001947 0.000000
# 2 -0.001250 0.019633 -0.003456 0.000000 -0.004276 0.000000
# 3 -0.003342 -0.003456 0.008734 0.000000 -0.000346 0.000000
# 4 0.000000 0.000000 0.000000 0.031180 0.000000 -0.000158
# 5 -0.001947 -0.004276 -0.000346 0.000000 0.034588 0.000000
# 6 0.000000 0.000000 0.000000 -0.000158 0.000000 0.025356
#
#
# Mechanical properties :
#
#
# Convention : Reuss Voigt Hill
#
# Bulk Modulus (GPa) = 48.78822 70.25852 59.52337
# Shear Modulus (GPa) = 33.19124 36.69089 34.94106
#
# Velocity S-wave (km/s) = 4.21262 4.42915 4.32224
# Velocity P-wave (km/s) = 7.05315 7.98256 7.53220
#
# Compressibility (1/GPa) = 0.02049675
#
# Stress axis : x y z
#
# Youngs Moduli (GPa) = 121.58775 50.93509 114.50116
#
# Poissons Ratio (x) = 0.06365 0.38265
# Poissons Ratio (y) = 0.15193 0.39567
# Poissons Ratio (z) = 0.40633 0.17601
#
# Static dielectric constant tensor:
#      x y z
#    x 1.667070 0.000000 0.088180 
#    y 0.000000 1.638860 0.000000 
#    z 0.088180 0.000000 1.742270 
# 
# From -- ./inp_files/60188.got.cif
#   From: 2010.05.17/outbox.cif.g08.bks.cpg/sg11_31_cif.got.tgz:60188.got - 2010.06.03 12:22:45.
