data_PCOD9165731
_publ_section_title
;
Structure prediction by ZEFSAII (Michael W. Deem and Ramdas Pophale) SiO2 
 PCOD9165731
Probable space group: P 21/M
;
_chemical_formula_sum "Si O2"
_cell_formula_units_Z 32
_cell_length_a 14.645421
_cell_length_b 8.722524
_cell_length_c 24.265218
_cell_angle_alpha 90.000000
_cell_angle_beta 32.693641
_cell_angle_gamma 90.000000
_cell_volume 1674.326444
_symmetry_space_group_name_H-M "P 21/M"
_symmetry_group_IT_number 11
_symmetry_cell_setting 'monoclinic'
loop_
_space_group_symop_operation_xyz
x,y,z
-x,1/2+y,-z
-x,-y,-z
x,1/2-y,z
loop_
_atom_site_type_symbol
_atom_site_label
_atom_site_fract_x
_atom_site_fract_y
_atom_site_fract_z
Si Si1 0.821655 0.565623 0.222537
Si Si2 0.196141 0.432427 0.539714
Si Si3 0.688975 0.566351 0.904565
Si Si4 0.800964 0.434403 0.962500
Si Si5 0.485106 0.064724 0.198467
Si Si6 0.310337 0.933076 0.596477
Si Si7 0.160130 0.434649 0.290500
Si Si8 0.498679 0.433799 0.687529
O O1 0.812014 0.750000 0.235026
O O2 0.778016 0.487542 0.302689
O O3 0.679076 0.522294 0.250806
O O4 0.013603 0.527253 0.108707
O O5 0.204728 0.250000 0.538800
O O6 0.216581 0.503574 0.590221
O O7 0.349973 0.494518 0.424879
O O8 0.016791 0.486051 0.606772
O O9 0.680366 0.750000 0.910265
O O10 0.780226 0.505327 0.912604
O O11 0.782348 0.522069 0.800616
O O12 0.500000 0.500000 0.000000
O O13 0.789406 0.250000 0.962956
O O14 0.646111 0.483716 0.079869
O O15 0.489964 0.250000 0.200712
O O16 0.312689 0.024450 0.254012
O O17 0.492651 0.992104 0.254654
O O18 0.316912 0.750000 0.590616
O O19 0.500000 0.000000 0.500000
O O20 0.138990 0.250000 0.302762
O O21 0.513098 0.250000 0.678407
#
# Coordination Sequence:
#
# PCOD9165731 Si02
#       8
#     4   4   4   4   4   4   4   4
#     4  10  22  40  64  92 125 162 202 250 305 361
#     4  12  25  41  64  93 123 161 203 250 309 367
#     4  11  21  36  61  92 125 162 199 245 304 364
#     4  10  21  40  63  91 124 162 202 249 304 361
#     4  10  22  42  64  87 121 163 207 256 306 357
#     4  12  23  38  63  93 127 163 201 248 303 365
#     4  10  22  41  63  90 124 162 203 251 307 363
#     4  11  24  42  63  89 122 161 207 258 304 358
#
# _framework density 19.112162000000001
#
# number of rings (size 3 to 8) (size 9 to 14) (size 15 to 20)
#    0.000    1.250    2.500    3.750    0.000    6.000 
#    0.000    0.000    0.000    0.000    0.000    0.000 
#    0.000    0.000    0.000    0.000    0.000    0.000 
#
# Total GULP energy -178954.079113 kJ/mol
# GULP energy per Si atom -5592.314972 kJ/mol
# Density = 1.906866 g / cm^3
# Si number density = 19.112162 Si / 1000 Ang^3
#
#
#
# Elastic Constant Matrix: (Units=GPa)
#
#
# Indices 1 2 3 4 5 6 
#
# 1 163.3978 57.7527 94.6396 0.0000 -6.7235 0.0000
# 2 57.7527 48.6315 36.3580 0.0000 -9.8082 0.0000
# 3 94.6396 36.3580 69.3500 0.0000 -30.8773 0.0000
# 4 0.0000 0.0000 0.0000 25.0482 0.0000 6.5489
# 5 -6.7235 -9.8082 -30.8773 0.0000 38.0561 0.0000
# 6 0.0000 0.0000 0.0000 6.5489 0.0000 29.9150
#
#
#
# Elastic Compliance Matrix: (Units=1/GPa)
#
#
# Indices 1 2 3 4 5 6 
#
# 1 -0.057489 -0.002387 0.117274 0.000000 0.084380 0.000000
# 2 -0.002387 0.035749 -0.018113 0.000000 -0.005905 0.000000
# 3 0.117274 -0.018113 -0.201921 0.000000 -0.147781 0.000000
# 4 0.000000 0.000000 0.000000 0.042347 0.000000 -0.009270
# 5 0.084380 -0.005905 -0.147781 0.000000 -0.080241 0.000000
# 6 0.000000 0.000000 0.000000 -0.009270 0.000000 0.035458
#
#
# Mechanical properties :
#
#
# Convention : Reuss Voigt Hill
#
# Bulk Modulus (GPa) = -33.20583 73.20887 20.00152
# Shear Modulus (GPa) = -11.63649 24.77913 6.57132
#
# Velocity S-wave (km/s) = -2.47017 3.60462 1.85627
# Velocity P-wave (km/s) = 5.05446 7.46407 3.88361
#
# Compressibility (1/GPa) = -0.03011519
#
# Stress axis : x y z
#
# Youngs Moduli (GPa) = -17.39471 27.97308 -4.95243
#
# Poissons Ratio (x) = 0.06677 0.58079
# Poissons Ratio (y) = -0.04152 -0.08971
# Poissons Ratio (z) = 2.03994 0.50669
#
# Static dielectric constant tensor:
#      x y z
#    x 1.648220 0.000000 -0.022860 
#    y 0.000000 1.640470 0.000000 
#    z -0.022860 0.000000 1.651390 
# 
# From -- ./inp_files/68976.got.cif
#   From: 2010.05.17/outbox.cif.g08.bks.cpg/sg11_35_cif.got.tgz:68976.got - 2010.06.03 12:22:45.
