data_PCOD9165013
_publ_section_title
;
Structure prediction by ZEFSAII (Michael W. Deem and Ramdas Pophale) SiO2 
 PCOD9165013
Probable space group: P 21/M
;
_chemical_formula_sum "Si O2"
_cell_formula_units_Z 20
_cell_length_a 18.296218
_cell_length_b 10.434587
_cell_length_c 13.467664
_cell_angle_alpha 90.000000
_cell_angle_beta 159.261032
_cell_angle_gamma 90.000000
_cell_volume 910.475475
_symmetry_space_group_name_H-M "P 21/M"
_symmetry_group_IT_number 11
_symmetry_cell_setting 'monoclinic'
loop_
_space_group_symop_operation_xyz
x,y,z
-x,1/2+y,-z
-x,-y,-z
x,1/2-y,z
loop_
_atom_site_type_symbol
_atom_site_label
_atom_site_fract_x
_atom_site_fract_y
_atom_site_fract_z
Si Si1 0.297816 0.888897 0.834298
Si Si2 0.807880 0.391836 0.082584
Si Si3 0.048445 0.607727 0.143472
Si Si4 0.624135 0.603138 0.723523
Si Si5 0.243517 0.038253 0.563166
O O1 0.250572 0.750000 0.731233
O O2 0.163896 0.903633 0.763297
O O3 0.264267 0.981961 0.700451
O O4 0.537732 0.892882 0.173349
O O5 0.710079 0.250000 0.940687
O O6 0.021460 0.392718 0.291607
O O7 0.677399 0.517188 0.887198
O O8 0.096046 0.750000 0.163372
O O9 0.216225 0.559378 0.436661
O O10 0.839800 0.618456 0.941206
O O11 0.000000 0.500000 0.000000
O O12 0.500000 0.500000 0.500000
O O13 0.543881 0.750000 0.635740
#
# Coordination Sequence:
#
# PCOD9165013 Si02
#       5
#     4   4   4   4   4
#     4  10  21  37  61  89 121 159 201 250 302 365
#     4  10  21  38  61  89 121 159 198 249 306 363
#     4  10  23  40  61  87 120 159 201 251 306 360
#     4  10  22  40  60  87 120 159 201 252 304 364
#     4  10  21  39  59  88 122 160 203 248 304 362
#
# _framework density 21.966543000000001
#
# number of rings (size 3 to 8) (size 9 to 14) (size 15 to 20)
#    0.000    2.000    0.000    2.400    2.800    5.600 
#    0.000    5.000    0.000    0.000    0.000    0.000 
#    0.000    0.000    0.000    0.000    0.000    0.000 
#
# Total GULP energy -111368.408465 kJ/mol
# GULP energy per Si atom -5568.420423 kJ/mol
# Density = 2.191655 g / cm^3
# Si number density = 21.966543 Si / 1000 Ang^3
#
#
#
# Elastic Constant Matrix: (Units=GPa)
#
#
# Indices 1 2 3 4 5 6 
#
# 1 65.7686 36.3794 4.1501 0.0000 2.2139 0.0000
# 2 36.3794 183.3649 35.4142 0.0000 -21.9648 0.0000
# 3 4.1501 35.4142 55.7139 0.0000 -7.8506 0.0000
# 4 0.0000 0.0000 0.0000 15.0887 0.0000 3.8314
# 5 2.2139 -21.9648 -7.8506 0.0000 29.8127 0.0000
# 6 0.0000 0.0000 0.0000 3.8314 0.0000 16.7577
#
#
#
# Elastic Compliance Matrix: (Units=1/GPa)
#
#
# Indices 1 2 3 4 5 6 
#
# 1 0.017581 -0.004126 0.000728 0.000000 -0.004154 0.000000
# 2 -0.004126 0.007599 -0.003833 0.000000 0.004896 0.000000
# 3 0.000728 -0.003833 0.020693 0.000000 0.002571 0.000000
# 4 0.000000 0.000000 0.000000 0.070360 0.000000 -0.016087
# 5 -0.004154 0.004896 0.002571 0.000000 0.038135 0.000000
# 6 0.000000 0.000000 0.000000 -0.016087 0.000000 0.063352
#
#
# Mechanical properties :
#
#
# Convention : Reuss Voigt Hill
#
# Bulk Modulus (GPa) = 31.83631 50.74830 41.29230
# Shear Modulus (GPa) = 20.60551 27.59206 24.09879
#
# Velocity S-wave (km/s) = 3.06607 3.54799 3.31579
# Velocity P-wave (km/s) = 5.20182 6.31957 5.78774
#
# Compressibility (1/GPa) = 0.03141068
#
# Stress axis : x y z
#
# Youngs Moduli (GPa) = 56.87919 131.59647 48.32466
#
# Poissons Ratio (x) = 0.54300 -0.03518
# Poissons Ratio (y) = 0.23470 0.18523
# Poissons Ratio (z) = -0.04140 0.50442
#
# Static dielectric constant tensor:
#      x y z
#    x 1.679340 0.000000 -0.000650 
#    y 0.000000 2.206130 0.000000 
#    z -0.000650 0.000000 1.862930 
# 
# From -- ./inp_files/16065.got.cif
#   From: 2010.05.17/outbox.cif.g08.bks.cpg/sg11_9_cif.got.tgz:16065.got - 2010.06.03 12:22:45.
