data_PCOD9165745
_publ_section_title
;
Structure prediction by ZEFSAII (Michael W. Deem and Ramdas Pophale) SiO2 
 PCOD9165745
Probable space group: P 21/M
;
_chemical_formula_sum "Si O2"
_cell_formula_units_Z 32
_cell_length_a 12.024131
_cell_length_b 13.764210
_cell_length_c 15.771294
_cell_angle_alpha 90.000000
_cell_angle_beta 151.372225
_cell_angle_gamma 90.000000
_cell_volume 1250.588054
_symmetry_space_group_name_H-M "P 21/M"
_symmetry_group_IT_number 11
_symmetry_cell_setting 'monoclinic'
loop_
_space_group_symop_operation_xyz
x,y,z
-x,1/2+y,-z
-x,-y,-z
x,1/2-y,z
loop_
_atom_site_type_symbol
_atom_site_label
_atom_site_fract_x
_atom_site_fract_y
_atom_site_fract_z
Si Si1 0.154827 0.637046 0.508004
Si Si2 0.433964 0.363157 0.328930
Si Si3 0.243903 0.138305 0.655423
Si Si4 0.650103 0.053994 0.821950
Si Si5 0.636354 0.361181 0.633848
Si Si6 0.528132 0.636387 0.910800
Si Si7 0.965002 0.498811 0.162378
Si Si8 0.102182 0.640228 0.735631
O O1 0.092542 0.750000 0.462468
O O2 0.295106 0.616710 0.516787
O O3 0.350056 0.629210 0.711816
O O4 0.908790 0.591864 0.370211
O O5 0.381797 0.250000 0.272735
O O6 0.314747 0.445906 0.193621
O O7 0.430469 0.376200 0.427701
O O8 0.324146 0.250000 0.725494
O O9 0.448209 0.073525 0.755336
O O10 0.056020 0.143336 0.454007
O O11 0.586607 0.119229 0.698765
O O12 0.879697 0.072428 0.029454
O O13 0.709803 0.250000 0.671785
O O14 0.837404 0.434014 0.742538
O O15 0.598621 0.750000 0.963551
O O16 0.365037 0.614977 0.882828
O O17 0.748475 0.569019 0.043134
O O18 0.007398 0.433694 0.272281
O O19 0.106926 0.750000 0.773588
#
# Coordination Sequence:
#
# PCOD9165745 Si02
#       8
#     4   4   4   4   4   4   4   4
#     4   8  15  33  60  91 118 149 195 244 298 358
#     4  10  21  40  64  90 119 154 202 257 300 356
#     4   9  19  38  63  87 121 160 196 247 308 361
#     4  12  24  40  63  92 121 158 205 255 303 358
#     4  11  26  45  62  84 121 162 207 256 302 353
#     4   9  17  35  61  88 124 161 199 244 297 362
#     4  12  23  39  60  89 121 164 205 248 300 363
#     4   9  20  38  60  89 126 164 197 244 303 366
#
# _framework density 25.587962000000001
#
# number of rings (size 3 to 8) (size 9 to 14) (size 15 to 20)
#    0.000    2.000    1.250    4.125    0.000    2.000 
#    4.500    1.875    0.000    0.000    0.000    0.000 
#    0.000    0.000    0.000    0.000    0.000    0.000 
#
# Total GULP energy -179043.337108 kJ/mol
# GULP energy per Si atom -5595.104285 kJ/mol
# Density = 2.552972 g / cm^3
# Si number density = 25.587962 Si / 1000 Ang^3
#
#
#
# Elastic Constant Matrix: (Units=GPa)
#
#
# Indices 1 2 3 4 5 6 
#
# 1 80.1810 13.8615 -4.2300 0.0000 3.8646 0.0000
# 2 13.8615 96.5448 6.7952 0.0000 0.8609 0.0000
# 3 -4.2300 6.7952 33.3740 0.0000 4.1932 0.0000
# 4 0.0000 0.0000 0.0000 17.8743 0.0000 4.8689
# 5 3.8646 0.8609 4.1932 0.0000 34.5373 0.0000
# 6 0.0000 0.0000 0.0000 4.8689 0.0000 32.6332
#
#
#
# Elastic Compliance Matrix: (Units=1/GPa)
#
#
# Indices 1 2 3 4 5 6 
#
# 1 0.013021 -0.002014 0.002272 0.000000 -0.001683 0.000000
# 2 -0.002014 0.010820 -0.002491 0.000000 0.000258 0.000000
# 3 0.002272 -0.002491 0.031260 0.000000 -0.003987 0.000000
# 4 0.000000 0.000000 0.000000 0.058316 0.000000 -0.008701
# 5 -0.001683 0.000258 -0.003987 0.000000 0.029620 0.000000
# 6 0.000000 0.000000 0.000000 -0.008701 0.000000 0.031942
#
#
# Mechanical properties :
#
#
# Convention : Reuss Voigt Hill
#
# Bulk Modulus (GPa) = 19.74957 26.99480 23.37218
# Shear Modulus (GPa) = 25.46815 29.92049 27.69432
#
# Velocity S-wave (km/s) = 3.15829 3.42324 3.29343
# Velocity P-wave (km/s) = 4.58637 5.11835 4.85964
#
# Compressibility (1/GPa) = 0.05063402
#
# Stress axis : x y z
#
# Youngs Moduli (GPa) = 76.79916 92.42043 31.99023
#
# Poissons Ratio (x) = 0.18617 -0.07268
# Poissons Ratio (y) = 0.15470 0.07968
# Poissons Ratio (z) = -0.17448 0.23020
#
# Static dielectric constant tensor:
#      x y z
#    x 2.082250 0.000000 0.009650 
#    y 0.000000 2.001270 0.000000 
#    z 0.009650 0.000000 2.025900 
# 
# From -- ./inp_files/59531.got.cif
#   From: 2010.05.17/outbox.cif.g08.bks.cpg/sg11_30_cif.got.tgz:59531.got - 2010.06.03 12:22:45.
