data_PCOD9165748
_publ_section_title
;
Structure prediction by ZEFSAII (Michael W. Deem and Ramdas Pophale) SiO2 
 PCOD9165748
Probable space group: P 21/M
;
_chemical_formula_sum "Si O2"
_cell_formula_units_Z 28
_cell_length_a 12.226661
_cell_length_b 8.513551
_cell_length_c 16.097892
_cell_angle_alpha 90.000000
_cell_angle_beta 56.070643
_cell_angle_gamma 90.000000
_cell_volume 1390.344846
_symmetry_space_group_name_H-M "P 21/M"
_symmetry_group_IT_number 11
_symmetry_cell_setting 'monoclinic'
loop_
_space_group_symop_operation_xyz
x,y,z
-x,1/2+y,-z
-x,-y,-z
x,1/2-y,z
loop_
_atom_site_type_symbol
_atom_site_label
_atom_site_fract_x
_atom_site_fract_y
_atom_site_fract_z
Si Si1 0.868831 0.561808 0.511642
Si Si2 0.145495 0.062277 0.960100
Si Si3 0.673459 0.440107 0.265383
Si Si4 0.146811 0.937288 0.141169
Si Si5 0.409024 0.058711 0.297827
Si Si6 0.131071 0.561393 0.675357
Si Si7 0.595126 0.938150 0.887510
O O1 0.871025 0.750000 0.513812
O O2 0.736015 0.505503 0.614048
O O3 0.863740 0.507598 0.418693
O O4 0.000000 0.500000 0.500000
O O5 0.143499 0.250000 0.966385
O O6 0.242011 0.006138 0.846842
O O7 0.183968 0.990658 0.032557
O O8 0.000000 0.000000 0.000000
O O9 0.678762 0.250000 0.259570
O O10 0.523038 0.489951 0.313482
O O11 0.745301 0.488378 0.319861
O O12 0.143865 0.750000 0.147081
O O13 0.257302 0.004443 0.155673
O O14 0.003360 0.004612 0.223931
O O15 0.406948 0.250000 0.298409
O O16 0.442724 0.009003 0.189463
O O17 0.128744 0.750000 0.671977
O O18 0.591622 0.750000 0.890994
O O19 0.500000 0.000000 0.000000
#
# Coordination Sequence:
#
# PCOD9165748 Si02
#       7
#     4   4   4   4   4   4   4
#     4  11  23  42  67  92 122 160 210 262 316 377
#     4  12  23  37  59  90 127 166 209 256 311 374
#     4  10  21  40  64  90 125 166 209 255 312 379
#     4  12  24  39  61  89 125 166 214 264 316 373
#     4   9  21  41  64  89 121 164 206 257 315 370
#     4  11  23  39  62  92 125 160 205 258 316 378
#     4  11  22  39  63  92 127 164 210 261 318 378
#
# _framework density 20.138887
#
# number of rings (size 3 to 8) (size 9 to 14) (size 15 to 20)
#    0.000    1.143    1.429    5.571    0.000    3.429 
#    0.000    4.286    0.000    0.000    0.000    0.000 
#    0.000    0.000    0.000    0.000    0.000    0.000 
#
# Total GULP energy -156623.785006 kJ/mol
# GULP energy per Si atom -5593.706607 kJ/mol
# Density = 2.009305 g / cm^3
# Si number density = 20.138887 Si / 1000 Ang^3
#
#
#
# Elastic Constant Matrix: (Units=GPa)
#
#
# Indices 1 2 3 4 5 6 
#
# 1 181.6590 34.9511 70.3133 0.0000 3.2226 0.0000
# 2 34.9511 61.9244 23.5307 0.0000 3.1983 0.0000
# 3 70.3133 23.5307 120.5728 0.0000 7.6629 0.0000
# 4 0.0000 0.0000 0.0000 31.9525 0.0000 0.6727
# 5 3.2226 3.1983 7.6629 0.0000 38.1449 0.0000
# 6 0.0000 0.0000 0.0000 0.6727 0.0000 26.1750
#
#
#
# Elastic Compliance Matrix: (Units=1/GPa)
#
#
# Indices 1 2 3 4 5 6 
#
# 1 0.007536 -0.002801 -0.003872 0.000000 0.000376 0.000000
# 2 -0.002801 0.018507 -0.001919 0.000000 -0.000930 0.000000
# 3 -0.003872 -0.001919 0.011036 0.000000 -0.001729 0.000000
# 4 0.000000 0.000000 0.000000 0.031313 0.000000 -0.000805
# 5 0.000376 -0.000930 -0.001729 0.000000 0.026609 0.000000
# 6 0.000000 0.000000 0.000000 -0.000805 0.000000 0.038225
#
#
# Mechanical properties :
#
#
# Convention : Reuss Voigt Hill
#
# Bulk Modulus (GPa) = 50.26535 69.08292 59.67414
# Shear Modulus (GPa) = 31.83850 34.94523 33.39186
#
# Velocity S-wave (km/s) = 3.98043 4.17011 4.07637
# Velocity P-wave (km/s) = 6.79254 7.58710 7.20079
#
# Compressibility (1/GPa) = 0.01989442
#
# Stress axis : x y z
#
# Youngs Moduli (GPa) = 132.70087 54.03319 90.61280
#
# Poissons Ratio (x) = 0.15137 0.35083
# Poissons Ratio (y) = 0.37176 0.17389
# Poissons Ratio (z) = 0.51378 0.10369
#
# Static dielectric constant tensor:
#      x y z
#    x 1.713830 0.000000 0.000070 
#    y 0.000000 1.683110 0.000000 
#    z 0.000070 0.000000 1.688400 
# 
# From -- ./inp_files/49162.got.cif
#   From: 2010.05.17/outbox.cif.g08.bks.cpg/sg11_25_cif.got.tgz:49162.got - 2010.06.03 12:22:45.
