data_PCOD9165502
_publ_section_title
;
Structure prediction by ZEFSAII (Michael W. Deem and Ramdas Pophale) SiO2 
 PCOD9165502
Probable space group: P 21/M
;
_chemical_formula_sum "Si O2"
_cell_formula_units_Z 32
_cell_length_a 12.593262
_cell_length_b 8.470185
_cell_length_c 32.741226
_cell_angle_alpha 90.000000
_cell_angle_beta 27.981038
_cell_angle_gamma 90.000000
_cell_volume 1638.569775
_symmetry_space_group_name_H-M "P 21/M"
_symmetry_group_IT_number 11
_symmetry_cell_setting 'monoclinic'
loop_
_space_group_symop_operation_xyz
x,y,z
-x,1/2+y,-z
-x,-y,-z
x,1/2-y,z
loop_
_atom_site_type_symbol
_atom_site_label
_atom_site_fract_x
_atom_site_fract_y
_atom_site_fract_z
Si Si1 0.280397 0.559527 0.022448
Si Si2 0.468972 0.061123 0.251697
Si Si3 0.025615 0.058847 0.355524
Si Si4 0.859705 0.057651 0.323147
Si Si5 0.381802 0.439347 0.451182
Si Si6 0.957131 0.938469 0.059999
Si Si7 0.205297 0.440832 0.135995
Si Si8 0.743567 0.062220 0.592315
O O1 0.279174 0.750000 0.022551
O O2 0.169785 0.502886 0.102351
O O3 0.143723 0.502913 0.029360
O O4 0.543212 0.508656 0.935012
O O5 0.490206 0.250000 0.243199
O O6 0.276833 0.012748 0.284176
O O7 0.709919 0.987331 0.159606
O O8 0.374097 0.011013 0.328021
O O9 0.014872 0.250000 0.360383
O O10 0.956147 0.004869 0.333915
O O11 0.844359 0.993581 0.449162
O O12 0.864367 0.250000 0.322047
O O13 0.601766 0.010258 0.402270
O O14 0.018696 0.006095 0.231827
O O15 0.382435 0.250000 0.447266
O O16 0.385926 0.512914 0.404824
O O17 0.972441 0.750000 0.053835
O O18 0.000000 0.000000 0.000000
O O19 0.202462 0.250000 0.135697
O O20 0.749920 0.250000 0.594351
O O21 0.000000 0.000000 0.500000
#
# Coordination Sequence:
#
# PCOD9165502 Si02
#       8
#     4   4   4   4   4   4   4   4
#     4   9  20  38  60  85 117 152 193 244 301 357
#     4  11  24  41  65  93 123 165 209 253 310 370
#     4  10  21  39  62  85 118 162 206 248 304 366
#     4   9  20  36  59  89 116 154 203 249 299 359
#     4  11  22  37  59  89 125 159 202 251 303 362
#     4  11  25  43  64  93 127 163 205 255 309 368
#     4   9  18  36  62  86 112 150 195 244 298 359
#     4  12  24  41  64  91 125 164 208 257 309 367
#
# _framework density 19.529226000000001
#
# number of rings (size 3 to 8) (size 9 to 14) (size 15 to 20)
#    0.000    1.750    1.250    2.625    3.500    1.500 
#    0.000    1.875    0.000    0.000    0.000    0.000 
#    0.000    0.000    0.000    0.000    0.000    0.000 
#
# Total GULP energy -178825.228426 kJ/mol
# GULP energy per Si atom -5588.288388 kJ/mol
# Density = 1.948478 g / cm^3
# Si number density = 19.529226 Si / 1000 Ang^3
#
#
#
# Elastic Constant Matrix: (Units=GPa)
#
#
# Indices 1 2 3 4 5 6 
#
# 1 150.9296 17.9983 34.6256 0.0000 2.6814 0.0000
# 2 17.9983 22.4787 5.9692 0.0000 -3.2849 0.0000
# 3 34.6256 5.9692 79.0907 0.0000 4.4139 0.0000
# 4 0.0000 0.0000 0.0000 29.2632 0.0000 5.8621
# 5 2.6814 -3.2849 4.4139 0.0000 22.4196 0.0000
# 6 0.0000 0.0000 0.0000 5.8621 0.0000 26.1413
#
#
#
# Elastic Compliance Matrix: (Units=1/GPa)
#
#
# Indices 1 2 3 4 5 6 
#
# 1 0.008030 -0.005809 -0.003009 0.000000 -0.001219 0.000000
# 2 -0.005809 0.050848 -0.001769 0.000000 0.008493 0.000000
# 3 -0.003009 -0.001769 0.014245 0.000000 -0.002704 0.000000
# 4 0.000000 0.000000 0.000000 0.035780 0.000000 -0.008024
# 5 -0.001219 0.008493 -0.002704 0.000000 0.046526 0.000000
# 6 0.000000 0.000000 0.000000 -0.008024 0.000000 0.040053
#
#
# Mechanical properties :
#
#
# Convention : Reuss Voigt Hill
#
# Bulk Modulus (GPa) = 19.24894 41.07614 30.16254
# Shear Modulus (GPa) = 21.36997 28.49190 24.93093
#
# Velocity S-wave (km/s) = 3.31154 3.82375 3.57682
# Velocity P-wave (km/s) = 4.94971 6.36974 5.70408
#
# Compressibility (1/GPa) = 0.05195091
#
# Stress axis : x y z
#
# Youngs Moduli (GPa) = 124.52815 19.66638 70.19763
#
# Poissons Ratio (x) = 0.11424 0.21124
# Poissons Ratio (y) = 0.72335 0.12415
# Poissons Ratio (z) = 0.37473 0.03478
#
# Static dielectric constant tensor:
#      x y z
#    x 1.655850 0.000000 -0.063220 
#    y 0.000000 1.669350 0.000000 
#    z -0.063220 0.000000 1.575090 
# 
# From -- ./inp_files/73031.got.cif
#   From: 2010.05.17/outbox.cif.g08.bks.cpg/sg11_37_cif.got.tgz:73031.got - 2010.06.03 12:22:45.
