data_PCOD9165608
_publ_section_title
;
Structure prediction by ZEFSAII (Michael W. Deem and Ramdas Pophale) SiO2 
 PCOD9165608
Probable space group: P 21/M
;
_chemical_formula_sum "Si O2"
_cell_formula_units_Z 24
_cell_length_a 14.526552
_cell_length_b 13.651947
_cell_length_c 7.996923
_cell_angle_alpha 90.000000
_cell_angle_beta 37.805123
_cell_angle_gamma 90.000000
_cell_volume 972.130854
_symmetry_space_group_name_H-M "P 21/M"
_symmetry_group_IT_number 11
_symmetry_cell_setting 'monoclinic'
loop_
_space_group_symop_operation_xyz
x,y,z
-x,1/2+y,-z
-x,-y,-z
x,1/2-y,z
loop_
_atom_site_type_symbol
_atom_site_label
_atom_site_fract_x
_atom_site_fract_y
_atom_site_fract_z
Si Si1 0.221241 0.554149 0.555186
Si Si2 0.501300 0.137087 0.335329
Si Si3 0.522469 0.858506 0.030515
Si Si4 0.012035 0.360658 0.347290
Si Si5 0.255183 0.506920 0.856160
Si Si6 0.144186 0.360653 0.496379
O O1 0.399487 0.566230 0.271390
O O2 0.195218 0.572128 0.787022
O O3 0.156154 0.446238 0.612083
O O4 0.141618 0.621951 0.532038
O O5 0.504083 0.250000 0.392310
O O6 0.372904 0.072609 0.609484
O O7 0.654177 0.078580 0.153013
O O8 0.477463 0.142167 0.170591
O O9 0.476812 0.750000 0.155325
O O10 0.695714 0.873284 0.832036
O O11 0.064803 0.250000 0.237821
O O12 0.014265 0.370513 0.545121
O O13 0.124545 0.442152 0.119401
O O14 0.143332 0.250000 0.565928
#
# Coordination Sequence:
#
# PCOD9165608 Si02
#       6
#     4   4   4   4   4   4
#     4  12  23  40  65  93 126 161 207 258 308 365
#     4  10  22  40  63  93 125 160 208 259 308 363
#     4  10  21  39  64  93 121 157 207 262 309 358
#     4  11  25  43  61  89 128 169 206 249 308 374
#     4  11  24  39  63  91 126 167 205 250 315 368
#     4  10  22  39  63  91 121 163 210 254 308 362
#
# _framework density 24.688033999999998
#
# number of rings (size 3 to 8) (size 9 to 14) (size 15 to 20)
#    0.000    1.333    1.667    3.500    4.667    2.000 
#    0.000    2.500    0.000    0.000    0.000    0.000 
#    0.000    0.000    0.000    0.000    0.000    0.000 
#
# Total GULP energy -134381.030195 kJ/mol
# GULP energy per Si atom -5599.209591 kJ/mol
# Density = 2.463184 g / cm^3
# Si number density = 24.688034 Si / 1000 Ang^3
#
#
#
# Elastic Constant Matrix: (Units=GPa)
#
#
# Indices 1 2 3 4 5 6 
#
# 1 105.0363 27.8355 -7.2663 0.0000 -8.0705 0.0000
# 2 27.8355 117.6016 10.5719 0.0000 -8.9549 0.0000
# 3 -7.2663 10.5719 32.6550 0.0000 -14.0781 0.0000
# 4 0.0000 0.0000 0.0000 21.6862 0.0000 -3.7991
# 5 -8.0705 -8.9549 -14.0781 0.0000 29.7387 0.0000
# 6 0.0000 0.0000 0.0000 -3.7991 0.0000 31.3795
#
#
#
# Elastic Compliance Matrix: (Units=1/GPa)
#
#
# Indices 1 2 3 4 5 6 
#
# 1 0.010971 -0.002720 0.005343 0.000000 0.004688 0.000000
# 2 -0.002720 0.009496 -0.003474 0.000000 0.000477 0.000000
# 3 0.005343 -0.003474 0.041601 0.000000 0.020098 0.000000
# 4 0.000000 0.000000 0.000000 0.047111 0.000000 0.005704
# 5 0.004688 0.000477 0.020098 0.000000 0.044556 0.000000
# 6 0.000000 0.000000 0.000000 0.005704 0.000000 0.032559
#
#
# Mechanical properties :
#
#
# Convention : Reuss Voigt Hill
#
# Bulk Modulus (GPa) = 16.56581 35.28612 25.92597
# Shear Modulus (GPa) = 24.02476 31.50433 27.76455
#
# Velocity S-wave (km/s) = 3.12289 3.57613 3.35717
# Velocity P-wave (km/s) = 4.44161 5.60137 5.05486
#
# Compressibility (1/GPa) = 0.06036529
#
# Stress axis : x y z
#
# Youngs Moduli (GPa) = 91.14806 105.31059 24.03774
#
# Poissons Ratio (x) = 0.28646 -0.12843
# Poissons Ratio (y) = 0.24794 0.08351
# Poissons Ratio (z) = -0.48699 0.36585
#
# Static dielectric constant tensor:
#      x y z
#    x 1.970420 0.000000 -0.022650 
#    y 0.000000 1.967240 0.000000 
#    z -0.022650 0.000000 1.951170 
# 
# From -- ./inp_files/22013.got.cif
#   From: 2010.05.17/outbox.cif.g08.bks.cpg/sg11_12_cif.got.tgz:22013.got - 2010.06.03 12:22:45.
