data_PCOD9165711
_publ_section_title
;
Structure prediction by ZEFSAII (Michael W. Deem and Ramdas Pophale) SiO2 
 PCOD9165711
Probable space group: P 21/M
;
_chemical_formula_sum "Si O2"
_cell_formula_units_Z 32
_cell_length_a 16.511166
_cell_length_b 18.215979
_cell_length_c 12.392976
_cell_angle_alpha 90.000000
_cell_angle_beta 26.535190
_cell_angle_gamma 90.000000
_cell_volume 1665.205683
_symmetry_space_group_name_H-M "P 21/M"
_symmetry_group_IT_number 11
_symmetry_cell_setting 'monoclinic'
loop_
_space_group_symop_operation_xyz
x,y,z
-x,1/2+y,-z
-x,-y,-z
x,1/2-y,z
loop_
_atom_site_type_symbol
_atom_site_label
_atom_site_fract_x
_atom_site_fract_y
_atom_site_fract_z
Si Si1 0.053270 0.163660 0.650525
Si Si2 0.927188 0.567859 0.726518
Si Si3 0.470107 0.337972 0.091473
Si Si4 0.804466 0.417553 0.783038
Si Si5 0.870303 0.093235 0.074726
Si Si6 0.407901 0.162309 0.925580
Si Si7 0.503884 0.837924 0.419500
Si Si8 0.129475 0.078701 0.960511
O O1 0.033208 0.250000 0.695816
O O2 0.262840 0.149019 0.372930
O O3 0.930667 0.139710 0.695892
O O4 0.984089 0.118265 0.835366
O O5 0.817315 0.492544 0.835541
O O6 0.104598 0.565905 0.441339
O O7 0.794921 0.631666 0.842840
O O8 0.958293 0.578914 0.815679
O O9 0.505598 0.250000 0.057595
O O10 0.608207 0.383746 0.999004
O O11 0.490087 0.361184 0.942013
O O12 0.679757 0.135100 0.306539
O O13 0.833477 0.006137 0.113308
O O14 0.991825 0.109052 0.035381
O O15 0.401625 0.250000 0.936791
O O16 0.503961 0.141200 0.698924
O O17 0.521697 0.750000 0.406060
O O18 0.682950 0.876525 0.254081
#
# Coordination Sequence:
#
# PCOD9165711 Si02
#       8
#     4   4   4   4   4   4   4   4
#     4  11  23  42  63  90 131 164 206 260 305 368
#     4  10  21  40  62  93 124 160 205 256 312 370
#     4  10  22  39  61  92 124 164 205 249 313 372
#     4  11  22  38  62  93 125 160 209 250 314 373
#     4  11  23  42  66  90 124 172 214 252 312 378
#     4   9  19  38  59  88 125 156 198 256 311 362
#     4  10  22  40  64  93 124 162 208 261 315 370
#     4  10  23  43  63  93 126 164 210 264 312 367
#
# _framework density 19.216843999999998
#
# number of rings (size 3 to 8) (size 9 to 14) (size 15 to 20)
#    0.000    1.750    2.500    1.125    1.750    3.000 
#    9.000    1.250    0.000    0.000    0.000    0.000 
#    0.000    0.000    0.000    0.000    0.000    0.000 
#
# Total GULP energy -178694.001132 kJ/mol
# GULP energy per Si atom -5584.187535 kJ/mol
# Density = 1.917311 g / cm^3
# Si number density = 19.216844 Si / 1000 Ang^3
#
#
#
# Elastic Constant Matrix: (Units=GPa)
#
#
# Indices 1 2 3 4 5 6 
#
# 1 105.5219 33.3634 39.7252 0.0000 -10.2529 0.0000
# 2 33.3634 30.2044 23.1401 0.0000 -9.1776 0.0000
# 3 39.7252 23.1401 50.9132 0.0000 -12.7699 0.0000
# 4 0.0000 0.0000 0.0000 15.7932 0.0000 5.3933
# 5 -10.2529 -9.1776 -12.7699 0.0000 21.3153 0.0000
# 6 0.0000 0.0000 0.0000 5.3933 0.0000 9.2867
#
#
#
# Elastic Compliance Matrix: (Units=1/GPa)
#
#
# Indices 1 2 3 4 5 6 
#
# 1 0.016048 -0.012845 -0.007220 0.000000 -0.002136 0.000000
# 2 -0.012845 0.062750 -0.015618 0.000000 0.011483 0.000000
# 3 -0.007220 -0.015618 0.035087 0.000000 0.010824 0.000000
# 4 0.000000 0.000000 0.000000 0.078983 0.000000 -0.045870
# 5 -0.002136 0.011483 0.010824 0.000000 0.057316 0.000000
# 6 0.000000 0.000000 0.000000 -0.045870 0.000000 0.134321
#
#
# Mechanical properties :
#
#
# Convention : Reuss Voigt Hill
#
# Bulk Modulus (GPa) = 23.51743 42.12189 32.81966
# Shear Modulus (GPa) = 10.63733 15.30642 12.97187
#
# Velocity S-wave (km/s) = 2.35530 2.82531 2.60095
# Velocity P-wave (km/s) = 4.43408 5.71052 5.11229
#
# Compressibility (1/GPa) = 0.04252166
#
# Stress axis : x y z
#
# Youngs Moduli (GPa) = 62.31209 15.93623 28.50024
#
# Poissons Ratio (x) = 0.20470 0.20576
# Poissons Ratio (y) = 0.80039 0.44511
# Poissons Ratio (z) = 0.44987 0.24889
#
# Static dielectric constant tensor:
#      x y z
#    x 1.663040 0.000000 0.028890 
#    y 0.000000 1.665020 0.000000 
#    z 0.028890 0.000000 1.647350 
# 
# From -- ./inp_files/39957.got.cif
#   From: 2010.05.17/outbox.cif.g08.bks.cpg/sg11_20_cif.got.tgz:39957.got - 2010.06.03 12:22:45.
