data_PCOD9165924
_publ_section_title
;
Structure prediction by ZEFSAII (Michael W. Deem and Ramdas Pophale) SiO2 
 PCOD9165924
Probable space group: P 21/M
;
_chemical_formula_sum "Si O2"
_cell_formula_units_Z 32
_cell_length_a 12.291665
_cell_length_b 17.107621
_cell_length_c 16.052878
_cell_angle_alpha 90.000000
_cell_angle_beta 151.497544
_cell_angle_gamma 90.000000
_cell_volume 1610.832663
_symmetry_space_group_name_H-M "P 21/M"
_symmetry_group_IT_number 11
_symmetry_cell_setting 'monoclinic'
loop_
_space_group_symop_operation_xyz
x,y,z
-x,1/2+y,-z
-x,-y,-z
x,1/2-y,z
loop_
_atom_site_type_symbol
_atom_site_label
_atom_site_fract_x
_atom_site_fract_y
_atom_site_fract_z
Si Si1 0.001837 0.065202 0.661878
Si Si2 0.140906 0.158922 0.601607
Si Si3 0.368658 0.097505 0.038275
Si Si4 0.730470 0.839575 0.846179
Si Si5 0.649339 0.090328 0.954425
Si Si6 0.517072 0.478175 0.414335
Si Si7 0.153116 0.578129 0.088696
Si Si8 0.176000 0.606248 0.751651
O O1 0.986823 0.115828 0.567982
O O2 0.769371 0.036903 0.548595
O O3 0.135126 0.987112 0.723822
O O4 0.152895 0.110111 0.832398
O O5 0.145364 0.250000 0.622889
O O6 0.397080 0.125592 0.777877
O O7 0.031494 0.143877 0.437627
O O8 0.350211 0.135424 0.116223
O O9 0.593755 0.124951 0.142819
O O10 0.378283 0.003492 0.055485
O O11 0.675057 0.750000 0.791473
O O12 0.619389 0.899513 0.704750
O O13 0.002692 0.854909 0.028938
O O14 0.803207 0.100471 0.976814
O O15 0.777801 0.124715 0.121125
O O16 0.500000 0.500000 0.500000
O O17 0.395737 0.551433 0.287552
O O18 0.000000 0.500000 0.000000
#
# Coordination Sequence:
#
# PCOD9165924 Si02
#       8
#     4   4   4   4   4   4   4   4
#     4  11  22  40  67  99 130 170 223 283 328 401
#     4  12  26  41  62 100 143 179 219 278 354 411
#     4  11  20  41  69 101 125 170 225 274 338 401
#     4  11  25  43  66  98 136 173 222 288 352 401
#     4  11  21  43  67  97 130 173 228 280 319 410
#     4  11  23  39  68  99 131 172 230 281 332 407
#     4  10  21  41  68  93 124 171 229 270 332 402
#     4  11  23  38  69  97 130 172 225 272 336 398
#
# _framework density 19.865501999999999
#
# number of rings (size 3 to 8) (size 9 to 14) (size 15 to 20)
#    0.000    1.000    5.000    3.375    5.250    3.500 
#    0.000    1.875    0.000    0.000    0.000    0.000 
#    0.000    0.000    0.000    0.000    0.000    0.000 
#
# Total GULP energy -178714.634755 kJ/mol
# GULP energy per Si atom -5584.832336 kJ/mol
# Density = 1.982029 g / cm^3
# Si number density = 19.865502 Si / 1000 Ang^3
#
#
#
# Elastic Constant Matrix: (Units=GPa)
#
#
# Indices 1 2 3 4 5 6 
#
# 1 158.4702 45.9735 54.7525 0.0000 -16.9862 0.0000
# 2 45.9735 53.3920 31.7853 0.0000 -5.4755 0.0000
# 3 54.7525 31.7853 112.9425 0.0000 -18.1522 0.0000
# 4 0.0000 0.0000 0.0000 5.2454 0.0000 5.2602
# 5 -16.9862 -5.4755 -18.1522 0.0000 23.1149 0.0000
# 6 0.0000 0.0000 0.0000 5.2602 0.0000 12.3235
#
#
#
# Elastic Compliance Matrix: (Units=1/GPa)
#
#
# Indices 1 2 3 4 5 6 
#
# 1 0.009277 -0.006349 -0.002125 0.000000 0.003645 0.000000
# 2 -0.006349 0.026848 -0.004813 0.000000 -0.002086 0.000000
# 3 -0.002125 -0.004813 0.012365 0.000000 0.007009 0.000000
# 4 0.000000 0.000000 0.000000 0.333320 0.000000 -0.142275
# 5 0.003645 -0.002086 0.007009 0.000000 0.050951 0.000000
# 6 0.000000 0.000000 0.000000 -0.142275 0.000000 0.141874
#
#
# Mechanical properties :
#
#
# Convention : Reuss Voigt Hill
#
# Bulk Modulus (GPa) = 45.62873 65.53635 55.58254
# Shear Modulus (GPa) = 8.21673 20.95633 14.58653
#
# Velocity S-wave (km/s) = 2.03597 3.25146 2.71267
# Velocity P-wave (km/s) = 5.34281 6.86714 6.15237
#
# Compressibility (1/GPa) = 0.02191602
#
# Stress axis : x y z
#
# Youngs Moduli (GPa) = 107.79186 37.24678 80.87326
#
# Poissons Ratio (x) = 0.23650 0.17183
# Poissons Ratio (y) = 0.68442 0.38923
# Poissons Ratio (z) = 0.22902 0.17926
#
# Static dielectric constant tensor:
#      x y z
#    x 1.774870 0.000000 -0.033940 
#    y 0.000000 1.682680 0.000000 
#    z -0.033940 0.000000 1.766380 
# 
# From -- ./inp_files/50721.got.cif
#   From: 2010.05.17/outbox.cif.g08.bks.cpg/sg11_26_cif.got.tgz:50721.got - 2010.06.03 12:22:45.
