data_PCOD9165298
_publ_section_title
;
Structure prediction by ZEFSAII (Michael W. Deem and Ramdas Pophale) SiO2 
 PCOD9165298
Probable space group: P 21/M
;
_chemical_formula_sum "Si O2"
_cell_formula_units_Z 24
_cell_length_a 12.664138
_cell_length_b 8.708027
_cell_length_c 12.815471
_cell_angle_alpha 90.000000
_cell_angle_beta 70.772557
_cell_angle_gamma 90.000000
_cell_volume 1334.450876
_symmetry_space_group_name_H-M "P 21/M"
_symmetry_group_IT_number 11
_symmetry_cell_setting 'monoclinic'
loop_
_space_group_symop_operation_xyz
x,y,z
-x,1/2+y,-z
-x,-y,-z
x,1/2-y,z
loop_
_atom_site_type_symbol
_atom_site_label
_atom_site_fract_x
_atom_site_fract_y
_atom_site_fract_z
Si Si1 0.618196 0.435011 0.499834
Si Si2 0.011800 0.567257 0.112634
Si Si3 0.783421 0.065922 0.262711
Si Si4 0.755869 0.933273 0.883347
Si Si5 0.377841 0.934426 0.261099
Si Si6 0.381276 0.933568 0.879350
O O1 0.500000 0.500000 0.500000
O O2 0.611433 0.250000 0.497918
O O3 0.714982 0.481569 0.387763
O O4 0.638958 0.479851 0.612703
O O5 0.023373 0.750000 0.102570
O O6 0.121766 0.496650 0.129197
O O7 0.899844 0.519804 0.209873
O O8 0.000000 0.500000 0.000000
O O9 0.803341 0.250000 0.259850
O O10 0.704267 0.036517 0.188236
O O11 0.755596 0.750000 0.887346
O O12 0.712376 0.992306 0.786473
O O13 0.671752 0.998229 0.998736
O O14 0.373341 0.750000 0.254948
O O15 0.499930 0.992059 0.185779
O O16 0.394110 0.750000 0.885576
#
# Coordination Sequence:
#
# PCOD9165298 Si02
#       6
#     4   4   4   4   4   4
#     4  10  21  38  62  89 121 158 198 245 293 350
#     4  12  24  40  63  90 120 156 199 246 298 356
#     4  10  21  38  61  91 123 156 198 246 294 348
#     4  12  25  41  61  86 121 161 203 248 301 357
#     4  11  23  39  60  89 125 161 201 246 299 357
#     4  11  21  36  61  90 125 159 196 246 299 357
#
# _framework density 17.984926000000002
#
# number of rings (size 3 to 8) (size 9 to 14) (size 15 to 20)
#    0.000    1.000    3.333    4.500    0.000    2.000 
#    0.000    0.833    0.000    0.000    0.000    0.000 
#    0.000    0.000    0.000    0.000    0.000    0.000 
#
# Total GULP energy -134239.885548 kJ/mol
# GULP energy per Si atom -5593.328565 kJ/mol
# Density = 1.794399 g / cm^3
# Si number density = 17.984926 Si / 1000 Ang^3
#
#
#
# Elastic Constant Matrix: (Units=GPa)
#
#
# Indices 1 2 3 4 5 6 
#
# 1 86.0324 38.0555 78.5075 0.0000 13.2115 0.0000
# 2 38.0555 77.0298 51.7737 0.0000 11.0189 0.0000
# 3 78.5075 51.7737 164.1695 0.0000 7.3723 0.0000
# 4 0.0000 0.0000 0.0000 12.9484 0.0000 -0.3751
# 5 13.2115 11.0189 7.3723 0.0000 32.8965 0.0000
# 6 0.0000 0.0000 0.0000 -0.3751 0.0000 35.1324
#
#
#
# Elastic Compliance Matrix: (Units=1/GPa)
#
#
# Indices 1 2 3 4 5 6 
#
# 1 0.022913 -0.004204 -0.009376 0.000000 -0.005693 0.000000
# 2 -0.004204 0.017900 -0.003476 0.000000 -0.003528 0.000000
# 3 -0.009376 -0.003476 0.011566 0.000000 0.002338 0.000000
# 4 0.000000 0.000000 0.000000 0.077254 0.000000 0.000825
# 5 -0.005693 -0.003528 0.002338 0.000000 0.033343 0.000000
# 6 0.000000 0.000000 0.000000 0.000825 0.000000 0.028473
#
#
# Mechanical properties :
#
#
# Convention : Reuss Voigt Hill
#
# Bulk Modulus (GPa) = 54.74248 73.76723 64.25486
# Shear Modulus (GPa) = 21.58437 26.78846 24.18641
#
# Velocity S-wave (km/s) = 3.46806 3.86358 3.67115
# Velocity P-wave (km/s) = 6.82207 7.81078 7.33310
#
# Compressibility (1/GPa) = 0.01826735
#
# Stress axis : x y z
#
# Youngs Moduli (GPa) = 43.64337 55.86561 86.45862
#
# Poissons Ratio (x) = 0.23485 0.81062
# Poissons Ratio (y) = 0.18347 0.30056
# Poissons Ratio (z) = 0.40919 0.19421
#
# Static dielectric constant tensor:
#      x y z
#    x 1.582020 0.000000 0.004820 
#    y 0.000000 1.600220 0.000000 
#    z 0.004820 0.000000 1.607270 
# 
# From -- ./inp_files/33718.got.cif
#   From: 2010.05.17/outbox.cif.g08.bks.cpg/sg11_17_cif.got.tgz:33718.got - 2010.06.03 12:22:45.
