data_PCOD9165268
_publ_section_title
;
Structure prediction by ZEFSAII (Michael W. Deem and Ramdas Pophale) SiO2 
 PCOD9165268
Probable space group: P 21/M
;
_chemical_formula_sum "Si O2"
_cell_formula_units_Z 28
_cell_length_a 12.727924
_cell_length_b 15.164545
_cell_length_c 8.594876
_cell_angle_alpha 90.000000
_cell_angle_beta 58.478352
_cell_angle_gamma 90.000000
_cell_volume 1414.137904
_symmetry_space_group_name_H-M "P 21/M"
_symmetry_group_IT_number 11
_symmetry_cell_setting 'monoclinic'
loop_
_space_group_symop_operation_xyz
x,y,z
-x,1/2+y,-z
-x,-y,-z
x,1/2-y,z
loop_
_atom_site_type_symbol
_atom_site_label
_atom_site_fract_x
_atom_site_fract_y
_atom_site_fract_z
Si Si1 0.992458 0.145478 0.899903
Si Si2 0.495840 0.934780 0.857490
Si Si3 0.285038 0.350049 0.160500
Si Si4 0.104008 0.456243 0.521874
Si Si5 0.749605 0.644384 0.162469
Si Si6 0.711357 0.356103 0.177833
Si Si7 0.670785 0.006842 0.462250
O O1 0.986304 0.250000 0.877565
O O2 0.038400 0.099645 0.707551
O O3 0.102094 0.130941 0.939474
O O4 0.855502 0.117409 0.054428
O O5 0.588669 0.858348 0.841920
O O6 0.365977 0.894506 0.907192
O O7 0.559124 0.984782 0.663485
O O8 0.500000 0.000000 0.000000
O O9 0.244771 0.250000 0.176795
O O10 0.185638 0.400112 0.339664
O O11 0.295482 0.382091 0.974365
O O12 0.204745 0.516561 0.531603
O O13 0.000000 0.500000 0.500000
O O14 0.725631 0.750000 0.209243
O O15 0.691880 0.578976 0.335107
O O16 0.701320 0.250000 0.194129
O O17 0.656725 0.406282 0.369760
#
# Coordination Sequence:
#
# PCOD9165268 Si02
#       7
#     4   4   4   4   4   4   4
#     4   9  20  37  57  86 122 158 195 241 301 366
#     4  11  24  42  63  86 119 155 208 255 304 354
#     4  10  21  38  61  88 119 157 201 252 299 353
#     4  10  22  34  59  90 121 157 197 245 306 357
#     4   9  19  37  64  93 120 155 202 254 301 352
#     4  11  24  41  62  88 124 165 202 245 303 366
#     4  10  23  40  62  88 116 161 204 253 298 358
#
# _framework density 19.800049999999999
#
# number of rings (size 3 to 8) (size 9 to 14) (size 15 to 20)
#    0.000    2.000    0.000    2.143    8.000    5.143 
#    0.000    3.571    0.000    0.000    0.000    0.000 
#    0.000    0.000    0.000    0.000    0.000    0.000 
#
# Total GULP energy -156335.909414 kJ/mol
# GULP energy per Si atom -5583.425336 kJ/mol
# Density = 1.975498 g / cm^3
# Si number density = 19.800050 Si / 1000 Ang^3
#
#
#
# Elastic Constant Matrix: (Units=GPa)
#
#
# Indices 1 2 3 4 5 6 
#
# 1 74.5809 22.6878 16.0611 0.0000 -0.5855 0.0000
# 2 22.6878 66.1522 26.5025 0.0000 4.8146 0.0000
# 3 16.0611 26.5025 78.9019 0.0000 5.4494 0.0000
# 4 0.0000 0.0000 0.0000 16.5706 0.0000 10.1321
# 5 -0.5855 4.8146 5.4494 0.0000 28.9898 0.0000
# 6 0.0000 0.0000 0.0000 10.1321 0.0000 27.8404
#
#
#
# Elastic Compliance Matrix: (Units=1/GPa)
#
#
# Indices 1 2 3 4 5 6 
#
# 1 0.015186 -0.004659 -0.001622 0.000000 0.001385 0.000000
# 2 -0.004659 0.018992 -0.005275 0.000000 -0.002257 0.000000
# 3 -0.001622 -0.005275 0.014911 0.000000 -0.001960 0.000000
# 4 0.000000 0.000000 0.000000 0.077621 0.000000 -0.028249
# 5 0.001385 -0.002257 -0.001960 0.000000 0.035266 0.000000
# 6 0.000000 0.000000 0.000000 -0.028249 0.000000 0.046200
#
#
# Mechanical properties :
#
#
# Convention : Reuss Voigt Hill
#
# Bulk Modulus (GPa) = 38.49562 38.90420 38.69991
# Shear Modulus (GPa) = 20.83794 24.97240 22.90517
#
# Velocity S-wave (km/s) = 3.24762 3.55523 3.40490
# Velocity P-wave (km/s) = 5.79199 6.04517 5.91993
#
# Compressibility (1/GPa) = 0.02597698
#
# Stress axis : x y z
#
# Youngs Moduli (GPa) = 65.85122 52.65323 67.06327
#
# Poissons Ratio (x) = 0.24532 0.10877
# Poissons Ratio (y) = 0.30682 0.35376
# Poissons Ratio (z) = 0.10680 0.27775
#
# Static dielectric constant tensor:
#      x y z
#    x 1.740060 0.000000 -0.002730 
#    y 0.000000 1.698780 0.000000 
#    z -0.002730 0.000000 1.713830 
# 
# From -- ./inp_files/17718.got.cif
#   From: 2010.05.17/outbox.cif.g08.bks.cpg/sg11_9_cif.got.tgz:17718.got - 2010.06.03 12:22:45.
