data_PCOD9165196
_publ_section_title
;
Structure prediction by ZEFSAII (Michael W. Deem and Ramdas Pophale) SiO2 
 PCOD9165196
Probable space group: P 21/M
;
_chemical_formula_sum "Si O2"
_cell_formula_units_Z 28
_cell_length_a 11.086876
_cell_length_b 13.501015
_cell_length_c 10.751885
_cell_angle_alpha 90.000000
_cell_angle_beta 118.040052
_cell_angle_gamma 90.000000
_cell_volume 1420.474986
_symmetry_space_group_name_H-M "P 21/M"
_symmetry_group_IT_number 11
_symmetry_cell_setting 'monoclinic'
loop_
_space_group_symop_operation_xyz
x,y,z
-x,1/2+y,-z
-x,-y,-z
x,1/2-y,z
loop_
_atom_site_type_symbol
_atom_site_label
_atom_site_fract_x
_atom_site_fract_y
_atom_site_fract_z
Si Si1 0.110396 0.632512 0.748454
Si Si2 0.351494 0.484335 0.872245
Si Si3 0.917134 0.869975 0.878650
Si Si4 0.109361 0.368283 0.859043
Si Si5 0.635043 0.501865 0.404273
Si Si6 0.096251 0.631122 0.462053
Si Si7 0.384062 0.130952 0.362270
O O1 0.124258 0.750000 0.765244
O O2 0.258679 0.583164 0.826703
O O3 0.048852 0.612774 0.581394
O O4 0.017306 0.596795 0.817204
O O5 0.260107 0.409579 0.907972
O O6 0.360249 0.454340 0.731976
O O7 0.500000 0.500000 0.000000
O O8 0.924338 0.750000 0.879162
O O9 0.760773 0.894983 0.770950
O O10 0.948816 0.900457 0.035176
O O11 0.116037 0.250000 0.865720
O O12 0.016254 0.394130 0.695327
O O13 0.769582 0.435129 0.492448
O O14 0.622241 0.587084 0.501228
O O15 0.506628 0.427410 0.355019
O O16 0.126172 0.750000 0.466420
O O17 0.402182 0.250000 0.369256
#
# Coordination Sequence:
#
# PCOD9165196 Si02
#       7
#     4   4   4   4   4   4   4
#     4   9  20  38  61  85 112 152 197 239 287 344
#     4  11  24  39  58  85 116 154 199 241 293 345
#     4   9  19  37  59  85 114 151 194 233 286 348
#     4  10  22  38  59  88 120 153 190 239 295 347
#     4  10  22  38  59  86 117 151 200 237 286 350
#     4   9  19  37  61  86 115 152 191 237 287 341
#     4  10  21  38  60  84 116 155 192 238 289 345
#
# _framework density 19.711715999999999
#
# number of rings (size 3 to 8) (size 9 to 14) (size 15 to 20)
#    0.000    2.286    0.000    1.286    4.000    3.429 
#    5.143    0.000    0.000    0.000    0.000    0.000 
#    0.000    0.000    0.000    0.000    0.000    0.000 
#
# Total GULP energy -156393.514872 kJ/mol
# GULP energy per Si atom -5585.482674 kJ/mol
# Density = 1.966685 g / cm^3
# Si number density = 19.711716 Si / 1000 Ang^3
#
#
#
# Elastic Constant Matrix: (Units=GPa)
#
#
# Indices 1 2 3 4 5 6 
#
# 1 101.6803 5.1047 61.2585 0.0000 -9.9343 0.0000
# 2 5.1047 58.0145 23.0879 0.0000 -8.3960 0.0000
# 3 61.2585 23.0879 125.9253 0.0000 -4.4936 0.0000
# 4 0.0000 0.0000 0.0000 25.6144 0.0000 -0.6456
# 5 -9.9343 -8.3960 -4.4936 0.0000 38.4131 0.0000
# 6 0.0000 0.0000 0.0000 -0.6456 0.0000 26.7582
#
#
#
# Elastic Compliance Matrix: (Units=1/GPa)
#
#
# Indices 1 2 3 4 5 6 
#
# 1 0.014453 0.002118 -0.007300 0.000000 0.003347 0.000000
# 2 0.002118 0.019437 -0.004441 0.000000 0.004277 0.000000
# 3 -0.007300 -0.004441 0.012256 0.000000 -0.001425 0.000000
# 4 0.000000 0.000000 0.000000 0.039064 0.000000 0.000943
# 5 0.003347 0.004277 -0.001425 0.000000 0.027666 0.000000
# 6 0.000000 0.000000 0.000000 0.000943 0.000000 0.037394
#
#
# Mechanical properties :
#
#
# Convention : Reuss Voigt Hill
#
# Bulk Modulus (GPa) = 37.17565 51.61359 44.39462
# Shear Modulus (GPa) = 28.01355 31.23506 29.62431
#
# Velocity S-wave (km/s) = 3.77392 3.98501 3.88090
# Velocity P-wave (km/s) = 6.15553 6.88584 6.53090
#
# Compressibility (1/GPa) = 0.02689933
#
# Stress axis : x y z
#
# Youngs Moduli (GPa) = 69.18816 51.44780 81.59375
#
# Poissons Ratio (x) = -0.10895 0.59563
# Poissons Ratio (y) = -0.14652 0.36239
# Poissons Ratio (z) = 0.50507 0.22850
#
# Static dielectric constant tensor:
#      x y z
#    x 1.667290 0.000000 -0.025400 
#    y 0.000000 1.708610 0.000000 
#    z -0.025400 0.000000 1.691620 
# 
# From -- ./inp_files/18134.got.cif
#   From: 2010.05.17/outbox.cif.g08.bks.cpg/sg11_10_cif.got.tgz:18134.got - 2010.06.03 12:22:45.
