data_PCOD9165465
_publ_section_title
;
Structure prediction by ZEFSAII (Michael W. Deem and Ramdas Pophale) SiO2 
 PCOD9165465
Probable space group: P 21/M
;
_chemical_formula_sum "Si O2"
_cell_formula_units_Z 28
_cell_length_a 18.535539
_cell_length_b 13.521535
_cell_length_c 5.100981
_cell_angle_alpha 90.000000
_cell_angle_beta 66.317906
_cell_angle_gamma 90.000000
_cell_volume 1170.792546
_symmetry_space_group_name_H-M "P 21/M"
_symmetry_group_IT_number 11
_symmetry_cell_setting 'monoclinic'
loop_
_space_group_symop_operation_xyz
x,y,z
-x,1/2+y,-z
-x,-y,-z
x,1/2-y,z
loop_
_atom_site_type_symbol
_atom_site_label
_atom_site_fract_x
_atom_site_fract_y
_atom_site_fract_z
Si Si1 0.391091 0.867547 0.946033
Si Si2 0.288845 0.999211 0.749999
Si Si3 0.844896 0.133152 0.162274
Si Si4 0.630463 0.863393 0.734297
Si Si5 0.509150 0.132880 0.691890
Si Si6 0.086303 0.966763 0.459413
Si Si7 0.200936 0.138435 0.227807
O O1 0.374048 0.750000 0.931427
O O2 0.462021 0.895370 0.639307
O O3 0.319815 0.934986 0.950360
O O4 0.420419 0.879262 0.199449
O O5 0.359272 0.060137 0.515240
O O6 0.238310 0.921385 0.655655
O O7 0.228132 0.085016 0.922119
O O8 0.834611 0.250000 0.173942
O O9 0.906898 0.099549 0.291881
O O10 0.873641 0.092986 0.838786
O O11 0.609514 0.750000 0.685602
O O12 0.717465 0.859132 0.731215
O O13 0.568292 0.901511 0.039659
O O14 0.494706 0.250000 0.690650
O O15 0.136167 0.066374 0.440557
O O16 0.000000 0.000000 0.500000
O O17 0.173185 0.250000 0.231162
#
# Coordination Sequence:
#
# PCOD9165465 Si02
#       7
#     4   4   4   4   4   4   4
#     4  10  22  39  59  86 124 165 214 273 330 379
#     4  11  23  38  63  91 126 170 222 268 321 391
#     4  11  24  44  70 101 138 176 216 263 324 387
#     4  10  21  39  61  84 121 169 217 270 327 383
#     4   9  21  38  57  84 120 165 216 272 327 384
#     4  11  24  46  72 105 136 171 216 267 316 396
#     4  10  23  42  64  94 130 172 216 268 326 387
#
# _framework density 23.915422
#
# number of rings (size 3 to 8) (size 9 to 14) (size 15 to 20)
#    0.000    1.714    1.429    1.714    4.000    2.286 
#    0.000    2.857    0.000    0.000    0.000    0.000 
#    0.000    0.000    0.000    0.000    0.000    0.000 
#
# Total GULP energy -156741.822838 kJ/mol
# GULP energy per Si atom -5597.922244 kJ/mol
# Density = 2.386099 g / cm^3
# Si number density = 23.915422 Si / 1000 Ang^3
#
#
#
# Elastic Constant Matrix: (Units=GPa)
#
#
# Indices 1 2 3 4 5 6 
#
# 1 96.0912 30.0107 5.4962 0.0000 10.5645 0.0000
# 2 30.0107 182.9981 34.3007 0.0000 3.8432 0.0000
# 3 5.4962 34.3007 59.4446 0.0000 15.1615 0.0000
# 4 0.0000 0.0000 0.0000 22.9389 0.0000 0.7277
# 5 10.5645 3.8432 15.1615 0.0000 35.0086 0.0000
# 6 0.0000 0.0000 0.0000 0.7277 0.0000 25.8614
#
#
#
# Elastic Compliance Matrix: (Units=1/GPa)
#
#
# Indices 1 2 3 4 5 6 
#
# 1 0.011368 -0.001979 0.001024 0.000000 -0.003657 0.000000
# 2 -0.001979 0.006501 -0.003978 0.000000 0.001606 0.000000
# 3 0.001024 -0.003978 0.021349 0.000000 -0.009118 0.000000
# 4 0.000000 0.000000 0.000000 0.043633 0.000000 -0.001228
# 5 -0.003657 0.001606 -0.009118 0.000000 0.033440 0.000000
# 6 0.000000 0.000000 0.000000 -0.001228 0.000000 0.038702
#
#
# Mechanical properties :
#
#
# Convention : Reuss Voigt Hill
#
# Bulk Modulus (GPa) = 34.07062 53.12769 43.59915
# Shear Modulus (GPa) = 28.62957 34.67687 31.65322
#
# Velocity S-wave (km/s) = 3.46369 3.81199 3.64201
# Velocity P-wave (km/s) = 5.50213 6.45276 5.99631
#
# Compressibility (1/GPa) = 0.02935081
#
# Stress axis : x y z
#
# Youngs Moduli (GPa) = 87.96260 153.82167 46.84141
#
# Poissons Ratio (x) = 0.30448 -0.04795
# Poissons Ratio (y) = 0.17412 0.18633
# Poissons Ratio (z) = -0.09005 0.61189
#
# Static dielectric constant tensor:
#      x y z
#    x 1.933150 0.000000 -0.004520 
#    y 0.000000 1.902760 0.000000 
#    z -0.004520 0.000000 1.951600 
# 
# From -- ./inp_files/7895.got.cif
#   From: 2010.05.17/outbox.cif.g08.bks.cpg/sg11_4_cif.got.tgz:7895.got - 2010.06.03 12:22:45.
