data_PCOD9165522
_publ_section_title
;
Structure prediction by ZEFSAII (Michael W. Deem and Ramdas Pophale) SiO2 
 PCOD9165522
Probable space group: P 21/M
;
_chemical_formula_sum "Si O2"
_cell_formula_units_Z 28
_cell_length_a 16.071227
_cell_length_b 8.570663
_cell_length_c 12.206960
_cell_angle_alpha 90.000000
_cell_angle_beta 124.010303
_cell_angle_gamma 90.000000
_cell_volume 1393.774463
_symmetry_space_group_name_H-M "P 21/M"
_symmetry_group_IT_number 11
_symmetry_cell_setting 'monoclinic'
loop_
_space_group_symop_operation_xyz
x,y,z
-x,1/2+y,-z
-x,-y,-z
x,1/2-y,z
loop_
_atom_site_type_symbol
_atom_site_label
_atom_site_fract_x
_atom_site_fract_y
_atom_site_fract_z
Si Si1 0.387263 0.934939 0.410960
Si Si2 0.536881 0.937666 0.144188
Si Si3 0.641256 0.936555 0.845230
Si Si4 0.168891 0.438648 0.862783
Si Si5 0.770409 0.560484 0.330973
Si Si6 0.793302 0.561385 0.588748
Si Si7 0.984223 0.936744 0.866680
O O1 0.390563 0.750000 0.422178
O O2 0.500000 0.000000 0.500000
O O3 0.343122 0.985970 0.260839
O O4 0.314448 0.003259 0.449908
O O5 0.530385 0.750000 0.141743
O O6 0.652874 0.982427 0.243974
O O7 0.463991 0.007484 0.182116
O O8 0.500000 0.000000 0.000000
O O9 0.640553 0.750000 0.831570
O O10 0.729414 0.977497 0.995638
O O11 0.160607 0.250000 0.857538
O O12 0.179240 0.493441 0.744745
O O13 0.074957 0.509476 0.856359
O O14 0.774157 0.750000 0.330889
O O15 0.814964 0.509716 0.480109
O O16 0.791248 0.750000 0.588168
O O17 0.879888 0.508355 0.735493
O O18 0.981643 0.750000 0.869565
O O19 0.000000 0.000000 0.000000
#
# Coordination Sequence:
#
# PCOD9165522 Si02
#       7
#     4   4   4   4   4   4   4
#     4  12  25  41  62  90 123 161 204 250 305 365
#     4  11  20  34  57  87 123 164 204 246 303 365
#     4  11  22  38  60  89 122 159 207 256 308 365
#     4  10  21  39  62  88 120 159 198 248 307 366
#     4   9  19  38  61  86 119 161 201 241 302 365
#     4  10  22  42  65  88 121 161 204 254 306 362
#     4  11  24  41  63  91 119 156 202 255 309 364
#
# _framework density 20.089333
#
# number of rings (size 3 to 8) (size 9 to 14) (size 15 to 20)
#    0.000    1.429    1.429    4.286    0.000    7.429 
#    0.000    1.429    0.000    0.000    0.000    0.000 
#    0.000    0.000    0.000    0.000    0.000    0.000 
#
# Total GULP energy -156570.660345 kJ/mol
# GULP energy per Si atom -5591.809298 kJ/mol
# Density = 2.004361 g / cm^3
# Si number density = 20.089333 Si / 1000 Ang^3
#
#
#
# Elastic Constant Matrix: (Units=GPa)
#
#
# Indices 1 2 3 4 5 6 
#
# 1 136.8934 20.0291 59.8776 0.0000 -11.3882 0.0000
# 2 20.0291 34.7091 29.3201 0.0000 2.6132 0.0000
# 3 59.8776 29.3201 144.0572 0.0000 -15.9548 0.0000
# 4 0.0000 0.0000 0.0000 23.8075 0.0000 -4.6858
# 5 -11.3882 2.6132 -15.9548 0.0000 36.4349 0.0000
# 6 0.0000 0.0000 0.0000 -4.6858 0.0000 36.5983
#
#
#
# Elastic Compliance Matrix: (Units=1/GPa)
#
#
# Indices 1 2 3 4 5 6 
#
# 1 0.009203 -0.002867 -0.003048 0.000000 0.001747 0.000000
# 2 -0.002867 0.036928 -0.007059 0.000000 -0.006636 0.000000
# 3 -0.003048 -0.007059 0.010085 0.000000 0.003970 0.000000
# 4 0.000000 0.000000 0.000000 0.043089 0.000000 0.005517
# 5 0.001747 -0.006636 0.003970 0.000000 0.030207 0.000000
# 6 0.000000 0.000000 0.000000 0.005517 0.000000 0.028030
#
#
# Mechanical properties :
#
#
# Convention : Reuss Voigt Hill
#
# Bulk Modulus (GPa) = 33.03917 59.34592 46.19255
# Shear Modulus (GPa) = 25.82896 33.13032 29.47964
#
# Velocity S-wave (km/s) = 3.58956 4.06538 3.83486
# Velocity P-wave (km/s) = 5.80188 7.18621 6.53082
#
# Compressibility (1/GPa) = 0.03026710
#
# Stress axis : x y z
#
# Youngs Moduli (GPa) = 108.65864 27.07948 99.15632
#
# Poissons Ratio (x) = 0.07765 0.30224
# Poissons Ratio (y) = 0.31157 0.69996
# Poissons Ratio (z) = 0.33121 0.19116
#
# Static dielectric constant tensor:
#      x y z
#    x 1.675750 0.000000 -0.002720 
#    y 0.000000 1.682530 0.000000 
#    z -0.002720 0.000000 1.723170 
# 
# From -- ./inp_files/38455.got.cif
#   From: 2010.05.17/outbox.cif.g08.bks.cpg/sg11_20_cif.got.tgz:38455.got - 2010.06.03 12:22:45.
