data_PCOD9165223
_publ_section_title
;
Structure prediction by ZEFSAII (Michael W. Deem and Ramdas Pophale) SiO2 
 PCOD9165223
Probable space group: P 21/M
;
_chemical_formula_sum "Si O2"
_cell_formula_units_Z 28
_cell_length_a 15.798321
_cell_length_b 8.808388
_cell_length_c 13.087846
_cell_angle_alpha 90.000000
_cell_angle_beta 126.956979
_cell_angle_gamma 90.000000
_cell_volume 1455.357540
_symmetry_space_group_name_H-M "P 21/M"
_symmetry_group_IT_number 11
_symmetry_cell_setting 'monoclinic'
loop_
_space_group_symop_operation_xyz
x,y,z
-x,1/2+y,-z
-x,-y,-z
x,1/2-y,z
loop_
_atom_site_type_symbol
_atom_site_label
_atom_site_fract_x
_atom_site_fract_y
_atom_site_fract_z
Si Si1 0.980675 0.576024 0.380226
Si Si2 0.650123 0.070789 0.609836
Si Si3 0.940324 0.076868 0.049951
Si Si4 0.209598 0.432405 0.907457
Si Si5 0.442661 0.567580 0.059794
Si Si6 0.517588 0.568157 0.687806
Si Si7 0.112140 0.575695 0.292160
O O1 0.954425 0.750000 0.379433
O O2 0.880133 0.520484 0.240540
O O3 0.000000 0.500000 0.500000
O O4 0.090585 0.571948 0.396632
O O5 0.629922 0.250000 0.613383
O O6 0.579783 0.026509 0.459441
O O7 0.771954 0.053137 0.667117
O O8 0.616117 0.983214 0.687586
O O9 0.911295 0.250000 0.009816
O O10 0.840448 0.985915 0.021142
O O11 0.034065 0.055604 0.199241
O O12 0.000000 0.000000 0.000000
O O13 0.221252 0.250000 0.915587
O O14 0.320719 0.512153 0.968240
O O15 0.449995 0.750000 0.063031
O O16 0.484292 0.507467 0.201259
O O17 0.500000 0.500000 0.000000
O O18 0.518779 0.750000 0.702334
O O19 0.076729 0.750000 0.236254
#
# Coordination Sequence:
#
# PCOD9165223 Si02
#       7
#     4   4   4   4   4   4   4
#     4   9  19  35  57  84 116 153 192 242 296 352
#     4   9  19  37  61  87 118 158 204 253 307 366
#     4  11  22  36  56  85 118 155 193 236 292 356
#     4  10  22  42  62  86 119 155 198 248 296 353
#     4  12  26  44  65  90 121 162 209 258 310 370
#     4  10  21  38  60  88 122 159 201 254 310 366
#     4   9  19  36  55  80 114 149 193 243 291 350
#
# _framework density 19.239259000000001
#
# number of rings (size 3 to 8) (size 9 to 14) (size 15 to 20)
#    0.000    2.000    0.000    4.286    2.000    5.143 
#    0.000    1.429    0.000    0.000    0.000    0.000 
#    0.000    0.000    0.000    0.000    0.000    0.000 
#
# Total GULP energy -156023.639970 kJ/mol
# GULP energy per Si atom -5572.272856 kJ/mol
# Density = 1.919547 g / cm^3
# Si number density = 19.239259 Si / 1000 Ang^3
#
#
#
# Elastic Constant Matrix: (Units=GPa)
#
#
# Indices 1 2 3 4 5 6 
#
# 1 134.5096 57.7007 49.1584 0.0000 -18.3140 0.0000
# 2 57.7007 89.1855 41.1905 0.0000 -18.8286 0.0000
# 3 49.1584 41.1905 77.8593 0.0000 -29.2550 0.0000
# 4 0.0000 0.0000 0.0000 33.3502 0.0000 -5.1716
# 5 -18.3140 -18.8286 -29.2550 0.0000 31.5449 0.0000
# 6 0.0000 0.0000 0.0000 -5.1716 0.0000 35.3030
#
#
#
# Elastic Compliance Matrix: (Units=1/GPa)
#
#
# Indices 1 2 3 4 5 6 
#
# 1 0.011310 -0.005367 -0.004663 0.000000 -0.000961 0.000000
# 2 -0.005367 0.017506 -0.004785 0.000000 0.002896 0.000000
# 3 -0.004663 -0.004785 0.024909 0.000000 0.017537 0.000000
# 4 0.000000 0.000000 0.000000 0.030682 0.000000 0.004495
# 5 -0.000961 0.002896 0.017537 0.000000 0.049135 0.000000
# 6 0.000000 0.000000 0.000000 0.004495 0.000000 0.028985
#
#
# Mechanical properties :
#
#
# Convention : Reuss Voigt Hill
#
# Bulk Modulus (GPa) = 41.50137 66.40594 53.95366
# Shear Modulus (GPa) = 24.97675 30.27328 27.62501
#
# Velocity S-wave (km/s) = 3.60699 3.97106 3.79339
# Velocity P-wave (km/s) = 6.24221 7.45765 6.87683
#
# Compressibility (1/GPa) = 0.02409559
#
# Stress axis : x y z
#
# Youngs Moduli (GPa) = 88.41989 57.12377 40.14680
#
# Poissons Ratio (x) = 0.30656 0.18720
# Poissons Ratio (y) = 0.47451 0.19210
# Poissons Ratio (z) = 0.41229 0.27333
#
# Static dielectric constant tensor:
#      x y z
#    x 1.684230 0.000000 0.027320 
#    y 0.000000 1.680710 0.000000 
#    z 0.027320 0.000000 1.546130 
# 
# From -- ./inp_files/38437.got.cif
#   From: 2010.05.17/outbox.cif.g08.bks.cpg/sg11_20_cif.got.tgz:38437.got - 2010.06.03 12:22:45.
