data_PCOD9165733
_publ_section_title
;
Structure prediction by ZEFSAII (Michael W. Deem and Ramdas Pophale) SiO2 
 PCOD9165733
Probable space group: P 21/M
;
_chemical_formula_sum "Si O2"
_cell_formula_units_Z 32
_cell_length_a 5.798381
_cell_length_b 18.370469
_cell_length_c 14.235690
_cell_angle_alpha 90.000000
_cell_angle_beta 93.271303
_cell_angle_gamma 90.000000
_cell_volume 1513.900263
_symmetry_space_group_name_H-M "P 21/M"
_symmetry_group_IT_number 11
_symmetry_cell_setting 'monoclinic'
loop_
_space_group_symop_operation_xyz
x,y,z
-x,1/2+y,-z
-x,-y,-z
x,1/2-y,z
loop_
_atom_site_type_symbol
_atom_site_label
_atom_site_fract_x
_atom_site_fract_y
_atom_site_fract_z
Si Si1 0.071465 0.942450 0.136467
Si Si2 0.288958 0.536910 0.943915
Si Si3 0.815014 0.162583 0.699974
Si Si4 0.853551 0.332854 0.364049
Si Si5 0.775000 0.578330 0.738990
Si Si6 0.298471 0.162353 0.606398
Si Si7 0.492522 0.077572 0.449809
Si Si8 0.544048 0.171620 0.171725
O O1 0.136298 0.871987 0.196786
O O2 0.191448 0.009156 0.194688
O O3 0.132495 0.937755 0.028076
O O4 0.812693 0.974042 0.125716
O O5 0.347167 0.607321 0.885303
O O6 0.500000 0.500000 0.000000
O O7 0.814980 0.250000 0.701482
O O8 0.552647 0.141318 0.658622
O O9 0.052731 0.140258 0.648883
O O10 0.938311 0.250000 0.388742
O O11 0.720058 0.371686 0.446598
O O12 0.674183 0.322500 0.273953
O O13 0.024752 0.391491 0.322630
O O14 0.577776 0.561385 0.658748
O O15 0.710253 0.645072 0.805586
O O16 0.298627 0.250000 0.601898
O O17 0.312522 0.126553 0.504003
O O18 0.500000 0.000000 0.500000
O O19 0.547654 0.250000 0.124627
#
# Coordination Sequence:
#
# PCOD9165733 Si02
#       8
#     4   4   4   4   4   4   4   4
#     4  11  24  40  67  92 128 170 220 272 333 406
#     4  11  23  41  64  94 126 170 212 273 338 394
#     4  10  24  44  70  97 132 180 224 275 337 399
#     4  10  22  39  60  86 124 164 208 262 323 389
#     4  11  22  39  63  92 126 171 213 267 330 395
#     4  10  23  44  66  95 134 176 222 275 334 391
#     4  11  25  38  61  94 126 166 219 272 324 391
#     4  10  21  40  63  93 126 163 210 263 329 399
#
# _framework density 21.137454000000002
#
# number of rings (size 3 to 8) (size 9 to 14) (size 15 to 20)
#    0.000    1.500    2.500    1.500    5.250    2.500 
#    0.000    0.625    0.000    0.000    0.000    0.000 
#    0.000    0.000    0.000    0.000    0.000    0.000 
#
# Total GULP energy -178266.149100 kJ/mol
# GULP energy per Si atom -5570.817159 kJ/mol
# Density = 2.108934 g / cm^3
# Si number density = 21.137454 Si / 1000 Ang^3
#
#
#
# Elastic Constant Matrix: (Units=GPa)
#
#
# Indices 1 2 3 4 5 6 
#
# 1 62.4049 10.6625 16.9232 0.0000 2.1052 0.0000
# 2 10.6625 58.7114 13.5656 0.0000 -0.9557 0.0000
# 3 16.9232 13.5656 64.2094 0.0000 8.9975 0.0000
# 4 0.0000 0.0000 0.0000 14.0294 0.0000 -2.7832
# 5 2.1052 -0.9557 8.9975 0.0000 35.2426 0.0000
# 6 0.0000 0.0000 0.0000 -2.7832 0.0000 17.4993
#
#
#
# Elastic Compliance Matrix: (Units=1/GPa)
#
#
# Indices 1 2 3 4 5 6 
#
# 1 0.017530 -0.002227 -0.004143 0.000000 -0.000050 0.000000
# 2 -0.002227 0.018267 -0.003485 0.000000 0.001518 0.000000
# 3 -0.004143 -0.003485 0.018026 0.000000 -0.004449 0.000000
# 4 0.000000 0.000000 0.000000 0.073601 0.000000 0.011706
# 5 -0.000050 0.001518 -0.004449 0.000000 0.029555 0.000000
# 6 0.000000 0.000000 0.000000 0.011706 0.000000 0.059007
#
#
# Mechanical properties :
#
#
# Convention : Reuss Voigt Hill
#
# Bulk Modulus (GPa) = 29.31460 29.73647 29.52553
# Shear Modulus (GPa) = 20.23748 22.96589 21.60168
#
# Velocity S-wave (km/s) = 3.09758 3.29979 3.20028
# Velocity P-wave (km/s) = 5.16643 5.34947 5.25875
#
# Compressibility (1/GPa) = 0.03411270
#
# Stress axis : x y z
#
# Youngs Moduli (GPa) = 57.04489 54.74389 55.47658
#
# Poissons Ratio (x) = 0.12193 0.22982
# Poissons Ratio (y) = 0.12705 0.19334
# Poissons Ratio (z) = 0.23632 0.19078
#
# Static dielectric constant tensor:
#      x y z
#    x 1.899040 0.000000 0.001490 
#    y 0.000000 1.754910 0.000000 
#    z 0.001490 0.000000 1.741290 
# 
# From -- ./inp_files/46054.got.cif
#   From: 2010.05.17/outbox.cif.g08.bks.cpg/sg11_24_cif.got.tgz:46054.got - 2010.06.03 12:22:45.
