data_PCOD9165187
_publ_section_title
;
Structure prediction by ZEFSAII (Michael W. Deem and Ramdas Pophale) SiO2 
 PCOD9165187
Probable space group: P 21/M
;
_chemical_formula_sum "Si O2"
_cell_formula_units_Z 28
_cell_length_a 13.861195
_cell_length_b 8.831652
_cell_length_c 21.407346
_cell_angle_alpha 90.000000
_cell_angle_beta 144.073558
_cell_angle_gamma 90.000000
_cell_volume 1537.643591
_symmetry_space_group_name_H-M "P 21/M"
_symmetry_group_IT_number 11
_symmetry_cell_setting 'monoclinic'
loop_
_space_group_symop_operation_xyz
x,y,z
-x,1/2+y,-z
-x,-y,-z
x,1/2-y,z
loop_
_atom_site_type_symbol
_atom_site_label
_atom_site_fract_x
_atom_site_fract_y
_atom_site_fract_z
Si Si1 0.317020 0.933907 0.823177
Si Si2 0.485318 0.067816 0.260801
Si Si3 0.664684 0.567248 0.948641
Si Si4 0.115241 0.568387 0.836618
Si Si5 0.836227 0.068045 0.385747
Si Si6 0.507427 0.430025 0.601994
Si Si7 0.238399 0.930438 0.376285
O O1 0.320075 0.750000 0.825102
O O2 0.500733 0.982092 0.900926
O O3 0.243948 0.984290 0.850541
O O4 0.198612 0.980003 0.703922
O O5 0.478512 0.250000 0.263708
O O6 0.369486 0.026068 0.141400
O O7 0.671758 0.027553 0.337999
O O8 0.446902 0.990935 0.306067
O O9 0.674538 0.750000 0.956890
O O10 0.820430 0.495331 0.063965
O O11 0.113444 0.750000 0.836940
O O12 0.937008 0.507629 0.724435
O O13 0.848071 0.250000 0.392538
O O14 0.000000 0.000000 0.500000
O O15 0.483896 0.250000 0.591165
O O16 0.649221 0.464137 0.625647
O O17 0.341479 0.507378 0.489090
O O18 0.220034 0.750000 0.371931
#
# Coordination Sequence:
#
# PCOD9165187 Si02
#       7
#     4   4   4   4   4   4   4
#     4   8  17  33  51  73 107 145 179 216 262 312
#     4   9  19  35  56  78 106 144 181 217 269 325
#     4   9  18  36  56  76 108 149 183 217 264 318
#     4  11  21  33  54  83 111 140 181 228 268 310
#     4   9  18  32  48  73 107 141 177 217 260 313
#     4  10  21  38  60  82 106 137 176 224 275 322
#     4  10  22  39  57  80 109 140 176 219 271 331
#
# _framework density 18.209681
#
# number of rings (size 3 to 8) (size 9 to 14) (size 15 to 20)
#    0.000    2.571    0.000    3.429    2.000    2.857 
#    0.000    4.286    0.000    0.000    0.000    0.000 
#    0.000    0.000    0.000    0.000    0.000    0.000 
#
# Total GULP energy -156223.274079 kJ/mol
# GULP energy per Si atom -5579.402646 kJ/mol
# Density = 1.816824 g / cm^3
# Si number density = 18.209681 Si / 1000 Ang^3
#
#
#
# Elastic Constant Matrix: (Units=GPa)
#
#
# Indices 1 2 3 4 5 6 
#
# 1 56.1964 25.9318 35.3381 0.0000 -24.3659 0.0000
# 2 25.9318 22.4749 24.5641 0.0000 -5.9530 0.0000
# 3 35.3381 24.5641 98.2672 0.0000 -11.6507 0.0000
# 4 0.0000 0.0000 0.0000 34.6206 0.0000 -1.2699
# 5 -24.3659 -5.9530 -11.6507 0.0000 22.4280 0.0000
# 6 0.0000 0.0000 0.0000 -1.2699 0.0000 24.4611
#
#
#
# Elastic Compliance Matrix: (Units=1/GPa)
#
#
# Indices 1 2 3 4 5 6 
#
# 1 0.087025 -0.077652 -0.003323 0.000000 0.072207 0.000000
# 2 -0.077652 0.132201 -0.011683 0.000000 -0.055341 0.000000
# 3 -0.003323 -0.011683 0.014382 0.000000 0.000760 0.000000
# 4 0.000000 0.000000 0.000000 0.028940 0.000000 0.001502
# 5 0.072207 -0.055341 0.000760 0.000000 0.108739 0.000000
# 6 0.000000 0.000000 0.000000 0.001502 0.000000 0.040959
#
#
# Mechanical properties :
#
#
# Convention : Reuss Voigt Hill
#
# Bulk Modulus (GPa) = 20.70822 38.73405 29.72113
# Shear Modulus (GPa) = 8.14784 22.37559 15.26172
#
# Velocity S-wave (km/s) = 2.11759 3.50919 2.89815
# Velocity P-wave (km/s) = 4.16841 6.14301 5.24939
#
# Compressibility (1/GPa) = 0.04829001
#
# Stress axis : x y z
#
# Youngs Moduli (GPa) = 11.49096 7.56427 69.53148
#
# Poissons Ratio (x) = 0.58738 0.23108
# Poissons Ratio (y) = 0.89230 0.81235
# Poissons Ratio (z) = 0.03819 0.08837
#
# Static dielectric constant tensor:
#      x y z
#    x 1.631100 0.000000 -0.011550 
#    y 0.000000 1.608700 0.000000 
#    z -0.011550 0.000000 1.608720 
# 
# From -- ./inp_files/65447.got.cif
#   From: 2010.05.17/outbox.cif.g08.bks.cpg/sg11_33_cif.got.tgz:65447.got - 2010.06.03 12:22:45.
