data_PCOD9165435
_publ_section_title
;
Structure prediction by ZEFSAII (Michael W. Deem and Ramdas Pophale) SiO2 
 PCOD9165435
Probable space group: P 21/M
;
_chemical_formula_sum "Si O2"
_cell_formula_units_Z 32
_cell_length_a 14.782946
_cell_length_b 23.958745
_cell_length_c 8.665416
_cell_angle_alpha 90.000000
_cell_angle_beta 30.278520
_cell_angle_gamma 90.000000
_cell_volume 1547.464435
_symmetry_space_group_name_H-M "P 21/M"
_symmetry_group_IT_number 11
_symmetry_cell_setting 'monoclinic'
loop_
_space_group_symop_operation_xyz
x,y,z
-x,1/2+y,-z
-x,-y,-z
x,1/2-y,z
loop_
_atom_site_type_symbol
_atom_site_label
_atom_site_fract_x
_atom_site_fract_y
_atom_site_fract_z
Si Si1 0.680624 0.857600 0.386180
Si Si2 0.840191 0.881914 0.451876
Si Si3 0.059801 0.812590 0.350110
Si Si4 0.982282 0.613755 0.736020
Si Si5 0.446707 0.015012 0.407040
Si Si6 0.365131 0.686863 0.639282
Si Si7 0.814477 0.413347 0.269063
Si Si8 0.191596 0.031430 0.238394
O O1 0.715841 0.847980 0.515275
O O2 0.536253 0.827989 0.491649
O O3 0.628413 0.922902 0.478525
O O4 0.865457 0.848106 0.022276
O O5 0.783116 0.935455 0.637888
O O6 0.892400 0.837821 0.506115
O O7 0.012416 0.904488 0.098572
O O8 0.033003 0.750000 0.444424
O O9 0.091998 0.853340 0.445384
O O10 0.210736 0.813744 0.997107
O O11 0.836062 0.576011 0.860590
O O12 0.114609 0.584520 0.660459
O O13 0.294466 0.970215 0.591155
O O14 0.500000 0.000000 0.500000
O O15 0.633431 0.006745 0.040191
O O16 0.376594 0.750000 0.558427
O O17 0.314160 0.639008 0.589826
O O18 0.000000 0.000000 0.500000
#
# Coordination Sequence:
#
# PCOD9165435 Si02
#       8
#     4   4   4   4   4   4   4   4
#     4  11  23  38  59  90 117 156 195 238 292 343
#     4   9  22  38  58  86 118 151 201 234 285 353
#     4   9  20  40  62  82 113 154 192 244 294 339
#     4  10  22  37  59  87 115 148 198 238 284 350
#     4  12  22  37  59  84 125 156 193 240 287 349
#     4  10  21  39  60  83 113 150 195 242 293 345
#     4  10  21  39  60  85 117 155 192 243 289 344
#     4  11  23  37  55  84 117 157 192 231 288 341
#
# _framework density 20.678986999999999
#
# number of rings (size 3 to 8) (size 9 to 14) (size 15 to 20)
#    0.000    1.750    2.500    0.750    5.250    4.000 
#    0.000    2.500    0.000    0.000    0.000    0.000 
#    0.000    0.000    0.000    0.000    0.000    0.000 
#
# Total GULP energy -178310.157982 kJ/mol
# GULP energy per Si atom -5572.192437 kJ/mol
# Density = 2.063192 g / cm^3
# Si number density = 20.678987 Si / 1000 Ang^3
#
#
#
# Elastic Constant Matrix: (Units=GPa)
#
#
# Indices 1 2 3 4 5 6 
#
# 1 84.0810 -17.1858 -8.4490 0.0000 8.2315 0.0000
# 2 -17.1858 25.7565 2.8434 0.0000 -0.2843 0.0000
# 3 -8.4490 2.8434 20.4434 0.0000 -2.1933 0.0000
# 4 0.0000 0.0000 0.0000 19.8716 0.0000 1.5099
# 5 8.2315 -0.2843 -2.1933 0.0000 25.6325 0.0000
# 6 0.0000 0.0000 0.0000 1.5099 0.0000 11.3090
#
#
#
# Elastic Compliance Matrix: (Units=1/GPa)
#
#
# Indices 1 2 3 4 5 6 
#
# 1 0.014628 0.009238 0.004307 0.000000 -0.004227 0.000000
# 2 0.009238 0.045265 -0.002767 0.000000 -0.002702 0.000000
# 3 0.004307 -0.002767 0.051401 0.000000 0.002984 0.000000
# 4 0.000000 0.000000 0.000000 0.050839 0.000000 -0.006788
# 5 -0.004227 -0.002702 0.002984 0.000000 0.040596 0.000000
# 6 0.000000 0.000000 0.000000 -0.006788 0.000000 0.089331
#
#
# Mechanical properties :
#
#
# Convention : Reuss Voigt Hill
#
# Bulk Modulus (GPa) = 7.52726 9.41089 8.46907
# Shear Modulus (GPa) = 15.88376 21.56745 18.72560
#
# Velocity S-wave (km/s) = 2.77449 3.23300 3.01248
# Velocity P-wave (km/s) = 3.72983 4.30084 4.02547
#
# Compressibility (1/GPa) = 0.13285049
#
# Stress axis : x y z
#
# Youngs Moduli (GPa) = 68.36117 22.09206 19.45497
#
# Poissons Ratio (x) = -0.20410 -0.08380
# Poissons Ratio (y) = -0.63155 0.05384
# Poissons Ratio (z) = -0.29445 0.06114
#
# Static dielectric constant tensor:
#      x y z
#    x 1.650870 0.000000 -0.026920 
#    y 0.000000 1.760980 0.000000 
#    z -0.026920 0.000000 1.854410 
# 
# From -- ./inp_files/23356.got.cif
#   From: 2010.05.17/outbox.cif.g08.bks.cpg/sg11_12_cif.got.tgz:23356.got - 2010.06.03 12:22:45.
