data_PCOD9165728
_publ_section_title
;
Structure prediction by ZEFSAII (Michael W. Deem and Ramdas Pophale) SiO2 
 PCOD9165728
Probable space group: P 21/M
;
_chemical_formula_sum "Si O2"
_cell_formula_units_Z 22
_cell_length_a 12.665364
_cell_length_b 10.850953
_cell_length_c 15.900379
_cell_angle_alpha 90.000000
_cell_angle_beta 153.918431
_cell_angle_gamma 90.000000
_cell_volume 960.727842
_symmetry_space_group_name_H-M "P 21/M"
_symmetry_group_IT_number 11
_symmetry_cell_setting 'monoclinic'
loop_
_space_group_symop_operation_xyz
x,y,z
-x,1/2+y,-z
-x,-y,-z
x,1/2-y,z
loop_
_atom_site_type_symbol
_atom_site_label
_atom_site_fract_x
_atom_site_fract_y
_atom_site_fract_z
Si Si1 0.864464 0.392405 0.595023
Si Si2 0.907965 0.494677 0.804526
Si Si3 0.216438 0.008216 0.721139
Si Si4 0.651910 0.897059 0.774823
Si Si5 0.814549 0.250000 0.258327
Si Si6 0.865309 0.250000 0.093171
Si Si7 0.651573 0.750000 0.272527
O O1 0.905172 0.250000 0.603421
O O2 0.607646 0.431142 0.372930
O O3 0.833632 0.414776 0.671541
O O4 0.086546 0.465655 0.716710
O O5 0.995631 0.627874 0.835056
O O6 0.709772 0.522783 0.733414
O O7 0.131587 0.426792 0.008130
O O8 0.358652 0.126580 0.791701
O O9 0.319353 0.871750 0.803301
O O10 0.000000 0.000000 0.500000
O O11 0.644969 0.750000 0.751302
O O12 0.836877 0.250000 0.173853
O O13 0.092714 0.250000 0.494439
O O14 0.601569 0.250000 0.860500
#
# Coordination Sequence:
#
# PCOD9165728 Si02
#       7
#     4   4   4   4   2   2   2
#     4  11  22  41  66  90 123 166 206 261 317 369
#     4  11  23  41  62  93 126 158 208 262 306 382
#     4  10  21  40  63  89 124 164 209 260 306 372
#     4  10  23  42  64  91 123 162 208 257 320 370
#     4  10  22  42  62  88 124 162 216 262 306 368
#     4  12  24  38  65  90 124 166 207 254 310 375
#     4  10  24  42  61  90 126 168 211 256 318 367
#
# _framework density 22.899304999999998
#
# number of rings (size 3 to 8) (size 9 to 14) (size 15 to 20)
#    0.000    1.455    3.636    1.091    5.091    0.727 
#    0.000    0.000    0.000    0.000    0.000    0.000 
#    0.000    0.000    0.000    0.000    0.000    0.000 
#
# Total GULP energy -122994.802922 kJ/mol
# GULP energy per Si atom -5590.672860 kJ/mol
# Density = 2.284718 g / cm^3
# Si number density = 22.899305 Si / 1000 Ang^3
#
#
#
# Elastic Constant Matrix: (Units=GPa)
#
#
# Indices 1 2 3 4 5 6 
#
# 1 29.6558 8.6964 4.0168 0.0000 -3.8826 0.0000
# 2 8.6964 108.1443 -5.4959 0.0000 17.7498 0.0000
# 3 4.0168 -5.4959 51.8459 0.0000 -0.8338 0.0000
# 4 0.0000 0.0000 0.0000 19.9521 0.0000 -9.5876
# 5 -3.8826 17.7498 -0.8338 0.0000 27.6144 0.0000
# 6 0.0000 0.0000 0.0000 -9.5876 0.0000 18.6064
#
#
#
# Elastic Compliance Matrix: (Units=1/GPa)
#
#
# Indices 1 2 3 4 5 6 
#
# 1 0.036461 -0.004381 -0.003163 0.000000 0.007847 0.000000
# 2 -0.004381 0.010915 0.001374 0.000000 -0.007590 0.000000
# 3 -0.003163 0.001374 0.019667 0.000000 -0.000734 0.000000
# 4 0.000000 0.000000 0.000000 0.066615 0.000000 0.034325
# 5 0.007847 -0.007590 -0.000734 0.000000 0.042173 0.000000
# 6 0.000000 0.000000 0.000000 0.034325 0.000000 0.071432
#
#
# Mechanical properties :
#
#
# Convention : Reuss Voigt Hill
#
# Bulk Modulus (GPa) = 18.28030 22.67564 20.47797
# Shear Modulus (GPa) = 17.99631 25.39650 21.69641
#
# Velocity S-wave (km/s) = 2.80641 3.33385 3.08144
# Velocity P-wave (km/s) = 4.30134 4.97426 4.64999
#
# Compressibility (1/GPa) = 0.05470370
#
# Stress axis : x y z
#
# Youngs Moduli (GPa) = 27.42692 91.61888 50.84699
#
# Poissons Ratio (x) = 0.40134 0.16083
# Poissons Ratio (y) = 0.12015 -0.06988
# Poissons Ratio (z) = 0.08675 -0.12591
#
# Static dielectric constant tensor:
#      x y z
#    x 1.834570 0.000000 -0.006370 
#    y 0.000000 1.859580 0.000000 
#    z -0.006370 0.000000 1.864590 
# 
# From -- ./inp_files/39289.got.cif
#   From: 2010.05.17/outbox.cif.g08.bks.cpg/sg11_20_cif.got.tgz:39289.got - 2010.06.03 12:22:45.
