data_PCOD9165604
_publ_section_title
;
Structure prediction by ZEFSAII (Michael W. Deem and Ramdas Pophale) SiO2 
 PCOD9165604
Probable space group: P 21/M
;
_chemical_formula_sum "Si O2"
_cell_formula_units_Z 32
_cell_length_a 17.693111
_cell_length_b 15.555227
_cell_length_c 11.299524
_cell_angle_alpha 90.000000
_cell_angle_beta 30.846841
_cell_angle_gamma 90.000000
_cell_volume 1594.564421
_symmetry_space_group_name_H-M "P 21/M"
_symmetry_group_IT_number 11
_symmetry_cell_setting 'monoclinic'
loop_
_space_group_symop_operation_xyz
x,y,z
-x,1/2+y,-z
-x,-y,-z
x,1/2-y,z
loop_
_atom_site_type_symbol
_atom_site_label
_atom_site_fract_x
_atom_site_fract_y
_atom_site_fract_z
Si Si1 0.787255 0.656740 0.168699
Si Si2 0.225633 0.150332 0.535998
Si Si3 0.898203 0.348505 0.878461
Si Si4 0.665388 0.028843 0.698366
Si Si5 0.351075 0.040578 0.037229
Si Si6 0.033973 0.101643 0.447300
Si Si7 0.655366 0.493390 0.223256
Si Si8 0.912511 0.344027 0.354173
O O1 0.727038 0.750000 0.211203
O O2 0.752076 0.644950 0.353287
O O3 0.734249 0.579243 0.161007
O O4 0.961185 0.659294 0.913491
O O5 0.258053 0.250000 0.455752
O O6 0.318553 0.072270 0.354898
O O7 0.053395 0.134052 0.736578
O O8 0.854969 0.250000 0.958954
O O9 0.945240 0.358631 0.676746
O O10 0.767495 0.413509 0.090318
O O11 0.513841 0.069794 0.857200
O O12 0.801659 0.081647 0.467870
O O13 0.679492 0.030925 0.821369
O O14 0.365373 0.000391 0.889132
O O15 0.212094 0.105609 0.224543
O O16 0.986208 0.136692 0.383552
O O17 0.000000 0.000000 0.500000
O O18 0.500000 0.500000 0.500000
O O19 0.840649 0.250000 0.458527
#
# Coordination Sequence:
#
# PCOD9165604 Si02
#       8
#     4   4   4   4   4   4   4   4
#     4  10  22  39  61  89 121 162 217 266 316 387
#     4  10  21  39  64  92 123 167 216 266 331 393
#     4  11  23  39  64  96 124 164 219 272 320 389
#     4  11  22  41  61  92 134 166 207 273 327 379
#     4  11  23  38  64  96 128 168 212 266 325 387
#     4  12  18  39  68  92 125 163 214 267 319 379
#     4  12  24  41  62  90 128 175 215 261 332 392
#     4  11  22  38  63  91 125 169 212 258 319 385
#
# _framework density 20.068178
#
# number of rings (size 3 to 8) (size 9 to 14) (size 15 to 20)
#    0.000    1.000    5.000    1.875    0.000    3.500 
#    0.000    5.625    0.000    0.000    0.000    0.000 
#    0.000    0.000    0.000    0.000    0.000    0.000 
#
# Total GULP energy -178527.831092 kJ/mol
# GULP energy per Si atom -5578.994722 kJ/mol
# Density = 2.002250 g / cm^3
# Si number density = 20.068178 Si / 1000 Ang^3
#
#
#
# Elastic Constant Matrix: (Units=GPa)
#
#
# Indices 1 2 3 4 5 6 
#
# 1 48.6470 24.5084 17.6046 0.0000 -3.0130 0.0000
# 2 24.5084 108.3372 49.1543 0.0000 -1.5011 0.0000
# 3 17.6046 49.1543 98.0625 0.0000 -11.0994 0.0000
# 4 0.0000 0.0000 0.0000 -4.2484 0.0000 4.4245
# 5 -3.0130 -1.5011 -11.0994 0.0000 31.2983 0.0000
# 6 0.0000 0.0000 0.0000 4.4245 0.0000 14.5356
#
#
#
# Elastic Compliance Matrix: (Units=1/GPa)
#
#
# Indices 1 2 3 4 5 6 
#
# 1 0.023562 -0.004484 -0.001823 0.000000 0.001407 0.000000
# 2 -0.004484 0.012880 -0.005866 0.000000 -0.001894 0.000000
# 3 -0.001823 -0.005866 0.013974 0.000000 0.004499 0.000000
# 4 0.000000 0.000000 0.000000 -0.178724 0.000000 0.054402
# 5 0.001407 -0.001894 0.004499 0.000000 0.033591 0.000000
# 6 0.000000 0.000000 0.000000 0.054402 0.000000 0.052237
#
#
# Mechanical properties :
#
#
# Convention : Reuss Voigt Hill
#
# Bulk Modulus (GPa) = 38.35644 48.62014 43.48829
# Shear Modulus (GPa) = -529.38948 19.23572 -255.07688
#
# Velocity S-wave (km/s) = -16.25940 3.09935 -11.28632
# Velocity P-wave (km/s) = 18.25750 6.09000 12.17063
#
# Compressibility (1/GPa) = 0.02607124
#
# Stress axis : x y z
#
# Youngs Moduli (GPa) = 42.44121 77.64125 71.56021
#
# Poissons Ratio (x) = 0.34810 0.13048
# Poissons Ratio (y) = 0.19029 0.41974
# Poissons Ratio (z) = 0.07739 0.45541
#
# Static dielectric constant tensor:
#      x y z
#    x 1.718040 0.000000 -0.016660 
#    y 0.000000 1.703540 0.000000 
#    z -0.016660 0.000000 1.760180 
# 
# From -- ./inp_files/41682.got.cif
#   From: 2010.05.17/outbox.cif.g08.bks.cpg/sg11_21_cif.got.tgz:41682.got - 2010.06.03 12:22:45.
