data_PCOD9165275
_publ_section_title
;
Structure prediction by ZEFSAII (Michael W. Deem and Ramdas Pophale) SiO2 
 PCOD9165275
Probable space group: P 21/M
;
_chemical_formula_sum "Si O2"
_cell_formula_units_Z 32
_cell_length_a 17.300718
_cell_length_b 13.893456
_cell_length_c 15.212021
_cell_angle_alpha 90.000000
_cell_angle_beta 24.400539
_cell_angle_gamma 90.000000
_cell_volume 1510.532911
_symmetry_space_group_name_H-M "P 21/M"
_symmetry_group_IT_number 11
_symmetry_cell_setting 'monoclinic'
loop_
_space_group_symop_operation_xyz
x,y,z
-x,1/2+y,-z
-x,-y,-z
x,1/2-y,z
loop_
_atom_site_type_symbol
_atom_site_label
_atom_site_fract_x
_atom_site_fract_y
_atom_site_fract_z
Si Si1 0.970556 0.646103 0.538716
Si Si2 0.613369 0.356841 0.615655
Si Si3 0.284439 0.995574 0.967803
Si Si4 0.017943 0.857101 0.692233
Si Si5 0.646235 0.362839 0.266965
Si Si6 0.876560 0.071954 0.195302
Si Si7 0.798687 0.862016 0.248291
Si Si8 0.300887 0.521757 0.162887
O O1 0.925237 0.750000 0.546571
O O2 0.941653 0.649592 0.673034
O O3 0.834146 0.559991 0.653683
O O4 0.186408 0.619009 0.300724
O O5 0.534960 0.250000 0.704408
O O6 0.451677 0.431950 0.772539
O O7 0.756286 0.366862 0.387165
O O8 0.759346 0.375351 0.543130
O O9 0.309987 0.907659 0.874079
O O10 0.092325 0.054587 0.151164
O O11 0.304800 0.978677 0.051831
O O12 0.990904 0.750000 0.759459
O O13 0.694250 0.250000 0.218603
O O14 0.765508 0.416446 0.217899
O O15 0.426088 0.370572 0.520245
O O16 0.863884 0.958502 0.233781
O O17 0.080198 0.117474 0.965409
O O18 0.837962 0.750000 0.235038
O O19 0.500000 0.500000 0.000000
#
# Coordination Sequence:
#
# PCOD9165275 Si02
#       8
#     4   4   4   4   4   4   4   4
#     4   9  19  38  61  87 118 155 194 236 293 360
#     4  11  22  36  57  87 116 147 191 239 291 350
#     4  11  23  37  58  86 116 152 192 236 295 351
#     4   9  20  37  58  86 120 149 180 233 293 346
#     4  11  24  41  57  79 117 156 194 241 292 343
#     4  11  23  40  59  84 114 152 201 244 289 341
#     4  10  22  39  60  82 110 152 197 243 291 338
#     4  10  21  38  61  89 120 153 195 248 299 355
#
# _framework density 21.184576
#
# number of rings (size 3 to 8) (size 9 to 14) (size 15 to 20)
#    0.000    1.750    1.250    2.625    3.500    1.500 
#    0.000    0.000    0.000    1.500    0.000    0.000 
#    0.000    0.000    0.000    0.000    0.000    0.000 
#
# Total GULP energy -178331.568189 kJ/mol
# GULP energy per Si atom -5572.861506 kJ/mol
# Density = 2.113636 g / cm^3
# Si number density = 21.184576 Si / 1000 Ang^3
#
#
#
# Elastic Constant Matrix: (Units=GPa)
#
#
# Indices 1 2 3 4 5 6 
#
# 1 52.6426 13.8361 6.9762 0.0000 3.6397 0.0000
# 2 13.8361 121.8483 30.5213 0.0000 -9.0433 0.0000
# 3 6.9762 30.5213 83.9337 0.0000 -2.3840 0.0000
# 4 0.0000 0.0000 0.0000 -324.7993 0.0000 -318.1961
# 5 3.6397 -9.0433 -2.3840 0.0000 29.5324 0.0000
# 6 0.0000 0.0000 0.0000 -318.1961 0.0000 -277.1376
#
#
#
# Elastic Compliance Matrix: (Units=1/GPa)
#
#
# Indices 1 2 3 4 5 6 
#
# 1 0.019939 -0.002273 -0.000923 0.000000 -0.003228 0.000000
# 2 -0.002273 0.009477 -0.003174 0.000000 0.002926 0.000000
# 3 -0.000923 -0.003174 0.013151 0.000000 0.000203 0.000000
# 4 0.000000 0.000000 0.000000 0.024668 0.000000 -0.028323
# 5 -0.003228 0.002926 0.000203 0.000000 0.035171 0.000000
# 6 0.000000 0.000000 0.000000 -0.028323 0.000000 0.028911
#
#
# Mechanical properties :
#
#
# Convention : Reuss Voigt Hill
#
# Bulk Modulus (GPa) = 33.52536 40.12132 36.82334
# Shear Modulus (GPa) = 32.46789 -100.67484 -34.10347
#
# Velocity S-wave (km/s) = 3.91912 -6.90115 -4.01662
# Velocity P-wave (km/s) = 6.02818 6.67241 2.02264
#
# Compressibility (1/GPa) = 0.02982817
#
# Stress axis : x y z
#
# Youngs Moduli (GPa) = 50.15365 105.51585 76.04045
#
# Poissons Ratio (x) = 0.23979 0.07015
# Poissons Ratio (y) = 0.11398 0.24137
# Poissons Ratio (z) = 0.04627 0.33494
#
# Static dielectric constant tensor:
#      x y z
#    x 1.833200 0.000000 0.002870 
#    y 0.000000 1.815400 0.000000 
#    z 0.002870 0.000000 1.782870 
# 
# From -- ./inp_files/61596.got.cif
#   From: 2010.05.17/outbox.cif.g08.bks.cpg/sg11_31_cif.got.tgz:61596.got - 2010.06.03 12:22:45.
