data_PCOD9165624
_publ_section_title
;
Structure prediction by ZEFSAII (Michael W. Deem and Ramdas Pophale) SiO2 
 PCOD9165624
Probable space group: P 21/M
;
_chemical_formula_sum "Si O2"
_cell_formula_units_Z 32
_cell_length_a 9.430219
_cell_length_b 19.196716
_cell_length_c 14.369902
_cell_angle_alpha 90.000000
_cell_angle_beta 139.540006
_cell_angle_gamma 90.000000
_cell_volume 1688.074623
_symmetry_space_group_name_H-M "P 21/M"
_symmetry_group_IT_number 11
_symmetry_cell_setting 'monoclinic'
loop_
_space_group_symop_operation_xyz
x,y,z
-x,1/2+y,-z
-x,-y,-z
x,1/2-y,z
loop_
_atom_site_type_symbol
_atom_site_label
_atom_site_fract_x
_atom_site_fract_y
_atom_site_fract_z
Si Si1 0.011367 0.932859 0.574569
Si Si2 0.352051 0.668770 0.655493
Si Si3 0.546674 0.921002 0.417213
Si Si4 0.398428 0.071048 0.341500
Si Si5 0.868290 0.333601 0.824258
Si Si6 0.055796 0.570004 0.968437
Si Si7 0.644164 0.668446 0.983462
Si Si8 0.321906 0.939548 0.910598
O O1 0.146039 0.871140 0.594235
O O2 0.142864 0.948446 0.737493
O O3 0.766529 0.905939 0.471279
O O4 0.000000 0.000000 0.500000
O O5 0.315843 0.750000 0.620686
O O6 0.422178 0.626177 0.599957
O O7 0.543638 0.661418 0.829079
O O8 0.623270 0.935539 0.559911
O O9 0.353204 0.865166 0.328802
O O10 0.454383 0.994066 0.331627
O O11 0.171818 0.094978 0.187210
O O12 0.865670 0.250000 0.826667
O O13 0.864318 0.370195 0.922809
O O14 0.100942 0.355212 0.892566
O O15 0.210613 0.559471 0.956564
O O16 0.000000 0.500000 0.000000
O O17 0.643946 0.750000 0.007192
O O18 0.472035 0.627804 0.961993
O O19 0.500000 0.000000 0.000000
#
# Coordination Sequence:
#
# PCOD9165624 Si02
#       8
#     4   4   4   4   4   4   4   4
#     4  11  23  42  64  95 130 168 208 267 325 387
#     4  10  21  39  65  91 121 166 212 259 320 381
#     4  11  24  40  63  95 132 169 217 268 322 390
#     4  11  22  39  65  94 126 170 218 268 313 383
#     4  11  24  41  65  94 131 173 211 268 333 383
#     4  12  23  40  66  97 128 166 221 274 316 380
#     4   9  20  41  63  88 124 163 209 261 316 379
#     4  11  25  38  66  98 123 165 216 264 323 381
#
# _framework density 18.956507999999999
#
# number of rings (size 3 to 8) (size 9 to 14) (size 15 to 20)
#    0.000    1.250    5.000    0.750    3.500    1.500 
#    0.000    0.000    0.000    0.000    0.000    0.000 
#    0.000    0.000    0.000    0.000    0.000    0.000 
#
# Total GULP energy -178454.649340 kJ/mol
# GULP energy per Si atom -5576.707792 kJ/mol
# Density = 1.891336 g / cm^3
# Si number density = 18.956508 Si / 1000 Ang^3
#
#
#
# Elastic Constant Matrix: (Units=GPa)
#
#
# Indices 1 2 3 4 5 6 
#
# 1 142.1619 45.8656 23.4910 0.0000 22.3893 0.0000
# 2 45.8656 92.0967 11.9518 0.0000 13.2446 0.0000
# 3 23.4910 11.9518 60.7950 0.0000 20.9022 0.0000
# 4 0.0000 0.0000 0.0000 21.6411 0.0000 6.6254
# 5 22.3893 13.2446 20.9022 0.0000 31.1605 0.0000
# 6 0.0000 0.0000 0.0000 6.6254 0.0000 25.2030
#
#
#
# Elastic Compliance Matrix: (Units=1/GPa)
#
#
# Indices 1 2 3 4 5 6 
#
# 1 0.009117 -0.003783 -0.001403 0.000000 -0.004001 0.000000
# 2 -0.003783 0.013162 -0.000178 0.000000 -0.002757 0.000000
# 3 -0.001403 -0.000178 0.021645 0.000000 -0.013436 0.000000
# 4 0.000000 0.000000 0.000000 0.050253 0.000000 -0.013211
# 5 -0.004001 -0.002757 -0.013436 0.000000 0.045151 0.000000
# 6 0.000000 0.000000 0.000000 -0.013211 0.000000 0.043151
#
#
# Mechanical properties :
#
#
# Convention : Reuss Voigt Hill
#
# Bulk Modulus (GPa) = 30.12444 50.85228 40.48836
# Shear Modulus (GPa) = 24.47723 29.85058 27.16391
#
# Velocity S-wave (km/s) = 3.59727 3.97254 3.78955
# Velocity P-wave (km/s) = 5.76018 6.92282 6.36809
#
# Compressibility (1/GPa) = 0.03319564
#
# Stress axis : x y z
#
# Youngs Moduli (GPa) = 109.68872 75.97871 46.19944
#
# Poissons Ratio (x) = 0.28741 0.06483
# Poissons Ratio (y) = 0.41492 0.00822
# Poissons Ratio (z) = 0.15393 0.01352
#
# Static dielectric constant tensor:
#      x y z
#    x 1.711880 0.000000 0.020200 
#    y 0.000000 1.673260 0.000000 
#    z 0.020200 0.000000 1.689850 
# 
# From -- ./inp_files/48267.got.cif
#   From: 2010.05.17/outbox.cif.g08.bks.cpg/sg11_25_cif.got.tgz:48267.got - 2010.06.03 12:22:45.
