data_PCOD9165826
_publ_section_title
;
Structure prediction by ZEFSAII (Michael W. Deem and Ramdas Pophale) SiO2 
 PCOD9165826
Probable space group: P 21/M
;
_chemical_formula_sum "Si O2"
_cell_formula_units_Z 32
_cell_length_a 5.256046
_cell_length_b 23.851955
_cell_length_c 10.812474
_cell_angle_alpha 90.000000
_cell_angle_beta 78.984215
_cell_angle_gamma 90.000000
_cell_volume 1330.550973
_symmetry_space_group_name_H-M "P 21/M"
_symmetry_group_IT_number 11
_symmetry_cell_setting 'monoclinic'
loop_
_space_group_symop_operation_xyz
x,y,z
-x,1/2+y,-z
-x,-y,-z
x,1/2-y,z
loop_
_atom_site_type_symbol
_atom_site_label
_atom_site_fract_x
_atom_site_fract_y
_atom_site_fract_z
Si Si1 0.717751 0.524244 0.391402
Si Si2 0.525408 0.473802 0.827223
Si Si3 0.935535 0.871739 0.515015
Si Si4 0.230508 0.571837 0.961188
Si Si5 0.510545 0.183071 0.592216
Si Si6 0.634737 0.315226 0.026384
Si Si7 0.076678 0.069511 0.241394
Si Si8 0.810005 0.812863 0.136844
O O1 0.500000 0.500000 0.500000
O O2 0.588522 0.553481 0.284377
O O3 0.894155 0.567887 0.450511
O O4 0.854660 0.470593 0.319258
O O5 0.299424 0.506387 0.921449
O O6 0.685064 0.527764 0.769148
O O7 0.698321 0.434818 0.899268
O O8 0.690016 0.835101 0.495537
O O9 0.921227 0.879455 0.664092
O O10 0.210821 0.846267 0.448952
O O11 0.979506 0.580860 0.897427
O O12 0.401682 0.625882 0.896841
O O13 0.554052 0.250000 0.589281
O O14 0.352228 0.167481 0.730999
O O15 0.665267 0.250000 0.071825
O O16 0.394155 0.312705 0.955870
O O17 0.909659 0.333120 0.935636
O O18 0.881548 0.750000 0.167395
#
# Coordination Sequence:
#
# PCOD9165826 Si02
#       8
#     4   4   4   4   4   4   4   4
#     4  11  23  42  66 104 141 174 229 292 357 426
#     4  10  23  43  66  97 135 182 230 282 355 418
#     4  12  25  40  73 102 135 187 227 283 357 411
#     4  10  24  42  66  95 135 184 230 285 344 413
#     4  11  25  45  66 101 144 182 232 282 345 424
#     4  10  21  40  67  98 131 173 228 283 344 405
#     4  11  24  42  66  94 142 177 231 286 342 422
#     4   9  20  39  62  93 132 170 214 283 343 398
#
# _framework density 24.050184999999999
#
# number of rings (size 3 to 8) (size 9 to 14) (size 15 to 20)
#    0.000    1.500    1.250    2.625    7.000    3.000 
#    0.000    1.250    0.000    0.000    0.000    0.000 
#    0.000    0.000    0.000    0.000    0.000    0.000 
#
# Total GULP energy -178401.535283 kJ/mol
# GULP energy per Si atom -5575.047978 kJ/mol
# Density = 2.399545 g / cm^3
# Si number density = 24.050185 Si / 1000 Ang^3
#
#
#
# Elastic Constant Matrix: (Units=GPa)
#
#
# Indices 1 2 3 4 5 6 
#
# 1 124.1052 15.5273 16.3850 0.0000 4.8161 0.0000
# 2 15.5273 123.3305 6.0208 0.0000 0.9110 0.0000
# 3 16.3850 6.0208 51.8022 0.0000 17.4905 0.0000
# 4 0.0000 0.0000 0.0000 18.1493 0.0000 -1.1321
# 5 4.8161 0.9110 17.4905 0.0000 37.2421 0.0000
# 6 0.0000 0.0000 0.0000 -1.1321 0.0000 46.1235
#
#
#
# Elastic Compliance Matrix: (Units=1/GPa)
#
#
# Indices 1 2 3 4 5 6 
#
# 1 0.008518 -0.000945 -0.002639 0.000000 0.000161 0.000000
# 2 -0.000945 0.008262 -0.000754 0.000000 0.000274 0.000000
# 3 -0.002639 -0.000754 0.023894 0.000000 -0.010862 0.000000
# 4 0.000000 0.000000 0.000000 0.055183 0.000000 0.001355
# 5 0.000161 0.000274 -0.010862 0.000000 0.031925 0.000000
# 6 0.000000 0.000000 0.000000 0.001355 0.000000 0.021714
#
#
# Mechanical properties :
#
#
# Convention : Reuss Voigt Hill
#
# Bulk Modulus (GPa) = 31.25114 41.67825 36.46470
# Shear Modulus (GPa) = 29.61429 37.72330 33.66880
#
# Velocity S-wave (km/s) = 3.51287 3.96476 3.74564
# Velocity P-wave (km/s) = 5.42918 6.19083 5.82247
#
# Compressibility (1/GPa) = 0.03199883
#
# Stress axis : x y z
#
# Youngs Moduli (GPa) = 117.39812 121.03563 41.85174
#
# Poissons Ratio (x) = 0.11435 0.11044
# Poissons Ratio (y) = 0.11092 0.03156
# Poissons Ratio (z) = 0.30978 0.09126
#
# Static dielectric constant tensor:
#      x y z
#    x 2.320670 0.000000 -0.288460 
#    y 0.000000 2.305090 0.000000 
#    z -0.288460 0.000000 2.197400 
# 
# From -- ./inp_files/30198.got.cif
#   From: 2010.05.17/outbox.cif.g08.bks.cpg/sg11_16_cif.got.tgz:30198.got - 2010.06.03 12:22:45.
