data_PCOD9165649
_publ_section_title
;
Structure prediction by ZEFSAII (Michael W. Deem and Ramdas Pophale) SiO2 
 PCOD9165649
Probable space group: P 21/M
;
_chemical_formula_sum "Si O2"
_cell_formula_units_Z 32
_cell_length_a 16.068550
_cell_length_b 8.277395
_cell_length_c 24.810080
_cell_angle_alpha 90.000000
_cell_angle_beta 29.454245
_cell_angle_gamma 90.000000
_cell_volume 1622.646020
_symmetry_space_group_name_H-M "P 21/M"
_symmetry_group_IT_number 11
_symmetry_cell_setting 'monoclinic'
loop_
_space_group_symop_operation_xyz
x,y,z
-x,1/2+y,-z
-x,-y,-z
x,1/2-y,z
loop_
_atom_site_type_symbol
_atom_site_label
_atom_site_fract_x
_atom_site_fract_y
_atom_site_fract_z
Si Si1 0.054099 0.937030 0.671426
Si Si2 0.045738 0.442823 0.154079
Si Si3 0.409997 0.066542 0.498023
Si Si4 0.036487 0.057463 0.560314
Si Si5 0.188537 0.937661 0.888466
Si Si6 0.360139 0.939190 0.908241
Si Si7 0.277221 0.058029 0.332597
Si Si8 0.717719 0.932484 0.273009
O O1 0.007091 0.750000 0.690962
O O2 0.965295 0.997533 0.776916
O O3 0.252621 0.956304 0.572090
O O4 0.030087 0.022092 0.627423
O O5 0.017803 0.250000 0.169567
O O6 0.890658 0.519569 0.206949
O O7 0.225957 0.480814 0.024752
O O8 0.349766 0.250000 0.537436
O O9 0.500000 0.000000 0.500000
O O10 0.564100 0.053089 0.370312
O O11 0.024096 0.250000 0.559210
O O12 0.205987 0.002552 0.431610
O O13 0.878048 0.975122 0.620051
O O14 0.192148 0.750000 0.868404
O O15 0.277349 0.946725 0.895799
O O16 0.261155 0.053739 0.802374
O O17 0.000000 0.000000 0.000000
O O18 0.372382 0.750000 0.917412
O O19 0.549310 0.008051 0.791502
O O20 0.307308 0.250000 0.321139
O O21 0.673117 0.750000 0.314509
#
# Coordination Sequence:
#
# PCOD9165649 Si02
#       8
#     4   4   4   4   4   4   4   4
#     4  11  24  41  61  89 122 160 203 248 301 359
#     4  11  23  39  60  84 119 161 204 253 300 352
#     4  12  24  39  59  85 119 159 204 251 298 356
#     4  10  21  39  66  95 121 154 194 244 303 363
#     4  11  22  36  56  84 119 159 203 249 299 356
#     4  10  22  39  61  87 119 159 202 248 304 364
#     4   9  20  41  65  91 122 155 190 243 307 363
#     4  12  24  38  56  81 117 162 206 251 302 355
#
# _framework density 19.720876000000001
#
# number of rings (size 3 to 8) (size 9 to 14) (size 15 to 20)
#    0.000    1.250    2.500    3.750    1.750    3.000 
#    0.000    0.625    0.000    0.000    0.000    0.000 
#    0.000    0.000    0.000    0.000    0.000    0.000 
#
# Total GULP energy -178518.965355 kJ/mol
# GULP energy per Si atom -5578.717667 kJ/mol
# Density = 1.967599 g / cm^3
# Si number density = 19.720876 Si / 1000 Ang^3
#
#
#
# Elastic Constant Matrix: (Units=GPa)
#
#
# Indices 1 2 3 4 5 6 
#
# 1 59.0880 1.1592 33.0105 0.0000 18.1804 0.0000
# 2 1.1592 44.4986 4.7608 0.0000 4.7554 0.0000
# 3 33.0105 4.7608 131.2270 0.0000 12.6144 0.0000
# 4 0.0000 0.0000 0.0000 28.8372 0.0000 3.3445
# 5 18.1804 4.7554 12.6144 0.0000 32.8934 0.0000
# 6 0.0000 0.0000 0.0000 3.3445 0.0000 21.2907
#
#
#
# Elastic Compliance Matrix: (Units=1/GPa)
#
#
# Indices 1 2 3 4 5 6 
#
# 1 0.022948 0.001088 -0.004753 0.000000 -0.011018 0.000000
# 2 0.001088 0.022912 -0.000757 0.000000 -0.003624 0.000000
# 3 -0.004753 -0.000757 0.008909 0.000000 -0.000680 0.000000
# 4 0.000000 0.000000 0.000000 0.035321 0.000000 -0.005548
# 5 -0.011018 -0.003624 -0.000680 0.000000 0.037276 0.000000
# 6 0.000000 0.000000 0.000000 -0.005548 0.000000 0.047840
#
#
# Mechanical properties :
#
#
# Convention : Reuss Voigt Hill
#
# Bulk Modulus (GPa) = 21.77399 34.74162 28.25781
# Shear Modulus (GPa) = 25.08051 29.66314 27.37183
#
# Velocity S-wave (km/s) = 3.57006 3.88254 3.72958
# Velocity P-wave (km/s) = 5.29706 6.14441 5.73640
#
# Compressibility (1/GPa) = 0.04592635
#
# Stress axis : x y z
#
# Youngs Moduli (GPa) = 43.57684 43.64433 112.24818
#
# Poissons Ratio (x) = -0.04749 0.53351
# Poissons Ratio (y) = -0.04742 0.08493
# Poissons Ratio (z) = 0.20712 0.03302
#
# Static dielectric constant tensor:
#      x y z
#    x 1.656140 0.000000 0.040980 
#    y 0.000000 2.318120 0.000000 
#    z 0.040980 0.000000 1.708780 
# 
# From -- ./inp_files/69037.got.cif
#   From: 2010.05.17/outbox.cif.g08.bks.cpg/sg11_35_cif.got.tgz:69037.got - 2010.06.03 12:22:45.
