data_PCOD9165309
_publ_section_title
;
Structure prediction by ZEFSAII (Michael W. Deem and Ramdas Pophale) SiO2 
 PCOD9165309
Probable space group: P 21/M
;
_chemical_formula_sum "Si O2"
_cell_formula_units_Z 28
_cell_length_a 5.164959
_cell_length_b 31.808857
_cell_length_c 6.893422
_cell_angle_alpha 90.000000
_cell_angle_beta 78.699532
_cell_angle_gamma 90.000000
_cell_volume 1110.573944
_symmetry_space_group_name_H-M "P 21/M"
_symmetry_group_IT_number 11
_symmetry_cell_setting 'monoclinic'
loop_
_space_group_symop_operation_xyz
x,y,z
-x,1/2+y,-z
-x,-y,-z
x,1/2-y,z
loop_
_atom_site_type_symbol
_atom_site_label
_atom_site_fract_x
_atom_site_fract_y
_atom_site_fract_z
Si Si1 0.954800 0.969683 0.270579
Si Si2 0.263349 0.941612 0.692124
Si Si3 0.325524 0.203310 0.508642
Si Si4 0.526268 0.553127 0.040582
Si Si5 0.670523 0.887170 0.467251
Si Si6 0.101319 0.704407 0.767941
Si Si7 0.162300 0.377324 0.112831
O O1 0.856203 0.926289 0.383662
O O2 0.865306 0.015484 0.366306
O O3 0.772972 0.969700 0.102117
O O4 0.259169 0.962337 0.177947
O O5 0.491638 0.952737 0.814656
O O6 0.387024 0.910154 0.516424
O O7 0.061506 0.913185 0.842951
O O8 0.342668 0.250000 0.601980
O O9 0.311723 0.159308 0.627895
O O10 0.595146 0.199298 0.340931
O O11 0.072725 0.205133 0.403580
O O12 0.603275 0.602598 0.048678
O O13 0.732636 0.875650 0.682601
O O14 0.072256 0.750000 0.868192
O O15 0.982127 0.666186 0.908389
#
# Coordination Sequence:
#
# PCOD9165309 Si02
#       7
#     4   4   4   4   4   4   4
#     4  12  26  38  58  83 120 157 197 233 285 345
#     4  11  22  40  60  84 115 156 196 242 285 334
#     4   9  17  32  55  82 112 142 180 229 287 343
#     4  11  25  41  58  81 114 160 200 232 277 347
#     4  10  23  37  58  90 117 145 189 246 293 331
#     4   9  17  31  55  86 111 138 181 237 289 335
#     4  10  21  38  62  85 116 147 192 241 288 337
#
# _framework density 25.212188000000001
#
# number of rings (size 3 to 8) (size 9 to 14) (size 15 to 20)
#    0.000    1.714    2.857    1.286    6.000    0.571 
#    0.000    0.000    0.000    1.714    0.000    0.000 
#    0.000    0.000    0.000    0.000    0.000    0.000 
#
# Total GULP energy -156303.675727 kJ/mol
# GULP energy per Si atom -5582.274133 kJ/mol
# Density = 2.515480 g / cm^3
# Si number density = 25.212188 Si / 1000 Ang^3
#
#
#
# Elastic Constant Matrix: (Units=GPa)
#
#
# Indices 1 2 3 4 5 6 
#
# 1 124.6744 28.3102 10.1323 0.0000 -15.0247 0.0000
# 2 28.3102 271.7005 30.5810 0.0000 -21.0868 0.0000
# 3 10.1323 30.5810 32.7692 0.0000 -13.2212 0.0000
# 4 0.0000 0.0000 0.0000 22.8763 0.0000 -6.7408
# 5 -15.0247 -21.0868 -13.2212 0.0000 36.6843 0.0000
# 6 0.0000 0.0000 0.0000 -6.7408 0.0000 40.2831
#
#
#
# Elastic Compliance Matrix: (Units=1/GPa)
#
#
# Indices 1 2 3 4 5 6 
#
# 1 0.008570 -0.000563 -0.000982 0.000000 0.002833 0.000000
# 2 -0.000563 0.004191 -0.003345 0.000000 0.000973 0.000000
# 3 -0.000982 -0.003345 0.038619 0.000000 0.011594 0.000000
# 4 0.000000 0.000000 0.000000 0.045981 0.000000 0.007694
# 5 0.002833 0.000973 0.011594 0.000000 0.033158 0.000000
# 6 0.000000 0.000000 0.000000 0.007694 0.000000 0.026112
#
#
# Mechanical properties :
#
#
# Convention : Reuss Voigt Hill
#
# Bulk Modulus (GPa) = 24.03746 63.02122 43.52934
# Shear Modulus (GPa) = 27.73532 43.97678 35.85605
#
# Velocity S-wave (km/s) = 3.32034 4.18097 3.77526
# Velocity P-wave (km/s) = 4.92486 6.95399 6.02546
#
# Compressibility (1/GPa) = 0.04160174
#
# Stress axis : x y z
#
# Youngs Moduli (GPa) = 116.68875 238.59913 25.89396
#
# Poissons Ratio (x) = 0.13423 0.02543
# Poissons Ratio (y) = 0.06565 0.08661
# Poissons Ratio (z) = 0.11458 0.79802
#
# Static dielectric constant tensor:
#      x y z
#    x 2.022290 0.000000 0.028060 
#    y 0.000000 2.115040 0.000000 
#    z 0.028060 0.000000 2.078290 
# 
# From -- ./inp_files/3189.got.cif
#   From: 2010.05.17/outbox.cif.g08.bks.cpg/sg11_2_cif.got.tgz:3189.got - 2010.06.03 12:22:45.
