data_PCOD9165988
_publ_section_title
;
Structure prediction by ZEFSAII (Michael W. Deem and Ramdas Pophale) SiO2 
 PCOD9165988
Probable space group: P 21/M
;
_chemical_formula_sum "Si O2"
_cell_formula_units_Z 20
_cell_length_a 8.078349
_cell_length_b 21.150814
_cell_length_c 4.972316
_cell_angle_alpha 90.000000
_cell_angle_beta 92.549858
_cell_angle_gamma 90.000000
_cell_volume 848.746907
_symmetry_space_group_name_H-M "P 21/M"
_symmetry_group_IT_number 11
_symmetry_cell_setting 'monoclinic'
loop_
_space_group_symop_operation_xyz
x,y,z
-x,1/2+y,-z
-x,-y,-z
x,1/2-y,z
loop_
_atom_site_type_symbol
_atom_site_label
_atom_site_fract_x
_atom_site_fract_y
_atom_site_fract_z
Si Si1 0.334125 0.871415 0.929734
Si Si2 0.179900 0.078664 0.603451
Si Si3 0.304426 0.140980 0.097501
Si Si4 0.332735 0.540276 0.429746
Si Si5 0.978331 0.182055 0.813263
O O1 0.335788 0.930548 0.135297
O O2 0.511843 0.836805 0.956398
O O3 0.324264 0.901656 0.635589
O O4 0.178552 0.830314 0.009827
O O5 0.285359 0.121581 0.404160
O O6 0.186130 0.009454 0.480929
O O7 0.267616 0.080141 0.901698
O O8 0.013346 0.119660 0.634807
O O9 0.148544 0.182745 0.998532
O O10 0.500000 0.500000 0.500000
O O11 0.961182 0.250000 0.671929
#
# Coordination Sequence:
#
# PCOD9165988 Si02
#       5
#     4   4   4   4   4
#     4  12  24  40  72  99 131 171 215 265 334 386
#     4  10  22  41  67  93 132 173 205 260 341 376
#     4  10  21  43  64  97 126 172 212 258 332 382
#     4  12  21  40  69 102 137 164 206 276 325 404
#     4  10  27  47  64  94 133 173 228 276 305 380
#
# _framework density 23.564150999999999
#
# number of rings (size 3 to 8) (size 9 to 14) (size 15 to 20)
#    1.200    0.000    4.000    1.800    2.800    3.200 
#    0.000    0.000    0.000    0.000    0.000    0.000 
#    0.000    0.000    0.000    0.000    0.000    0.000 
#
# Total GULP energy -111602.603783 kJ/mol
# GULP energy per Si atom -5580.130189 kJ/mol
# Density = 2.351052 g / cm^3
# Si number density = 23.564151 Si / 1000 Ang^3
#
#
#
# Elastic Constant Matrix: (Units=GPa)
#
#
# Indices 1 2 3 4 5 6 
#
# 1 189.4397 32.8421 11.1242 0.0000 -19.7732 0.0000
# 2 32.8421 69.5359 -16.5846 0.0000 3.9427 0.0000
# 3 11.1242 -16.5846 63.0275 0.0000 -7.6458 0.0000
# 4 0.0000 0.0000 0.0000 -5.9018 0.0000 39.9284
# 5 -19.7732 3.9427 -7.6458 0.0000 26.2621 0.0000
# 6 0.0000 0.0000 0.0000 39.9284 0.0000 -90.2754
#
#
#
# Elastic Compliance Matrix: (Units=1/GPa)
#
#
# Indices 1 2 3 4 5 6 
#
# 1 0.006543 -0.003741 -0.001527 0.000000 0.005044 0.000000
# 2 -0.003741 0.017517 0.004778 0.000000 -0.004055 0.000000
# 3 -0.001527 0.004778 0.017795 0.000000 0.003313 0.000000
# 4 0.000000 0.000000 0.000000 0.085046 0.000000 0.037616
# 5 0.005044 -0.004055 0.003313 0.000000 0.043448 0.000000
# 6 0.000000 0.000000 0.000000 0.037616 0.000000 0.005560
#
#
# Mechanical properties :
#
#
# Convention : Reuss Voigt Hill
#
# Bulk Modulus (GPa) = 24.46516 41.86296 33.16406
# Shear Modulus (GPa) = 26.24454 5.65841 15.95148
#
# Velocity S-wave (km/s) = 3.34091 1.55129 2.60463
# Velocity P-wave (km/s) = 5.02863 4.58397 4.81144
#
# Compressibility (1/GPa) = 0.04087445
#
# Stress axis : x y z
#
# Youngs Moduli (GPa) = 152.82706 57.08665 56.19634
#
# Poissons Ratio (x) = 0.21354 0.08583
# Poissons Ratio (y) = 0.57168 -0.26848
# Poissons Ratio (z) = 0.23342 -0.27274
#
# Static dielectric constant tensor:
#      x y z
#    x 1.966170 0.000000 0.030160 
#    y 0.000000 1.897350 0.000000 
#    z 0.030160 0.000000 1.848700 
# 
# From -- ./inp_files/2529.got.cif
#   From: 2010.05.17/outbox.cif.g08.bks.cpg/sg11_2_cif.got.tgz:2529.got - 2010.06.03 12:22:45.
