data_PCOD9165875
_publ_section_title
;
Structure prediction by ZEFSAII (Michael W. Deem and Ramdas Pophale) SiO2 
 PCOD9165875
Probable space group: P 21/M
;
_chemical_formula_sum "Si O2"
_cell_formula_units_Z 32
_cell_length_a 12.113394
_cell_length_b 8.859896
_cell_length_c 29.222074
_cell_angle_alpha 90.000000
_cell_angle_beta 31.115100
_cell_angle_gamma 90.000000
_cell_volume 1620.666041
_symmetry_space_group_name_H-M "P 21/M"
_symmetry_group_IT_number 11
_symmetry_cell_setting 'monoclinic'
loop_
_space_group_symop_operation_xyz
x,y,z
-x,1/2+y,-z
-x,-y,-z
x,1/2-y,z
loop_
_atom_site_type_symbol
_atom_site_label
_atom_site_fract_x
_atom_site_fract_y
_atom_site_fract_z
Si Si1 0.943802 0.568487 0.284915
Si Si2 0.424238 0.572253 0.819379
Si Si3 0.611616 0.070487 0.916007
Si Si4 0.819949 0.929006 0.175979
Si Si5 0.618700 0.069781 0.335670
Si Si6 0.275159 0.929115 0.970355
Si Si7 0.131183 0.069247 0.495531
Si Si8 0.877990 0.430809 0.678877
O O1 0.927372 0.750000 0.287741
O O2 0.729231 0.496126 0.341642
O O3 0.146881 0.521016 0.181362
O O4 0.001957 0.529855 0.316589
O O5 0.421298 0.750000 0.809133
O O6 0.347117 0.476871 0.803691
O O7 0.272191 0.545851 0.917123
O O8 0.658554 0.521119 0.751674
O O9 0.615618 0.250000 0.920085
O O10 0.464718 0.023541 0.925513
O O11 0.500000 0.000000 0.000000
O O12 0.812490 0.750000 0.186866
O O13 0.761978 0.015443 0.242479
O O14 0.054024 0.967351 0.073528
O O15 0.615680 0.250000 0.339558
O O16 0.376698 0.016595 0.411875
O O17 0.316584 0.750000 0.962828
O O18 0.133800 0.250000 0.488196
O O19 0.017104 0.038308 0.584386
O O20 0.000000 0.000000 0.500000
O O21 0.833189 0.250000 0.696447
#
# Coordination Sequence:
#
# PCOD9165875 Si02
#       8
#     4   4   4   4   4   4   4   4
#     4  10  22  40  61  87 119 158 203 245 295 360
#     4  11  22  37  59  89 122 154 196 253 305 354
#     4  11  22  36  57  84 117 159 205 251 296 351
#     4  11  23  39  59  84 118 162 204 244 297 363
#     4  11  24  41  61  90 123 154 196 250 302 351
#     4  10  22  38  56  83 118 155 200 248 298 357
#     4  10  23  42  65  92 122 155 196 245 300 360
#     4  10  21  41  65  88 119 161 203 246 298 363
#
# _framework density 19.744968
#
# number of rings (size 3 to 8) (size 9 to 14) (size 15 to 20)
#    0.000    1.500    1.250    3.375    0.000   10.000 
#    0.000    0.000    0.000    0.000    0.000    0.000 
#    0.000    0.000    0.000    0.000    0.000    0.000 
#
# Total GULP energy -178895.695487 kJ/mol
# GULP energy per Si atom -5590.490484 kJ/mol
# Density = 1.970003 g / cm^3
# Si number density = 19.744968 Si / 1000 Ang^3
#
#
#
# Elastic Constant Matrix: (Units=GPa)
#
#
# Indices 1 2 3 4 5 6 
#
# 1 96.6932 21.4207 48.7728 0.0000 -20.1386 0.0000
# 2 21.4207 18.6172 29.2813 0.0000 -4.8717 0.0000
# 3 48.7728 29.2813 89.9375 0.0000 -6.6177 0.0000
# 4 0.0000 0.0000 0.0000 23.0500 0.0000 -3.0374
# 5 -20.1386 -4.8717 -6.6177 0.0000 33.6333 0.0000
# 6 0.0000 0.0000 0.0000 -3.0374 0.0000 36.4025
#
#
#
# Elastic Compliance Matrix: (Units=1/GPa)
#
#
# Indices 1 2 3 4 5 6 
#
# 1 0.016665 -0.007871 -0.005910 0.000000 0.007676 0.000000
# 2 -0.007871 0.116568 -0.033269 0.000000 0.005626 0.000000
# 3 -0.005910 -0.033269 0.024901 0.000000 -0.003458 0.000000
# 4 0.000000 0.000000 0.000000 0.043866 0.000000 0.003660
# 5 0.007676 0.005626 -0.003458 0.000000 0.034463 0.000000
# 6 0.000000 0.000000 0.000000 0.003660 0.000000 0.027776
#
#
# Mechanical properties :
#
#
# Convention : Reuss Voigt Hill
#
# Bulk Modulus (GPa) = 15.61668 44.91084 30.26376
# Shear Modulus (GPa) = 13.16879 25.66868 19.41873
#
# Velocity S-wave (km/s) = 2.58533 3.60948 3.13945
# Velocity P-wave (km/s) = 4.10344 6.33766 5.33874
#
# Compressibility (1/GPa) = 0.06403409
#
# Stress axis : x y z
#
# Youngs Moduli (GPa) = 60.00428 8.57867 40.15872
#
# Poissons Ratio (x) = 0.06752 0.23735
# Poissons Ratio (y) = 0.47227 1.33606
# Poissons Ratio (z) = 0.35465 0.28541
#
# Static dielectric constant tensor:
#      x y z
#    x 1.687650 0.000000 0.008120 
#    y 0.000000 1.657950 0.000000 
#    z 0.008120 0.000000 1.698700 
# 
# From -- ./inp_files/73127.got.cif
#   From: 2010.05.17/outbox.cif.g08.bks.cpg/sg11_37_cif.got.tgz:73127.got - 2010.06.03 12:22:45.
