data_PCOD9165331
_publ_section_title
;
Structure prediction by ZEFSAII (Michael W. Deem and Ramdas Pophale) SiO2 
 PCOD9165331
Probable space group: P 21/M
;
_chemical_formula_sum "Si O2"
_cell_formula_units_Z 32
_cell_length_a 15.881628
_cell_length_b 16.031940
_cell_length_c 20.936361
_cell_angle_alpha 90.000000
_cell_angle_beta 161.646529
_cell_angle_gamma 90.000000
_cell_volume 1678.514583
_symmetry_space_group_name_H-M "P 21/M"
_symmetry_group_IT_number 11
_symmetry_cell_setting 'monoclinic'
loop_
_space_group_symop_operation_xyz
x,y,z
-x,1/2+y,-z
-x,-y,-z
x,1/2-y,z
loop_
_atom_site_type_symbol
_atom_site_label
_atom_site_fract_x
_atom_site_fract_y
_atom_site_fract_z
Si Si1 0.948928 0.158069 0.208973
Si Si2 0.046129 0.848144 0.291996
Si Si3 0.221530 0.501627 0.835558
Si Si4 0.022473 0.913197 0.133150
Si Si5 0.274900 0.588253 0.072052
Si Si6 0.190129 0.997407 0.575417
Si Si7 0.551151 0.155145 0.302975
Si Si8 0.581988 0.347975 0.684186
O O1 0.881932 0.250000 0.186832
O O2 0.264157 0.143813 0.445786
O O3 0.798129 0.081145 0.132896
O O4 0.868225 0.153540 0.076916
O O5 0.967266 0.750000 0.237256
O O6 0.096549 0.875877 0.255690
O O7 0.301994 0.857809 0.523174
O O8 0.833774 0.914931 0.167054
O O9 0.991859 0.513322 0.617404
O O10 0.500000 0.500000 0.000000
O O11 0.261301 0.900810 0.255833
O O12 0.761998 0.864139 0.919563
O O13 0.918398 0.007663 0.064398
O O14 0.558699 0.559832 0.245620
O O15 0.335451 0.621151 0.186231
O O16 0.319465 0.906806 0.655501
O O17 0.000000 0.000000 0.500000
O O18 0.596155 0.250000 0.316266
O O19 0.649114 0.250000 0.724912
#
# Coordination Sequence:
#
# PCOD9165331 Si02
#       8
#     4   4   4   4   4   4   4   4
#     4  11  24  43  64  90 126 170 213 256 312 377
#     4  10  21  39  62  91 125 160 202 260 314 366
#     4  11  22  41  65  90 126 161 207 263 312 377
#     4  11  22  38  66  91 124 166 207 257 315 366
#     4  11  22  41  64  90 127 166 208 260 311 372
#     4  10  21  38  62  90 122 158 202 252 316 371
#     4   9  20  37  59  88 122 156 200 252 306 371
#     4  11  24  41  60  92 130 166 213 261 306 371
#
# _framework density 19.064477
#
# number of rings (size 3 to 8) (size 9 to 14) (size 15 to 20)
#    0.000    1.500    2.500    2.625    1.750    2.000 
#    0.000    5.625    0.000    0.000    0.000    0.000 
#    0.000    0.000    0.000    0.000    0.000    0.000 
#
# Total GULP energy -178717.466775 kJ/mol
# GULP energy per Si atom -5584.920837 kJ/mol
# Density = 1.902108 g / cm^3
# Si number density = 19.064477 Si / 1000 Ang^3
#
#
#
# Elastic Constant Matrix: (Units=GPa)
#
#
# Indices 1 2 3 4 5 6 
#
# 1 102.3934 36.0735 26.7925 0.0000 -2.6536 0.0000
# 2 36.0735 81.7717 37.5552 0.0000 -3.8136 0.0000
# 3 26.7925 37.5552 46.5359 0.0000 -7.0875 0.0000
# 4 0.0000 0.0000 0.0000 18.2251 0.0000 -7.1757
# 5 -2.6536 -3.8136 -7.0875 0.0000 28.3120 0.0000
# 6 0.0000 0.0000 0.0000 -7.1757 0.0000 15.5681
#
#
#
# Elastic Compliance Matrix: (Units=1/GPa)
#
#
# Indices 1 2 3 4 5 6 
#
# 1 0.012066 -0.003373 -0.004285 0.000000 -0.000396 0.000000
# 2 -0.003373 0.020425 -0.014732 0.000000 -0.001253 0.000000
# 3 -0.004285 -0.014732 0.036887 0.000000 0.006848 0.000000
# 4 0.000000 0.000000 0.000000 0.067035 0.000000 0.030898
# 5 -0.000396 -0.001253 0.006848 0.000000 0.036829 0.000000
# 6 0.000000 0.000000 0.000000 0.030898 0.000000 0.078475
#
#
# Mechanical properties :
#
#
# Convention : Reuss Voigt Hill
#
# Bulk Modulus (GPa) = 40.65321 47.94926 44.30123
# Shear Modulus (GPa) = 16.40982 21.10637 18.75810
#
# Velocity S-wave (km/s) = 2.93704 3.33093 3.14017
# Velocity P-wave (km/s) = 5.73341 6.32449 6.03619
#
# Compressibility (1/GPa) = 0.02459830
#
# Stress axis : x y z
#
# Youngs Moduli (GPa) = 82.88055 48.96034 27.10962
#
# Poissons Ratio (x) = 0.16516 0.11615
# Poissons Ratio (y) = 0.27959 0.39937
# Poissons Ratio (z) = 0.35511 0.72127
#
# Static dielectric constant tensor:
#      x y z
#    x 1.643470 0.000000 -0.025650 
#    y 0.000000 1.669510 0.000000 
#    z -0.025650 0.000000 1.698130 
# 
# From -- ./inp_files/65780.got.cif
#   From: 2010.05.17/outbox.cif.g08.bks.cpg/sg11_33_cif.got.tgz:65780.got - 2010.06.03 12:22:45.
