data_PCOD9165706
_publ_section_title
;
Structure prediction by ZEFSAII (Michael W. Deem and Ramdas Pophale) SiO2 
 PCOD9165706
Probable space group: P 21/M
;
_chemical_formula_sum "Si O2"
_cell_formula_units_Z 28
_cell_length_a 13.180956
_cell_length_b 13.495833
_cell_length_c 11.937841
_cell_angle_alpha 90.000000
_cell_angle_beta 138.645007
_cell_angle_gamma 90.000000
_cell_volume 1403.109125
_symmetry_space_group_name_H-M "P 21/M"
_symmetry_group_IT_number 11
_symmetry_cell_setting 'monoclinic'
loop_
_space_group_symop_operation_xyz
x,y,z
-x,1/2+y,-z
-x,-y,-z
x,1/2-y,z
loop_
_atom_site_type_symbol
_atom_site_label
_atom_site_fract_x
_atom_site_fract_y
_atom_site_fract_z
Si Si1 0.758961 0.635840 0.542897
Si Si2 0.967641 0.500719 0.604620
Si Si3 0.745937 0.363953 0.565427
Si Si4 0.460219 0.369144 0.838585
Si Si5 0.307357 0.040201 0.925278
Si Si6 0.823938 0.504608 0.814744
Si Si7 0.610972 0.636409 0.787385
O O1 0.750403 0.750000 0.562426
O O2 0.905106 0.608078 0.587760
O O3 0.610221 0.611397 0.343321
O O4 0.786036 0.576480 0.678574
O O5 0.838487 0.427496 0.549015
O O6 0.000000 0.500000 0.500000
O O7 0.127106 0.471675 0.794118
O O8 0.788234 0.250000 0.586201
O O9 0.783909 0.400447 0.722736
O O10 0.563892 0.374904 0.397165
O O11 0.475997 0.250000 0.864985
O O12 0.342661 0.416061 0.831740
O O13 0.611627 0.433887 0.987803
O O14 0.380403 0.116672 0.073281
O O15 0.717062 0.551171 0.821622
O O16 0.000000 0.500000 0.000000
O O17 0.660554 0.750000 0.802972
#
# Coordination Sequence:
#
# PCOD9165706 Si02
#       7
#     4   4   4   4   4   4   4
#     4  10  21  40  62  89 124 163 207 256 316 380
#     4  11  22  38  59  89 127 167 208 257 315 367
#     4  10  24  42  63  91 127 167 214 260 315 381
#     4  10  22  39  61  88 120 163 209 259 318 375
#     4  11  22  38  62  88 127 161 207 262 308 375
#     4  11  23  41  66  94 127 164 208 264 318 372
#     4  11  23  41  66  96 126 168 211 258 315 373
#
# _framework density 19.955683000000001
#
# number of rings (size 3 to 8) (size 9 to 14) (size 15 to 20)
#    0.000    1.429    1.429    4.714    2.000    4.571 
#    0.000    2.143    0.000    0.000    0.000    0.000 
#    0.000    0.000    0.000    0.000    0.000    0.000 
#
# Total GULP energy -156235.069497 kJ/mol
# GULP energy per Si atom -5579.823911 kJ/mol
# Density = 1.991026 g / cm^3
# Si number density = 19.955683 Si / 1000 Ang^3
#
#
#
# Elastic Constant Matrix: (Units=GPa)
#
#
# Indices 1 2 3 4 5 6 
#
# 1 57.3907 20.5422 9.4030 0.0000 4.4894 0.0000
# 2 20.5422 108.9806 35.3534 0.0000 6.2965 0.0000
# 3 9.4030 35.3534 105.6803 0.0000 1.9469 0.0000
# 4 0.0000 0.0000 0.0000 12.4248 0.0000 -5.1670
# 5 4.4894 6.2965 1.9469 0.0000 35.5529 0.0000
# 6 0.0000 0.0000 0.0000 -5.1670 0.0000 22.1287
#
#
#
# Elastic Compliance Matrix: (Units=1/GPa)
#
#
# Indices 1 2 3 4 5 6 
#
# 1 0.018822 -0.003268 -0.000549 0.000000 -0.001768 0.000000
# 2 -0.003268 0.010956 -0.003350 0.000000 -0.001344 0.000000
# 3 -0.000549 -0.003350 0.010630 0.000000 0.000080 0.000000
# 4 0.000000 0.000000 0.000000 0.089140 0.000000 0.020814
# 5 -0.001768 -0.001344 0.000080 0.000000 0.028584 0.000000
# 6 0.000000 0.000000 0.000000 0.020814 0.000000 0.050050
#
#
# Mechanical properties :
#
#
# Convention : Reuss Voigt Hill
#
# Bulk Modulus (GPa) = 38.34911 44.73874 41.54392
# Shear Modulus (GPa) = 21.62558 27.80482 24.71520
#
# Velocity S-wave (km/s) = 3.29550 3.73678 3.52306
# Velocity P-wave (km/s) = 5.80855 6.40982 6.11658
#
# Compressibility (1/GPa) = 0.02607623
#
# Stress axis : x y z
#
# Youngs Moduli (GPa) = 53.12849 91.27271 94.06946
#
# Poissons Ratio (x) = 0.29825 0.05165
# Poissons Ratio (y) = 0.17360 0.31510
# Poissons Ratio (z) = 0.02917 0.30573
#
# Static dielectric constant tensor:
#      x y z
#    x 1.732990 0.000000 -0.038380 
#    y 0.000000 1.727930 0.000000 
#    z -0.038380 0.000000 1.732000 
# 
# From -- ./inp_files/39466.got.cif
#   From: 2010.05.17/outbox.cif.g08.bks.cpg/sg11_20_cif.got.tgz:39466.got - 2010.06.03 12:22:45.
