data_PCOD9165811
_publ_section_title
;
Structure prediction by ZEFSAII (Michael W. Deem and Ramdas Pophale) SiO2 
 PCOD9165811
Probable space group: P 21/M
;
_chemical_formula_sum "Si O2"
_cell_formula_units_Z 24
_cell_length_a 15.341922
_cell_length_b 8.784167
_cell_length_c 14.999921
_cell_angle_alpha 90.000000
_cell_angle_beta 140.039302
_cell_angle_gamma 90.000000
_cell_volume 1298.319402
_symmetry_space_group_name_H-M "P 21/M"
_symmetry_group_IT_number 11
_symmetry_cell_setting 'monoclinic'
loop_
_space_group_symop_operation_xyz
x,y,z
-x,1/2+y,-z
-x,-y,-z
x,1/2-y,z
loop_
_atom_site_type_symbol
_atom_site_label
_atom_site_fract_x
_atom_site_fract_y
_atom_site_fract_z
Si Si1 0.637267 0.567421 0.351313
Si Si2 0.358217 0.067350 0.853671
Si Si3 0.675001 0.432024 0.850510
Si Si4 0.154940 0.567666 0.836429
Si Si5 0.137402 0.068731 0.149643
Si Si6 0.865037 0.431253 0.656038
O O1 0.655271 0.750000 0.375600
O O2 0.657035 0.530169 0.262671
O O3 0.482288 0.531481 0.256471
O O4 0.743887 0.482232 0.496662
O O5 0.361761 0.250000 0.865087
O O6 0.238033 0.999293 0.818851
O O7 0.500000 0.000000 0.000000
O O8 0.686667 0.250000 0.844088
O O9 0.741027 0.519978 0.820156
O O10 0.759979 0.466453 0.006759
O O11 0.145082 0.750000 0.820968
O O12 0.006874 0.496157 0.730128
O O13 0.124818 0.250000 0.144588
O O14 0.156146 0.001608 0.262643
O O15 0.000000 0.000000 0.000000
O O16 0.872562 0.250000 0.668541
#
# Coordination Sequence:
#
# PCOD9165811 Si02
#       6
#     4   4   4   4   4   4
#     4  10  23  44  65  91 129 169 207 260 318 371
#     4  11  22  39  65  96 129 167 214 262 314 376
#     4  10  21  40  66  94 125 165 212 259 312 373
#     4  11  22  40  66  95 127 167 210 262 316 373
#     4  12  24  40  65  95 127 166 210 260 313 374
#     4  12  26  43  64  94 128 167 211 262 317 377
#
# _framework density 18.485436
#
# number of rings (size 3 to 8) (size 9 to 14) (size 15 to 20)
#    0.000    1.000    3.333    4.000    0.000    4.000 
#    0.000    0.000    0.000    0.000    0.000    0.000 
#    0.000    0.000    0.000    0.000    0.000    0.000 
#
# Total GULP energy -134267.629023 kJ/mol
# GULP energy per Si atom -5594.484543 kJ/mol
# Density = 1.844336 g / cm^3
# Si number density = 18.485436 Si / 1000 Ang^3
#
#
#
# Elastic Constant Matrix: (Units=GPa)
#
#
# Indices 1 2 3 4 5 6 
#
# 1 174.2698 87.0684 74.7663 0.0000 -5.6947 0.0000
# 2 87.0684 109.2343 81.3148 0.0000 -5.0156 0.0000
# 3 74.7663 81.3148 140.2682 0.0000 -1.9807 0.0000
# 4 0.0000 0.0000 0.0000 28.1050 0.0000 -0.4660
# 5 -5.6947 -5.0156 -1.9807 0.0000 31.2243 0.0000
# 6 0.0000 0.0000 0.0000 -0.4660 0.0000 36.8325
#
#
#
# Elastic Compliance Matrix: (Units=1/GPa)
#
#
# Indices 1 2 3 4 5 6 
#
# 1 0.009661 -0.006766 -0.001219 0.000000 0.000598 0.000000
# 2 -0.006766 0.020968 -0.008526 0.000000 0.001593 0.000000
# 3 -0.001219 -0.008526 0.012711 0.000000 -0.000786 0.000000
# 4 0.000000 0.000000 0.000000 0.035588 0.000000 0.000450
# 5 0.000598 0.001593 -0.000786 0.000000 0.032342 0.000000
# 6 0.000000 0.000000 0.000000 0.000450 0.000000 0.027156
#
#
# Mechanical properties :
#
#
# Convention : Reuss Voigt Hill
#
# Bulk Modulus (GPa) = 96.92508 101.11904 99.02206
# Shear Modulus (GPa) = 28.59002 31.27386 29.93194
#
# Velocity S-wave (km/s) = 3.93698 4.11762 4.02832
# Velocity P-wave (km/s) = 8.55649 8.79927 8.67873
#
# Compressibility (1/GPa) = 0.01031725
#
# Stress axis : x y z
#
# Youngs Moduli (GPa) = 103.50873 47.69230 78.67410
#
# Poissons Ratio (x) = 0.32267 0.09590
# Poissons Ratio (y) = 0.70032 0.67081
# Poissons Ratio (z) = 0.12617 0.40664
#
# Static dielectric constant tensor:
#      x y z
#    x 1.614270 0.000000 0.000380 
#    y 0.000000 1.619130 0.000000 
#    z 0.000380 0.000000 1.601690 
# 
# From -- ./inp_files/51834.got.cif
#   From: 2010.05.17/outbox.cif.g08.bks.cpg/sg11_26_cif.got.tgz:51834.got - 2010.06.03 12:22:45.
