data_PCOD9165713
_publ_section_title
;
Structure prediction by ZEFSAII (Michael W. Deem and Ramdas Pophale) SiO2 
 PCOD9165713
Probable space group: P 21/M
;
_chemical_formula_sum "Si O2"
_cell_formula_units_Z 30
_cell_length_a 9.417471
_cell_length_b 14.643721
_cell_length_c 10.924668
_cell_angle_alpha 90.000000
_cell_angle_beta 119.427559
_cell_angle_gamma 90.000000
_cell_volume 1312.202814
_symmetry_space_group_name_H-M "P 21/M"
_symmetry_group_IT_number 11
_symmetry_cell_setting 'monoclinic'
loop_
_space_group_symop_operation_xyz
x,y,z
-x,1/2+y,-z
-x,-y,-z
x,1/2-y,z
loop_
_atom_site_type_symbol
_atom_site_label
_atom_site_fract_x
_atom_site_fract_y
_atom_site_fract_z
Si Si1 0.918642 0.090467 0.519414
Si Si2 0.554208 0.852929 0.360255
Si Si3 0.211190 0.849309 0.133907
Si Si4 0.068820 0.750000 0.648402
Si Si5 0.433230 0.945716 0.728211
Si Si6 0.723631 0.641881 0.696881
Si Si7 0.728413 0.398684 0.105927
Si Si8 0.983257 0.480604 0.807612
O O1 0.995865 0.171589 0.475069
O O2 0.725626 0.095141 0.407781
O O3 0.942985 0.083130 0.674033
O O4 0.000000 0.000000 0.500000
O O5 0.588629 0.750000 0.326051
O O6 0.357680 0.856782 0.292914
O O7 0.642937 0.860999 0.528024
O O8 0.586799 0.945423 0.298787
O O9 0.135012 0.750000 0.106770
O O10 0.076044 0.924116 0.100924
O O11 0.299667 0.860603 0.040774
O O12 0.154361 0.829004 0.771471
O O13 0.592857 0.902010 0.734809
O O14 0.418049 0.918421 0.863672
O O15 0.762959 0.750000 0.736414
O O16 0.875993 0.573395 0.758897
O O17 0.830661 0.490645 0.126238
#
# Coordination Sequence:
#
# PCOD9165713 Si02
#       8
#     4   4   4   2   4   4   4   4
#     4  11  22  38  64  97 125 158 203 262 321 369
#     4  10  21  40  62  95 128 169 206 258 320 372
#     4  11  24  42  65  90 124 174 215 253 302 379
#     4  10  22  40  62  96 122 160 208 258 304 386
#     4  11  21  41  62  93 124 163 209 261 305 383
#     4  11  24  38  65  95 131 161 206 267 326 366
#     4  11  25  43  66  88 128 171 214 252 310 374
#     4  12  23  43  63  98 127 161 208 268 317 371
#
# _framework density 22.862318999999999
#
# number of rings (size 3 to 8) (size 9 to 14) (size 15 to 20)
#    0.000    1.067    6.000    1.600    5.600    0.533 
#    1.200    0.667    0.000    0.000    0.000    0.000 
#    0.000    0.000    0.000    0.000    0.000    0.000 
#
# Total GULP energy -167145.946517 kJ/mol
# GULP energy per Si atom -5571.531551 kJ/mol
# Density = 2.281028 g / cm^3
# Si number density = 22.862319 Si / 1000 Ang^3
#
#
#
# Elastic Constant Matrix: (Units=GPa)
#
#
# Indices 1 2 3 4 5 6 
#
# 1 64.8715 10.3335 15.0876 0.0000 -15.1249 0.0000
# 2 10.3335 134.5882 35.7185 0.0000 -17.5121 0.0000
# 3 15.0876 35.7185 51.5622 0.0000 -11.0978 0.0000
# 4 0.0000 0.0000 0.0000 27.0869 0.0000 -3.8959
# 5 -15.1249 -17.5121 -11.0978 0.0000 29.2744 0.0000
# 6 0.0000 0.0000 0.0000 -3.8959 0.0000 -11.6462
#
#
#
# Elastic Compliance Matrix: (Units=1/GPa)
#
#
# Indices 1 2 3 4 5 6 
#
# 1 0.018174 0.000763 -0.004058 0.000000 0.008308 0.000000
# 2 0.000763 0.009443 -0.005950 0.000000 0.003788 0.000000
# 3 -0.004058 -0.005950 0.025572 0.000000 0.004039 0.000000
# 4 0.000000 0.000000 0.000000 0.035223 0.000000 -0.011783
# 5 0.008308 0.003788 0.004039 0.000000 0.042249 0.000000
# 6 0.000000 0.000000 0.000000 -0.011783 0.000000 -0.081923
#
#
# Mechanical properties :
#
#
# Convention : Reuss Voigt Hill
#
# Bulk Modulus (GPa) = 28.81882 41.47790 35.14836
# Shear Modulus (GPa) = 63.45521 21.60184 42.52852
#
# Velocity S-wave (km/s) = 5.27405 3.07720 4.31768
# Velocity P-wave (km/s) = 7.05126 5.55044 6.34538
#
# Compressibility (1/GPa) = 0.03469955
#
# Stress axis : x y z
#
# Youngs Moduli (GPa) = 55.02243 105.89503 39.10500
#
# Poissons Ratio (x) = -0.08075 0.15869
# Poissons Ratio (y) = -0.04196 0.23266
# Poissons Ratio (z) = 0.22329 0.63003
#
# Static dielectric constant tensor:
#      x y z
#    x 1.890420 0.000000 -0.019050 
#    y 0.000000 1.868290 0.000000 
#    z -0.019050 0.000000 1.904020 
# 
# From -- ./inp_files/31925.got.cif
#   From: 2010.05.17/outbox.cif.g08.bks.cpg/sg11_16_cif.got.tgz:31925.got - 2010.06.03 12:22:45.
