data_PCOD9165867
_publ_section_title
;
Structure prediction by ZEFSAII (Michael W. Deem and Ramdas Pophale) SiO2 
 PCOD9165867
Probable space group: P 21/M
;
_chemical_formula_sum "Si O2"
_cell_formula_units_Z 28
_cell_length_a 5.246270
_cell_length_b 7.856145
_cell_length_c 37.211259
_cell_angle_alpha 90.000000
_cell_angle_beta 115.027035
_cell_angle_gamma 90.000000
_cell_volume 1389.679300
_symmetry_space_group_name_H-M "P 21/M"
_symmetry_group_IT_number 11
_symmetry_cell_setting 'monoclinic'
loop_
_space_group_symop_operation_xyz
x,y,z
-x,1/2+y,-z
-x,-y,-z
x,1/2-y,z
loop_
_atom_site_type_symbol
_atom_site_label
_atom_site_fract_x
_atom_site_fract_y
_atom_site_fract_z
Si Si1 0.869818 0.250000 0.219822
Si Si2 0.867987 0.552001 0.885264
Si Si3 0.473643 0.750000 0.728028
Si Si4 0.323329 0.451978 0.524415
Si Si5 0.240311 0.440725 0.840614
Si Si6 0.824198 0.951210 0.024761
Si Si7 0.567044 0.455724 0.613960
Si Si8 0.784339 0.543532 0.335820
O O1 0.646370 0.250000 0.238732
O O2 0.826745 0.083698 0.192702
O O3 0.189148 0.250000 0.252961
O O4 0.820948 0.750000 0.873754
O O5 0.565002 0.465348 0.871319
O O6 0.043703 0.470240 0.863400
O O7 0.042958 0.538106 0.932351
O O8 0.358721 0.579387 0.701766
O O9 0.500000 0.500000 0.500000
O O10 0.335438 0.250000 0.528294
O O11 0.453922 0.523944 0.569191
O O12 0.000000 0.500000 0.500000
O O13 0.801544 0.750000 0.175870
O O14 0.843933 0.750000 0.031561
O O15 0.500000 0.000000 0.000000
O O16 0.000000 0.000000 0.000000
O O17 0.570459 0.250000 0.611649
O O18 0.363514 0.495736 0.634907
O O19 0.887170 0.503332 0.641541
O O20 0.758539 0.750000 0.327539
#
# Coordination Sequence:
#
# PCOD9165867 Si02
#       8
#     2   4   2   4   4   4   4   4
#     4  12  26  46  66  98 138 164 206 278 332 392
#     4  12  23  44  69  96 134 176 221 284 327 386
#     4  12  26  42  68  98 132 162 208 274 332 390
#     4  11  22  39  58  88 127 168 213 268 327 378
#     4  12  25  45  71 100 130 177 225 262 329 402
#     4  12  25  42  62  95 133 178 227 277 337 389
#     4   9  19  38  62  82 121 168 207 257 313 382
#     4  10  21  41  64  91 121 165 214 254 319 391
#
# _framework density 20.148534000000001
#
# number of rings (size 3 to 8) (size 9 to 14) (size 15 to 20)
#    0.000    0.857    1.429    6.429    0.000    3.429 
#    7.714    0.000    0.000    0.000    0.000    0.000 
#    0.000    0.000    0.000    0.000    0.000    0.000 
#
# Total GULP energy -156655.341526 kJ/mol
# GULP energy per Si atom -5594.833626 kJ/mol
# Density = 2.010268 g / cm^3
# Si number density = 20.148534 Si / 1000 Ang^3
#
#
#
# Elastic Constant Matrix: (Units=GPa)
#
#
# Indices 1 2 3 4 5 6 
#
# 1 76.9210 2.9791 -18.7004 0.0000 1.5557 0.0000
# 2 2.9791 110.6486 19.8472 0.0000 -1.1337 0.0000
# 3 -18.7004 19.8472 58.6591 0.0000 -0.1106 0.0000
# 4 0.0000 0.0000 0.0000 71.8810 0.0000 -76.2316
# 5 1.5557 -1.1337 -0.1106 0.0000 37.5473 0.0000
# 6 0.0000 0.0000 0.0000 -76.2316 0.0000 191.7946
#
#
#
# Elastic Compliance Matrix: (Units=1/GPa)
#
#
# Indices 1 2 3 4 5 6 
#
# 1 0.014274 -0.001285 0.004984 0.000000 -0.000616 0.000000
# 2 -0.001285 0.009740 -0.003704 0.000000 0.000336 0.000000
# 3 0.004984 -0.003704 0.019889 0.000000 -0.000260 0.000000
# 4 0.000000 0.000000 0.000000 0.024049 0.000000 0.009559
# 5 -0.000616 0.000336 -0.000260 0.000000 0.026668 0.000000
# 6 0.000000 0.000000 0.000000 0.009559 0.000000 0.009013
#
#
# Mechanical properties :
#
#
# Convention : Reuss Voigt Hill
#
# Bulk Modulus (GPa) = 22.78222 28.27561 25.52892
# Shear Modulus (GPa) = 42.27426 76.38478 59.32952
#
# Velocity S-wave (km/s) = 4.58551 6.16386 5.43231
# Velocity P-wave (km/s) = 6.27435 8.04497 7.21419
#
# Compressibility (1/GPa) = 0.04389387
#
# Stress axis : x y z
#
# Youngs Moduli (GPa) = 70.05627 102.66812 50.27784
#
# Poissons Ratio (x) = 0.13189 -0.25059
# Poissons Ratio (y) = 0.09000 0.18625
# Poissons Ratio (z) = -0.34917 0.38033
#
# Static dielectric constant tensor:
#      x y z
#    x 1.670540 0.000000 0.009370 
#    y 0.000000 1.707460 0.000000 
#    z 0.009370 0.000000 1.698590 
# 
# From -- ./inp_files/72628.got.cif
#   From: 2010.05.17/outbox.cif.g08.bks.cpg/sg11_37_cif.got.tgz:72628.got - 2010.06.03 12:22:45.
