data_PCOD9165862
_publ_section_title
;
Structure prediction by ZEFSAII (Michael W. Deem and Ramdas Pophale) SiO2 
 PCOD9165862
Probable space group: P 21/M
;
_chemical_formula_sum "Si O2"
_cell_formula_units_Z 24
_cell_length_a 12.511201
_cell_length_b 7.789037
_cell_length_c 11.785504
_cell_angle_alpha 90.000000
_cell_angle_beta 111.044348
_cell_angle_gamma 90.000000
_cell_volume 1071.898047
_symmetry_space_group_name_H-M "P 21/M"
_symmetry_group_IT_number 11
_symmetry_cell_setting 'monoclinic'
loop_
_space_group_symop_operation_xyz
x,y,z
-x,1/2+y,-z
-x,-y,-z
x,1/2-y,z
loop_
_atom_site_type_symbol
_atom_site_label
_atom_site_fract_x
_atom_site_fract_y
_atom_site_fract_z
Si Si1 0.259360 0.053007 0.100584
Si Si2 0.824392 0.452728 0.687183
Si Si3 0.607979 0.043593 0.462337
Si Si4 0.263134 0.038815 0.852650
Si Si5 0.042952 0.456524 0.641704
Si Si6 0.481779 0.050846 0.812558
O O1 0.222946 0.250000 0.089064
O O2 0.207436 0.972856 0.193654
O O3 0.397687 0.042776 0.155903
O O4 0.227627 0.981450 0.964904
O O5 0.827146 0.250000 0.665462
O O6 0.721567 0.521563 0.569407
O O7 0.946790 0.520957 0.693448
O O8 0.613780 0.250000 0.451355
O O9 0.500000 0.000000 0.500000
O O10 0.585797 0.962056 0.332024
O O11 0.267709 0.250000 0.854717
O O12 0.168655 0.981179 0.725758
O O13 0.391350 0.982076 0.869921
O O14 0.049218 0.250000 0.651581
O O15 0.000000 0.500000 0.500000
O O16 0.508171 0.250000 0.845646
#
# Coordination Sequence:
#
# PCOD9165862 Si02
#       6
#     4   4   4   4   4   4
#     4  11  22  37  58  84 115 153 196 236 284 346
#     4  10  22  38  58  85 118 151 187 236 289 336
#     4  11  21  34  54  83 116 150 188 233 285 338
#     4   9  21  39  59  84 115 153 192 236 288 340
#     4  10  21  41  64  86 115 149 188 236 286 341
#     4  11  21  36  58  84 117 152 191 241 292 340
#
# _framework density 22.390188999999999
#
# number of rings (size 3 to 8) (size 9 to 14) (size 15 to 20)
#    0.000    1.667    1.667    3.000    0.000    2.000 
#    0.000    5.000    0.000    0.000    0.000    0.000 
#    0.000    0.000    0.000    0.000    0.000    0.000 
#
# Total GULP energy -134149.280334 kJ/mol
# GULP energy per Si atom -5589.553347 kJ/mol
# Density = 2.233923 g / cm^3
# Si number density = 22.390189 Si / 1000 Ang^3
#
#
#
# Elastic Constant Matrix: (Units=GPa)
#
#
# Indices 1 2 3 4 5 6 
#
# 1 109.8324 -7.3546 22.8432 0.0000 -2.5117 0.0000
# 2 -7.3546 36.3552 -14.0154 0.0000 4.8762 0.0000
# 3 22.8432 -14.0154 100.9062 0.0000 -4.3456 0.0000
# 4 0.0000 0.0000 0.0000 17.3540 0.0000 6.0965
# 5 -2.5117 4.8762 -4.3456 0.0000 26.7071 0.0000
# 6 0.0000 0.0000 0.0000 6.0965 0.0000 3.8857
#
#
#
# Elastic Compliance Matrix: (Units=1/GPa)
#
#
# Indices 1 2 3 4 5 6 
#
# 1 0.009605 0.001121 -0.002003 0.000000 0.000373 0.000000
# 2 0.001121 0.029787 0.003680 0.000000 -0.004734 0.000000
# 3 -0.002003 0.003680 0.010914 0.000000 0.000916 0.000000
# 4 0.000000 0.000000 0.000000 0.128390 0.000000 -0.201440
# 5 0.000373 -0.004734 0.000916 0.000000 0.038492 0.000000
# 6 0.000000 0.000000 0.000000 -0.201440 0.000000 0.573408
#
#
# Mechanical properties :
#
#
# Convention : Reuss Voigt Hill
#
# Bulk Modulus (GPa) = 17.88859 27.78225 22.83542
# Shear Modulus (GPa) = 6.22175 25.96406 16.09290
#
# Velocity S-wave (km/s) = 1.66878 3.40901 2.68386
# Velocity P-wave (km/s) = 3.42344 5.28491 4.45254
#
# Compressibility (1/GPa) = 0.05590155
#
# Stress axis : x y z
#
# Youngs Moduli (GPa) = 104.11382 33.57209 91.62498
#
# Poissons Ratio (x) = -0.03763 0.18349
# Poissons Ratio (y) = -0.11671 -0.33714
# Poissons Ratio (z) = 0.20850 -0.12353
#
# Static dielectric constant tensor:
#      x y z
#    x 1.820260 0.000000 0.003250 
#    y 0.000000 1.820020 0.000000 
#    z 0.003250 0.000000 1.830100 
# 
# From -- ./inp_files/33901.got.cif
#   From: 2010.05.17/outbox.cif.g08.bks.cpg/sg11_17_cif.got.tgz:33901.got - 2010.06.03 12:22:45.
