data_PCOD9165580
_publ_section_title
;
Structure prediction by ZEFSAII (Michael W. Deem and Ramdas Pophale) SiO2 
 PCOD9165580
Probable space group: P 21/M
;
_chemical_formula_sum "Si O2"
_cell_formula_units_Z 24
_cell_length_a 12.371070
_cell_length_b 8.743723
_cell_length_c 11.778689
_cell_angle_alpha 90.000000
_cell_angle_beta 68.366889
_cell_angle_gamma 90.000000
_cell_volume 1184.349050
_symmetry_space_group_name_H-M "P 21/M"
_symmetry_group_IT_number 11
_symmetry_cell_setting 'monoclinic'
loop_
_space_group_symop_operation_xyz
x,y,z
-x,1/2+y,-z
-x,-y,-z
x,1/2-y,z
loop_
_atom_site_type_symbol
_atom_site_label
_atom_site_fract_x
_atom_site_fract_y
_atom_site_fract_z
Si Si1 0.268120 0.068051 0.394337
Si Si2 0.541426 0.434068 0.277473
Si Si3 0.169070 0.567762 0.205892
Si Si4 0.741714 0.067542 0.360745
Si Si5 0.385626 0.067784 0.984829
Si Si6 0.967114 0.067550 0.135025
O O1 0.259063 0.250000 0.383251
O O2 0.405317 0.025745 0.331995
O O3 0.196515 0.987232 0.322610
O O4 0.230299 0.018803 0.534336
O O5 0.550160 0.250000 0.256996
O O6 0.614117 0.471578 0.362163
O O7 0.602711 0.519309 0.149961
O O8 0.165454 0.750000 0.202632
O O9 0.274277 0.505694 0.087481
O O10 0.052817 0.498622 0.197256
O O11 0.745679 0.250000 0.380694
O O12 0.836290 0.033259 0.226801
O O13 0.382197 0.250000 0.999617
O O14 0.500000 0.000000 0.000000
O O15 0.980232 0.250000 0.124366
O O16 0.000000 0.000000 0.000000
#
# Coordination Sequence:
#
# PCOD9165580 Si02
#       6
#     4   4   4   4   4   4
#     4  11  23  39  63  94 129 167 211 262 316 381
#     4  10  21  39  63  93 130 168 210 262 316 375
#     4  12  25  42  65  92 128 170 213 265 319 374
#     4  10  23  42  64  91 126 168 211 258 316 379
#     4  12  23  37  61  93 127 164 207 257 315 377
#     4  11  24  44  69  96 127 165 212 265 318 379
#
# _framework density 20.264296999999999
#
# number of rings (size 3 to 8) (size 9 to 14) (size 15 to 20)
#    0.000    1.000    1.667    5.500    0.000    4.667 
#    0.000    0.000    0.000    0.000    0.000    0.000 
#    0.000    0.000    0.000    0.000    0.000    0.000 
#
# Total GULP energy -134295.679886 kJ/mol
# GULP energy per Si atom -5595.653329 kJ/mol
# Density = 2.021817 g / cm^3
# Si number density = 20.264297 Si / 1000 Ang^3
#
#
#
# Elastic Constant Matrix: (Units=GPa)
#
#
# Indices 1 2 3 4 5 6 
#
# 1 111.7812 44.5058 25.1624 0.0000 18.5751 0.0000
# 2 44.5058 76.7805 50.9537 0.0000 6.8258 0.0000
# 3 25.1624 50.9537 101.6245 0.0000 21.4105 0.0000
# 4 0.0000 0.0000 0.0000 33.3697 0.0000 2.9508
# 5 18.5751 6.8258 21.4105 0.0000 26.0525 0.0000
# 6 0.0000 0.0000 0.0000 2.9508 0.0000 26.6040
#
#
#
# Elastic Compliance Matrix: (Units=1/GPa)
#
#
# Indices 1 2 3 4 5 6 
#
# 1 0.013498 -0.009163 0.003355 0.000000 -0.009980 0.000000
# 2 -0.009163 0.026013 -0.012958 0.000000 0.010367 0.000000
# 3 0.003355 -0.012958 0.018498 0.000000 -0.014199 0.000000
# 4 0.000000 0.000000 0.000000 0.030264 0.000000 -0.003357
# 5 -0.009980 0.010367 -0.014199 0.000000 0.054452 0.000000
# 6 0.000000 0.000000 0.000000 -0.003357 0.000000 0.037961
#
#
# Mechanical properties :
#
#
# Convention : Reuss Voigt Hill
#
# Bulk Modulus (GPa) = 48.83722 59.04779 53.94250
# Shear Modulus (GPa) = 22.21783 28.50951 25.36367
#
# Velocity S-wave (km/s) = 3.31479 3.75491 3.54170
# Velocity P-wave (km/s) = 6.22920 6.92829 6.58803
#
# Compressibility (1/GPa) = 0.02047619
#
# Stress axis : x y z
#
# Youngs Moduli (GPa) = 74.08775 38.44184 54.05944
#
# Poissons Ratio (x) = 0.35224 -0.18136
# Poissons Ratio (y) = 0.67887 0.70052
# Poissons Ratio (z) = -0.24855 0.49814
#
# Static dielectric constant tensor:
#      x y z
#    x 1.723630 0.000000 -0.012730 
#    y 0.000000 1.674790 0.000000 
#    z -0.012730 0.000000 1.708230 
# 
# From -- ./inp_files/33732.got.cif
#   From: 2010.05.17/outbox.cif.g08.bks.cpg/sg11_17_cif.got.tgz:33732.got - 2010.06.03 12:22:45.
