data_PCOD9165078
_publ_section_title
;
Structure prediction by ZEFSAII (Michael W. Deem and Ramdas Pophale) SiO2 
 PCOD9165078
Probable space group: P 21/M
;
_chemical_formula_sum "Si O2"
_cell_formula_units_Z 30
_cell_length_a 13.407076
_cell_length_b 19.202018
_cell_length_c 5.603105
_cell_angle_alpha 90.000000
_cell_angle_beta 55.973100
_cell_angle_gamma 90.000000
_cell_volume 1195.491018
_symmetry_space_group_name_H-M "P 21/M"
_symmetry_group_IT_number 11
_symmetry_cell_setting 'monoclinic'
loop_
_space_group_symop_operation_xyz
x,y,z
-x,1/2+y,-z
-x,-y,-z
x,1/2-y,z
loop_
_atom_site_type_symbol
_atom_site_label
_atom_site_fract_x
_atom_site_fract_y
_atom_site_fract_z
Si Si1 0.886549 0.567476 0.037832
Si Si2 0.695318 0.138049 0.407893
Si Si3 0.433904 0.356325 0.189096
Si Si4 0.416757 0.750000 0.780221
Si Si5 0.685875 0.502119 0.653259
Si Si6 0.138575 0.936557 0.195872
Si Si7 0.934171 0.330097 0.331053
Si Si8 0.701102 0.673014 0.122204
O O1 0.795559 0.537936 0.357768
O O2 0.798961 0.612739 0.986042
O O3 0.933237 0.498019 0.843071
O O4 0.986160 0.625781 0.965849
O O5 0.609704 0.190435 0.389832
O O6 0.792935 0.170282 0.457078
O O7 0.638639 0.067939 0.589860
O O8 0.785316 0.109355 0.085571
O O9 0.555011 0.312541 0.060299
O O10 0.416965 0.439377 0.205475
O O11 0.366723 0.332814 0.529029
O O12 0.374444 0.333151 0.019477
O O13 0.757120 0.475082 0.789145
O O14 0.059962 0.882738 0.453440
O O15 0.970497 0.250000 0.314616
O O16 0.755258 0.750000 0.050421
#
# Coordination Sequence:
#
# PCOD9165078 Si02
#       8
#     4   4   4   2   4   4   4   4
#     4  10  21  37  69  95 137 176 224 276 347 401
#     4  10  24  44  64  91 139 176 233 274 335 403
#     4  11  23  42  71 100 134 173 231 285 352 408
#     4  12  24  46  68  96 126 186 220 286 352 412
#     4   9  21  43  67  98 131 172 222 288 339 410
#     4  10  21  41  65  92 134 177 225 280 329 402
#     4  11  23  40  61  99 136 182 227 271 332 417
#     4  11  20  41  64 105 139 171 218 293 348 414
#
# _framework density 25.094291999999999
#
# number of rings (size 3 to 8) (size 9 to 14) (size 15 to 20)
#    0.000    1.600    3.333    0.800    0.933    6.400 
#    9.600    0.667    0.000    0.000    0.000    0.000 
#    0.000    0.000    0.000    0.000    0.000    0.000 
#
# Total GULP energy -167106.134023 kJ/mol
# GULP energy per Si atom -5570.204467 kJ/mol
# Density = 2.503718 g / cm^3
# Si number density = 25.094292 Si / 1000 Ang^3
#
#
#
# Elastic Constant Matrix: (Units=GPa)
#
#
# Indices 1 2 3 4 5 6 
#
# 1 102.6785 39.8086 39.6591 0.0000 11.6008 0.0000
# 2 39.8086 226.4204 47.3329 0.0000 -9.4469 0.0000
# 3 39.6591 47.3329 88.7405 0.0000 0.7289 0.0000
# 4 0.0000 0.0000 0.0000 6.8785 0.0000 14.2618
# 5 11.6008 -9.4469 0.7289 0.0000 31.3564 0.0000
# 6 0.0000 0.0000 0.0000 14.2618 0.0000 89.9558
#
#
#
# Elastic Compliance Matrix: (Units=1/GPa)
#
#
# Indices 1 2 3 4 5 6 
#
# 1 0.012753 -0.001429 -0.004896 0.000000 -0.005035 0.000000
# 2 -0.001429 0.005208 -0.002157 0.000000 0.002148 0.000000
# 3 -0.004896 -0.002157 0.014601 0.000000 0.000822 0.000000
# 4 0.000000 0.000000 0.000000 0.216572 0.000000 -0.034336
# 5 -0.005035 0.002148 0.000822 0.000000 0.034382 0.000000
# 6 0.000000 0.000000 0.000000 -0.034336 0.000000 0.016560
#
#
# Mechanical properties :
#
#
# Convention : Reuss Voigt Hill
#
# Bulk Modulus (GPa) = 64.11001 74.60449 69.35725
# Shear Modulus (GPa) = 15.51640 45.04074 30.27857
#
# Velocity S-wave (km/s) = 2.48931 4.24118 3.47737
# Velocity P-wave (km/s) = 5.81939 7.33332 6.61978
#
# Compressibility (1/GPa) = 0.01559819
#
# Stress axis : x y z
#
# Youngs Moduli (GPa) = 78.41322 192.00013 68.48973
#
# Poissons Ratio (x) = 0.27432 0.33533
# Poissons Ratio (y) = 0.11203 0.14774
# Poissons Ratio (z) = 0.38391 0.41418
#
# Static dielectric constant tensor:
#      x y z
#    x 2.052090 0.000000 -0.034360 
#    y 0.000000 1.936360 0.000000 
#    z -0.034360 0.000000 2.060350 
# 
# From -- ./inp_files/6822.got.cif
#   From: 2010.05.17/outbox.cif.g08.bks.cpg/sg11_4_cif.got.tgz:6822.got - 2010.06.03 12:22:45.
