data_PCOD9165145
_publ_section_title
;
Structure prediction by ZEFSAII (Michael W. Deem and Ramdas Pophale) SiO2 
 PCOD9165145
Probable space group: P 21/M
;
_chemical_formula_sum "Si O2"
_cell_formula_units_Z 24
_cell_length_a 8.500327
_cell_length_b 7.639878
_cell_length_c 15.013036
_cell_angle_alpha 90.000000
_cell_angle_beta 92.384295
_cell_angle_gamma 90.000000
_cell_volume 974.124437
_symmetry_space_group_name_H-M "P 21/M"
_symmetry_group_IT_number 11
_symmetry_cell_setting 'monoclinic'
loop_
_space_group_symop_operation_xyz
x,y,z
-x,1/2+y,-z
-x,-y,-z
x,1/2-y,z
loop_
_atom_site_type_symbol
_atom_site_label
_atom_site_fract_x
_atom_site_fract_y
_atom_site_fract_z
Si Si1 0.653156 0.452338 0.285232
Si Si2 0.169674 0.459502 0.544138
Si Si3 0.811815 0.044483 0.785215
Si Si4 0.359854 0.451721 0.384646
Si Si5 0.848882 0.037277 0.128172
Si Si6 0.665042 0.459737 0.957575
O O1 0.612246 0.250000 0.266841
O O2 0.796121 0.461823 0.358788
O O3 0.506288 0.534034 0.334846
O O4 0.714444 0.527013 0.193912
O O5 0.183423 0.250000 0.552114
O O6 0.299241 0.527570 0.476009
O O7 0.000000 0.500000 0.500000
O O8 0.785401 0.250000 0.769584
O O9 0.781932 0.956122 0.690027
O O10 0.692002 0.974145 0.858235
O O11 0.983660 0.021478 0.831229
O O12 0.401012 0.250000 0.404279
O O13 0.848242 0.250000 0.129405
O O14 0.801193 0.977759 0.028444
O O15 0.679039 0.250000 0.951973
O O16 0.500000 0.500000 0.000000
#
# Coordination Sequence:
#
# PCOD9165145 Si02
#       6
#     4   4   4   4   4   4
#     4  10  21  38  60  84 110 145 190 234 278 333
#     4  11  23  38  58  84 114 149 188 231 281 335
#     4  11  23  37  57  87 117 146 187 236 279 324
#     4  10  22  40  60  82 112 152 190 226 280 343
#     4  10  21  38  59  82 112 151 189 226 278 341
#     4  10  22  39  59  85 115 149 189 231 278 332
#
# _framework density 24.637506999999999
#
# number of rings (size 3 to 8) (size 9 to 14) (size 15 to 20)
#    0.000    1.667    0.000    4.000    0.000   10.000 
#    0.000    0.000    0.000    0.000    0.000    0.000 
#    0.000    0.000    0.000    0.000    0.000    0.000 
#
# Total GULP energy -134307.034694 kJ/mol
# GULP energy per Si atom -5596.126446 kJ/mol
# Density = 2.458143 g / cm^3
# Si number density = 24.637507 Si / 1000 Ang^3
#
#
#
# Elastic Constant Matrix: (Units=GPa)
#
#
# Indices 1 2 3 4 5 6 
#
# 1 67.3137 -2.5320 -15.2052 0.0000 0.1724 0.0000
# 2 -2.5320 69.6684 4.7279 0.0000 -4.2586 0.0000
# 3 -15.2052 4.7279 100.8468 0.0000 -3.6644 0.0000
# 4 0.0000 0.0000 0.0000 13.1362 0.0000 5.5956
# 5 0.1724 -4.2586 -3.6644 0.0000 47.8318 0.0000
# 6 0.0000 0.0000 0.0000 5.5956 0.0000 25.5019
#
#
#
# Elastic Compliance Matrix: (Units=1/GPa)
#
#
# Indices 1 2 3 4 5 6 
#
# 1 0.015392 0.000412 0.002307 0.000000 0.000158 0.000000
# 2 0.000412 0.014484 -0.000572 0.000000 0.001244 0.000000
# 3 0.002307 -0.000572 0.010317 0.000000 0.000731 0.000000
# 4 0.000000 0.000000 0.000000 0.083974 0.000000 -0.018425
# 5 0.000158 0.001244 0.000731 0.000000 0.021073 0.000000
# 6 0.000000 0.000000 0.000000 -0.018425 0.000000 0.043256
#
#
# Mechanical properties :
#
#
# Convention : Reuss Voigt Hill
#
# Bulk Modulus (GPa) = 22.47749 23.53447 23.00598
# Shear Modulus (GPa) = 25.12194 34.01651 29.56922
#
# Velocity S-wave (km/s) = 3.19668 3.71978 3.46811
# Velocity P-wave (km/s) = 4.77159 5.29359 5.03935
#
# Compressibility (1/GPa) = 0.04448895
#
# Stress axis : x y z
#
# Youngs Moduli (GPa) = 64.96846 69.04387 96.92501
#
# Poissons Ratio (x) = -0.02848 -0.22362
# Poissons Ratio (y) = -0.02680 0.05540
# Poissons Ratio (z) = -0.14989 0.03947
#
# Static dielectric constant tensor:
#      x y z
#    x 1.995430 0.000000 -0.025440 
#    y 0.000000 1.920450 0.000000 
#    z -0.025440 0.000000 1.939020 
# 
# From -- ./inp_files/20541.got.cif
#   From: 2010.05.17/outbox.cif.g08.bks.cpg/sg11_11_cif.got.tgz:20541.got - 2010.06.03 12:22:45.
