data_PCOD9165883
_publ_section_title
;
Structure prediction by ZEFSAII (Michael W. Deem and Ramdas Pophale) SiO2 
 PCOD9165883
Probable space group: P 21/M
;
_chemical_formula_sum "Si O2"
_cell_formula_units_Z 26
_cell_length_a 19.960688
_cell_length_b 9.569048
_cell_length_c 9.327603
_cell_angle_alpha 90.000000
_cell_angle_beta 130.707141
_cell_angle_gamma 90.000000
_cell_volume 1350.560041
_symmetry_space_group_name_H-M "P 21/M"
_symmetry_group_IT_number 11
_symmetry_cell_setting 'monoclinic'
loop_
_space_group_symop_operation_xyz
x,y,z
-x,1/2+y,-z
-x,-y,-z
x,1/2-y,z
loop_
_atom_site_type_symbol
_atom_site_label
_atom_site_fract_x
_atom_site_fract_y
_atom_site_fract_z
Si Si1 0.083336 0.534180 0.262801
Si Si2 0.735697 0.084554 0.990396
Si Si3 0.261153 0.591453 0.346450
Si Si4 0.965681 0.750000 0.943555
Si Si5 0.405955 0.413797 0.706957
Si Si6 0.088136 0.913362 0.596088
Si Si7 0.416658 0.414464 0.064435
O O1 0.161398 0.578888 0.263672
O O2 0.113863 0.565453 0.466254
O O3 0.999458 0.628239 0.104562
O O4 0.062130 0.373392 0.208427
O O5 0.720794 0.250000 0.002195
O O6 0.830457 0.045019 0.188902
O O7 0.736597 0.068957 0.820517
O O8 0.660103 0.990483 0.954902
O O9 0.292492 0.750000 0.420403
O O10 0.321786 0.480261 0.511913
O O11 0.416852 0.250000 0.687191
O O12 0.491828 0.503299 0.783124
O O13 0.396862 0.425413 0.866473
O O14 0.070890 0.750000 0.598112
O O15 0.000000 0.000000 0.500000
O O16 0.424352 0.250000 0.110547
#
# Coordination Sequence:
#
# PCOD9165883 Si02
#       7
#     4   4   4   2   4   4   4
#     4  11  23  42  64  90 122 163 205 260 305 372
#     4  10  24  41  61  88 123 163 204 252 303 360
#     4  11  23  40  63  90 123 162 206 253 304 361
#     4  10  24  38  68  90 118 160 212 258 310 358
#     4  10  22  39  66  94 121 159 201 248 302 366
#     4  11  25  41  63  91 124 166 209 256 310 363
#     4  10  21  41  65  93 123 156 200 248 304 365
#
# _framework density 19.251273000000001
#
# number of rings (size 3 to 8) (size 9 to 14) (size 15 to 20)
#    0.000    1.538    1.538    1.846    6.462    4.923 
#    0.000    0.000    0.000    0.000    0.000    0.000 
#    0.000    0.000    0.000    0.000    0.000    0.000 
#
# Total GULP energy -144773.076294 kJ/mol
# GULP energy per Si atom -5568.195242 kJ/mol
# Density = 1.920746 g / cm^3
# Si number density = 19.251273 Si / 1000 Ang^3
#
#
#
# Elastic Constant Matrix: (Units=GPa)
#
#
# Indices 1 2 3 4 5 6 
#
# 1 84.4753 34.4468 -5.9356 0.0000 -7.0809 0.0000
# 2 34.4468 119.1758 13.6246 0.0000 -7.2343 0.0000
# 3 -5.9356 13.6246 37.3086 0.0000 -1.7108 0.0000
# 4 0.0000 0.0000 0.0000 16.5956 0.0000 -6.3534
# 5 -7.0809 -7.2343 -1.7108 0.0000 8.0471 0.0000
# 6 0.0000 0.0000 0.0000 -6.3534 0.0000 26.7950
#
#
#
# Elastic Compliance Matrix: (Units=1/GPa)
#
#
# Indices 1 2 3 4 5 6 
#
# 1 0.014667 -0.004117 0.004301 0.000000 0.010119 0.000000
# 2 -0.004117 0.010354 -0.004216 0.000000 0.004789 0.000000
# 3 0.004301 -0.004216 0.029313 0.000000 0.006226 0.000000
# 4 0.000000 0.000000 0.000000 0.066273 0.000000 0.015714
# 5 0.010119 0.004789 0.006226 0.000000 0.138802 0.000000
# 6 0.000000 0.000000 0.000000 0.015714 0.000000 0.041046
#
#
# Mechanical properties :
#
#
# Convention : Reuss Voigt Hill
#
# Bulk Modulus (GPa) = 21.61276 36.13680 28.87478
# Shear Modulus (GPa) = 15.43487 23.54247 19.48867
#
# Velocity S-wave (km/s) = 2.83461 3.50080 3.18517
# Velocity P-wave (km/s) = 4.68661 5.92897 5.34402
#
# Compressibility (1/GPa) = 0.04626896
#
# Stress axis : x y z
#
# Youngs Moduli (GPa) = 68.18070 96.58465 34.11460
#
# Poissons Ratio (x) = 0.39762 -0.14672
# Poissons Ratio (y) = 0.28068 0.14384
# Poissons Ratio (z) = -0.29323 0.40723
#
# Static dielectric constant tensor:
#      x y z
#    x 1.664070 0.000000 0.003780 
#    y 0.000000 1.654640 0.000000 
#    z 0.003780 0.000000 1.668670 
# 
# From -- ./inp_files/26199.got.cif
#   From: 2010.05.17/outbox.cif.g08.bks.cpg/sg11_14_cif.got.tgz:26199.got - 2010.06.03 12:22:45.
