data_PCOD9165506
_publ_section_title
;
Structure prediction by ZEFSAII (Michael W. Deem and Ramdas Pophale) SiO2 
 PCOD9165506
Probable space group: P 21/M
;
_chemical_formula_sum "Si O2"
_cell_formula_units_Z 26
_cell_length_a 20.284823
_cell_length_b 7.921209
_cell_length_c 8.644573
_cell_angle_alpha 90.000000
_cell_angle_beta 122.912121
_cell_angle_gamma 90.000000
_cell_volume 1166.083084
_symmetry_space_group_name_H-M "P 21/M"
_symmetry_group_IT_number 11
_symmetry_cell_setting 'monoclinic'
loop_
_space_group_symop_operation_xyz
x,y,z
-x,1/2+y,-z
-x,-y,-z
x,1/2-y,z
loop_
_atom_site_type_symbol
_atom_site_label
_atom_site_fract_x
_atom_site_fract_y
_atom_site_fract_z
Si Si1 0.000000 0.000000 0.500000
Si Si2 0.222405 0.047056 0.482211
Si Si3 0.682034 0.053116 0.911387
Si Si4 0.050717 0.553071 0.213917
Si Si5 0.528865 0.453163 0.868076
Si Si6 0.829846 0.554374 0.245630
Si Si7 0.376486 0.455399 0.495184
O O1 0.030541 0.028726 0.354991
O O2 0.910279 0.044221 0.334458
O O3 0.218767 0.250000 0.464335
O O4 0.214531 0.005188 0.653376
O O5 0.305157 0.992414 0.517305
O O6 0.143494 0.976237 0.302901
O O7 0.695829 0.250000 0.961286
O O8 0.615778 0.981287 0.942392
O O9 0.643935 0.029686 0.696184
O O10 0.765717 0.964422 0.031333
O O11 0.035096 0.750000 0.222506
O O12 0.000000 0.500000 0.000000
O O13 0.532907 0.250000 0.859777
O O14 0.461237 0.511900 0.664322
O O15 0.500000 0.500000 0.000000
O O16 0.856549 0.750000 0.287830
O O17 0.376737 0.250000 0.487383
#
# Coordination Sequence:
#
# PCOD9165506 Si02
#       7
#     2   4   4   4   4   4   4
#     4  10  24  44  66  92 126 170 220 272 320 384
#     4   9  20  39  61  87 117 156 207 256 305 370
#     4  11  24  38  57  91 127 158 200 256 311 368
#     4  11  24  41  65  95 129 167 213 268 328 391
#     4  10  22  40  62  89 121 159 203 252 306 366
#     4  10  21  40  65  89 119 163 210 255 314 381
#     4  10  21  39  62  86 120 164 208 250 301 372
#
# _framework density 22.296866999999999
#
# number of rings (size 3 to 8) (size 9 to 14) (size 15 to 20)
#    0.000    1.846    0.000    2.769    2.154    8.615 
#    0.000    0.000    0.000    0.000    0.000    0.000 
#    0.000    0.000    0.000    0.000    0.000    0.000 
#
# Total GULP energy -144778.700578 kJ/mol
# GULP energy per Si atom -5568.411561 kJ/mol
# Density = 2.224612 g / cm^3
# Si number density = 22.296867 Si / 1000 Ang^3
#
#
#
# Elastic Constant Matrix: (Units=GPa)
#
#
# Indices 1 2 3 4 5 6 
#
# 1 99.3029 7.1584 8.4983 0.0000 20.4681 0.0000
# 2 7.1584 37.7528 2.8583 0.0000 7.1695 0.0000
# 3 8.4983 2.8583 122.5664 0.0000 28.9516 0.0000
# 4 0.0000 0.0000 0.0000 6.9365 0.0000 -34.4528
# 5 20.4681 7.1695 28.9516 0.0000 35.6573 0.0000
# 6 0.0000 0.0000 0.0000 -34.4528 0.0000 -56.4381
#
#
#
# Elastic Compliance Matrix: (Units=1/GPa)
#
#
# Indices 1 2 3 4 5 6 
#
# 1 0.011538 -0.000892 0.000919 0.000000 -0.007190 0.000000
# 2 -0.000892 0.027676 0.000755 0.000000 -0.005666 0.000000
# 3 0.000919 0.000755 0.010193 0.000000 -0.008955 0.000000
# 4 0.000000 0.000000 0.000000 0.035755 0.000000 -0.021827
# 5 -0.007190 -0.005666 -0.008955 0.000000 0.040582 0.000000
# 6 0.000000 0.000000 0.000000 -0.021827 0.000000 -0.004394
#
#
# Mechanical properties :
#
#
# Convention : Reuss Voigt Hill
#
# Bulk Modulus (GPa) = 19.61913 32.96134 26.29023
# Shear Modulus (GPa) = 36.55623 13.30495 24.93059
#
# Velocity S-wave (km/s) = 4.05350 2.44543 3.34746
# Velocity P-wave (km/s) = 5.54310 4.77374 5.17274
#
# Compressibility (1/GPa) = 0.05097067
#
# Stress axis : x y z
#
# Youngs Moduli (GPa) = 86.67157 36.13238 98.10773
#
# Poissons Ratio (x) = 0.03223 -0.09018
# Poissons Ratio (y) = 0.07730 -0.07404
# Poissons Ratio (z) = -0.07966 -0.02727
#
# Static dielectric constant tensor:
#      x y z
#    x 1.837770 0.000000 0.006250 
#    y 0.000000 1.858360 0.000000 
#    z 0.006250 0.000000 1.808080 
# 
# From -- ./inp_files/26203.got.cif
#   From: 2010.05.17/outbox.cif.g08.bks.cpg/sg11_14_cif.got.tgz:26203.got - 2010.06.03 12:22:45.
