data_PCOD9165547
_publ_section_title
;
Structure prediction by ZEFSAII (Michael W. Deem and Ramdas Pophale) SiO2 
 PCOD9165547
Probable space group: P 21/M
;
_chemical_formula_sum "Si O2"
_cell_formula_units_Z 32
_cell_length_a 17.759809
_cell_length_b 21.990512
_cell_length_c 11.120676
_cell_angle_alpha 90.000000
_cell_angle_beta 22.560458
_cell_angle_gamma 90.000000
_cell_volume 1666.284592
_symmetry_space_group_name_H-M "P 21/M"
_symmetry_group_IT_number 11
_symmetry_cell_setting 'monoclinic'
loop_
_space_group_symop_operation_xyz
x,y,z
-x,1/2+y,-z
-x,-y,-z
x,1/2-y,z
loop_
_atom_site_type_symbol
_atom_site_label
_atom_site_fract_x
_atom_site_fract_y
_atom_site_fract_z
Si Si1 0.393579 0.183031 0.362774
Si Si2 0.278612 0.015243 0.288527
Si Si3 0.264955 0.914697 0.123832
Si Si4 0.073100 0.318398 0.328337
Si Si5 0.703037 0.863338 0.239772
Si Si6 0.914455 0.990363 0.994166
Si Si7 0.741550 0.104772 0.135436
Si Si8 0.154743 0.345299 0.477523
O O1 0.490133 0.250000 0.227449
O O2 0.282933 0.173127 0.653962
O O3 0.266186 0.181777 0.428636
O O4 0.541135 0.125746 0.138081
O O5 0.254489 0.978868 0.202012
O O6 0.109133 0.990076 0.625125
O O7 0.236933 0.086329 0.343576
O O8 0.500000 0.000000 0.000000
O O9 0.090501 0.870303 0.419843
O O10 0.252108 0.927330 0.002877
O O11 0.994548 0.250000 0.428766
O O12 0.172761 0.319103 0.315434
O O13 0.193898 0.334994 0.029756
O O14 0.473214 0.866954 0.542356
O O15 0.790173 0.930063 0.145662
O O16 0.786566 0.051111 0.160821
O O17 0.000000 0.000000 0.000000
O O18 0.924751 0.151083 0.855638
#
# Coordination Sequence:
#
# PCOD9165547 Si02
#       8
#     4   4   4   4   4   4   4   4
#     4  11  22  41  63  85 117 166 208 241 292 369
#     4  11  21  37  62  93 121 149 195 253 307 361
#     4  10  21  39  63  88 116 156 204 246 301 358
#     4  11  23  40  59  89 123 156 200 254 298 348
#     4  11  22  39  60  89 121 158 204 248 303 356
#     4  11  23  37  58  89 127 158 191 245 314 368
#     4   9  22  37  59  85 118 159 198 238 299 369
#     4  10  22  39  63  87 120 158 200 247 301 363
#
# _framework density 19.204404
#
# number of rings (size 3 to 8) (size 9 to 14) (size 15 to 20)
#    0.000    1.500    2.500    3.000    3.500    2.500 
#    0.000    1.875    0.000    0.000    0.000    0.000 
#    0.000    0.000    0.000    0.000    0.000    0.000 
#
# Total GULP energy -178350.856999 kJ/mol
# GULP energy per Si atom -5573.464281 kJ/mol
# Density = 1.916069 g / cm^3
# Si number density = 19.204404 Si / 1000 Ang^3
#
#
#
# Elastic Constant Matrix: (Units=GPa)
#
#
# Indices 1 2 3 4 5 6 
#
# 1 116.4014 20.6354 25.8478 0.0000 12.7722 0.0000
# 2 20.6354 77.7088 15.4812 0.0000 8.8640 0.0000
# 3 25.8478 15.4812 62.2343 0.0000 5.7466 0.0000
# 4 0.0000 0.0000 0.0000 5.7660 0.0000 1.9696
# 5 12.7722 8.8640 5.7466 0.0000 28.4917 0.0000
# 6 0.0000 0.0000 0.0000 1.9696 0.0000 11.2608
#
#
#
# Elastic Compliance Matrix: (Units=1/GPa)
#
#
# Indices 1 2 3 4 5 6 
#
# 1 0.010001 -0.001592 -0.003454 0.000000 -0.003291 0.000000
# 2 -0.001592 0.014165 -0.002569 0.000000 -0.003175 0.000000
# 3 -0.003454 -0.002569 0.018265 0.000000 -0.001336 0.000000
# 4 0.000000 0.000000 0.000000 0.184449 0.000000 -0.032262
# 5 -0.003291 -0.003175 -0.001336 0.000000 0.037831 0.000000
# 6 0.000000 0.000000 0.000000 -0.032262 0.000000 0.094446
#
#
# Mechanical properties :
#
#
# Convention : Reuss Voigt Hill
#
# Bulk Modulus (GPa) = 36.76300 42.25260 39.50780
# Shear Modulus (GPa) = 13.03930 22.06237 17.55083
#
# Velocity S-wave (km/s) = 2.60854 3.39310 3.02635
# Velocity P-wave (km/s) = 5.31575 6.11556 5.72963
#
# Compressibility (1/GPa) = 0.02720126
#
# Stress axis : x y z
#
# Youngs Moduli (GPa) = 99.98650 70.59452 54.74863
#
# Poissons Ratio (x) = 0.11241 0.18909
# Poissons Ratio (y) = 0.15921 0.14066
# Poissons Ratio (z) = 0.34534 0.18137
#
# Static dielectric constant tensor:
#      x y z
#    x 2.313590 0.000000 0.241020 
#    y 0.000000 1.699160 0.000000 
#    z 0.241020 0.000000 1.793100 
# 
# From -- ./inp_files/23350.got.cif
#   From: 2010.05.17/outbox.cif.g08.bks.cpg/sg11_12_cif.got.tgz:23350.got - 2010.06.03 12:22:45.
