data_PCOD9165549
_publ_section_title
;
Structure prediction by ZEFSAII (Michael W. Deem and Ramdas Pophale) SiO2 
 PCOD9165549
Probable space group: P 21/M
;
_chemical_formula_sum "Si O2"
_cell_formula_units_Z 26
_cell_length_a 20.085901
_cell_length_b 7.762510
_cell_length_c 8.801919
_cell_angle_alpha 90.000000
_cell_angle_beta 122.434220
_cell_angle_gamma 90.000000
_cell_volume 1158.289964
_symmetry_space_group_name_H-M "P 21/M"
_symmetry_group_IT_number 11
_symmetry_cell_setting 'monoclinic'
loop_
_space_group_symop_operation_xyz
x,y,z
-x,1/2+y,-z
-x,-y,-z
x,1/2-y,z
loop_
_atom_site_type_symbol
_atom_site_label
_atom_site_fract_x
_atom_site_fract_y
_atom_site_fract_z
Si Si1 0.000000 0.000000 0.500000
Si Si2 0.225415 0.956802 0.496527
Si Si3 0.680010 0.546977 0.888145
Si Si4 0.050555 0.543781 0.212192
Si Si5 0.529196 0.455466 0.869000
Si Si6 0.825431 0.548509 0.238629
Si Si7 0.381305 0.455855 0.501677
O O1 0.019759 0.026369 0.336995
O O2 0.907981 0.043996 0.357638
O O3 0.226471 0.750000 0.512721
O O4 0.143408 0.005491 0.311144
O O5 0.218964 0.037321 0.655428
O O6 0.305353 0.012828 0.513383
O O7 0.693799 0.750000 0.880215
O O8 0.614956 0.528265 0.938470
O O9 0.641234 0.471046 0.690030
O O10 0.764877 0.477611 0.040724
O O11 0.046518 0.750000 0.225851
O O12 0.000000 0.500000 0.000000
O O13 0.534468 0.250000 0.861387
O O14 0.462405 0.524018 0.671532
O O15 0.500000 0.500000 0.000000
O O16 0.847115 0.750000 0.235139
O O17 0.392161 0.250000 0.500886
#
# Coordination Sequence:
#
# PCOD9165549 Si02
#       7
#     2   4   4   4   4   4   4
#     4  10  22  40  64  94 126 162 214 268 318 376
#     4  10  22  39  58  87 121 156 200 250 304 362
#     4  10  22  39  61  89 118 154 200 249 301 361
#     4  10  23  40  62  92 126 165 212 264 322 385
#     4  11  23  39  60  88 120 158 200 243 299 359
#     4  10  21  39  63  88 118 158 204 251 308 369
#     4  10  22  39  61  87 120 159 199 246 301 363
#
# _framework density 22.446884000000001
#
# number of rings (size 3 to 8) (size 9 to 14) (size 15 to 20)
#    0.000    1.846    0.000    2.769    2.154   10.462 
#    0.000    0.000    0.000    0.000    0.000    0.000 
#    0.000    0.000    0.000    0.000    0.000    0.000 
#
# Total GULP energy -144761.077343 kJ/mol
# GULP energy per Si atom -5567.733744 kJ/mol
# Density = 2.239579 g / cm^3
# Si number density = 22.446884 Si / 1000 Ang^3
#
#
#
# Elastic Constant Matrix: (Units=GPa)
#
#
# Indices 1 2 3 4 5 6 
#
# 1 84.0426 -20.5190 31.6766 0.0000 16.7322 0.0000
# 2 -20.5190 36.1871 12.5115 0.0000 2.6313 0.0000
# 3 31.6766 12.5115 163.9268 0.0000 29.3418 0.0000
# 4 0.0000 0.0000 0.0000 13.7706 0.0000 -1.5771
# 5 16.7322 2.6313 29.3418 0.0000 31.1283 0.0000
# 6 0.0000 0.0000 0.0000 -1.5771 0.0000 -25.4933
#
#
#
# Elastic Compliance Matrix: (Units=1/GPa)
#
#
# Indices 1 2 3 4 5 6 
#
# 1 0.017230 0.011301 -0.002843 0.000000 -0.007537 0.000000
# 2 0.011301 0.035800 -0.003954 0.000000 -0.005373 0.000000
# 3 -0.002843 -0.003954 0.007961 0.000000 -0.005642 0.000000
# 4 0.000000 0.000000 0.000000 0.072108 0.000000 -0.004461
# 5 -0.007537 -0.005373 -0.005642 0.000000 0.041949 0.000000
# 6 0.000000 0.000000 0.000000 -0.004461 0.000000 -0.038950
#
#
# Mechanical properties :
#
#
# Convention : Reuss Voigt Hill
#
# Bulk Modulus (GPa) = 14.28605 36.83273 25.55939
# Shear Modulus (GPa) = 33.23954 21.24696 27.24325
#
# Velocity S-wave (km/s) = 3.85230 3.07993 3.48757
# Velocity P-wave (km/s) = 5.11519 5.39374 5.25631
#
# Compressibility (1/GPa) = 0.06999833
#
# Stress axis : x y z
#
# Youngs Moduli (GPa) = 58.03865 27.93301 125.60728
#
# Poissons Ratio (x) = -0.31566 0.35709
# Poissons Ratio (y) = -0.65588 0.49669
# Poissons Ratio (z) = 0.16500 0.11046
#
# Static dielectric constant tensor:
#      x y z
#    x 1.779460 0.000000 -0.009150 
#    y 0.000000 1.982970 0.000000 
#    z -0.009150 0.000000 1.865100 
# 
# From -- ./inp_files/26201.got.cif
#   From: 2010.05.17/outbox.cif.g08.bks.cpg/sg11_14_cif.got.tgz:26201.got - 2010.06.03 12:22:45.
