data_PCOD9165333
_publ_section_title
;
Structure prediction by ZEFSAII (Michael W. Deem and Ramdas Pophale) SiO2 
 PCOD9165333
Probable space group: P 21/M
;
_chemical_formula_sum "Si O2"
_cell_formula_units_Z 24
_cell_length_a 15.287834
_cell_length_b 14.083974
_cell_length_c 8.758447
_cell_angle_alpha 90.000000
_cell_angle_beta 39.301284
_cell_angle_gamma 90.000000
_cell_volume 1194.469635
_symmetry_space_group_name_H-M "P 21/M"
_symmetry_group_IT_number 11
_symmetry_cell_setting 'monoclinic'
loop_
_space_group_symop_operation_xyz
x,y,z
-x,1/2+y,-z
-x,-y,-z
x,1/2-y,z
loop_
_atom_site_type_symbol
_atom_site_label
_atom_site_fract_x
_atom_site_fract_y
_atom_site_fract_z
Si Si1 0.240805 0.857196 0.316463
Si Si2 0.074648 0.566099 0.275435
Si Si3 0.446852 0.138130 0.051849
Si Si4 0.493761 0.637737 0.384185
Si Si5 0.180007 0.046105 0.563671
Si Si6 0.723757 0.977101 0.237773
O O1 0.234490 0.750000 0.386971
O O2 0.163024 0.862813 0.259750
O O3 0.175912 0.935372 0.517059
O O4 0.402996 0.881840 0.078360
O O5 0.000000 0.500000 0.500000
O O6 0.950984 0.599412 0.332657
O O7 0.178274 0.505069 0.033342
O O8 0.420781 0.250000 0.103574
O O9 0.321766 0.084293 0.299230
O O10 0.461613 0.118120 0.851335
O O11 0.465757 0.750000 0.436966
O O12 0.364535 0.570468 0.596694
O O13 0.616321 0.603059 0.329153
O O14 0.190186 0.053483 0.730814
#
# Coordination Sequence:
#
# PCOD9165333 Si02
#       6
#     4   4   4   4   4   4
#     4  10  21  38  62  90 122 163 207 249 302 364
#     4  10  23  41  60  86 122 165 205 247 304 367
#     4  10  21  39  64  92 122 162 206 254 307 365
#     4  10  22  39  61  92 126 159 203 256 310 362
#     4  11  22  39  65  90 127 159 207 252 309 365
#     4  11  23  38  63  92 124 162 203 258 308 361
#
# _framework density 20.092600000000001
#
# number of rings (size 3 to 8) (size 9 to 14) (size 15 to 20)
#    0.000    1.667    1.667    3.000    4.667    2.000 
#    0.000    5.000    0.000    6.000    0.000    0.000 
#    0.000    0.000    0.000    0.000    0.000    0.000 
#
# Total GULP energy -134054.655702 kJ/mol
# GULP energy per Si atom -5585.610654 kJ/mol
# Density = 2.004687 g / cm^3
# Si number density = 20.092600 Si / 1000 Ang^3
#
#
#
# Elastic Constant Matrix: (Units=GPa)
#
#
# Indices 1 2 3 4 5 6 
#
# 1 122.7575 23.2561 0.4848 0.0000 -5.7875 0.0000
# 2 23.2561 58.8233 8.5166 0.0000 5.9379 0.0000
# 3 0.4848 8.5166 42.4702 0.0000 15.9042 0.0000
# 4 0.0000 0.0000 0.0000 -2.1350 0.0000 4.8627
# 5 -5.7875 5.9379 15.9042 0.0000 27.1181 0.0000
# 6 0.0000 0.0000 0.0000 4.8627 0.0000 23.3900
#
#
#
# Elastic Compliance Matrix: (Units=1/GPa)
#
#
# Indices 1 2 3 4 5 6 
#
# 1 0.009011 -0.003800 -0.000477 0.000000 0.003035 0.000000
# 2 -0.003800 0.019221 -0.002475 0.000000 -0.003568 0.000000
# 3 -0.000477 -0.002475 0.030604 0.000000 -0.017509 0.000000
# 4 0.000000 0.000000 0.000000 -0.317872 0.000000 0.066085
# 5 0.003035 -0.003568 -0.017509 0.000000 0.048573 0.000000
# 6 0.000000 0.000000 0.000000 0.066085 0.000000 0.029014
#
#
# Mechanical properties :
#
#
# Convention : Reuss Voigt Hill
#
# Bulk Modulus (GPa) = 22.05947 32.06289 27.06118
# Shear Modulus (GPa) = -32.71525 22.46086 -5.12719
#
# Velocity S-wave (km/s) = -4.03950 3.34708 -1.59916
# Velocity P-wave (km/s) = 3.27934 5.56143 3.17611
#
# Compressibility (1/GPa) = 0.04533200
#
# Stress axis : x y z
#
# Youngs Moduli (GPa) = 110.97572 52.02687 32.67513
#
# Poissons Ratio (x) = 0.19769 0.01560
# Poissons Ratio (y) = 0.42168 0.08086
# Poissons Ratio (z) = 0.05299 0.12875
#
# Static dielectric constant tensor:
#      x y z
#    x 1.707300 0.000000 -0.044070 
#    y 0.000000 1.695020 0.000000 
#    z -0.044070 0.000000 1.655290 
# 
# From -- ./inp_files/21991.got.cif
#   From: 2010.05.17/outbox.cif.g08.bks.cpg/sg11_11_cif.got.tgz:21991.got - 2010.06.03 12:22:45.
