data_PCOD9165570
_publ_section_title
;
Structure prediction by ZEFSAII (Michael W. Deem and Ramdas Pophale) SiO2 
 PCOD9165570
Probable space group: P 21/M
;
_chemical_formula_sum "Si O2"
_cell_formula_units_Z 20
_cell_length_a 14.157697
_cell_length_b 10.419375
_cell_length_c 19.760138
_cell_angle_alpha 90.000000
_cell_angle_beta 162.613337
_cell_angle_gamma 90.000000
_cell_volume 871.027710
_symmetry_space_group_name_H-M "P 21/M"
_symmetry_group_IT_number 11
_symmetry_cell_setting 'monoclinic'
loop_
_space_group_symop_operation_xyz
x,y,z
-x,1/2+y,-z
-x,-y,-z
x,1/2-y,z
loop_
_atom_site_type_symbol
_atom_site_label
_atom_site_fract_x
_atom_site_fract_y
_atom_site_fract_z
Si Si1 0.097557 0.106306 0.895718
Si Si2 0.262529 0.386585 0.852689
Si Si3 0.214914 0.528893 0.582040
Si Si4 0.778937 0.897134 0.767733
Si Si5 0.458119 0.887783 0.304904
O O1 0.988639 0.250000 0.841272
O O2 0.452381 0.089329 0.167912
O O3 0.130224 0.099973 0.837623
O O4 0.886277 0.990446 0.780009
O O5 0.433899 0.250000 0.966383
O O6 0.991675 0.389456 0.611193
O O7 0.500000 0.500000 0.000000
O O8 0.317021 0.407539 0.606010
O O9 0.000000 0.500000 0.500000
O O10 0.677787 0.750000 0.683589
O O11 0.540133 0.985301 0.647694
O O12 0.099415 0.884036 0.031379
O O13 0.528102 0.750000 0.385734
#
# Coordination Sequence:
#
# PCOD9165570 Si02
#       5
#     4   4   4   4   4
#     4  10  21  39  63  91 124 162 203 253 309 364
#     4  11  24  41  61  91 126 165 208 256 308 370
#     4  11  22  39  63  92 125 164 208 253 309 365
#     4   9  18  35  60  89 121 160 203 251 308 367
#     4   9  19  34  58  91 123 158 204 255 305 366
#
# _framework density 22.961380999999999
#
# number of rings (size 3 to 8) (size 9 to 14) (size 15 to 20)
#    0.000    2.000    2.000    1.200    0.000    8.800 
#    0.000    1.000    0.000    0.000    0.000    0.000 
#    0.000    0.000    0.000    0.000    0.000    0.000 
#
# Total GULP energy -111737.152143 kJ/mol
# GULP energy per Si atom -5586.857607 kJ/mol
# Density = 2.290912 g / cm^3
# Si number density = 22.961381 Si / 1000 Ang^3
#
#
#
# Elastic Constant Matrix: (Units=GPa)
#
#
# Indices 1 2 3 4 5 6 
#
# 1 144.4099 98.4797 30.6918 0.0000 2.0812 0.0000
# 2 98.4797 250.1061 37.2445 0.0000 16.0023 0.0000
# 3 30.6918 37.2445 103.5318 0.0000 -8.6054 0.0000
# 4 0.0000 0.0000 0.0000 -0.6106 0.0000 -1.9068
# 5 2.0812 16.0023 -8.6054 0.0000 38.4065 0.0000
# 6 0.0000 0.0000 0.0000 -1.9068 0.0000 24.1067
#
#
#
# Elastic Compliance Matrix: (Units=1/GPa)
#
#
# Indices 1 2 3 4 5 6 
#
# 1 0.009723 -0.003644 -0.001517 0.000000 0.000652 0.000000
# 2 -0.003644 0.005771 -0.001201 0.000000 -0.002476 0.000000
# 3 -0.001517 -0.001201 0.010790 0.000000 0.003000 0.000000
# 4 0.000000 0.000000 0.000000 -1.313368 0.000000 -0.103888
# 5 0.000652 -0.002476 0.003000 0.000000 0.027706 0.000000
# 6 0.000000 0.000000 0.000000 -0.103888 0.000000 0.033265
#
#
# Mechanical properties :
#
#
# Convention : Reuss Voigt Hill
#
# Bulk Modulus (GPa) = 73.75663 92.31999 83.03831
# Shear Modulus (GPa) = -4.13610 34.48932 15.17661
#
# Velocity S-wave (km/s) = -1.34359 3.87984 2.57371
# Velocity P-wave (km/s) = 5.45754 7.76948 6.71378
#
# Compressibility (1/GPa) = 0.01355810
#
# Stress axis : x y z
#
# Youngs Moduli (GPa) = 102.84972 173.29450 92.67643
#
# Poissons Ratio (x) = 0.63151 0.14061
# Poissons Ratio (y) = 0.37480 0.11134
# Poissons Ratio (z) = 0.15605 0.20819
#
# Static dielectric constant tensor:
#      x y z
#    x 1.839520 0.000000 -0.004790 
#    y 0.000000 1.852540 0.000000 
#    z -0.004790 0.000000 1.853350 
# 
# From -- ./inp_files/65314.got.cif
#   From: 2010.05.17/outbox.cif.g08.bks.cpg/sg11_33_cif.got.tgz:65314.got - 2010.06.03 12:22:45.
