data_PCOD9165168
_publ_section_title
;
Structure prediction by ZEFSAII (Michael W. Deem and Ramdas Pophale) SiO2 
 PCOD9165168
Probable space group: P 21/M
;
_chemical_formula_sum "Si O2"
_cell_formula_units_Z 24
_cell_length_a 15.728729
_cell_length_b 8.751736
_cell_length_c 18.378530
_cell_angle_alpha 90.000000
_cell_angle_beta 31.023179
_cell_angle_gamma 90.000000
_cell_volume 1303.857758
_symmetry_space_group_name_H-M "P 21/M"
_symmetry_group_IT_number 11
_symmetry_cell_setting 'monoclinic'
loop_
_space_group_symop_operation_xyz
x,y,z
-x,1/2+y,-z
-x,-y,-z
x,1/2-y,z
loop_
_atom_site_type_symbol
_atom_site_label
_atom_site_fract_x
_atom_site_fract_y
_atom_site_fract_z
Si Si1 0.474750 0.933423 0.098138
Si Si2 0.656851 0.433688 0.582739
Si Si3 0.991691 0.567686 0.086847
Si Si4 0.664785 0.565908 0.415589
Si Si5 0.318346 0.067669 0.915157
Si Si6 0.833431 0.932607 0.589083
O O1 0.453785 0.750000 0.111738
O O2 0.624222 0.966238 0.044587
O O3 0.315144 0.010042 0.250970
O O4 0.500000 0.000000 0.000000
O O5 0.669745 0.250000 0.572082
O O6 0.677108 0.501824 0.488081
O O7 0.475183 0.471837 0.748759
O O8 0.789529 0.501415 0.541727
O O9 0.989042 0.750000 0.083419
O O10 0.825175 0.519855 0.250952
O O11 0.000000 0.500000 0.000000
O O12 0.153697 0.515478 0.011452
O O13 0.500000 0.500000 0.500000
O O14 0.656564 0.750000 0.423099
O O15 0.293449 0.250000 0.927032
O O16 0.839732 0.750000 0.582069
O O17 0.000000 0.000000 0.500000
#
# Coordination Sequence:
#
# PCOD9165168 Si02
#       6
#     4   4   4   4   4   4
#     4  10  21  38  59  86 119 155 195 241 289 343
#     4  10  21  39  61  86 115 149 190 238 288 344
#     4  11  24  39  58  84 114 146 186 232 280 336
#     4  11  24  40  58  85 116 150 191 236 285 341
#     4   9  20  38  59  83 113 147 187 232 281 335
#     4  11  22  38  60  86 117 155 196 241 292 347
#
# _framework density 18.406915999999999
#
# number of rings (size 3 to 8) (size 9 to 14) (size 15 to 20)
#    0.000    1.667    0.000    5.500    0.000   12.000 
#    0.000    3.333    0.000    0.000    0.000    0.000 
#    0.000    0.000    0.000    0.000    0.000    0.000 
#
# Total GULP energy -134139.186687 kJ/mol
# GULP energy per Si atom -5589.132779 kJ/mol
# Density = 1.836502 g / cm^3
# Si number density = 18.406916 Si / 1000 Ang^3
#
#
#
# Elastic Constant Matrix: (Units=GPa)
#
#
# Indices 1 2 3 4 5 6 
#
# 1 193.8005 79.4250 119.3308 0.0000 4.9043 0.0000
# 2 79.4250 94.1178 64.8062 0.0000 -2.4550 0.0000
# 3 119.3308 64.8062 123.4229 0.0000 -0.4009 0.0000
# 4 0.0000 0.0000 0.0000 33.9084 0.0000 -0.5851
# 5 4.9043 -2.4550 -0.4009 0.0000 42.3774 0.0000
# 6 0.0000 0.0000 0.0000 -0.5851 0.0000 40.8595
#
#
#
# Elastic Compliance Matrix: (Units=1/GPa)
#
#
# Indices 1 2 3 4 5 6 
#
# 1 0.013714 -0.003898 -0.011218 0.000000 -0.001919 0.000000
# 2 -0.003898 0.017783 -0.005564 0.000000 0.001429 0.000000
# 3 -0.011218 -0.005564 0.021874 0.000000 0.001183 0.000000
# 4 0.000000 0.000000 0.000000 0.029498 0.000000 0.000422
# 5 -0.001919 0.001429 0.001183 0.000000 0.023914 0.000000
# 6 0.000000 0.000000 0.000000 0.000422 0.000000 0.024480
#
#
# Mechanical properties :
#
#
# Convention : Reuss Voigt Hill
#
# Bulk Modulus (GPa) = 83.26535 104.27391 93.76963
# Shear Modulus (GPa) = 28.30826 33.28102 30.79464
#
# Velocity S-wave (km/s) = 3.92588 4.25676 4.09466
# Velocity P-wave (km/s) = 8.11691 8.99623 8.56786
#
# Compressibility (1/GPa) = 0.01200980
#
# Stress axis : x y z
#
# Youngs Moduli (GPa) = 72.91912 56.23365 45.71666
#
# Poissons Ratio (x) = 0.21922 0.51287
# Poissons Ratio (y) = 0.28427 0.25435
# Poissons Ratio (z) = 0.81804 0.31286
#
# Static dielectric constant tensor:
#      x y z
#    x 1.615310 0.000000 0.001680 
#    y 0.000000 1.612860 0.000000 
#    z 0.001680 0.000000 1.589330 
# 
# From -- ./inp_files/29140.got.cif
#   From: 2010.05.17/outbox.cif.g08.bks.cpg/sg11_15_cif.got.tgz:29140.got - 2010.06.03 12:22:45.
