data_PCOD9165380
_publ_section_title
;
Structure prediction by ZEFSAII (Michael W. Deem and Ramdas Pophale) SiO2 
 PCOD9165380
Probable space group: P 21/M
;
_chemical_formula_sum "Si O2"
_cell_formula_units_Z 28
_cell_length_a 9.031955
_cell_length_b 32.384629
_cell_length_c 5.079123
_cell_angle_alpha 90.000000
_cell_angle_beta 126.490751
_cell_angle_gamma 90.000000
_cell_volume 1194.373094
_symmetry_space_group_name_H-M "P 21/M"
_symmetry_group_IT_number 11
_symmetry_cell_setting 'monoclinic'
loop_
_space_group_symop_operation_xyz
x,y,z
-x,1/2+y,-z
-x,-y,-z
x,1/2-y,z
loop_
_atom_site_type_symbol
_atom_site_label
_atom_site_fract_x
_atom_site_fract_y
_atom_site_fract_z
Si Si1 0.279731 0.523578 0.031534
Si Si2 0.667211 0.944481 0.578865
Si Si3 0.588837 0.794347 0.665933
Si Si4 0.854949 0.614152 0.408702
Si Si5 0.856657 0.068888 0.594130
Si Si6 0.152557 0.296027 0.559209
Si Si7 0.519947 0.376732 0.258627
O O1 0.264933 0.478075 0.138177
O O2 0.499604 0.533517 0.240723
O O3 0.193485 0.552752 0.169412
O O4 0.178550 0.531807 0.650123
O O5 0.827830 0.923598 0.581041
O O6 0.564230 0.907479 0.615887
O O7 0.496944 0.750000 0.602238
O O8 0.683731 0.796425 0.482884
O O9 0.456943 0.832139 0.589638
O O10 0.757014 0.796564 0.054376
O O11 0.942333 0.658731 0.577749
O O12 0.958743 0.594106 0.271001
O O13 0.642869 0.625150 0.124224
O O14 0.701677 0.102279 0.347201
O O15 0.061864 0.250000 0.432975
#
# Coordination Sequence:
#
# PCOD9165380 Si02
#       7
#     4   4   4   4   4   4   4
#     4  10  24  41  57  86 117 154 191 249 280 343
#     4  10  21  38  64  79 117 156 197 230 302 332
#     4   9  17  31  56  83 109 144 185 227 279 336
#     4  11  22  37  62  87 111 158 189 236 286 350
#     4  11  25  39  58  85 120 146 196 239 287 330
#     4   9  18  33  55  85 113 143 186 231 277 340
#     4  10  21  39  58  85 115 152 188 240 278 351
#
# _framework density 23.443258
#
# number of rings (size 3 to 8) (size 9 to 14) (size 15 to 20)
#    0.000    2.000    2.857    0.000    4.000    2.857 
#    0.000    0.714    0.000    0.000    0.000   12.000 
#    0.000    0.000    0.000    0.000    0.000    0.000 
#
# Total GULP energy -156341.771725 kJ/mol
# GULP energy per Si atom -5583.634704 kJ/mol
# Density = 2.338990 g / cm^3
# Si number density = 23.443258 Si / 1000 Ang^3
#
#
#
# Elastic Constant Matrix: (Units=GPa)
#
#
# Indices 1 2 3 4 5 6 
#
# 1 73.9601 35.9783 16.3772 0.0000 -1.4445 0.0000
# 2 35.9783 164.7712 -2.2718 0.0000 13.8212 0.0000
# 3 16.3772 -2.2718 48.0872 0.0000 -3.2411 0.0000
# 4 0.0000 0.0000 0.0000 22.1279 0.0000 -14.6287
# 5 -1.4445 13.8212 -3.2411 0.0000 23.3097 0.0000
# 6 0.0000 0.0000 0.0000 -14.6287 0.0000 26.2895
#
#
#
# Elastic Compliance Matrix: (Units=1/GPa)
#
#
# Indices 1 2 3 4 5 6 
#
# 1 0.016763 -0.003956 -0.005721 0.000000 0.002589 0.000000
# 2 -0.003956 0.007321 0.001397 0.000000 -0.004391 0.000000
# 3 -0.005721 0.001397 0.022945 0.000000 0.002007 0.000000
# 4 0.000000 0.000000 0.000000 0.071491 0.000000 0.039781
# 5 0.002589 -0.004391 0.002007 0.000000 0.045944 0.000000
# 6 0.000000 0.000000 0.000000 0.039781 0.000000 0.060174
#
#
# Mechanical properties :
#
#
# Convention : Reuss Voigt Hill
#
# Bulk Modulus (GPa) = 32.82133 42.99842 37.90988
# Shear Modulus (GPa) = 19.89225 30.12775 25.01000
#
# Velocity S-wave (km/s) = 2.91611 3.58877 3.26978
# Velocity P-wave (km/s) = 5.03676 5.96269 5.51918
#
# Compressibility (1/GPa) = 0.03046799
#
# Stress axis : x y z
#
# Youngs Moduli (GPa) = 59.65585 136.60245 43.58170
#
# Poissons Ratio (x) = 0.54044 0.24935
# Poissons Ratio (y) = 0.23601 -0.06089
# Poissons Ratio (z) = 0.34131 -0.19087
#
# Static dielectric constant tensor:
#      x y z
#    x 1.829850 0.000000 0.011840 
#    y 0.000000 1.964630 0.000000 
#    z 0.011840 0.000000 1.978510 
# 
# From -- ./inp_files/3322.got.cif
#   From: 2010.05.17/outbox.cif.g08.bks.cpg/sg11_2_cif.got.tgz:3322.got - 2010.06.03 12:22:45.
