data_PCOD9165852
_publ_section_title
;
Structure prediction by ZEFSAII (Michael W. Deem and Ramdas Pophale) SiO2 
 PCOD9165852
Probable space group: P 21/M
;
_chemical_formula_sum "Si O2"
_cell_formula_units_Z 28
_cell_length_a 29.296121
_cell_length_b 9.268930
_cell_length_c 29.352105
_cell_angle_alpha 90.000000
_cell_angle_beta 169.924031
_cell_angle_gamma 90.000000
_cell_volume 1394.448023
_symmetry_space_group_name_H-M "P 21/M"
_symmetry_group_IT_number 11
_symmetry_cell_setting 'monoclinic'
loop_
_space_group_symop_operation_xyz
x,y,z
-x,1/2+y,-z
-x,-y,-z
x,1/2-y,z
loop_
_atom_site_type_symbol
_atom_site_label
_atom_site_fract_x
_atom_site_fract_y
_atom_site_fract_z
Si Si1 0.046220 0.428820 0.495881
Si Si2 0.796452 0.921308 0.550002
Si Si3 0.730730 0.250000 0.781882
Si Si4 0.129554 0.593530 0.286724
Si Si5 0.660500 0.954119 0.757567
Si Si6 0.330699 0.925188 0.026669
Si Si7 0.266161 0.250000 0.253737
Si Si8 0.426424 0.072723 0.025105
O O1 0.046346 0.250000 0.496376
O O2 0.000000 0.500000 0.500000
O O3 0.818189 0.496539 0.240445
O O4 0.316925 0.496744 0.743771
O O5 0.799543 0.750000 0.556508
O O6 0.038557 0.960717 0.755498
O O7 0.835942 0.981497 0.639108
O O8 0.526467 0.961155 0.260409
O O9 0.683005 0.118488 0.767943
O O10 0.523250 0.250000 0.537035
O O11 0.016915 0.250000 0.041230
O O12 0.137738 0.750000 0.317217
O O13 0.370781 0.583435 0.488847
O O14 0.865581 0.581920 0.998467
O O15 0.732608 0.880784 0.780537
O O16 0.349013 0.750000 0.035546
O O17 0.407943 0.019339 0.059071
O O18 0.427673 0.250000 0.022085
#
# Coordination Sequence:
#
# PCOD9165852 Si02
#       8
#     4   4   2   4   4   4   2   4
#     4  12  25  44  67  97 136 184 233 286 342 404
#     4  10  23  39  65  92 125 162 211 264 311 381
#     4  12  26  40  68  94 118 162 200 256 296 366
#     4  12  24  43  63  90 125 165 200 251 312 369
#     4  12  25  42  65  92 123 160 203 250 303 370
#     4  10  21  41  62  94 127 168 212 263 328 384
#     4  12  22  46  62  92 128 154 204 244 314 356
#     4  12  25  42  68 100 137 179 227 284 338 405
#
# _framework density 20.079630999999999
#
# number of rings (size 3 to 8) (size 9 to 14) (size 15 to 20)
#    0.000    0.571    1.429    7.286    2.000    2.286 
#    0.000    0.000    0.000    0.000    0.000    0.000 
#    0.000    0.000    0.000    0.000    0.000    0.000 
#
# Total GULP energy -156465.439150 kJ/mol
# GULP energy per Si atom -5588.051398 kJ/mol
# Density = 2.003393 g / cm^3
# Si number density = 20.079631 Si / 1000 Ang^3
#
#
#
# Elastic Constant Matrix: (Units=GPa)
#
#
# Indices 1 2 3 4 5 6 
#
# 1 49.4590 14.4584 -7.4522 0.0000 -10.4609 0.0000
# 2 14.4584 123.4249 23.7936 0.0000 -1.1039 0.0000
# 3 -7.4522 23.7936 108.8606 0.0000 -41.2031 0.0000
# 4 0.0000 0.0000 0.0000 15.6066 0.0000 -2.8985
# 5 -10.4609 -1.1039 -41.2031 0.0000 76.9544 0.0000
# 6 0.0000 0.0000 0.0000 -2.8985 0.0000 49.2167
#
#
#
# Elastic Compliance Matrix: (Units=1/GPa)
#
#
# Indices 1 2 3 4 5 6 
#
# 1 0.023057 -0.003501 0.004403 0.000000 0.005442 0.000000
# 2 -0.003501 0.009064 -0.002949 0.000000 -0.001925 0.000000
# 3 0.004403 -0.002949 0.012971 0.000000 0.007501 0.000000
# 4 0.000000 0.000000 0.000000 0.064784 0.000000 0.003815
# 5 0.005442 -0.001925 0.007501 0.000000 0.017723 0.000000
# 6 0.000000 0.000000 0.000000 0.003815 0.000000 0.020543
#
#
# Mechanical properties :
#
#
# Convention : Reuss Voigt Hill
#
# Bulk Modulus (GPa) = 24.39191 38.14934 31.27063
# Shear Modulus (GPa) = 30.13830 45.08520 37.61175
#
# Velocity S-wave (km/s) = 3.87840 4.74362 4.33266
# Velocity P-wave (km/s) = 5.67714 7.00306 6.37467
#
# Compressibility (1/GPa) = 0.04099719
#
# Stress axis : x y z
#
# Youngs Moduli (GPa) = 43.37147 110.33181 77.09289
#
# Poissons Ratio (x) = 0.38628 -0.33946
# Poissons Ratio (y) = 0.15185 0.22737
# Poissons Ratio (z) = -0.19097 0.32540
#
# Static dielectric constant tensor:
#      x y z
#    x 1.667250 0.000000 0.007990 
#    y 0.000000 2.336720 0.000000 
#    z 0.007990 0.000000 1.713680 
# 
# From -- ./inp_files/73886.got.cif
#   From: 2010.05.17/outbox.cif.g08.bks.cpg/sg11_37_cif.got.tgz:73886.got - 2010.06.03 12:22:45.
