data_PCOD9165213
_publ_section_title
;
Structure prediction by ZEFSAII (Michael W. Deem and Ramdas Pophale) SiO2 
 PCOD9165213
Probable space group: P 21/M
;
_chemical_formula_sum "Si O2"
_cell_formula_units_Z 28
_cell_length_a 16.072792
_cell_length_b 8.668064
_cell_length_c 12.161506
_cell_angle_alpha 90.000000
_cell_angle_beta 120.638898
_cell_angle_gamma 90.000000
_cell_volume 1457.804534
_symmetry_space_group_name_H-M "P 21/M"
_symmetry_group_IT_number 11
_symmetry_cell_setting 'monoclinic'
loop_
_space_group_symop_operation_xyz
x,y,z
-x,1/2+y,-z
-x,-y,-z
x,1/2-y,z
loop_
_atom_site_type_symbol
_atom_site_label
_atom_site_fract_x
_atom_site_fract_y
_atom_site_fract_z
Si Si1 0.646830 0.065254 0.574037
Si Si2 0.852861 0.435143 0.627623
Si Si3 0.969577 0.563413 0.098288
Si Si4 0.206995 0.438167 0.873500
Si Si5 0.428581 0.066449 0.043100
Si Si6 0.485326 0.933191 0.312205
Si Si7 0.891820 0.565413 0.421984
O O1 0.635128 0.250000 0.551992
O O2 0.759037 0.027914 0.637037
O O3 0.599913 0.025043 0.659336
O O4 0.583891 0.981413 0.438955
O O5 0.857738 0.250000 0.616159
O O6 0.842721 0.510478 0.501507
O O7 0.949729 0.482759 0.756941
O O8 0.970106 0.750000 0.092594
O O9 0.865531 0.513590 0.077090
O O10 0.000000 0.500000 0.000000
O O11 0.207215 0.250000 0.874835
O O12 0.161992 0.485942 0.725654
O O13 0.317535 0.491009 0.958931
O O14 0.426073 0.250000 0.029546
O O15 0.469435 0.020198 0.188760
O O16 0.500000 0.000000 0.000000
O O17 0.483920 0.750000 0.292930
O O18 0.896216 0.750000 0.422119
O O19 0.000000 0.500000 0.500000
#
# Coordination Sequence:
#
# PCOD9165213 Si02
#       7
#     4   4   4   4   4   4   4
#     4   9  20  38  61  88 117 153 195 243 297 350
#     4  10  21  38  60  87 120 153 191 243 295 343
#     4  10  21  39  60  86 121 157 192 236 288 350
#     4   9  21  41  61  82 117 157 192 238 297 347
#     4  11  24  42  62  86 117 157 202 250 299 354
#     4  10  21  39  61  86 118 155 196 244 297 355
#     4  11  21  38  61  86 116 152 193 238 288 348
#
# _framework density 19.206965
#
# number of rings (size 3 to 8) (size 9 to 14) (size 15 to 20)
#    0.000    2.000    1.429    1.286    4.000    1.714 
#    0.000    2.857    0.000    0.000    0.000    0.000 
#    0.000    0.000    0.000    0.000    0.000    0.000 
#
# Total GULP energy -156359.691422 kJ/mol
# GULP energy per Si atom -5584.274694 kJ/mol
# Density = 1.916325 g / cm^3
# Si number density = 19.206965 Si / 1000 Ang^3
#
#
#
# Elastic Constant Matrix: (Units=GPa)
#
#
# Indices 1 2 3 4 5 6 
#
# 1 148.4554 33.7431 63.5830 0.0000 2.4615 0.0000
# 2 33.7431 22.3779 25.9742 0.0000 -1.7449 0.0000
# 3 63.5830 25.9742 86.1176 0.0000 -23.1148 0.0000
# 4 0.0000 0.0000 0.0000 26.8299 0.0000 -5.8555
# 5 2.4615 -1.7449 -23.1148 0.0000 24.3062 0.0000
# 6 0.0000 0.0000 0.0000 -5.8555 0.0000 30.0304
#
#
#
# Elastic Compliance Matrix: (Units=1/GPa)
#
#
# Indices 1 2 3 4 5 6 
#
# 1 0.013453 -0.009214 -0.010335 0.000000 -0.011853 0.000000
# 2 -0.009214 0.083029 -0.022007 0.000000 -0.014034 0.000000
# 3 -0.010335 -0.022007 0.034558 0.000000 0.032331 0.000000
# 4 0.000000 0.000000 0.000000 0.038929 0.000000 0.007591
# 5 -0.011853 -0.014034 0.032331 0.000000 0.072081 0.000000
# 6 0.000000 0.000000 0.000000 0.007591 0.000000 0.034780
#
#
# Mechanical properties :
#
#
# Convention : Reuss Voigt Hill
#
# Bulk Modulus (GPa) = 20.86413 55.95018 38.40715
# Shear Modulus (GPa) = 13.30076 25.14333 19.22204
#
# Velocity S-wave (km/s) = 2.63439 3.62204 3.16695
# Velocity P-wave (km/s) = 4.48773 6.83269 5.78037
#
# Compressibility (1/GPa) = 0.04792915
#
# Stress axis : x y z
#
# Youngs Moduli (GPa) = 74.33035 12.04394 28.93660
#
# Poissons Ratio (x) = 0.11097 0.29907
# Poissons Ratio (y) = 0.68489 0.63679
# Poissons Ratio (z) = 0.76823 0.26505
#
# Static dielectric constant tensor:
#      x y z
#    x 1.681460 0.000000 0.001450 
#    y 0.000000 1.649300 0.000000 
#    z 0.001450 0.000000 1.636640 
# 
# From -- ./inp_files/38428.got.cif
#   From: 2010.05.17/outbox.cif.g08.bks.cpg/sg11_20_cif.got.tgz:38428.got - 2010.06.03 12:22:45.
