data_PCOD9165975
_publ_section_title
;
Structure prediction by ZEFSAII (Michael W. Deem and Ramdas Pophale) SiO2 
 PCOD9165975
Probable space group: P 21/M
;
_chemical_formula_sum "Si O2"
_cell_formula_units_Z 22
_cell_length_a 14.808277
_cell_length_b 12.085145
_cell_length_c 11.242497
_cell_angle_alpha 90.000000
_cell_angle_beta 28.180165
_cell_angle_gamma 90.000000
_cell_volume 950.138976
_symmetry_space_group_name_H-M "P 21/M"
_symmetry_group_IT_number 11
_symmetry_cell_setting 'monoclinic'
loop_
_space_group_symop_operation_xyz
x,y,z
-x,1/2+y,-z
-x,-y,-z
x,1/2-y,z
loop_
_atom_site_type_symbol
_atom_site_label
_atom_site_fract_x
_atom_site_fract_y
_atom_site_fract_z
Si Si1 0.313302 0.001485 0.062353
Si Si2 0.434934 0.250000 0.822503
Si Si3 0.182878 0.750000 0.986459
Si Si4 0.105844 0.987872 0.547096
Si Si5 0.357233 0.750000 0.017408
Si Si6 0.621199 0.750000 0.394234
Si Si7 0.106673 0.418520 0.790263
Si Si8 0.204528 0.750000 0.457082
O O1 0.106412 0.977002 0.242660
O O2 0.256476 0.011909 0.267637
O O3 0.423274 0.880802 0.918501
O O4 0.378272 0.125899 0.942832
O O5 0.380583 0.250000 0.746604
O O6 0.662452 0.250000 0.582540
O O7 0.404571 0.750000 0.693190
O O8 0.177433 0.750000 0.135698
O O9 0.066500 0.848272 0.063219
O O10 0.080201 0.857504 0.592867
O O11 0.187624 0.027575 0.577193
O O12 0.329345 0.750000 0.191222
O O13 0.736634 0.852380 0.316950
O O14 0.000000 0.500000 0.000000
#
# Coordination Sequence:
#
# PCOD9165975 Si02
#       8
#     4   2   2   4   2   2   4   2
#     4  10  22  41  74 100 141 177 230 299 358 426
#     4  12  26  45  65 105 144 183 236 295 365 419
#     4  11  25  45  69  99 142 184 240 299 350 436
#     4  10  21  42  69 103 133 183 235 288 355 430
#     4  10  21  44  68 102 137 182 227 295 365 422
#     4  11  29  45  65 103 139 194 239 297 358 420
#     4  11  25  45  72  98 138 192 242 289 352 428
#     4  10  25  39  69 101 140 179 228 294 364 429
#
# _framework density 23.154509000000001
#
# number of rings (size 3 to 8) (size 9 to 14) (size 15 to 20)
#    0.000    1.455    1.818    1.636    2.545   10.909 
#    0.000    0.000    0.000    0.000    0.000    0.000 
#    0.000    0.000    0.000    0.000    0.000    0.000 
#
# Total GULP energy -122485.048729 kJ/mol
# GULP energy per Si atom -5567.502215 kJ/mol
# Density = 2.310181 g / cm^3
# Si number density = 23.154509 Si / 1000 Ang^3
#
#
#
# Elastic Constant Matrix: (Units=GPa)
#
#
# Indices 1 2 3 4 5 6 
#
# 1 126.8872 33.7649 -9.2867 0.0000 30.1598 0.0000
# 2 33.7649 173.9679 27.0529 0.0000 14.8221 0.0000
# 3 -9.2867 27.0529 20.7609 0.0000 -4.8401 0.0000
# 4 0.0000 0.0000 0.0000 269.4745 0.0000 -260.0812
# 5 30.1598 14.8221 -4.8401 0.0000 35.2938 0.0000
# 6 0.0000 0.0000 0.0000 -260.0812 0.0000 306.2391
#
#
#
# Elastic Compliance Matrix: (Units=1/GPa)
#
#
# Indices 1 2 3 4 5 6 
#
# 1 0.010717 -0.002435 0.006272 0.000000 -0.007276 0.000000
# 2 -0.002435 0.008512 -0.012943 0.000000 -0.003269 0.000000
# 3 0.006272 -0.012943 0.070098 0.000000 0.009689 0.000000
# 4 0.000000 0.000000 0.000000 0.020579 0.000000 0.017477
# 5 -0.007276 -0.003269 0.009689 0.000000 0.037252 0.000000
# 6 0.000000 0.000000 0.000000 0.017477 0.000000 0.018108
#
#
# Mechanical properties :
#
#
# Convention : Reuss Voigt Hill
#
# Bulk Modulus (GPa) = 14.06218 47.18646 30.62432
# Shear Modulus (GPa) = 24.13301 140.20715 82.17008
#
# Velocity S-wave (km/s) = 3.23191 7.79001 5.96362
# Velocity P-wave (km/s) = 4.47363 10.06656 7.78938
#
# Compressibility (1/GPa) = 0.07111271
#
# Stress axis : x y z
#
# Youngs Moduli (GPa) = 93.30591 117.47960 14.26580
#
# Poissons Ratio (x) = 0.28612 -0.08947
# Poissons Ratio (y) = 0.22725 0.18465
# Poissons Ratio (z) = -0.58517 1.52057
#
# Static dielectric constant tensor:
#      x y z
#    x 1.812920 0.000000 0.013770 
#    y 0.000000 1.926010 0.000000 
#    z 0.013770 0.000000 1.856790 
# 
# From -- ./inp_files/39183.got.cif
#   From: 2010.05.17/outbox.cif.g08.bks.cpg/sg11_20_cif.got.tgz:39183.got - 2010.06.03 12:22:45.
