data_PCOD9165645
_publ_section_title
;
Structure prediction by ZEFSAII (Michael W. Deem and Ramdas Pophale) SiO2 
 PCOD9165645
Probable space group: P 21/M
;
_chemical_formula_sum "Si O2"
_cell_formula_units_Z 24
_cell_length_a 4.990478
_cell_length_b 18.749264
_cell_length_c 11.937543
_cell_angle_alpha 90.000000
_cell_angle_beta 107.906013
_cell_angle_gamma 90.000000
_cell_volume 1062.865901
_symmetry_space_group_name_H-M "P 21/M"
_symmetry_group_IT_number 11
_symmetry_cell_setting 'monoclinic'
loop_
_space_group_symop_operation_xyz
x,y,z
-x,1/2+y,-z
-x,-y,-z
x,1/2-y,z
loop_
_atom_site_type_symbol
_atom_site_label
_atom_site_fract_x
_atom_site_fract_y
_atom_site_fract_z
Si Si1 0.204936 0.936530 0.989488
Si Si2 0.047180 0.833167 0.554297
Si Si3 0.371173 0.990368 0.793189
Si Si4 0.137220 0.669880 0.160191
Si Si5 0.737267 0.629291 0.295011
Si Si6 0.417645 0.433756 0.404122
O O1 0.486309 0.957902 0.094633
O O2 0.093685 0.866651 0.035466
O O3 0.246511 0.932747 0.862264
O O4 0.000000 0.000000 0.000000
O O5 0.073851 0.750000 0.596858
O O6 0.340891 0.872369 0.564302
O O7 0.872237 0.832556 0.416823
O O8 0.867976 0.891172 0.603276
O O9 0.172468 0.045799 0.701709
O O10 0.574658 0.961400 0.723547
O O11 0.226276 0.750000 0.156717
O O12 0.399481 0.633091 0.258291
O O13 0.861604 0.664250 0.199814
O O14 0.500000 0.500000 0.500000
#
# Coordination Sequence:
#
# PCOD9165645 Si02
#       6
#     4   4   4   4   4   4
#     4  10  21  39  66  88 126 167 213 274 320 382
#     4  12  26  44  66 100 138 179 220 271 339 399
#     4  10  23  40  64  97 124 167 222 267 324 377
#     4  11  22  37  60  94 127 165 210 265 333 391
#     4  11  22  39  66  93 131 163 211 276 326 385
#     4  12  26  43  71  98 135 175 223 274 326 403
#
# _framework density 22.580456000000002
#
# number of rings (size 3 to 8) (size 9 to 14) (size 15 to 20)
#    0.000    1.000    3.333    3.500    4.667    0.000 
#    0.000    1.667    0.000    0.000    0.000    0.000 
#    0.000    0.000    0.000    0.000    0.000    0.000 
#
# Total GULP energy -133924.385972 kJ/mol
# GULP energy per Si atom -5580.182749 kJ/mol
# Density = 2.252906 g / cm^3
# Si number density = 22.580456 Si / 1000 Ang^3
#
#
#
# Elastic Constant Matrix: (Units=GPa)
#
#
# Indices 1 2 3 4 5 6 
#
# 1 69.5131 5.9300 14.2893 0.0000 -10.6591 0.0000
# 2 5.9300 109.5264 35.0209 0.0000 -14.2789 0.0000
# 3 14.2893 35.0209 99.8162 0.0000 -35.9235 0.0000
# 4 0.0000 0.0000 0.0000 27.4298 0.0000 -1.4760
# 5 -10.6591 -14.2789 -35.9235 0.0000 42.0580 0.0000
# 6 0.0000 0.0000 0.0000 -1.4760 0.0000 29.2053
#
#
#
# Elastic Compliance Matrix: (Units=1/GPa)
#
#
# Indices 1 2 3 4 5 6 
#
# 1 0.015056 -0.000093 -0.001099 0.000000 0.002846 0.000000
# 2 -0.000093 0.010295 -0.003392 0.000000 0.000574 0.000000
# 3 -0.001099 -0.003392 0.015667 0.000000 0.011952 0.000000
# 4 0.000000 0.000000 0.000000 0.036556 0.000000 0.001848
# 5 0.002846 0.000574 0.011952 0.000000 0.034902 0.000000
# 6 0.000000 0.000000 0.000000 0.001848 0.000000 0.034334
#
#
# Mechanical properties :
#
#
# Convention : Reuss Voigt Hill
#
# Bulk Modulus (GPa) = 31.39599 43.25957 37.32778
# Shear Modulus (GPa) = 30.01324 34.64631 32.32977
#
# Velocity S-wave (km/s) = 3.64973 3.92133 3.78796
# Velocity P-wave (km/s) = 5.62983 6.30095 5.97482
#
# Compressibility (1/GPa) = 0.03185120
#
# Stress axis : x y z
#
# Youngs Moduli (GPa) = 66.41905 97.13747 63.82745
#
# Poissons Ratio (x) = 0.00902 0.07012
# Poissons Ratio (y) = 0.00617 0.21650
# Poissons Ratio (z) = 0.07296 0.32948
#
# Static dielectric constant tensor:
#      x y z
#    x 1.976800 0.000000 0.008660 
#    y 0.000000 1.940070 0.000000 
#    z 0.008660 0.000000 1.912560 
# 
# From -- ./inp_files/29844.got.cif
#   From: 2010.05.17/outbox.cif.g08.bks.cpg/sg11_15_cif.got.tgz:29844.got - 2010.06.03 12:22:45.
