data_PCOD9165050
_publ_section_title
;
Structure prediction by ZEFSAII (Michael W. Deem and Ramdas Pophale) SiO2 
 PCOD9165050
Probable space group: P 21/M
;
_chemical_formula_sum "Si O2"
_cell_formula_units_Z 24
_cell_length_a 5.154362
_cell_length_b 14.304021
_cell_length_c 16.899241
_cell_angle_alpha 90.000000
_cell_angle_beta 89.552844
_cell_angle_gamma 90.000000
_cell_volume 1245.911025
_symmetry_space_group_name_H-M "P 21/M"
_symmetry_group_IT_number 11
_symmetry_cell_setting 'monoclinic'
loop_
_space_group_symop_operation_xyz
x,y,z
-x,1/2+y,-z
-x,-y,-z
x,1/2-y,z
loop_
_atom_site_type_symbol
_atom_site_label
_atom_site_fract_x
_atom_site_fract_y
_atom_site_fract_z
Si Si1 0.248243 0.544500 0.542353
Si Si2 0.662092 0.361781 0.969452
Si Si3 0.702457 0.750000 0.369118
Si Si4 0.788547 0.949181 0.289379
Si Si5 0.156503 0.138691 0.070683
Si Si6 0.291671 0.983173 0.187228
Si Si7 0.202108 0.750000 0.479070
O O1 0.500000 0.500000 0.500000
O O2 0.238839 0.513926 0.633362
O O3 0.239142 0.655475 0.528713
O O4 0.000000 0.500000 0.500000
O O5 0.677993 0.250000 0.957697
O O6 0.381835 0.383982 0.006698
O O7 0.881792 0.387794 0.032888
O O8 0.711116 0.413131 0.887271
O O9 0.736733 0.843268 0.317731
O O10 0.422033 0.750000 0.410759
O O11 0.922792 0.750000 0.436788
O O12 0.572140 0.978855 0.226622
O O13 0.072855 0.956262 0.251062
O O14 0.159771 0.250000 0.083694
O O15 0.219919 0.082879 0.149662
#
# Coordination Sequence:
#
# PCOD9165050 Si02
#       7
#     4   4   2   4   4   4   2
#     4  12  23  45  67  96 126 165 221 255 304 385
#     4  10  21  37  63  90 116 160 212 253 294 365
#     4  12  24  42  68  94 124 166 202 258 332 370
#     4  12  26  40  63  94 131 156 202 258 314 378
#     4  10  21  41  63  86 120 165 213 250 295 365
#     4  12  24  40  61  92 129 163 194 256 320 363
#     4  12  22  44  74  90 120 172 214 266 306 366
#
# _framework density 19.263012
#
# number of rings (size 3 to 8) (size 9 to 14) (size 15 to 20)
#    0.000    0.667    3.333    5.000    2.333    0.000 
#    3.000    0.000    0.000    0.000    0.000    0.000 
#    0.000    0.000    0.000    0.000    0.000    0.000 
#
# Total GULP energy -134326.513886 kJ/mol
# GULP energy per Si atom -5596.938079 kJ/mol
# Density = 1.921917 g / cm^3
# Si number density = 19.263012 Si / 1000 Ang^3
#
#
#
# Elastic Constant Matrix: (Units=GPa)
#
#
# Indices 1 2 3 4 5 6 
#
# 1 71.9587 2.4582 -13.5621 0.0000 8.2357 0.0000
# 2 2.4582 103.5069 32.7018 0.0000 1.9812 0.0000
# 3 -13.5621 32.7018 58.9595 0.0000 6.0538 0.0000
# 4 0.0000 0.0000 0.0000 10.9428 0.0000 6.2735
# 5 8.2357 1.9812 6.0538 0.0000 42.2345 0.0000
# 6 0.0000 0.0000 0.0000 6.2735 0.0000 23.9169
#
#
#
# Elastic Compliance Matrix: (Units=1/GPa)
#
#
# Indices 1 2 3 4 5 6 
#
# 1 0.015298 -0.001847 0.004913 0.000000 -0.003601 0.000000
# 2 -0.001847 0.011943 -0.007133 0.000000 0.000822 0.000000
# 3 0.004913 -0.007133 0.022442 0.000000 -0.003840 0.000000
# 4 0.000000 0.000000 0.000000 0.107559 0.000000 -0.028213
# 5 -0.003601 0.000822 -0.003840 0.000000 0.024891 0.000000
# 6 0.000000 0.000000 0.000000 -0.028213 0.000000 0.049212
#
#
# Mechanical properties :
#
#
# Convention : Reuss Voigt Hill
#
# Bulk Modulus (GPa) = 24.06832 30.84677 27.45754
# Shear Modulus (GPa) = 19.73722 29.60732 24.67227
#
# Velocity S-wave (km/s) = 3.20444 3.92472 3.58272
# Velocity P-wave (km/s) = 5.11986 6.04865 5.60353
#
# Compressibility (1/GPa) = 0.04154840
#
# Stress axis : x y z
#
# Youngs Moduli (GPa) = 65.36823 83.73097 44.56001
#
# Poissons Ratio (x) = 0.15461 -0.21891
# Poissons Ratio (y) = 0.12070 0.31786
# Poissons Ratio (z) = -0.32114 0.59728
#
# Static dielectric constant tensor:
#      x y z
#    x 1.648270 0.000000 0.001820 
#    y 0.000000 1.674560 0.000000 
#    z 0.001820 0.000000 1.627830 
# 
# From -- ./inp_files/45747.got.cif
#   From: 2010.05.17/outbox.cif.g08.bks.cpg/sg11_23_cif.got.tgz:45747.got - 2010.06.03 12:22:45.
