data_PCOD9165950
_publ_section_title
;
Structure prediction by ZEFSAII (Michael W. Deem and Ramdas Pophale) SiO2 
 PCOD9165950
Probable space group: P 21/M
;
_chemical_formula_sum "Si O2"
_cell_formula_units_Z 26
_cell_length_a 12.698864
_cell_length_b 18.495704
_cell_length_c 9.747977
_cell_angle_alpha 90.000000
_cell_angle_beta 145.772024
_cell_angle_gamma 90.000000
_cell_volume 1287.842762
_symmetry_space_group_name_H-M "P 21/M"
_symmetry_group_IT_number 11
_symmetry_cell_setting 'monoclinic'
loop_
_space_group_symop_operation_xyz
x,y,z
-x,1/2+y,-z
-x,-y,-z
x,1/2-y,z
loop_
_atom_site_type_symbol
_atom_site_label
_atom_site_fract_x
_atom_site_fract_y
_atom_site_fract_z
Si Si1 0.250982 0.485709 0.600263
Si Si2 0.082259 0.250000 0.645065
Si Si3 0.858260 0.250000 0.685916
Si Si4 0.003918 0.622910 0.970671
Si Si5 0.600125 0.112016 0.050691
Si Si6 0.486690 0.750000 0.855161
Si Si7 0.962171 0.367845 0.296134
Si Si8 0.712851 0.997708 0.680098
O O1 0.291406 0.551478 0.744225
O O2 0.274596 0.510446 0.469549
O O3 0.051984 0.447476 0.405511
O O4 0.407941 0.424287 0.795391
O O5 0.946974 0.250000 0.629708
O O6 0.043987 0.318247 0.505223
O O7 0.291938 0.250000 0.927495
O O8 0.926519 0.180414 0.844140
O O9 0.636819 0.250000 0.415580
O O10 0.161192 0.560724 0.119090
O O11 0.979277 0.657006 0.793123
O O12 0.818471 0.578931 0.816854
O O13 0.562255 0.180027 0.106442
O O14 0.739444 0.132621 0.077943
O O15 0.500000 0.000000 0.500000
#
# Coordination Sequence:
#
# PCOD9165950 Si02
#       8
#     4   2   2   4   4   2   4   4
#     4  10  22  36  62  94 129 157 217 258 313 377
#     4  12  25  41  65  91 127 170 214 266 318 380
#     4  12  25  44  63  94 131 171 212 268 326 382
#     4  10  24  41  67  94 131 170 216 263 322 388
#     4  11  21  38  61  95 122 169 201 266 314 378
#     4  12  24  41  62  89 130 165 218 260 328 376
#     4  11  21  42  64  92 122 168 211 259 317 377
#     4  10  21  42  64  95 131 173 211 267 319 386
#
# _framework density 20.188798999999999
#
# number of rings (size 3 to 8) (size 9 to 14) (size 15 to 20)
#    0.000    1.231    3.077    2.769    0.000    2.462 
#    2.769    0.000    0.000    0.000    0.000    0.000 
#    0.000    0.000    0.000    0.000    0.000    0.000 
#
# Total GULP energy -145316.737725 kJ/mol
# GULP energy per Si atom -5589.105297 kJ/mol
# Density = 2.014285 g / cm^3
# Si number density = 20.188799 Si / 1000 Ang^3
#
#
#
# Elastic Constant Matrix: (Units=GPa)
#
#
# Indices 1 2 3 4 5 6 
#
# 1 58.6319 16.8792 28.4024 0.0000 7.0986 0.0000
# 2 16.8792 64.4896 27.8124 0.0000 -0.1248 0.0000
# 3 28.4024 27.8124 92.6901 0.0000 -3.6346 0.0000
# 4 0.0000 0.0000 0.0000 28.8589 0.0000 -12.6192
# 5 7.0986 -0.1248 -3.6346 0.0000 44.6024 0.0000
# 6 0.0000 0.0000 0.0000 -12.6192 0.0000 14.2718
#
#
#
# Elastic Compliance Matrix: (Units=1/GPa)
#
#
# Indices 1 2 3 4 5 6 
#
# 1 0.021177 -0.003086 -0.005714 0.000000 -0.003845 0.000000
# 2 -0.003086 0.018268 -0.004529 0.000000 0.000173 0.000000
# 3 -0.005714 -0.004529 0.013978 0.000000 0.002036 0.000000
# 4 0.000000 0.000000 0.000000 0.056494 0.000000 0.049952
# 5 -0.003845 0.000173 0.002036 0.000000 0.023199 0.000000
# 6 0.000000 0.000000 0.000000 0.049952 0.000000 0.114236
#
#
# Mechanical properties :
#
#
# Convention : Reuss Voigt Hill
#
# Bulk Modulus (GPa) = 37.36168 40.22219 38.79193
# Shear Modulus (GPa) = 17.67209 27.06113 22.36661
#
# Velocity S-wave (km/s) = 2.96183 3.66512 3.33208
# Velocity P-wave (km/s) = 5.49935 6.15444 5.83609
#
# Compressibility (1/GPa) = 0.02676539
#
# Stress axis : x y z
#
# Youngs Moduli (GPa) = 47.22004 54.74170 71.53935
#
# Poissons Ratio (x) = 0.16894 0.40878
# Poissons Ratio (y) = 0.14572 0.32400
# Poissons Ratio (z) = 0.26982 0.24792
#
# Static dielectric constant tensor:
#      x y z
#    x 1.682420 0.000000 0.005130 
#    y 0.000000 1.719010 0.000000 
#    z 0.005130 0.000000 1.720330 
# 
# From -- ./inp_files/19490.got.cif
#   From: 2010.05.17/outbox.cif.g08.bks.cpg/sg11_10_cif.got.tgz:19490.got - 2010.06.03 12:22:45.
