data_PCOD9165466
_publ_section_title
;
Structure prediction by ZEFSAII (Michael W. Deem and Ramdas Pophale) SiO2 
 PCOD9165466
Probable space group: P 21/M
;
_chemical_formula_sum "Si O2"
_cell_formula_units_Z 28
_cell_length_a 29.380355
_cell_length_b 8.746003
_cell_length_c 9.137696
_cell_angle_alpha 90.000000
_cell_angle_beta 38.918552
_cell_angle_gamma 90.000000
_cell_volume 1475.066767
_symmetry_space_group_name_H-M "P 21/M"
_symmetry_group_IT_number 11
_symmetry_cell_setting 'monoclinic'
loop_
_space_group_symop_operation_xyz
x,y,z
-x,1/2+y,-z
-x,-y,-z
x,1/2-y,z
loop_
_atom_site_type_symbol
_atom_site_label
_atom_site_fract_x
_atom_site_fract_y
_atom_site_fract_z
Si Si1 0.068496 0.566027 0.915442
Si Si2 0.354073 0.565535 0.534393
Si Si3 0.931541 0.933867 0.758090
Si Si4 0.501274 0.933515 0.333756
Si Si5 0.640042 0.065153 0.820459
Si Si6 0.786395 0.065778 0.624237
Si Si7 0.215025 0.067134 0.046832
O O1 0.063955 0.750000 0.932388
O O2 0.142157 0.523368 0.645885
O O3 0.069760 0.500032 0.075452
O O4 0.000000 0.500000 0.000000
O O5 0.348563 0.750000 0.553209
O O6 0.428058 0.521109 0.431339
O O7 0.356677 0.519403 0.357829
O O8 0.284977 0.497020 0.788663
O O9 0.936360 0.750000 0.751246
O O10 0.857883 0.977112 0.857563
O O11 0.000000 0.000000 0.500000
O O12 0.503569 0.750000 0.334827
O O13 0.500000 0.000000 0.500000
O O14 0.570976 0.994453 0.073192
O O15 0.634326 0.250000 0.840501
O O16 0.713808 0.020533 0.718955
O O17 0.785699 0.250000 0.639543
O O18 0.787574 0.995365 0.782125
O O19 0.218721 0.250000 0.041251
#
# Coordination Sequence:
#
# PCOD9165466 Si02
#       7
#     4   4   4   4   4   4   4
#     4  11  23  40  63  90 120 157 198 243 294 350
#     4  10  22  40  61  84 115 154 194 235 288 352
#     4  11  24  41  61  88 120 156 198 244 294 351
#     4  11  23  38  58  86 117 152 192 237 288 344
#     4  10  21  39  61  85 113 149 193 239 286 343
#     4  10  22  39  60  85 115 153 194 235 289 352
#     4  11  24  39  59  88 119 151 193 243 290 338
#
# _framework density 18.982191
#
# number of rings (size 3 to 8) (size 9 to 14) (size 15 to 20)
#    0.000    1.429    0.000    4.714    0.000   12.571 
#    0.000    0.000    0.000    0.000    0.000    0.000 
#    0.000    0.000    0.000    0.000    0.000    0.000 
#
# Total GULP energy -156628.955766 kJ/mol
# GULP energy per Si atom -5593.891277 kJ/mol
# Density = 1.893899 g / cm^3
# Si number density = 18.982191 Si / 1000 Ang^3
#
#
#
# Elastic Constant Matrix: (Units=GPa)
#
#
# Indices 1 2 3 4 5 6 
#
# 1 241.4266 65.2408 150.5558 0.0000 1.7884 0.0000
# 2 65.2408 37.7508 64.4469 0.0000 -2.7555 0.0000
# 3 150.5558 64.4469 240.4423 0.0000 -0.4413 0.0000
# 4 0.0000 0.0000 0.0000 37.7918 0.0000 1.5332
# 5 1.7884 -2.7555 -0.4413 0.0000 45.7852 0.0000
# 6 0.0000 0.0000 0.0000 1.5332 0.0000 33.1079
#
#
#
# Elastic Compliance Matrix: (Units=1/GPa)
#
#
# Indices 1 2 3 4 5 6 
#
# 1 0.008599 -0.010579 -0.002550 0.000000 -0.000997 0.000000
# 2 -0.010579 0.062216 -0.010044 0.000000 0.004061 0.000000
# 3 -0.002550 -0.010044 0.008448 0.000000 -0.000423 0.000000
# 4 0.000000 0.000000 0.000000 0.026511 0.000000 -0.001228
# 5 -0.000997 0.004061 -0.000423 0.000000 0.022120 0.000000
# 6 0.000000 0.000000 0.000000 -0.001228 0.000000 0.030261
#
#
# Mechanical properties :
#
#
# Convention : Reuss Voigt Hill
#
# Bulk Modulus (GPa) = 30.38187 120.01185 75.19686
# Shear Modulus (GPa) = 23.20475 39.29541 31.25008
#
# Velocity S-wave (km/s) = 3.50015 4.55479 4.06184
# Velocity P-wave (km/s) = 5.68990 9.54055 7.85484
#
# Compressibility (1/GPa) = 0.03291436
#
# Stress axis : x y z
#
# Youngs Moduli (GPa) = 116.29707 16.07308 118.37806
#
# Poissons Ratio (x) = 0.17003 0.30192
# Poissons Ratio (y) = 1.23029 1.18904
# Poissons Ratio (z) = 0.29661 0.16145
#
# Static dielectric constant tensor:
#      x y z
#    x 1.633760 0.000000 -0.008830 
#    y 0.000000 1.636330 0.000000 
#    z -0.008830 0.000000 1.610900 
# 
# From -- ./inp_files/28370.got.cif
#   From: 2010.05.17/outbox.cif.g08.bks.cpg/sg11_15_cif.got.tgz:28370.got - 2010.06.03 12:22:45.
