data_PCOD9165358
_publ_section_title
;
Structure prediction by ZEFSAII (Michael W. Deem and Ramdas Pophale) SiO2 
 PCOD9165358
Probable space group: P 21/M
;
_chemical_formula_sum "Si O2"
_cell_formula_units_Z 20
_cell_length_a 16.764383
_cell_length_b 14.050090
_cell_length_c 11.399772
_cell_angle_alpha 90.000000
_cell_angle_beta 159.322750
_cell_angle_gamma 90.000000
_cell_volume 948.123101
_symmetry_space_group_name_H-M "P 21/M"
_symmetry_group_IT_number 11
_symmetry_cell_setting 'monoclinic'
loop_
_space_group_symop_operation_xyz
x,y,z
-x,1/2+y,-z
-x,-y,-z
x,1/2-y,z
loop_
_atom_site_type_symbol
_atom_site_label
_atom_site_fract_x
_atom_site_fract_y
_atom_site_fract_z
Si Si1 0.751235 0.506001 0.211814
Si Si2 0.908973 0.494701 0.692011
Si Si3 0.385025 0.141151 0.611692
Si Si4 0.578124 0.140081 0.367080
Si Si5 0.674616 0.859987 0.744964
O O1 0.780316 0.500406 0.390954
O O2 0.000000 0.500000 0.500000
O O3 0.587078 0.421580 0.942772
O O4 0.631507 0.600996 0.998355
O O5 0.854465 0.595930 0.676743
O O6 0.786793 0.422126 0.612384
O O7 0.148133 0.446017 0.996594
O O8 0.400621 0.250000 0.670345
O O9 0.404823 0.135834 0.498289
O O10 0.620105 0.250000 0.402166
O O11 0.513922 0.127045 0.414808
O O12 0.764384 0.750000 0.886512
#
# Coordination Sequence:
#
# PCOD9165358 Si02
#       5
#     4   4   4   4   4
#     4  11  23  40  60  90 121 159 206 249 305 362
#     4  11  22  39  65  89 125 159 207 252 303 368
#     4  10  23  41  62  90 126 162 203 257 306 359
#     4  10  21  38  63  90 121 161 204 252 307 365
#     4  10  21  40  63  92 125 162 205 250 305 364
#
# _framework density 21.094307000000001
#
# number of rings (size 3 to 8) (size 9 to 14) (size 15 to 20)
#    0.000    1.600    2.000    3.600    0.000    8.000 
#    3.600    0.000    0.000    0.000    0.000    0.000 
#    0.000    0.000    0.000    0.000    0.000    0.000 
#
# Total GULP energy -111756.217011 kJ/mol
# GULP energy per Si atom -5587.810851 kJ/mol
# Density = 2.104630 g / cm^3
# Si number density = 21.094307 Si / 1000 Ang^3
#
#
#
# Elastic Constant Matrix: (Units=GPa)
#
#
# Indices 1 2 3 4 5 6 
#
# 1 110.9170 35.6635 7.7343 0.0000 -15.3028 0.0000
# 2 35.6635 109.1192 0.9281 0.0000 -1.5453 0.0000
# 3 7.7343 0.9281 28.0887 0.0000 -10.4137 0.0000
# 4 0.0000 0.0000 0.0000 11.7012 0.0000 -4.6093
# 5 -15.3028 -1.5453 -10.4137 0.0000 38.4581 0.0000
# 6 0.0000 0.0000 0.0000 -4.6093 0.0000 7.9156
#
#
#
# Elastic Compliance Matrix: (Units=1/GPa)
#
#
# Indices 1 2 3 4 5 6 
#
# 1 0.010741 -0.003445 -0.001457 0.000000 0.003741 0.000000
# 2 -0.003445 0.010275 0.000282 0.000000 -0.000882 0.000000
# 3 -0.001457 0.000282 0.039776 0.000000 0.010202 0.000000
# 4 0.000000 0.000000 0.000000 0.110900 0.000000 0.064578
# 5 0.003741 -0.000882 0.010202 0.000000 0.030218 0.000000
# 6 0.000000 0.000000 0.000000 0.064578 0.000000 0.163938
#
#
# Mechanical properties :
#
#
# Convention : Reuss Voigt Hill
#
# Bulk Modulus (GPa) = 19.39754 37.41963 28.40858
# Shear Modulus (GPa) = 12.74626 25.20157 18.97391
#
# Velocity S-wave (km/s) = 2.46082 3.46021 3.00239
# Velocity P-wave (km/s) = 4.15810 5.80877 5.05131
#
# Compressibility (1/GPa) = 0.05155294
#
# Stress axis : x y z
#
# Youngs Moduli (GPa) = 93.09927 97.31980 25.14097
#
# Poissons Ratio (x) = 0.33529 0.03663
# Poissons Ratio (y) = 0.32074 -0.00710
# Poissons Ratio (z) = 0.13563 -0.02747
#
# Static dielectric constant tensor:
#      x y z
#    x 1.757470 0.000000 0.011700 
#    y 0.000000 1.762280 0.000000 
#    z 0.011700 0.000000 1.776410 
# 
# From -- ./inp_files/12259.got.cif
#   From: 2010.05.17/outbox.cif.g08.bks.cpg/sg11_7_cif.got.tgz:12259.got - 2010.06.03 12:22:45.
