data_PCOD9165118
_publ_section_title
;
Structure prediction by ZEFSAII (Michael W. Deem and Ramdas Pophale) SiO2 
 PCOD9165118
Probable space group: P 21/M
;
_chemical_formula_sum "Si O2"
_cell_formula_units_Z 24
_cell_length_a 11.961387
_cell_length_b 8.723963
_cell_length_c 13.030883
_cell_angle_alpha 90.000000
_cell_angle_beta 90.491353
_cell_angle_gamma 90.000000
_cell_volume 1359.731731
_symmetry_space_group_name_H-M "P 21/M"
_symmetry_group_IT_number 11
_symmetry_cell_setting 'monoclinic'
loop_
_space_group_symop_operation_xyz
x,y,z
-x,1/2+y,-z
-x,-y,-z
x,1/2-y,z
loop_
_atom_site_type_symbol
_atom_site_label
_atom_site_fract_x
_atom_site_fract_y
_atom_site_fract_z
Si Si1 0.135839 0.565188 0.398097
Si Si2 0.269741 0.065801 0.814595
Si Si3 0.123046 0.433259 0.016365
Si Si4 0.270553 0.565821 0.200105
Si Si5 0.498393 0.432490 0.115275
Si Si6 0.878710 0.934788 0.380024
O O1 0.136951 0.750000 0.404537
O O2 0.222143 0.518796 0.310511
O O3 0.159273 0.497618 0.510245
O O4 0.008732 0.518361 0.367120
O O5 0.286775 0.250000 0.809163
O O6 0.199500 0.015993 0.714424
O O7 0.388417 0.984993 0.828143
O O8 0.196770 0.035210 0.915678
O O9 0.118210 0.250000 0.030012
O O10 0.183565 0.509708 0.113410
O O11 0.000000 0.500000 0.000000
O O12 0.277619 0.750000 0.197065
O O13 0.390007 0.495538 0.173030
O O14 0.492257 0.250000 0.108168
O O15 0.500000 0.500000 0.000000
O O16 0.876980 0.750000 0.382425
#
# Coordination Sequence:
#
# PCOD9165118 Si02
#       6
#     4   4   4   4   4   4
#     4   9  19  36  58  85 116 150 186 232 286 339
#     4  10  21  38  58  82 114 151 191 236 285 337
#     4  11  22  35  55  83 117 150 185 232 287 344
#     4  11  22  38  59  83 114 150 192 237 286 341
#     4  12  24  39  59  83 112 151 194 236 287 343
#     4   9  18  35  59  85 115 150 187 231 283 339
#
# _framework density 17.650542000000002
#
# number of rings (size 3 to 8) (size 9 to 14) (size 15 to 20)
#    0.000    1.667    1.667    3.500    0.000    5.333 
#    0.000    4.167    0.000    0.000    0.000    0.000 
#    0.000    0.000    0.000    0.000    0.000    0.000 
#
# Total GULP energy -134086.019834 kJ/mol
# GULP energy per Si atom -5586.917493 kJ/mol
# Density = 1.761037 g / cm^3
# Si number density = 17.650542 Si / 1000 Ang^3
#
#
#
# Elastic Constant Matrix: (Units=GPa)
#
#
# Indices 1 2 3 4 5 6 
#
# 1 88.8484 33.3007 34.3618 0.0000 -28.0670 0.0000
# 2 33.3007 47.2593 30.1283 0.0000 -14.5472 0.0000
# 3 34.3618 30.1283 99.8515 0.0000 -23.6841 0.0000
# 4 0.0000 0.0000 0.0000 30.2683 0.0000 2.8481
# 5 -28.0670 -14.5472 -23.6841 0.0000 29.3786 0.0000
# 6 0.0000 0.0000 0.0000 2.8481 0.0000 30.2939
#
#
#
# Elastic Compliance Matrix: (Units=1/GPa)
#
#
# Indices 1 2 3 4 5 6 
#
# 1 0.019038 -0.008881 -0.000743 0.000000 0.013192 0.000000
# 2 -0.008881 0.032026 -0.006007 0.000000 0.002532 0.000000
# 3 -0.000743 -0.006007 0.013859 0.000000 0.007489 0.000000
# 4 0.000000 0.000000 0.000000 0.033333 0.000000 -0.003134
# 5 0.013192 0.002532 0.007489 0.000000 0.053932 0.000000
# 6 0.000000 0.000000 0.000000 -0.003134 0.000000 0.033305
#
#
# Mechanical properties :
#
#
# Convention : Reuss Voigt Hill
#
# Bulk Modulus (GPa) = 29.70634 47.94898 38.82766
# Shear Modulus (GPa) = 21.93223 27.19938 24.56580
#
# Velocity S-wave (km/s) = 3.52885 3.92981 3.73471
# Velocity P-wave (km/s) = 5.78537 6.91490 6.37520
#
# Compressibility (1/GPa) = 0.03366285
#
# Stress axis : x y z
#
# Youngs Moduli (GPa) = 52.52571 31.22446 72.15393
#
# Poissons Ratio (x) = 0.27730 0.05361
# Poissons Ratio (y) = 0.46647 0.43341
# Poissons Ratio (z) = 0.03903 0.18756
#
# Static dielectric constant tensor:
#      x y z
#    x 1.582060 0.000000 -0.000790 
#    y 0.000000 1.595480 0.000000 
#    z -0.000790 0.000000 1.581280 
# 
# From -- ./inp_files/33772.got.cif
#   From: 2010.05.17/outbox.cif.g08.bks.cpg/sg11_17_cif.got.tgz:33772.got - 2010.06.03 12:22:45.
