data_PCOD9165410
_publ_section_title
;
Structure prediction by ZEFSAII (Michael W. Deem and Ramdas Pophale) SiO2 
 PCOD9165410
Probable space group: P 21/M
;
_chemical_formula_sum "Si O2"
_cell_formula_units_Z 26
_cell_length_a 5.353525
_cell_length_b 25.130374
_cell_length_c 7.319315
_cell_angle_alpha 90.000000
_cell_angle_beta 81.974041
_cell_angle_gamma 90.000000
_cell_volume 975.066648
_symmetry_space_group_name_H-M "P 21/M"
_symmetry_group_IT_number 11
_symmetry_cell_setting 'monoclinic'
loop_
_space_group_symop_operation_xyz
x,y,z
-x,1/2+y,-z
-x,-y,-z
x,1/2-y,z
loop_
_atom_site_type_symbol
_atom_site_label
_atom_site_fract_x
_atom_site_fract_y
_atom_site_fract_z
Si Si1 0.710815 0.439531 0.420717
Si Si2 0.624762 0.340970 0.929233
Si Si3 0.391603 0.439567 0.116033
Si Si4 0.087707 0.529299 0.226798
Si Si5 0.159471 0.139334 0.729843
Si Si6 0.327101 0.250000 0.160673
Si Si7 0.940837 0.852802 0.682113
O O1 0.474973 0.451113 0.317579
O O2 0.726687 0.446163 0.635959
O O3 0.918218 0.481877 0.329853
O O4 0.784753 0.378312 0.373454
O O5 0.906515 0.331516 0.827634
O O6 0.411576 0.338156 0.793471
O O7 0.606562 0.402668 0.001263
O O8 0.531654 0.297441 0.083153
O O9 0.257618 0.494663 0.067056
O O10 0.181588 0.393942 0.163223
O O11 0.892732 0.577481 0.213524
O O12 0.173039 0.143340 0.510279
O O13 0.118277 0.295914 0.235850
#
# Coordination Sequence:
#
# PCOD9165410 Si02
#       7
#     4   4   4   4   4   2   4
#     4   9  18  36  63 102 129 179 232 285 315 390
#     4  11  28  45  67  99 144 174 221 279 352 402
#     4  10  21  38  67  96 138 185 232 269 324 408
#     4   9  20  35  64  96 139 182 227 270 330 387
#     4  11  26  46  66 104 142 175 216 286 337 408
#     4  10  24  52  72  98 120 186 222 292 338 412
#     4   9  22  42  70  97 127 173 240 278 333 397
#
# _framework density 26.664842
#
# number of rings (size 3 to 8) (size 9 to 14) (size 15 to 20)
#    0.000    2.154    0.000    1.385   12.923    3.077 
#    2.769    0.000    0.000    0.000    0.000    0.000 
#    0.000    0.000    0.000    0.000    0.000    0.000 
#
# Total GULP energy -144907.981799 kJ/mol
# GULP energy per Si atom -5573.383915 kJ/mol
# Density = 2.660415 g / cm^3
# Si number density = 26.664842 Si / 1000 Ang^3
#
#
#
# Elastic Constant Matrix: (Units=GPa)
#
#
# Indices 1 2 3 4 5 6 
#
# 1 115.6630 29.4279 23.0259 0.0000 2.7663 0.0000
# 2 29.4279 165.3034 20.4227 0.0000 0.3361 0.0000
# 3 23.0259 20.4227 95.8149 0.0000 15.1933 0.0000
# 4 0.0000 0.0000 0.0000 9.1921 0.0000 -25.1887
# 5 2.7663 0.3361 15.1933 0.0000 42.1899 0.0000
# 6 0.0000 0.0000 0.0000 -25.1887 0.0000 16.2465
#
#
#
# Elastic Compliance Matrix: (Units=1/GPa)
#
#
# Indices 1 2 3 4 5 6 
#
# 1 0.009399 -0.001430 -0.001971 0.000000 0.000105 0.000000
# 2 -0.001430 0.006439 -0.001098 0.000000 0.000438 0.000000
# 3 -0.001971 -0.001098 0.011796 0.000000 -0.004110 0.000000
# 4 0.000000 0.000000 0.000000 -0.033489 0.000000 -0.051922
# 5 0.000105 0.000438 -0.004110 0.000000 0.025172 0.000000
# 6 0.000000 0.000000 0.000000 -0.051922 0.000000 -0.018948
#
#
# Mechanical properties :
#
#
# Convention : Reuss Voigt Hill
#
# Bulk Modulus (GPa) = 53.65766 58.05936 55.85851
# Shear Modulus (GPa) = 320.92388 33.78601 177.35494
#
# Velocity S-wave (km/s) = 10.98253 3.56344 8.16438
# Velocity P-wave (km/s) = 13.45318 6.22510 10.48189
#
# Compressibility (1/GPa) = 0.01863667
#
# Stress axis : x y z
#
# Youngs Moduli (GPa) = 106.38902 155.30704 84.77320
#
# Poissons Ratio (x) = 0.22210 0.16706
# Poissons Ratio (y) = 0.15214 0.09310
# Poissons Ratio (z) = 0.20965 0.17056
#
# Static dielectric constant tensor:
#      x y z
#    x 2.180300 0.000000 -0.044410 
#    y 0.000000 1.991820 0.000000 
#    z -0.044410 0.000000 2.162730 
# 
# From -- ./inp_files/10601.got.cif
#   From: 2010.05.17/outbox.cif.g08.bks.cpg/sg11_6_cif.got.tgz:10601.got - 2010.06.03 12:22:45.
