data_PCOD9165003
_publ_section_title
;
Structure prediction by ZEFSAII (Michael W. Deem and Ramdas Pophale) SiO2 
 PCOD9165003
Probable space group: P 21/M
;
_chemical_formula_sum "Si O2"
_cell_formula_units_Z 32
_cell_length_a 10.947534
_cell_length_b 15.097233
_cell_length_c 17.509643
_cell_angle_alpha 90.000000
_cell_angle_beta 33.174706
_cell_angle_gamma 90.000000
_cell_volume 1583.551147
_symmetry_space_group_name_H-M "P 21/M"
_symmetry_group_IT_number 11
_symmetry_cell_setting 'monoclinic'
loop_
_space_group_symop_operation_xyz
x,y,z
-x,1/2+y,-z
-x,-y,-z
x,1/2-y,z
loop_
_atom_site_type_symbol
_atom_site_label
_atom_site_fract_x
_atom_site_fract_y
_atom_site_fract_z
Si Si1 0.637767 0.348585 0.134804
Si Si2 0.769192 0.984688 0.450925
Si Si3 0.968306 0.046121 0.192454
Si Si4 0.111243 0.926809 0.385986
Si Si5 0.108335 0.417718 0.896672
Si Si6 0.578428 0.352894 0.339946
Si Si7 0.598130 0.149206 0.641923
Si Si8 0.535807 0.502399 0.072202
O O1 0.550892 0.250000 0.169260
O O2 0.557625 0.380184 0.260929
O O3 0.573063 0.410126 0.098008
O O4 0.906512 0.348806 0.999981
O O5 0.564755 0.921379 0.535175
O O6 0.916008 0.917424 0.426357
O O7 0.920052 0.023739 0.305073
O O8 0.678283 0.070716 0.543616
O O9 0.831713 0.129760 0.233411
O O10 0.870629 0.961590 0.197582
O O11 0.230120 0.053136 0.038942
O O12 0.220866 0.854660 0.384169
O O13 0.322528 0.958650 0.226234
O O14 0.000000 0.000000 0.500000
O O15 0.346356 0.380306 0.797825
O O16 0.000000 0.500000 0.000000
O O17 0.520060 0.250000 0.377802
O O18 0.589495 0.250000 0.615987
O O19 0.500000 0.500000 0.000000
#
# Coordination Sequence:
#
# PCOD9165003 Si02
#       8
#     4   4   4   4   4   4   4   4
#     4  10  21  37  60  93 125 162 214 264 316 384
#     4  11  22  43  62  89 133 175 215 265 331 398
#     4  11  22  39  65  93 127 167 212 268 328 391
#     4  10  22  41  66  90 124 169 221 260 318 390
#     4  11  19  37  63  90 127 163 211 266 327 387
#     4  11  23  40  66  96 127 172 224 269 321 387
#     4  11  23  38  64  96 127 167 221 275 323 384
#     4  11  22  42  68  93 124 176 212 262 331 392
#
# _framework density 20.207746
#
# number of rings (size 3 to 8) (size 9 to 14) (size 15 to 20)
#    0.000    1.250    3.750    3.750    0.000    1.000 
#    0.000    7.500    0.000    0.000    0.000    0.000 
#    0.000    0.000    0.000    0.000    0.000    0.000 
#
# Total GULP energy -178362.600945 kJ/mol
# GULP energy per Si atom -5573.831280 kJ/mol
# Density = 2.016175 g / cm^3
# Si number density = 20.207746 Si / 1000 Ang^3
#
#
#
# Elastic Constant Matrix: (Units=GPa)
#
#
# Indices 1 2 3 4 5 6 
#
# 1 60.4521 10.3293 15.5792 0.0000 -6.6609 0.0000
# 2 10.3293 86.6704 27.4043 0.0000 -3.5738 0.0000
# 3 15.5792 27.4043 111.7346 0.0000 -4.2366 0.0000
# 4 0.0000 0.0000 0.0000 12.1430 0.0000 -1.0682
# 5 -6.6609 -3.5738 -4.2366 0.0000 37.8481 0.0000
# 6 0.0000 0.0000 0.0000 -1.0682 0.0000 17.3210
#
#
#
# Elastic Compliance Matrix: (Units=1/GPa)
#
#
# Indices 1 2 3 4 5 6 
#
# 1 0.017595 -0.001345 -0.002019 0.000000 0.002743 0.000000
# 2 -0.001345 0.012638 -0.002888 0.000000 0.000633 0.000000
# 3 -0.002019 -0.002888 0.009958 0.000000 0.000487 0.000000
# 4 0.000000 0.000000 0.000000 0.082801 0.000000 0.005107
# 5 0.002743 0.000633 0.000487 0.000000 0.027019 0.000000
# 6 0.000000 0.000000 0.000000 0.005107 0.000000 0.058048
#
#
# Mechanical properties :
#
#
# Convention : Reuss Voigt Hill
#
# Bulk Modulus (GPa) = 36.12038 40.60919 38.36478
# Shear Modulus (GPa) = 21.75886 27.16538 24.46212
#
# Velocity S-wave (km/s) = 3.28496 3.67045 3.48304
# Velocity P-wave (km/s) = 5.68342 6.17272 5.93312
#
# Compressibility (1/GPa) = 0.02768520
#
# Stress axis : x y z
#
# Youngs Moduli (GPa) = 56.83580 79.12935 100.42102
#
# Poissons Ratio (x) = 0.10645 0.20277
# Poissons Ratio (y) = 0.07646 0.29001
# Poissons Ratio (z) = 0.11477 0.22852
#
# Static dielectric constant tensor:
#      x y z
#    x 1.811810 0.000000 -0.022970 
#    y 0.000000 1.727770 0.000000 
#    z -0.022970 0.000000 1.766410 
# 
# From -- ./inp_files/59459.got.cif
#   From: 2010.05.17/outbox.cif.g08.bks.cpg/sg11_30_cif.got.tgz:59459.got - 2010.06.03 12:22:45.
