data_PCOD9165307
_publ_section_title
;
Structure prediction by ZEFSAII (Michael W. Deem and Ramdas Pophale) SiO2 
 PCOD9165307
Probable space group: P 21/M
;
_chemical_formula_sum "Si O2"
_cell_formula_units_Z 24
_cell_length_a 5.446925
_cell_length_b 12.314753
_cell_length_c 15.840177
_cell_angle_alpha 90.000000
_cell_angle_beta 76.970416
_cell_angle_gamma 90.000000
_cell_volume 1035.164172
_symmetry_space_group_name_H-M "P 21/M"
_symmetry_group_IT_number 11
_symmetry_cell_setting 'monoclinic'
loop_
_space_group_symop_operation_xyz
x,y,z
-x,1/2+y,-z
-x,-y,-z
x,1/2-y,z
loop_
_atom_site_type_symbol
_atom_site_label
_atom_site_fract_x
_atom_site_fract_y
_atom_site_fract_z
Si Si1 0.511185 0.864831 0.438711
Si Si2 0.713876 0.982629 0.054042
Si Si3 0.026891 0.030603 0.690341
Si Si4 0.702825 0.120890 0.218207
Si Si5 0.702264 0.576435 0.600003
Si Si6 0.773491 0.250000 0.759862
Si Si7 0.224799 0.250000 0.862215
O O1 0.402166 0.750000 0.423883
O O2 0.626280 0.858477 0.523526
O O3 0.731187 0.904464 0.360305
O O4 0.310332 0.957286 0.441252
O O5 0.637015 0.068440 0.133566
O O6 0.732193 0.859664 0.087795
O O7 0.500000 0.000000 0.000000
O O8 0.000000 0.000000 0.000000
O O9 0.835266 0.129990 0.717364
O O10 0.963927 0.934755 0.628126
O O11 0.072963 0.959888 0.769840
O O12 0.756426 0.250000 0.209425
O O13 0.492260 0.102541 0.308415
O O14 0.472816 0.250000 0.785534
O O15 0.962017 0.250000 0.829030
#
# Coordination Sequence:
#
# PCOD9165307 Si02
#       7
#     4   4   4   4   4   2   2
#     4  10  21  38  61  97 138 185 240 295 350 415
#     4  12  29  50  77 111 145 187 238 297 367 439
#     4  11  23  40  66 103 138 188 237 296 352 423
#     4  11  26  46  70 100 139 184 236 293 364 438
#     4  10  23  41  64  96 138 184 240 293 357 427
#     4  12  24  42  78 108 144 187 240 303 358 428
#     4  12  26  50  76 110 146 185 240 303 360 436
#
# _framework density 23.184729999999998
#
# number of rings (size 3 to 8) (size 9 to 14) (size 15 to 20)
#    0.000    1.000    2.500    3.000    8.167    1.333 
#    0.000    0.000    0.000    0.000    0.000    0.000 
#    0.000    0.000    0.000    0.000    0.000    0.000 
#
# Total GULP energy -133802.110592 kJ/mol
# GULP energy per Si atom -5575.087941 kJ/mol
# Density = 2.313196 g / cm^3
# Si number density = 23.184730 Si / 1000 Ang^3
#
#
#
# Elastic Constant Matrix: (Units=GPa)
#
#
# Indices 1 2 3 4 5 6 
#
# 1 57.0310 5.9579 29.4176 0.0000 13.9278 0.0000
# 2 5.9579 161.9026 75.2548 0.0000 8.9267 0.0000
# 3 29.4176 75.2548 118.2626 0.0000 25.5364 0.0000
# 4 0.0000 0.0000 0.0000 25.6525 0.0000 -1.5992
# 5 13.9278 8.9267 25.5364 0.0000 47.1018 0.0000
# 6 0.0000 0.0000 0.0000 -1.5992 0.0000 25.4618
#
#
#
# Elastic Compliance Matrix: (Units=1/GPa)
#
#
# Indices 1 2 3 4 5 6 
#
# 1 0.021198 0.002149 -0.005888 0.000000 -0.003483 0.000000
# 2 0.002149 0.009089 -0.006579 0.000000 0.001209 0.000000
# 3 -0.005888 -0.006579 0.015247 0.000000 -0.005278 0.000000
# 4 0.000000 0.000000 0.000000 0.039136 0.000000 0.002458
# 5 -0.003483 0.001209 -0.005278 0.000000 0.024893 0.000000
# 6 0.000000 0.000000 0.000000 0.002458 0.000000 0.039429
#
#
# Mechanical properties :
#
#
# Convention : Reuss Voigt Hill
#
# Bulk Modulus (GPa) = 40.16666 62.05077 51.10871
# Shear Modulus (GPa) = 28.10145 34.74761 31.42453
#
# Velocity S-wave (km/s) = 3.48525 3.87554 3.68557
# Velocity P-wave (km/s) = 5.79294 6.84457 6.34060
#
# Compressibility (1/GPa) = 0.02489627
#
# Stress axis : x y z
#
# Youngs Moduli (GPa) = 47.17493 110.02388 65.58780
#
# Poissons Ratio (x) = -0.23643 0.38620
# Poissons Ratio (y) = -0.10138 0.43152
# Poissons Ratio (z) = 0.27778 0.72387
#
# Static dielectric constant tensor:
#      x y z
#    x 1.931580 0.000000 0.021740 
#    y 0.000000 1.963380 0.000000 
#    z 0.021740 0.000000 1.987230 
# 
# From -- ./inp_files/56808.got.cif
#   From: 2010.05.17/outbox.cif.g08.bks.cpg/sg11_29_cif.got.tgz:56808.got - 2010.06.03 12:22:45.
