data_PCOD9165997
_publ_section_title
;
Structure prediction by ZEFSAII (Michael W. Deem and Ramdas Pophale) SiO2 
 PCOD9165997
Probable space group: P 21/M
;
_chemical_formula_sum "Si O2"
_cell_formula_units_Z 28
_cell_length_a 8.963412
_cell_length_b 25.380954
_cell_length_c 8.316783
_cell_angle_alpha 90.000000
_cell_angle_beta 43.256376
_cell_angle_gamma 90.000000
_cell_volume 1296.565956
_symmetry_space_group_name_H-M "P 21/M"
_symmetry_group_IT_number 11
_symmetry_cell_setting 'monoclinic'
loop_
_space_group_symop_operation_xyz
x,y,z
-x,1/2+y,-z
-x,-y,-z
x,1/2-y,z
loop_
_atom_site_type_symbol
_atom_site_label
_atom_site_fract_x
_atom_site_fract_y
_atom_site_fract_z
Si Si1 0.984638 0.376409 0.736160
Si Si2 0.197572 0.961078 0.882339
Si Si3 0.621214 0.812093 0.437251
Si Si4 0.453888 0.464491 0.881560
Si Si5 0.710406 0.116684 0.484122
Si Si6 0.163044 0.378911 0.251673
Si Si7 0.555392 0.189026 0.058537
O O1 0.154851 0.344404 0.714198
O O2 0.107985 0.393872 0.478572
O O3 0.880856 0.425321 0.908340
O O4 0.785940 0.338057 0.847893
O O5 0.255806 0.921664 0.694232
O O6 0.400414 0.996407 0.778097
O O7 0.000000 0.000000 0.000000
O O8 0.656863 0.750000 0.376320
O O9 0.471459 0.841048 0.423413
O O10 0.502416 0.815767 0.705521
O O11 0.634853 0.422425 0.686256
O O12 0.500000 0.500000 0.000000
O O13 0.243841 0.429159 0.089006
O O14 0.941652 0.142071 0.347063
O O15 0.361914 0.338566 0.112209
O O16 0.565639 0.250000 0.009741
#
# Coordination Sequence:
#
# PCOD9165997 Si02
#       7
#     4   4   4   4   4   4   4
#     4  11  23  44  69  97 134 176 226 278 328 413
#     4  12  24  42  67  98 135 181 224 279 341 394
#     4  10  23  42  71 101 132 173 221 281 345 397
#     4  12  27  43  66  96 136 186 226 271 338 402
#     4  12  25  44  67 101 143 172 228 282 337 409
#     4  11  25  43  64  97 136 174 225 272 330 411
#     4  10  21  43  70  97 129 175 226 280 340 404
#
# _framework density 21.595509
#
# number of rings (size 3 to 8) (size 9 to 14) (size 15 to 20)
#    0.000    0.857    2.857    4.286    4.000    2.286 
#    0.000    2.143    0.000    0.000    0.000    0.000 
#    0.000    0.000    0.000    0.000    0.000    0.000 
#
# Total GULP energy -156699.488465 kJ/mol
# GULP energy per Si atom -5596.410302 kJ/mol
# Density = 2.154636 g / cm^3
# Si number density = 21.595509 Si / 1000 Ang^3
#
#
#
# Elastic Constant Matrix: (Units=GPa)
#
#
# Indices 1 2 3 4 5 6 
#
# 1 112.6920 30.3211 3.4877 0.0000 -25.4660 0.0000
# 2 30.3211 85.1744 13.7200 0.0000 -2.0437 0.0000
# 3 3.4877 13.7200 53.6202 0.0000 -5.5293 0.0000
# 4 0.0000 0.0000 0.0000 25.2478 0.0000 -2.3383
# 5 -25.4660 -2.0437 -5.5293 0.0000 38.4716 0.0000
# 6 0.0000 0.0000 0.0000 -2.3383 0.0000 29.9846
#
#
#
# Elastic Compliance Matrix: (Units=1/GPa)
#
#
# Indices 1 2 3 4 5 6 
#
# 1 0.011692 -0.004154 0.001094 0.000000 0.007676 0.000000
# 2 -0.004154 0.013723 -0.003501 0.000000 -0.002524 0.000000
# 3 0.001094 -0.003501 0.019824 0.000000 0.003387 0.000000
# 4 0.000000 0.000000 0.000000 0.039895 0.000000 0.003111
# 5 0.007676 -0.002524 0.003387 0.000000 0.031427 0.000000
# 6 0.000000 0.000000 0.000000 0.003111 0.000000 0.033593
#
#
# Mechanical properties :
#
#
# Convention : Reuss Voigt Hill
#
# Bulk Modulus (GPa) = 31.13759 38.50493 34.82126
# Shear Modulus (GPa) = 28.73837 32.33800 30.53818
#
# Velocity S-wave (km/s) = 3.65191 3.87388 3.76453
# Velocity P-wave (km/s) = 5.67731 6.15451 5.92072
#
# Compressibility (1/GPa) = 0.03211552
#
# Stress axis : x y z
#
# Youngs Moduli (GPa) = 85.52616 72.87049 50.44457
#
# Poissons Ratio (x) = 0.30273 -0.05519
# Poissons Ratio (y) = 0.35531 0.17663
# Poissons Ratio (z) = -0.09357 0.25515
#
# Static dielectric constant tensor:
#      x y z
#    x 1.787200 0.000000 0.013650 
#    y 0.000000 1.706300 0.000000 
#    z 0.013650 0.000000 1.772010 
# 
# From -- ./inp_files/15252.got.cif
#   From: 2010.05.17/outbox.cif.g08.bks.cpg/sg11_8_cif.got.tgz:15252.got - 2010.06.03 12:22:45.
