data_PCOD9165423
_publ_section_title
;
Structure prediction by ZEFSAII (Michael W. Deem and Ramdas Pophale) SiO2 
 PCOD9165423
Probable space group: P 21/M
;
_chemical_formula_sum "Si O2"
_cell_formula_units_Z 28
_cell_length_a 9.187977
_cell_length_b 8.816875
_cell_length_c 29.485631
_cell_angle_alpha 90.000000
_cell_angle_beta 140.698874
_cell_angle_gamma 90.000000
_cell_volume 1512.935386
_symmetry_space_group_name_H-M "P 21/M"
_symmetry_group_IT_number 11
_symmetry_cell_setting 'monoclinic'
loop_
_space_group_symop_operation_xyz
x,y,z
-x,1/2+y,-z
-x,-y,-z
x,1/2-y,z
loop_
_atom_site_type_symbol
_atom_site_label
_atom_site_fract_x
_atom_site_fract_y
_atom_site_fract_z
Si Si1 0.751274 0.432506 0.068077
Si Si2 0.093667 0.067406 0.069425
Si Si3 0.543534 0.931873 0.647252
Si Si4 0.403617 0.430524 0.793653
Si Si5 0.773510 0.432202 0.342034
Si Si6 0.927818 0.066461 0.210352
Si Si7 0.163996 0.068863 0.500681
O O1 0.734469 0.250000 0.063490
O O2 0.854132 0.476598 0.141662
O O3 0.922525 0.476999 0.068928
O O4 0.500000 0.500000 0.000000
O O5 0.100634 0.250000 0.068490
O O6 0.346477 0.005023 0.140383
O O7 0.000000 0.000000 0.000000
O O8 0.530405 0.750000 0.639526
O O9 0.402597 0.970062 0.659311
O O10 0.808078 0.976110 0.716338
O O11 0.413115 0.004810 0.573034
O O12 0.423267 0.250000 0.800476
O O13 0.296916 0.482849 0.720164
O O14 0.240937 0.490917 0.794433
O O15 0.759471 0.250000 0.331426
O O16 0.030279 0.468806 0.422009
O O17 0.911360 0.250000 0.210091
O O18 0.164968 0.250000 0.504931
O O19 0.000000 0.000000 0.500000
#
# Coordination Sequence:
#
# PCOD9165423 Si02
#       7
#     4   4   4   4   4   4   4
#     4  10  22  39  61  86 112 144 183 224 269 323
#     4  11  23  41  63  88 117 148 184 226 273 329
#     4   9  18  34  58  84 109 142 187 233 284 339
#     4  12  25  38  55  83 114 148 190 233 276 326
#     4   9  18  35  57  81 110 146 185 228 279 336
#     4  10  21  39  59  79 109 150 187 227 281 334
#     4   9  17  30  52  81 112 144 182 229 282 335
#
# _framework density 18.507069000000001
#
# number of rings (size 3 to 8) (size 9 to 14) (size 15 to 20)
#    0.000    2.000    0.000    4.714    0.000    9.714 
#    0.000    2.143    0.000    0.000    0.000    0.000 
#    0.000    0.000    0.000    0.000    0.000    0.000 
#
# Total GULP energy -156355.956796 kJ/mol
# GULP energy per Si atom -5584.141314 kJ/mol
# Density = 1.846495 g / cm^3
# Si number density = 18.507069 Si / 1000 Ang^3
#
#
#
# Elastic Constant Matrix: (Units=GPa)
#
#
# Indices 1 2 3 4 5 6 
#
# 1 137.9236 53.5449 104.1327 0.0000 6.1288 0.0000
# 2 53.5449 50.3701 67.8125 0.0000 -0.6074 0.0000
# 3 104.1327 67.8125 214.5389 0.0000 9.2228 0.0000
# 4 0.0000 0.0000 0.0000 38.5047 0.0000 1.3537
# 5 6.1288 -0.6074 9.2228 0.0000 29.9076 0.0000
# 6 0.0000 0.0000 0.0000 1.3537 0.0000 24.8970
#
#
#
# Elastic Compliance Matrix: (Units=1/GPa)
#
#
# Indices 1 2 3 4 5 6 
#
# 1 0.013874 -0.010134 -0.003446 0.000000 -0.001986 0.000000
# 2 -0.010134 0.042471 -0.008748 0.000000 0.005637 0.000000
# 3 -0.003446 -0.008748 0.009198 0.000000 -0.002308 0.000000
# 4 0.000000 0.000000 0.000000 0.026021 0.000000 -0.001415
# 5 -0.001986 0.005637 -0.002308 0.000000 0.034670 0.000000
# 6 0.000000 0.000000 0.000000 -0.001415 0.000000 0.040242
#
#
# Mechanical properties :
#
#
# Convention : Reuss Voigt Hill
#
# Bulk Modulus (GPa) = 47.87420 94.86810 71.37115
# Shear Modulus (GPa) = 22.92588 30.48466 26.70527
#
# Velocity S-wave (km/s) = 3.52343 4.06296 3.80277
# Velocity P-wave (km/s) = 6.51743 8.56633 7.61114
#
# Compressibility (1/GPa) = 0.02088808
#
# Stress axis : x y z
#
# Youngs Moduli (GPa) = 72.07495 23.54551 108.71920
#
# Poissons Ratio (x) = 0.23861 0.37463
# Poissons Ratio (y) = 0.73040 0.95107
# Poissons Ratio (z) = 0.24836 0.20598
#
# Static dielectric constant tensor:
#      x y z
#    x 1.625660 0.000000 0.010470 
#    y 0.000000 1.621530 0.000000 
#    z 0.010470 0.000000 1.643020 
# 
# From -- ./inp_files/28332.got.cif
#   From: 2010.05.17/outbox.cif.g08.bks.cpg/sg11_15_cif.got.tgz:28332.got - 2010.06.03 12:22:45.
