data_PCOD9165468
_publ_section_title
;
Structure prediction by ZEFSAII (Michael W. Deem and Ramdas Pophale) SiO2 
 PCOD9165468
Probable space group: P 21/M
;
_chemical_formula_sum "Si O2"
_cell_formula_units_Z 32
_cell_length_a 24.426683
_cell_length_b 9.452747
_cell_length_c 19.815669
_cell_angle_alpha 90.000000
_cell_angle_beta 156.846669
_cell_angle_gamma 90.000000
_cell_volume 1799.024913
_symmetry_space_group_name_H-M "P 21/M"
_symmetry_group_IT_number 11
_symmetry_cell_setting 'monoclinic'
loop_
_space_group_symop_operation_xyz
x,y,z
-x,1/2+y,-z
-x,-y,-z
x,1/2-y,z
loop_
_atom_site_type_symbol
_atom_site_label
_atom_site_fract_x
_atom_site_fract_y
_atom_site_fract_z
Si Si1 0.860445 0.418838 0.820166
Si Si2 0.828339 0.919349 0.516930
Si Si3 0.370187 0.581352 0.170813
Si Si4 0.303378 0.080602 0.484488
Si Si5 0.642291 0.580581 0.174145
Si Si6 0.872487 0.588328 0.329984
Si Si7 0.883817 0.915205 0.182334
Si Si8 0.629876 0.413994 0.672797
O O1 0.882619 0.250000 0.833789
O O2 0.785916 0.492057 0.671220
O O3 0.757679 0.434817 0.767510
O O4 0.000000 0.500000 0.000000
O O5 0.856337 0.750000 0.544272
O O6 0.752842 0.945551 0.503303
O O7 0.727163 0.956236 0.338997
O O8 0.973480 0.004220 0.675992
O O9 0.352193 0.750000 0.138104
O O10 0.531463 0.547015 0.335649
O O11 0.343584 0.551887 0.219512
O O12 0.252969 0.492417 0.000433
O O13 0.288374 0.250000 0.453848
O O14 0.618989 0.750000 0.149724
O O15 0.736795 0.543526 0.216772
O O16 0.500000 0.500000 0.000000
O O17 0.896805 0.750000 0.377533
O O18 0.866756 0.579638 0.243591
O O19 0.000000 0.500000 0.500000
O O20 0.890731 0.750000 0.169481
O O21 0.500000 0.500000 0.500000
O O22 0.591110 0.250000 0.626828
#
# Coordination Sequence:
#
# PCOD9165468 Si02
#       8
#     4   4   4   4   4   4   4   4
#     4  11  24  40  61  90 120 156 197 242 293 348
#     4  10  22  41  62  85 118 158 198 239 290 354
#     4  10  22  40  62  87 117 156 195 238 292 352
#     4  10  22  41  63  87 117 155 198 242 291 351
#     4  10  22  39  60  87 117 154 196 242 293 348
#     4  10  21  39  61  85 115 152 198 246 292 343
#     4  11  24  39  59  90 120 153 197 245 294 345
#     4  10  21  39  63  87 113 150 198 244 291 344
#
# _framework density 17.787412
#
# number of rings (size 3 to 8) (size 9 to 14) (size 15 to 20)
#    0.000    1.750    2.500    0.750    3.500    3.500 
#    0.000    0.000    0.000    0.000    0.000    0.000 
#    0.000    0.000    0.000    0.000    0.000    0.000 
#
# Total GULP energy -178571.030424 kJ/mol
# GULP energy per Si atom -5580.344701 kJ/mol
# Density = 1.774693 g / cm^3
# Si number density = 17.787412 Si / 1000 Ang^3
#
#
#
# Elastic Constant Matrix: (Units=GPa)
#
#
# Indices 1 2 3 4 5 6 
#
# 1 101.8844 57.7457 51.4424 0.0000 9.6521 0.0000
# 2 57.7457 71.7280 91.9484 0.0000 4.9278 0.0000
# 3 51.4424 91.9484 154.8477 0.0000 11.0566 0.0000
# 4 0.0000 0.0000 0.0000 41.3138 0.0000 0.9484
# 5 9.6521 4.9278 11.0566 0.0000 15.2166 0.0000
# 6 0.0000 0.0000 0.0000 0.9484 0.0000 28.0706
#
#
#
# Elastic Compliance Matrix: (Units=1/GPa)
#
#
# Indices 1 2 3 4 5 6 
#
# 1 0.027437 -0.045144 0.018870 0.000000 -0.016495 0.000000
# 2 -0.045144 0.133300 -0.066572 0.000000 0.033840 0.000000
# 3 0.018870 -0.066572 0.041171 0.000000 -0.020326 0.000000
# 4 0.000000 0.000000 0.000000 0.024224 0.000000 -0.000818
# 5 -0.016495 0.033840 -0.020326 0.000000 0.079991 0.000000
# 6 0.000000 0.000000 0.000000 -0.000818 0.000000 0.035652
#
#
# Mechanical properties :
#
#
# Convention : Reuss Voigt Hill
#
# Bulk Modulus (GPa) = 61.67429 81.19257 71.43343
# Shear Modulus (GPa) = 9.38307 25.40843 17.39575
#
# Velocity S-wave (km/s) = 2.29925 3.78358 3.13066
# Velocity P-wave (km/s) = 6.46506 8.05186 7.30170
#
# Compressibility (1/GPa) = 0.01621421
#
# Stress axis : x y z
#
# Youngs Moduli (GPa) = 36.44705 7.50186 24.28883
#
# Poissons Ratio (x) = 0.33867 -0.45832
# Poissons Ratio (y) = 1.64538 1.61696
# Poissons Ratio (z) = -0.68774 0.49942
#
# Static dielectric constant tensor:
#      x y z
#    x 1.607630 0.000000 0.006230 
#    y 0.000000 1.590110 0.000000 
#    z 0.006230 0.000000 1.581430 
# 
# From -- ./inp_files/67199.got.cif
#   From: 2010.05.17/outbox.cif.g08.bks.cpg/sg11_34_cif.got.tgz:67199.got - 2010.06.03 12:22:45.
