data_PCOD9165420
_publ_section_title
;
Structure prediction by ZEFSAII (Michael W. Deem and Ramdas Pophale) SiO2 
 PCOD9165420
Probable space group: P 21/M
;
_chemical_formula_sum "Si O2"
_cell_formula_units_Z 24
_cell_length_a 16.291021
_cell_length_b 13.239920
_cell_length_c 21.826005
_cell_angle_alpha 90.000000
_cell_angle_beta 164.328353
_cell_angle_gamma 90.000000
_cell_volume 1271.660326
_symmetry_space_group_name_H-M "P 21/M"
_symmetry_group_IT_number 11
_symmetry_cell_setting 'monoclinic'
loop_
_space_group_symop_operation_xyz
x,y,z
-x,1/2+y,-z
-x,-y,-z
x,1/2-y,z
loop_
_atom_site_type_symbol
_atom_site_label
_atom_site_fract_x
_atom_site_fract_y
_atom_site_fract_z
Si Si1 0.215103 0.867320 0.262821
Si Si2 0.351593 0.976266 0.488545
Si Si3 0.342531 0.862412 0.852603
Si Si4 0.314901 0.950661 0.962338
Si Si5 0.221066 0.037498 0.605270
Si Si6 0.500654 0.366929 0.280016
O O1 0.304495 0.750000 0.320326
O O2 0.290602 0.907934 0.384933
O O3 0.394934 0.940879 0.346174
O O4 0.854646 0.874234 0.992394
O O5 0.448505 0.906897 0.614880
O O6 0.039227 0.033346 0.280625
O O7 0.419563 0.750000 0.888624
O O8 0.989452 0.887144 0.584514
O O9 0.384624 0.877876 0.955442
O O10 0.548718 0.942318 0.964095
O O11 0.486842 0.921384 0.148419
O O12 0.317015 0.942654 0.633020
O O13 0.000000 0.000000 0.500000
O O14 0.595951 0.250000 0.342050
#
# Coordination Sequence:
#
# PCOD9165420 Si02
#       6
#     4   4   4   4   4   4
#     4  10  23  40  62  89 118 158 200 248 307 359
#     4  11  21  40  64  88 123 152 199 260 296 357
#     4  10  22  39  59  87 122 160 200 244 295 357
#     4  10  21  39  61  88 120 156 201 247 298 353
#     4  10  21  39  58  89 124 156 195 243 299 346
#     4  11  22  39  64  90 118 159 205 244 297 359
#
# _framework density 18.872965000000001
#
# number of rings (size 3 to 8) (size 9 to 14) (size 15 to 20)
#    0.000    1.667    3.333    1.000    0.000    5.333 
#    0.000    0.000    0.000    0.000    0.000    0.000 
#    0.000    0.000    0.000    0.000    0.000    0.000 
#
# Total GULP energy -134001.090340 kJ/mol
# GULP energy per Si atom -5583.378764 kJ/mol
# Density = 1.883001 g / cm^3
# Si number density = 18.872965 Si / 1000 Ang^3
#
#
#
# Elastic Constant Matrix: (Units=GPa)
#
#
# Indices 1 2 3 4 5 6 
#
# 1 79.9461 11.9635 17.9535 0.0000 -8.1058 0.0000
# 2 11.9635 26.3795 14.7275 0.0000 8.5406 0.0000
# 3 17.9535 14.7275 36.8747 0.0000 1.2191 0.0000
# 4 0.0000 0.0000 0.0000 23.8691 0.0000 1.7286
# 5 -8.1058 8.5406 1.2191 0.0000 29.6165 0.0000
# 6 0.0000 0.0000 0.0000 1.7286 0.0000 7.5310
#
#
#
# Elastic Compliance Matrix: (Units=1/GPa)
#
#
# Indices 1 2 3 4 5 6 
#
# 1 0.015187 -0.005942 -0.005222 0.000000 0.006085 0.000000
# 2 -0.005942 0.056957 -0.019284 0.000000 -0.017257 0.000000
# 3 -0.005222 -0.019284 0.037278 0.000000 0.002597 0.000000
# 4 0.000000 0.000000 0.000000 0.042603 0.000000 -0.009779
# 5 0.006085 -0.017257 0.002597 0.000000 0.040300 0.000000
# 6 0.000000 0.000000 0.000000 -0.009779 0.000000 0.135029
#
#
# Mechanical properties :
#
#
# Convention : Reuss Voigt Hill
#
# Bulk Modulus (GPa) = 20.60846 25.83214 23.22030
# Shear Modulus (GPa) = 12.36319 18.77371 15.56845
#
# Velocity S-wave (km/s) = 2.56222 3.15737 2.87524
# Velocity P-wave (km/s) = 4.43808 5.19703 4.83248
#
# Compressibility (1/GPa) = 0.04852375
#
# Stress axis : x y z
#
# Youngs Moduli (GPa) = 65.84409 17.55725 26.82571
#
# Poissons Ratio (x) = 0.10433 0.14009
# Poissons Ratio (y) = 0.39126 0.51732
# Poissons Ratio (z) = 0.34386 0.33858
#
# Static dielectric constant tensor:
#      x y z
#    x 1.641370 0.000000 -0.031540 
#    y 0.000000 1.638800 0.000000 
#    z -0.031540 0.000000 1.684690 
# 
# From -- ./inp_files/65613.got.cif
#   From: 2010.05.17/outbox.cif.g08.bks.cpg/sg11_33_cif.got.tgz:65613.got - 2010.06.03 12:22:45.
