data_PCOD9165838
_publ_section_title
;
Structure prediction by ZEFSAII (Michael W. Deem and Ramdas Pophale) SiO2 
 PCOD9165838
Probable space group: P 21/M
;
_chemical_formula_sum "Si O2"
_cell_formula_units_Z 28
_cell_length_a 5.096213
_cell_length_b 29.404223
_cell_length_c 9.261407
_cell_angle_alpha 90.000000
_cell_angle_beta 112.712073
_cell_angle_gamma 90.000000
_cell_volume 1280.207196
_symmetry_space_group_name_H-M "P 21/M"
_symmetry_group_IT_number 11
_symmetry_cell_setting 'monoclinic'
loop_
_space_group_symop_operation_xyz
x,y,z
-x,1/2+y,-z
-x,-y,-z
x,1/2-y,z
loop_
_atom_site_type_symbol
_atom_site_label
_atom_site_fract_x
_atom_site_fract_y
_atom_site_fract_z
Si Si1 0.666059 0.300219 0.853537
Si Si2 0.288662 0.039497 0.895434
Si Si3 0.542669 0.892517 0.327374
Si Si4 0.012872 0.915103 0.623561
Si Si5 0.783517 0.029995 0.584552
Si Si6 0.338825 0.101942 0.175515
Si Si7 0.689277 0.799887 0.935784
O O1 0.561090 0.250000 0.783612
O O2 0.568382 0.344460 0.748497
O O3 0.553576 0.305810 0.994491
O O4 0.006054 0.299062 0.921191
O O5 0.416050 0.072023 0.796691
O O6 0.005083 0.018934 0.761034
O O7 0.228491 0.074180 0.013529
O O8 0.500000 0.000000 0.000000
O O9 0.836292 0.883961 0.475444
O O10 0.337130 0.920274 0.390482
O O11 0.813680 0.919134 0.719252
O O12 0.062979 0.958987 0.534690
O O13 0.322562 0.902308 0.743377
O O14 0.500000 0.000000 0.500000
O O15 0.288354 0.155817 0.157785
O O16 0.650055 0.750000 0.857909
#
# Coordination Sequence:
#
# PCOD9165838 Si02
#       7
#     4   4   4   4   4   4   4
#     4  10  21  40  71 106 135 175 231 289 348 420
#     4  11  28  43  74 107 137 180 248 302 343 419
#     4  11  24  47  71 101 143 187 234 285 363 417
#     4  11  27  45  72  98 144 193 223 288 360 424
#     4  11  27  51  72  97 145 197 238 291 363 429
#     4  12  24  47  71 105 142 180 239 291 354 416
#     4  10  21  40  70 105 139 176 224 291 359 415
#
# _framework density 21.871459999999999
#
# number of rings (size 3 to 8) (size 9 to 14) (size 15 to 20)
#    0.000    1.143    2.857    1.714    8.000    1.714 
#    0.000    4.286    0.000    0.857    0.000    0.000 
#    0.000    0.000    0.000    0.000    0.000    0.000 
#
# Total GULP energy -156482.688731 kJ/mol
# GULP energy per Si atom -5588.667455 kJ/mol
# Density = 2.182168 g / cm^3
# Si number density = 21.871460 Si / 1000 Ang^3
#
#
#
# Elastic Constant Matrix: (Units=GPa)
#
#
# Indices 1 2 3 4 5 6 
#
# 1 77.6190 3.4168 37.6195 0.0000 3.7992 0.0000
# 2 3.4168 140.7957 40.4367 0.0000 4.9989 0.0000
# 3 37.6195 40.4367 116.8127 0.0000 9.2840 0.0000
# 4 0.0000 0.0000 0.0000 24.7860 0.0000 4.8335
# 5 3.7992 4.9989 9.2840 0.0000 46.0505 0.0000
# 6 0.0000 0.0000 0.0000 4.8335 0.0000 26.0822
#
#
#
# Elastic Compliance Matrix: (Units=1/GPa)
#
#
# Indices 1 2 3 4 5 6 
#
# 1 0.015443 0.001174 -0.005354 0.000000 -0.000322 0.000000
# 2 0.001174 0.007980 -0.003114 0.000000 -0.000335 0.000000
# 3 -0.005354 -0.003114 0.011485 0.000000 -0.001536 0.000000
# 4 0.000000 0.000000 0.000000 0.041858 0.000000 -0.007757
# 5 -0.000322 -0.000335 -0.001536 0.000000 0.022088 0.000000
# 6 0.000000 0.000000 0.000000 -0.007757 0.000000 0.039778
#
#
# Mechanical properties :
#
#
# Convention : Reuss Voigt Hill
#
# Bulk Modulus (GPa) = 49.21226 55.35259 52.28242
# Shear Modulus (GPa) = 31.25145 36.30072 33.77608
#
# Velocity S-wave (km/s) = 3.78414 4.07840 3.93402
# Velocity P-wave (km/s) = 6.45310 6.89499 6.67770
#
# Compressibility (1/GPa) = 0.02032014
#
# Stress axis : x y z
#
# Youngs Moduli (GPa) = 64.75628 125.30922 87.06954
#
# Poissons Ratio (x) = -0.14717 0.46619
# Poissons Ratio (y) = -0.07605 0.27114
# Poissons Ratio (z) = 0.34672 0.39022
#
# Static dielectric constant tensor:
#      x y z
#    x 1.834340 0.000000 -0.010380 
#    y 0.000000 1.884940 0.000000 
#    z -0.010380 0.000000 1.790560 
# 
# From -- ./inp_files/10890.got.cif
#   From: 2010.05.17/outbox.cif.g08.bks.cpg/sg11_6_cif.got.tgz:10890.got - 2010.06.03 12:22:45.
