data_PCOD9165941
_publ_section_title
;
Structure prediction by ZEFSAII (Michael W. Deem and Ramdas Pophale) SiO2 
 PCOD9165941
Probable space group: P 21/M
;
_chemical_formula_sum "Si O2"
_cell_formula_units_Z 32
_cell_length_a 9.208228
_cell_length_b 30.061062
_cell_length_c 11.528157
_cell_angle_alpha 90.000000
_cell_angle_beta 25.814473
_cell_angle_gamma 90.000000
_cell_volume 1389.591169
_symmetry_space_group_name_H-M "P 21/M"
_symmetry_group_IT_number 11
_symmetry_cell_setting 'monoclinic'
loop_
_space_group_symop_operation_xyz
x,y,z
-x,1/2+y,-z
-x,-y,-z
x,1/2-y,z
loop_
_atom_site_type_symbol
_atom_site_label
_atom_site_fract_x
_atom_site_fract_y
_atom_site_fract_z
Si Si1 0.465262 0.987039 0.889501
Si Si2 0.689076 0.613835 0.711750
Si Si3 0.811547 0.032949 0.274580
Si Si4 0.192043 0.129937 0.874806
Si Si5 0.527768 0.698891 0.967152
Si Si6 0.307607 0.700059 0.385172
Si Si7 0.515721 0.885758 0.583450
Si Si8 0.713088 0.070099 0.591574
O O1 0.513571 0.934286 0.851480
O O2 0.716757 0.021515 0.645668
O O3 0.500000 0.000000 0.000000
O O4 0.127612 0.000959 0.064366
O O5 0.497786 0.655932 0.905035
O O6 0.720504 0.621365 0.552379
O O7 0.043853 0.603754 0.517778
O O8 0.684580 0.067074 0.267443
O O9 0.824023 0.063403 0.380628
O O10 0.500000 0.000000 0.500000
O O11 0.454382 0.167806 0.716921
O O12 0.256799 0.117660 0.693745
O O13 0.339460 0.089478 0.848240
O O14 0.818004 0.144451 0.174273
O O15 0.451225 0.750000 0.980167
O O16 0.927096 0.698190 0.701156
O O17 0.334569 0.692030 0.226806
O O18 0.431075 0.750000 0.312736
#
# Coordination Sequence:
#
# PCOD9165941 Si02
#       8
#     4   4   4   4   4   4   4   4
#     4  12  26  39  66  99 132 181 236 289 345 405
#     4  12  26  43  67 101 137 186 235 289 347 421
#     4  11  25  44  62  90 138 182 229 282 340 405
#     4  11  23  45  69  96 137 174 229 279 346 403
#     4  10  23  43  69 105 136 177 228 288 347 408
#     4  10  21  41  74 103 131 173 231 287 345 411
#     4  11  27  43  66  99 137 186 224 279 351 411
#     4  11  24  43  62  94 134 177 232 283 330 406
#
# _framework density 23.028355999999999
#
# number of rings (size 3 to 8) (size 9 to 14) (size 15 to 20)
#    0.000    1.000    3.750    1.875    8.750    2.000 
#    0.000    1.250    0.000    0.000    0.000    0.000 
#    0.000    0.000    0.000    0.000    0.000    0.000 
#
# Total GULP energy -178705.581448 kJ/mol
# GULP energy per Si atom -5584.549420 kJ/mol
# Density = 2.297594 g / cm^3
# Si number density = 23.028356 Si / 1000 Ang^3
#
#
#
# Elastic Constant Matrix: (Units=GPa)
#
#
# Indices 1 2 3 4 5 6 
#
# 1 103.0200 23.1572 11.3486 0.0000 1.1163 0.0000
# 2 23.1572 122.9963 -5.3772 0.0000 3.6373 0.0000
# 3 11.3486 -5.3772 65.1281 0.0000 -0.6932 0.0000
# 4 0.0000 0.0000 0.0000 23.2014 0.0000 8.3178
# 5 1.1163 3.6373 -0.6932 0.0000 25.6081 0.0000
# 6 0.0000 0.0000 0.0000 8.3178 0.0000 21.9363
#
#
#
# Elastic Compliance Matrix: (Units=1/GPa)
#
#
# Indices 1 2 3 4 5 6 
#
# 1 0.010385 -0.002035 -0.001980 0.000000 -0.000217 0.000000
# 2 -0.002035 0.008592 0.001052 0.000000 -0.001103 0.000000
# 3 -0.001980 0.001052 0.015790 0.000000 0.000364 0.000000
# 4 0.000000 0.000000 0.000000 0.049882 0.000000 -0.018914
# 5 -0.000217 -0.001103 0.000364 0.000000 0.039226 0.000000
# 6 0.000000 0.000000 0.000000 -0.018914 0.000000 0.052758
#
#
# Mechanical properties :
#
#
# Convention : Reuss Voigt Hill
#
# Bulk Modulus (GPa) = 34.67260 38.82239 36.74750
# Shear Modulus (GPa) = 26.01822 31.61686 28.81754
#
# Velocity S-wave (km/s) = 3.36495 3.70936 3.54134
# Velocity P-wave (km/s) = 5.49421 5.93640 5.71958
#
# Compressibility (1/GPa) = 0.02884121
#
# Stress axis : x y z
#
# Youngs Moduli (GPa) = 96.29431 116.38510 63.33080
#
# Poissons Ratio (x) = 0.23688 0.12539
# Poissons Ratio (y) = 0.19599 -0.06664
# Poissons Ratio (z) = 0.19065 -0.12247
#
# Static dielectric constant tensor:
#      x y z
#    x 1.869790 0.000000 -0.053330 
#    y 0.000000 1.941420 0.000000 
#    z -0.053330 0.000000 2.013210 
# 
# From -- ./inp_files/33192.got.cif
#   From: 2010.05.17/outbox.cif.g08.bks.cpg/sg11_17_cif.got.tgz:33192.got - 2010.06.03 12:22:45.
