data_PCOD9165817
_publ_section_title
;
Structure prediction by ZEFSAII (Michael W. Deem and Ramdas Pophale) SiO2 
 PCOD9165817
Probable space group: P 21/M
;
_chemical_formula_sum "Si O2"
_cell_formula_units_Z 18
_cell_length_a 9.609182
_cell_length_b 14.699735
_cell_length_c 4.793378
_cell_angle_alpha 90.000000
_cell_angle_beta 79.129825
_cell_angle_gamma 90.000000
_cell_volume 664.927514
_symmetry_space_group_name_H-M "P 21/M"
_symmetry_group_IT_number 11
_symmetry_cell_setting 'monoclinic'
loop_
_space_group_symop_operation_xyz
x,y,z
-x,1/2+y,-z
-x,-y,-z
x,1/2-y,z
loop_
_atom_site_type_symbol
_atom_site_label
_atom_site_fract_x
_atom_site_fract_y
_atom_site_fract_z
Si Si1 0.674607 0.119716 0.956079
Si Si2 0.852627 0.250000 0.265775
Si Si3 0.494508 0.109471 0.520162
Si Si4 0.224139 0.082664 0.955672
Si Si5 0.931182 0.652057 0.451087
O O1 0.533918 0.139810 0.197149
O O2 0.714994 0.013816 0.965082
O O3 0.796413 0.173406 0.063411
O O4 0.623335 0.143095 0.666283
O O5 0.922154 0.170581 0.446583
O O6 0.348113 0.130036 0.726509
O O7 0.500000 0.000000 0.500000
O O8 0.096859 0.077813 0.775553
O O9 0.173122 0.134187 0.249409
O O10 0.902921 0.750000 0.316447
#
# Coordination Sequence:
#
# PCOD9165817 Si02
#       5
#     4   2   4   4   4
#     4  11  23  42  69  94 133 170 205 268 324 388
#     4  10  28  46  56  98 138 164 222 264 316 372
#     4  10  21  40  67 100 124 155 213 269 316 390
#     4  11  20  42  70  93 120 173 214 257 329 370
#     4  10  24  42  61  90 134 162 213 279 291 371
#
# _framework density 27.070620000000002
#
# number of rings (size 3 to 8) (size 9 to 14) (size 15 to 20)
#    0.667    0.889    0.000    7.333    0.000    6.222 
#   12.000    0.000    0.000    0.000    0.000    0.000 
#    0.000    0.000    0.000    0.000    0.000    0.000 
#
# Total GULP energy -100254.312316 kJ/mol
# GULP energy per Si atom -5569.684018 kJ/mol
# Density = 2.700901 g / cm^3
# Si number density = 27.070620 Si / 1000 Ang^3
#
#
#
# Elastic Constant Matrix: (Units=GPa)
#
#
# Indices 1 2 3 4 5 6 
#
# 1 100.4573 11.9816 27.0970 0.0000 17.1898 0.0000
# 2 11.9816 70.2134 -2.2337 0.0000 5.5197 0.0000
# 3 27.0970 -2.2337 133.4416 0.0000 19.7537 0.0000
# 4 0.0000 0.0000 0.0000 23.5990 0.0000 14.0014
# 5 17.1898 5.5197 19.7537 0.0000 63.6898 0.0000
# 6 0.0000 0.0000 0.0000 14.0014 0.0000 54.0821
#
#
#
# Elastic Compliance Matrix: (Units=1/GPa)
#
#
# Indices 1 2 3 4 5 6 
#
# 1 0.011074 -0.001776 -0.001948 0.000000 -0.002231 0.000000
# 2 -0.001776 0.014650 0.000758 0.000000 -0.001025 0.000000
# 3 -0.001948 0.000758 0.008211 0.000000 -0.002087 0.000000
# 4 0.000000 0.000000 0.000000 0.050065 0.000000 -0.012961
# 5 -0.002231 -0.001025 -0.002087 0.000000 0.017039 0.000000
# 6 0.000000 0.000000 0.000000 -0.012961 0.000000 0.021846
#
#
# Mechanical properties :
#
#
# Convention : Reuss Voigt Hill
#
# Bulk Modulus (GPa) = 35.71272 41.97802 38.84537
# Shear Modulus (GPa) = 36.19211 46.09200 41.14205
#
# Velocity S-wave (km/s) = 3.66040 4.13080 3.90270
# Velocity P-wave (km/s) = 5.57546 6.18805 5.88972
#
# Compressibility (1/GPa) = 0.02800123
#
# Stress axis : x y z
#
# Youngs Moduli (GPa) = 90.30565 68.25888 121.78672
#
# Poissons Ratio (x) = 0.12125 0.23726
# Poissons Ratio (y) = 0.16041 -0.09228
# Poissons Ratio (z) = 0.17593 -0.05172
#
# Static dielectric constant tensor:
#      x y z
#    x 2.318530 0.000000 -0.113120 
#    y 0.000000 2.043400 0.000000 
#    z -0.113120 0.000000 2.027370 
# 
# From -- ./inp_files/1952.got.cif
#   From: 2010.05.17/outbox.cif.g08.bks.cpg/sg11_1_cif.got.tgz:1952.got - 2010.06.03 12:22:45.
