data_PCOD9165964
_publ_section_title
;
Structure prediction by ZEFSAII (Michael W. Deem and Ramdas Pophale) SiO2 
 PCOD9165964
Probable space group: P 21/M
;
_chemical_formula_sum "Si O2"
_cell_formula_units_Z 24
_cell_length_a 4.994205
_cell_length_b 16.448766
_cell_length_c 12.390220
_cell_angle_alpha 90.000000
_cell_angle_beta 77.603161
_cell_angle_gamma 90.000000
_cell_volume 994.106317
_symmetry_space_group_name_H-M "P 21/M"
_symmetry_group_IT_number 11
_symmetry_cell_setting 'monoclinic'
loop_
_space_group_symop_operation_xyz
x,y,z
-x,1/2+y,-z
-x,-y,-z
x,1/2-y,z
loop_
_atom_site_type_symbol
_atom_site_label
_atom_site_fract_x
_atom_site_fract_y
_atom_site_fract_z
Si Si1 0.154229 0.160070 0.545566
Si Si2 0.291958 0.657183 0.223762
Si Si3 0.045141 0.073848 0.343174
Si Si4 0.054988 0.848413 0.018046
Si Si5 0.461104 0.036661 0.653834
Si Si6 0.631521 0.651830 0.882867
O O1 0.277870 0.250000 0.529234
O O2 0.380889 0.094839 0.561776
O O3 0.928165 0.160918 0.660107
O O4 0.021285 0.137010 0.443028
O O5 0.394004 0.750000 0.196746
O O6 0.526235 0.596753 0.244406
O O7 0.141522 0.625238 0.130019
O O8 0.212600 0.112839 0.230512
O O9 0.766436 0.033320 0.326445
O O10 0.239927 0.002972 0.373991
O O11 0.040964 0.750000 0.026868
O O12 0.312717 0.869207 0.919195
O O13 0.781559 0.874728 0.980817
O O14 0.652215 0.750000 0.873374
#
# Coordination Sequence:
#
# PCOD9165964 Si02
#       6
#     4   4   4   4   4   4
#     4  11  25  45  71  99 127 167 219 270 315 381
#     4  10  23  43  69  99 127 168 222 269 317 376
#     4  12  26  43  67  96 135 172 209 261 327 390
#     4   9  20  39  67  93 125 167 219 274 314 365
#     4  12  25  45  64  98 134 174 206 261 333 385
#     4  10  21  42  66  94 127 172 221 264 314 378
#
# _framework density 24.142287
#
# number of rings (size 3 to 8) (size 9 to 14) (size 15 to 20)
#    0.000    1.333    1.667    3.000    4.667    0.000 
#    0.000    6.667    0.000    0.000    0.000    0.000 
#    0.000    0.000    0.000    0.000    0.000    0.000 
#
# Total GULP energy -134403.619180 kJ/mol
# GULP energy per Si atom -5600.150799 kJ/mol
# Density = 2.408734 g / cm^3
# Si number density = 24.142287 Si / 1000 Ang^3
#
#
#
# Elastic Constant Matrix: (Units=GPa)
#
#
# Indices 1 2 3 4 5 6 
#
# 1 90.9143 2.7125 1.3246 0.0000 5.9958 0.0000
# 2 2.7125 49.8623 21.6580 0.0000 2.5056 0.0000
# 3 1.3246 21.6580 110.8752 0.0000 6.8801 0.0000
# 4 0.0000 0.0000 0.0000 -26.3975 0.0000 -27.9969
# 5 5.9958 2.5056 6.8801 0.0000 33.4083 0.0000
# 6 0.0000 0.0000 0.0000 -27.9969 0.0000 -37.0469
#
#
#
# Elastic Compliance Matrix: (Units=1/GPa)
#
#
# Indices 1 2 3 4 5 6 
#
# 1 0.011145 -0.000549 0.000097 0.000000 -0.001979 0.000000
# 2 -0.000549 0.021961 -0.004241 0.000000 -0.000675 0.000000
# 3 0.000097 -0.004241 0.009955 0.000000 -0.001749 0.000000
# 4 0.000000 0.000000 0.000000 -0.190848 0.000000 0.144227
# 5 -0.001979 -0.000675 -0.001749 0.000000 0.030699 0.000000
# 6 0.000000 0.000000 0.000000 0.144227 0.000000 -0.135987
#
#
# Mechanical properties :
#
#
# Convention : Reuss Voigt Hill
#
# Bulk Modulus (GPa) = 29.69625 33.67137 31.68381
# Shear Modulus (GPa) = -21.50874 9.05656 -6.22609
#
# Velocity S-wave (km/s) = -2.98806 1.93893 -1.60764
# Velocity P-wave (km/s) = 0.65004 4.35775 3.11549
#
# Compressibility (1/GPa) = 0.03367428
#
# Stress axis : x y z
#
# Youngs Moduli (GPa) = 89.72760 45.53469 100.45152
#
# Poissons Ratio (x) = 0.02499 -0.00973
# Poissons Ratio (y) = 0.04925 0.42605
# Poissons Ratio (z) = -0.00869 0.19313
#
# Static dielectric constant tensor:
#      x y z
#    x 1.904770 0.000000 -0.019250 
#    y 0.000000 1.955770 0.000000 
#    z -0.019250 0.000000 1.934730 
# 
# From -- ./inp_files/29771.got.cif
#   From: 2010.05.17/outbox.cif.g08.bks.cpg/sg11_15_cif.got.tgz:29771.got - 2010.06.03 12:22:45.
