data_PCOD9165786
_publ_section_title
;
Structure prediction by ZEFSAII (Michael W. Deem and Ramdas Pophale) SiO2 
 PCOD9165786
Probable space group: P 21/M
;
_chemical_formula_sum "Si O2"
_cell_formula_units_Z 32
_cell_length_a 14.138948
_cell_length_b 14.703171
_cell_length_c 20.645246
_cell_angle_alpha 90.000000
_cell_angle_beta 159.655609
_cell_angle_gamma 90.000000
_cell_volume 1492.126471
_symmetry_space_group_name_H-M "P 21/M"
_symmetry_group_IT_number 11
_symmetry_cell_setting 'monoclinic'
loop_
_space_group_symop_operation_xyz
x,y,z
-x,1/2+y,-z
-x,-y,-z
x,1/2-y,z
loop_
_atom_site_type_symbol
_atom_site_label
_atom_site_fract_x
_atom_site_fract_y
_atom_site_fract_z
Si Si1 0.680480 0.994978 0.310944
Si Si2 0.417117 0.564926 0.888605
Si Si3 0.184010 0.984487 0.282257
Si Si4 0.099293 0.356619 0.139226
Si Si5 0.285301 0.857359 0.229548
Si Si6 0.387715 0.855582 0.623592
Si Si7 0.190574 0.142002 0.504894
Si Si8 0.958825 0.649686 0.242825
O O1 0.542516 0.013263 0.153871
O O2 0.597293 0.074268 0.307943
O O3 0.663580 0.900305 0.338081
O O4 0.000000 0.000000 0.500000
O O5 0.106236 0.598409 0.693682
O O6 0.500000 0.500000 0.000000
O O7 0.634479 0.645799 0.032843
O O8 0.163368 0.916218 0.208262
O O9 0.056633 0.932548 0.260852
O O10 0.500000 0.000000 0.500000
O O11 0.066490 0.079119 0.179962
O O12 0.092178 0.250000 0.151495
O O13 0.387276 0.375012 0.287381
O O14 0.878021 0.374912 0.941508
O O15 0.260805 0.750000 0.227634
O O16 0.602076 0.879451 0.420387
O O17 0.428278 0.750000 0.670154
O O18 0.094835 0.863445 0.400601
O O19 0.168231 0.250000 0.496424
O O20 0.055688 0.750000 0.282656
#
# Coordination Sequence:
#
# PCOD9165786 Si02
#       8
#     4   4   4   4   4   4   4   4
#     4  10  22  39  64  90 120 162 214 264 311 378
#     4  11  25  43  67  94 130 166 216 268 328 385
#     4  12  24  37  65  95 137 174 213 265 331 389
#     4  10  22  41  63  93 130 174 223 271 319 388
#     4  10  23  41  64  92 129 170 218 265 319 386
#     4  10  21  40  65  93 129 171 218 269 325 381
#     4  10  22  43  66  90 127 171 215 262 314 378
#     4  11  24  41  63  97 137 174 217 272 327 389
#
# _framework density 21.445903000000001
#
# number of rings (size 3 to 8) (size 9 to 14) (size 15 to 20)
#    0.000    1.500    1.250    3.375    5.250    3.000 
#    0.000    1.250    0.000    0.000    0.000    0.000 
#    0.000    0.000    0.000    0.000    0.000    0.000 
#
# Total GULP energy -178879.784186 kJ/mol
# GULP energy per Si atom -5589.993256 kJ/mol
# Density = 2.139709 g / cm^3
# Si number density = 21.445903 Si / 1000 Ang^3
#
#
#
# Elastic Constant Matrix: (Units=GPa)
#
#
# Indices 1 2 3 4 5 6 
#
# 1 56.4398 45.0129 14.5368 0.0000 -23.3912 0.0000
# 2 45.0129 91.6395 30.1468 0.0000 -21.9642 0.0000
# 3 14.5368 30.1468 95.5635 0.0000 -7.3911 0.0000
# 4 0.0000 0.0000 0.0000 28.0960 0.0000 5.2156
# 5 -23.3912 -21.9642 -7.3911 0.0000 32.4628 0.0000
# 6 0.0000 0.0000 0.0000 5.2156 0.0000 9.6262
#
#
#
# Elastic Compliance Matrix: (Units=1/GPa)
#
#
# Indices 1 2 3 4 5 6 
#
# 1 0.035101 -0.013390 0.000143 0.000000 0.016265 0.000000
# 2 -0.013390 0.019385 -0.003878 0.000000 0.002584 0.000000
# 3 0.000143 -0.003878 0.011677 0.000000 0.000137 0.000000
# 4 0.000000 0.000000 0.000000 0.039572 0.000000 -0.021441
# 5 0.016265 0.002584 0.000137 0.000000 0.044304 0.000000
# 6 0.000000 0.000000 0.000000 -0.021441 0.000000 0.115501
#
#
# Mechanical properties :
#
#
# Convention : Reuss Voigt Hill
#
# Bulk Modulus (GPa) = 31.33720 47.00397 39.17058
# Shear Modulus (GPa) = 16.10672 24.30007 20.20340
#
# Velocity S-wave (km/s) = 2.74348 3.36979 3.07263
# Velocity P-wave (km/s) = 4.96785 6.09144 5.55811
#
# Compressibility (1/GPa) = 0.03191096
#
# Stress axis : x y z
#
# Youngs Moduli (GPa) = 28.48883 51.58674 85.64079
#
# Poissons Ratio (x) = 0.69075 -0.01221
# Poissons Ratio (y) = 0.38147 0.33215
# Poissons Ratio (z) = -0.00406 0.20008
#
# Static dielectric constant tensor:
#      x y z
#    x 1.786490 0.000000 0.031480 
#    y 0.000000 1.793920 0.000000 
#    z 0.031480 0.000000 1.806640 
# 
# From -- ./inp_files/65785.got.cif
#   From: 2010.05.17/outbox.cif.g08.bks.cpg/sg11_33_cif.got.tgz:65785.got - 2010.06.03 12:22:45.
