data_PCOD9165377
_publ_section_title
;
Structure prediction by ZEFSAII (Michael W. Deem and Ramdas Pophale) SiO2 
 PCOD9165377
Probable space group: P 21/M
;
_chemical_formula_sum "Si O2"
_cell_formula_units_Z 28
_cell_length_a 5.576862
_cell_length_b 15.303181
_cell_length_c 16.350597
_cell_angle_alpha 90.000000
_cell_angle_beta 70.204741
_cell_angle_gamma 90.000000
_cell_volume 1312.963810
_symmetry_space_group_name_H-M "P 21/M"
_symmetry_group_IT_number 11
_symmetry_cell_setting 'monoclinic'
loop_
_space_group_symop_operation_xyz
x,y,z
-x,1/2+y,-z
-x,-y,-z
x,1/2-y,z
loop_
_atom_site_type_symbol
_atom_site_label
_atom_site_fract_x
_atom_site_fract_y
_atom_site_fract_z
Si Si1 0.730006 0.493684 0.770530
Si Si2 0.271910 0.498050 0.423533
Si Si3 0.356707 0.344236 0.838342
Si Si4 0.045536 0.896325 0.996799
Si Si5 0.444773 0.149200 0.519279
Si Si6 0.109546 0.156402 0.705744
Si Si7 0.643164 0.649529 0.900324
O O1 0.704895 0.509171 0.676460
O O2 0.518054 0.430488 0.836044
O O3 0.732318 0.582516 0.820157
O O4 0.975511 0.432308 0.745825
O O5 0.385754 0.590059 0.440436
O O6 0.413358 0.412771 0.444616
O O7 0.000000 0.500000 0.500000
O O8 0.444923 0.250000 0.861024
O O9 0.073861 0.358439 0.906139
O O10 0.343659 0.338803 0.741728
O O11 0.654364 0.126054 0.045019
O O12 0.850146 0.860503 0.949648
O O13 0.000000 0.000000 0.000000
O O14 0.524406 0.250000 0.495884
O O15 0.185779 0.152952 0.602445
O O16 0.971075 0.250000 0.733446
O O17 0.645319 0.750000 0.873370
#
# Coordination Sequence:
#
# PCOD9165377 Si02
#       7
#     4   4   4   4   4   4   4
#     4  12  24  40  68  93 134 175 224 275 342 402
#     4  11  23  41  64  94 130 170 221 271 331 407
#     4  11  23  39  65  99 132 169 220 279 347 408
#     4  12  25  49  73 102 136 188 235 295 348 411
#     4  10  22  41  65  93 129 170 217 279 341 398
#     4  10  21  38  63  99 131 163 216 284 347 404
#     4  12  28  48  71 102 146 189 236 285 342 414
#
# _framework density 21.325797999999999
#
# number of rings (size 3 to 8) (size 9 to 14) (size 15 to 20)
#    0.000    0.857    4.286    3.000    2.000    1.714 
#    0.000    0.000    0.000    0.000    0.000    0.000 
#    0.000    0.000    0.000    0.000    0.000    0.000 
#
# Total GULP energy -156130.209063 kJ/mol
# GULP energy per Si atom -5576.078895 kJ/mol
# Density = 2.127726 g / cm^3
# Si number density = 21.325798 Si / 1000 Ang^3
#
#
#
# Elastic Constant Matrix: (Units=GPa)
#
#
# Indices 1 2 3 4 5 6 
#
# 1 64.2876 32.7524 24.3104 0.0000 2.3217 0.0000
# 2 32.7524 202.1396 45.8681 0.0000 4.4537 0.0000
# 3 24.3104 45.8681 90.6649 0.0000 9.8472 0.0000
# 4 0.0000 0.0000 0.0000 29.5873 0.0000 -16.2506
# 5 2.3217 4.4537 9.8472 0.0000 34.0429 0.0000
# 6 0.0000 0.0000 0.0000 -16.2506 0.0000 51.2677
#
#
#
# Elastic Compliance Matrix: (Units=1/GPa)
#
#
# Indices 1 2 3 4 5 6 
#
# 1 0.018041 -0.002062 -0.003810 0.000000 0.000141 0.000000
# 2 -0.002062 0.005825 -0.002402 0.000000 0.000073 0.000000
# 3 -0.003810 -0.002402 0.013632 0.000000 -0.003369 0.000000
# 4 0.000000 0.000000 0.000000 0.040923 0.000000 0.012972
# 5 0.000141 0.000073 -0.003369 0.000000 0.030330 0.000000
# 6 0.000000 0.000000 0.000000 0.012972 0.000000 0.023617
#
#
# Mechanical properties :
#
#
# Convention : Reuss Voigt Hill
#
# Bulk Modulus (GPa) = 47.73012 62.55044 55.14028
# Shear Modulus (GPa) = 32.07225 39.92367 35.99796
#
# Velocity S-wave (km/s) = 3.88225 4.33145 4.11299
# Velocity P-wave (km/s) = 6.52118 7.37630 6.96188
#
# Compressibility (1/GPa) = 0.02095113
#
# Stress axis : x y z
#
# Youngs Moduli (GPa) = 55.42916 171.68756 73.35595
#
# Poissons Ratio (x) = 0.35399 0.27946
# Poissons Ratio (y) = 0.11428 0.17619
# Poissons Ratio (z) = 0.21117 0.41236
#
# Static dielectric constant tensor:
#      x y z
#    x 1.875490 0.000000 -0.030560 
#    y 0.000000 1.801260 0.000000 
#    z -0.030560 0.000000 1.785530 
# 
# From -- ./inp_files/56915.got.cif
#   From: 2010.05.17/outbox.cif.g08.bks.cpg/sg11_29_cif.got.tgz:56915.got - 2010.06.03 12:22:45.
