data_PCOD9165960
_publ_section_title
;
Structure prediction by ZEFSAII (Michael W. Deem and Ramdas Pophale) SiO2 
 PCOD9165960
Probable space group: P 21/M
;
_chemical_formula_sum "Si O2"
_cell_formula_units_Z 30
_cell_length_a 14.620947
_cell_length_b 9.271348
_cell_length_c 22.483757
_cell_angle_alpha 90.000000
_cell_angle_beta 29.362644
_cell_angle_gamma 90.000000
_cell_volume 1494.447701
_symmetry_space_group_name_H-M "P 21/M"
_symmetry_group_IT_number 11
_symmetry_cell_setting 'monoclinic'
loop_
_space_group_symop_operation_xyz
x,y,z
-x,1/2+y,-z
-x,-y,-z
x,1/2-y,z
loop_
_atom_site_type_symbol
_atom_site_label
_atom_site_fract_x
_atom_site_fract_y
_atom_site_fract_z
Si Si1 0.234838 0.079851 0.610793
Si Si2 0.896143 0.579081 0.504938
Si Si3 0.552615 0.987081 0.890890
Si Si4 0.807551 0.422307 0.125208
Si Si5 0.404450 0.421519 0.645778
Si Si6 0.517312 0.582528 0.781550
Si Si7 0.966410 0.914095 0.688897
Si Si8 0.586316 0.250000 0.961517
O O1 0.226791 0.250000 0.600188
O O2 0.288161 0.066588 0.649873
O O3 0.399263 0.000752 0.480185
O O4 0.042539 0.001485 0.702295
O O5 0.938719 0.750000 0.479283
O O6 0.678464 0.559604 0.641768
O O7 0.954337 0.502635 0.411668
O O8 0.000000 0.500000 0.500000
O O9 0.551950 0.009481 0.820844
O O10 0.391710 0.877466 0.000607
O O11 0.745210 0.910269 0.802939
O O12 0.549864 0.127833 0.931175
O O13 0.828966 0.250000 0.124558
O O14 0.704728 0.499498 0.239103
O O15 0.675685 0.438331 0.142227
O O16 0.000000 0.500000 0.000000
O O17 0.431316 0.250000 0.642590
O O18 0.537350 0.750000 0.789340
O O19 0.034512 0.750000 0.652342
#
# Coordination Sequence:
#
# PCOD9165960 Si02
#       8
#     4   4   4   4   4   4   4   2
#     4  10  22  39  65  96 127 168 206 257 325 388
#     4  11  22  36  61  94 129 166 207 252 319 386
#     4  11  22  44  62  89 122 161 212 255 310 371
#     4  11  24  44  66  93 124 169 218 271 323 380
#     4  10  21  43  67  92 127 163 210 265 325 384
#     4  10  21  42  66  87 123 168 203 255 317 377
#     4  12  23  38  60  94 131 162 206 263 310 374
#     4  10  24  42  64  84 120 166 206 258 302 358
#
# _framework density 20.074306
#
# number of rings (size 3 to 8) (size 9 to 14) (size 15 to 20)
#    0.000    1.333    2.667    2.800    1.867    2.667 
#    8.400    0.000    0.000    0.000    0.000    0.000 
#    0.000    0.000    0.000    0.000    0.000    0.000 
#
# Total GULP energy -167045.278835 kJ/mol
# GULP energy per Si atom -5568.175961 kJ/mol
# Density = 2.002862 g / cm^3
# Si number density = 20.074306 Si / 1000 Ang^3
#
#
#
# Elastic Constant Matrix: (Units=GPa)
#
#
# Indices 1 2 3 4 5 6 
#
# 1 62.4571 33.6842 22.1432 0.0000 -4.1746 0.0000
# 2 33.6842 147.9965 31.3875 0.0000 5.9655 0.0000
# 3 22.1432 31.3875 61.1856 0.0000 3.4467 0.0000
# 4 0.0000 0.0000 0.0000 37.1975 0.0000 7.4651
# 5 -4.1746 5.9655 3.4467 0.0000 36.8807 0.0000
# 6 0.0000 0.0000 0.0000 7.4651 0.0000 31.2542
#
#
#
# Elastic Compliance Matrix: (Units=1/GPa)
#
#
# Indices 1 2 3 4 5 6 
#
# 1 0.020147 -0.003518 -0.005677 0.000000 0.003380 0.000000
# 2 -0.003518 0.008224 -0.002863 0.000000 -0.001461 0.000000
# 3 -0.005677 -0.002863 0.019982 0.000000 -0.002047 0.000000
# 4 0.000000 0.000000 0.000000 0.028237 0.000000 -0.006744
# 5 0.003380 -0.001461 -0.002047 0.000000 0.027925 0.000000
# 6 0.000000 0.000000 0.000000 -0.006744 0.000000 0.033607
#
#
# Mechanical properties :
#
#
# Convention : Reuss Voigt Hill
#
# Bulk Modulus (GPa) = 41.25958 49.56323 45.41140
# Shear Modulus (GPa) = 29.35716 33.36142 31.35929
#
# Velocity S-wave (km/s) = 3.82831 4.08106 3.95671
# Velocity P-wave (km/s) = 6.33556 6.85202 6.59885
#
# Compressibility (1/GPa) = 0.02423680
#
# Stress axis : x y z
#
# Youngs Moduli (GPa) = 49.63576 121.59998 50.04400
#
# Poissons Ratio (x) = 0.42775 0.28410
# Poissons Ratio (y) = 0.17460 0.14329
# Poissons Ratio (z) = 0.28178 0.34818
#
# Static dielectric constant tensor:
#      x y z
#    x 1.704200 0.000000 -0.021120 
#    y 0.000000 1.641410 0.000000 
#    z -0.021120 0.000000 1.785100 
# 
# From -- ./inp_files/68874.got.cif
#   From: 2010.05.17/outbox.cif.g08.bks.cpg/sg11_35_cif.got.tgz:68874.got - 2010.06.03 12:22:45.
