data_PCOD9165006
_publ_section_title
;
Structure prediction by ZEFSAII (Michael W. Deem and Ramdas Pophale) SiO2 
 PCOD9165006
Probable space group: P 21/M
;
_chemical_formula_sum "Si O2"
_cell_formula_units_Z 14
_cell_length_a 12.878313
_cell_length_b 7.002159
_cell_length_c 19.164839
_cell_angle_alpha 90.000000
_cell_angle_beta 159.029917
_cell_angle_gamma 90.000000
_cell_volume 618.491979
_symmetry_space_group_name_H-M "P 21/M"
_symmetry_group_IT_number 11
_symmetry_cell_setting 'monoclinic'
loop_
_space_group_symop_operation_xyz
x,y,z
-x,1/2+y,-z
-x,-y,-z
x,1/2-y,z
loop_
_atom_site_type_symbol
_atom_site_label
_atom_site_fract_x
_atom_site_fract_y
_atom_site_fract_z
Si Si1 0.818834 0.750000 0.071644
Si Si2 0.188568 0.250000 0.778597
Si Si3 0.210852 0.531883 0.067157
Si Si4 0.115018 0.504506 0.493080
Si Si5 0.761436 0.250000 0.209683
O O1 0.884491 0.576149 0.062239
O O2 0.477880 0.750000 0.877523
O O3 0.952545 0.750000 0.232376
O O4 0.145946 0.506179 0.734889
O O5 0.539367 0.250000 0.003148
O O6 0.213972 0.750000 0.050568
O O7 0.537585 0.478573 0.293467
O O8 0.000000 0.500000 0.000000
O O9 0.042560 0.750000 0.432146
O O10 0.000000 0.500000 0.500000
O O11 0.088625 0.250000 0.458862
#
# Coordination Sequence:
#
# PCOD9165006 Si02
#       5
#     2   2   4   4   2
#     4  10  23  45  63 103 140 172 214 287 340 388
#     4  10  24  40  64  98 149 167 214 284 352 384
#     4  12  25  43  73  97 134 180 232 275 329 401
#     4  12  21  40  68 100 128 176 226 273 330 406
#     4  10  21  37  61 101 137 159 220 273 338 390
#
# _framework density 22.635704
#
# number of rings (size 3 to 8) (size 9 to 14) (size 15 to 20)
#    0.857    0.000    5.714    2.571    0.000    0.000 
#    2.571    1.429    0.000    0.000    0.000    0.000 
#    0.000    0.000    0.000    0.000    0.000    0.000 
#
# Total GULP energy -78007.022856 kJ/mol
# GULP energy per Si atom -5571.930204 kJ/mol
# Density = 2.258418 g / cm^3
# Si number density = 22.635704 Si / 1000 Ang^3
#
#
#
# Elastic Constant Matrix: (Units=GPa)
#
#
# Indices 1 2 3 4 5 6 
#
# 1 184.9962 79.5697 78.8173 0.0000 -3.6074 0.0000
# 2 79.5697 231.8346 50.8299 0.0000 -22.9336 0.0000
# 3 78.8173 50.8299 130.8100 0.0000 0.4670 0.0000
# 4 0.0000 0.0000 0.0000 54.3340 0.0000 -22.0576
# 5 -3.6074 -22.9336 0.4670 0.0000 39.9468 0.0000
# 6 0.0000 0.0000 0.0000 -22.0576 0.0000 64.8871
#
#
#
# Elastic Compliance Matrix: (Units=1/GPa)
#
#
# Indices 1 2 3 4 5 6 
#
# 1 0.007927 -0.001863 -0.004051 0.000000 -0.000306 0.000000
# 2 -0.001863 0.005470 -0.001014 0.000000 0.002984 0.000000
# 3 -0.004051 -0.001014 0.010483 0.000000 -0.001071 0.000000
# 4 0.000000 0.000000 0.000000 0.021351 0.000000 0.007258
# 5 -0.000306 0.002984 -0.001071 0.000000 0.026731 0.000000
# 6 0.000000 0.000000 0.000000 0.007258 0.000000 0.017879
#
#
# Mechanical properties :
#
#
# Convention : Reuss Voigt Hill
#
# Bulk Modulus (GPa) = 99.75288 107.34162 103.54725
# Shear Modulus (GPa) = 46.71194 54.39515 50.55355
#
# Velocity S-wave (km/s) = 4.54766 4.90743 4.73096
# Velocity P-wave (km/s) = 8.46991 8.92383 8.69983
#
# Compressibility (1/GPa) = 0.01002477
#
# Stress axis : x y z
#
# Youngs Moduli (GPa) = 126.15573 182.80799 95.38801
#
# Poissons Ratio (x) = 0.34051 0.38644
# Poissons Ratio (y) = 0.23498 0.09672
# Poissons Ratio (z) = 0.51109 0.18536
#
# Static dielectric constant tensor:
#      x y z
#    x 1.698720 0.000000 -0.074840 
#    y 0.000000 2.568420 0.000000 
#    z -0.074840 0.000000 1.754390 
# 
# From -- ./inp_files/25399.got.cif
#   From: 2010.05.17/outbox.cif.g08.bks.cpg/sg11_13_cif.got.tgz:25399.got - 2010.06.03 12:22:45.
