data_PCOD9165741
_publ_section_title
;
Structure prediction by ZEFSAII (Michael W. Deem and Ramdas Pophale) SiO2 
 PCOD9165741
Probable space group: P 21/M
;
_chemical_formula_sum "Si O2"
_cell_formula_units_Z 26
_cell_length_a 13.680987
_cell_length_b 11.897031
_cell_length_c 7.538473
_cell_angle_alpha 90.000000
_cell_angle_beta 69.062695
_cell_angle_gamma 90.000000
_cell_volume 1145.970047
_symmetry_space_group_name_H-M "P 21/M"
_symmetry_group_IT_number 11
_symmetry_cell_setting 'monoclinic'
loop_
_space_group_symop_operation_xyz
x,y,z
-x,1/2+y,-z
-x,-y,-z
x,1/2-y,z
loop_
_atom_site_type_symbol
_atom_site_label
_atom_site_fract_x
_atom_site_fract_y
_atom_site_fract_z
Si Si1 0.887761 0.045088 0.526369
Si Si2 0.300680 0.119393 0.867157
Si Si3 0.299622 0.123749 0.299617
Si Si4 0.489914 0.521081 0.220480
Si Si5 0.882207 0.038557 0.127239
Si Si6 0.615842 0.250000 0.566856
Si Si7 0.786208 0.250000 0.738698
Si Si8 0.260097 0.750000 0.869475
O O1 0.891529 0.081468 0.321860
O O2 0.856860 0.140566 0.684541
O O3 0.797725 0.952637 0.589914
O O4 0.000000 0.000000 0.500000
O O5 0.318174 0.250000 0.799966
O O6 0.395030 0.030784 0.769144
O O7 0.194131 0.068259 0.858689
O O8 0.301729 0.122425 0.082492
O O9 0.284652 0.250000 0.368768
O O10 0.404750 0.073728 0.319035
O O11 0.440819 0.639430 0.318147
O O12 0.500000 0.500000 0.000000
O O13 0.816258 0.141923 0.087979
O O14 0.000000 0.000000 0.000000
O O15 0.726704 0.250000 0.592264
O O16 0.648624 0.250000 0.337655
O O17 0.701676 0.250000 0.950940
#
# Coordination Sequence:
#
# PCOD9165741 Si02
#       8
#     4   4   4   4   4   2   2   2
#     4  12  25  45  70 102 140 190 242 306 367 447
#     4  10  22  42  69 101 142 186 236 298 363 430
#     4  10  21  40  64 102 145 189 241 293 360 435
#     4  10  21  40  75 103 142 197 240 297 361 433
#     4  12  26  46  71 104 144 184 244 304 369 439
#     4  12  22  48  75 106 150 191 253 297 358 445
#     4  12  24  46  76  99 146 194 248 301 371 435
#     4  12  26  46  73 111 142 197 247 306 365 438
#
# _framework density 22.688205
#
# number of rings (size 3 to 8) (size 9 to 14) (size 15 to 20)
#    0.000    0.923    3.846    2.769    5.385    0.615 
#    1.385    3.077    0.000    0.000    0.000    0.000 
#    0.000    0.000    0.000    0.000    0.000    0.000 
#
# Total GULP energy -145142.093414 kJ/mol
# GULP energy per Si atom -5582.388208 kJ/mol
# Density = 2.263657 g / cm^3
# Si number density = 22.688205 Si / 1000 Ang^3
#
#
#
# Elastic Constant Matrix: (Units=GPa)
#
#
# Indices 1 2 3 4 5 6 
#
# 1 114.5575 15.5414 19.8526 0.0000 -27.9008 0.0000
# 2 15.5414 109.9747 33.5469 0.0000 -23.2964 0.0000
# 3 19.8526 33.5469 124.8104 0.0000 3.8303 0.0000
# 4 0.0000 0.0000 0.0000 25.0921 0.0000 -5.6951
# 5 -27.9008 -23.2964 3.8303 0.0000 44.6879 0.0000
# 6 0.0000 0.0000 0.0000 -5.6951 0.0000 32.5060
#
#
#
# Elastic Compliance Matrix: (Units=1/GPa)
#
#
# Indices 1 2 3 4 5 6 
#
# 1 0.010772 0.000658 -0.002113 0.000000 0.007249 0.000000
# 2 0.000658 0.011445 -0.003386 0.000000 0.006667 0.000000
# 3 -0.002113 -0.003386 0.009377 0.000000 -0.003888 0.000000
# 4 0.000000 0.000000 0.000000 0.041504 0.000000 0.007271
# 5 0.007249 0.006667 -0.003888 0.000000 0.030713 0.000000
# 6 0.000000 0.000000 0.000000 0.007271 0.000000 0.032038
#
#
# Mechanical properties :
#
#
# Convention : Reuss Voigt Hill
#
# Bulk Modulus (GPa) = 45.63355 54.13607 49.88481
# Shear Modulus (GPa) = 32.71540 39.15063 35.93302
#
# Velocity S-wave (km/s) = 3.80143 4.15853 3.98398
# Velocity P-wave (km/s) = 6.27892 6.85351 6.57249
#
# Compressibility (1/GPa) = 0.02191370
#
# Stress axis : x y z
#
# Youngs Moduli (GPa) = 92.83572 87.37328 106.63844
#
# Poissons Ratio (x) = -0.05748 0.22529
# Poissons Ratio (y) = -0.06107 0.36103
# Poissons Ratio (z) = 0.19613 0.29580
#
# Static dielectric constant tensor:
#      x y z
#    x 1.829060 0.000000 0.013510 
#    y 0.000000 1.819390 0.000000 
#    z 0.013510 0.000000 1.968310 
# 
# From -- ./inp_files/21131.got.cif
#   From: 2010.05.17/outbox.cif.g08.bks.cpg/sg11_11_cif.got.tgz:21131.got - 2010.06.03 12:22:45.
