data_PCOD9165046
_publ_section_title
;
Structure prediction by ZEFSAII (Michael W. Deem and Ramdas Pophale) SiO2 
 PCOD9165046
Probable space group: P 21/M
;
_chemical_formula_sum "Si O2"
_cell_formula_units_Z 16
_cell_length_a 9.307769
_cell_length_b 5.272772
_cell_length_c 19.923468
_cell_angle_alpha 90.000000
_cell_angle_beta 132.216869
_cell_angle_gamma 90.000000
_cell_volume 724.164479
_symmetry_space_group_name_H-M "P 21/M"
_symmetry_group_IT_number 11
_symmetry_cell_setting 'monoclinic'
loop_
_space_group_symop_operation_xyz
x,y,z
-x,1/2+y,-z
-x,-y,-z
x,1/2-y,z
loop_
_atom_site_type_symbol
_atom_site_label
_atom_site_fract_x
_atom_site_fract_y
_atom_site_fract_z
Si Si1 0.366410 0.750000 0.466495
Si Si2 0.472890 0.750000 0.749757
Si Si3 0.200084 0.750000 0.009517
Si Si4 0.262679 0.750000 0.176597
Si Si5 0.866481 0.250000 0.465341
Si Si6 0.047387 0.750000 0.249857
Si Si7 0.148208 0.750000 0.850091
Si Si8 0.461213 0.250000 0.082475
O O1 0.500000 0.500000 0.500000
O O2 0.252682 0.750000 0.501837
O O3 0.206753 0.750000 0.357631
O O4 0.602325 0.498931 0.780676
O O5 0.292802 0.750000 0.643552
O O6 0.417190 0.750000 0.810315
O O7 0.136014 0.750000 0.067651
O O8 0.327761 0.496773 0.041862
O O9 0.066704 0.750000 0.901355
O O10 0.145585 0.750000 0.207864
O O11 0.000000 0.500000 0.500000
O O12 0.919972 0.498292 0.209869
O O13 0.380919 0.750000 0.926144
#
# Coordination Sequence:
#
# PCOD9165046 Si02
#       8
#     2   2   2   2   2   2   2   2
#     4  12  26  48  72  94 135 185 226 265 336 422
#     4  10  21  39  64  85 119 161 203 259 310 380
#     4  10  21  39  62  88 119 170 208 251 305 377
#     4  10  21  41  61  88 118 165 217 243 304 381
#     4  12  26  41  68 101 134 164 219 288 338 388
#     4  12  26  39  64  92 126 162 207 265 315 372
#     4  12  24  38  60  93 130 158 203 264 316 365
#     4  10  21  37  63  85 123 163 207 247 310 383
#
# _framework density 22.094428000000001
#
# number of rings (size 3 to 8) (size 9 to 14) (size 15 to 20)
#    0.000    1.000    0.000    6.750    3.500    1.000 
#    0.000    0.000    0.000    0.000    0.000    0.000 
#    0.000    0.000    0.000    0.000    0.000    0.000 
#
# Total GULP energy -89565.631232 kJ/mol
# GULP energy per Si atom -5597.851952 kJ/mol
# Density = 2.204414 g / cm^3
# Si number density = 22.094428 Si / 1000 Ang^3
#
#
#
# Elastic Constant Matrix: (Units=GPa)
#
#
# Indices 1 2 3 4 5 6 
#
# 1 120.6775 51.5908 23.9659 0.0000 -13.5029 0.0000
# 2 51.5908 218.7847 62.6945 0.0000 7.8290 0.0000
# 3 23.9659 62.6945 135.1109 0.0000 -9.6427 0.0000
# 4 0.0000 0.0000 0.0000 57.6173 0.0000 -7.0419
# 5 -13.5029 7.8290 -9.6427 0.0000 28.4605 0.0000
# 6 0.0000 0.0000 0.0000 -7.0419 0.0000 51.9591
#
#
#
# Elastic Compliance Matrix: (Units=1/GPa)
#
#
# Indices 1 2 3 4 5 6 
#
# 1 0.009991 -0.002478 -0.000241 0.000000 0.005340 0.000000
# 2 -0.002478 0.006042 -0.002630 0.000000 -0.003729 0.000000
# 3 -0.000241 -0.002630 0.008924 0.000000 0.003633 0.000000
# 4 0.000000 0.000000 0.000000 0.017648 0.000000 0.002392
# 5 0.005340 -0.003729 0.003633 0.000000 0.039927 0.000000
# 6 0.000000 0.000000 0.000000 0.002392 0.000000 0.019570
#
#
# Mechanical properties :
#
#
# Convention : Reuss Voigt Hill
#
# Bulk Modulus (GPa) = 70.13457 83.45283 76.79370
# Shear Modulus (GPa) = 42.53354 50.02885 46.28119
#
# Velocity S-wave (km/s) = 4.39233 4.76365 4.58175
# Velocity P-wave (km/s) = 7.58521 8.25284 7.92606
#
# Compressibility (1/GPa) = 0.01425830
#
# Stress axis : x y z
#
# Youngs Moduli (GPa) = 100.08643 165.50269 112.05862
#
# Poissons Ratio (x) = 0.41011 0.02704
# Poissons Ratio (y) = 0.24801 0.29475
# Poissons Ratio (z) = 0.02415 0.43532
#
# Static dielectric constant tensor:
#      x y z
#    x 1.822950 0.000000 -0.016320 
#    y 0.000000 1.817890 0.000000 
#    z -0.016320 0.000000 1.778450 
# 
# From -- ./inp_files/20023.got.cif
#   From: 2010.05.17/outbox.cif.g08.bks.cpg/sg11_11_cif.got.tgz:20023.got - 2010.06.03 12:22:45.
