data_PCOD9165893
_publ_section_title
;
Structure prediction by ZEFSAII (Michael W. Deem and Ramdas Pophale) SiO2 
 PCOD9165893
Probable space group: P 21/M
;
_chemical_formula_sum "Si O2"
_cell_formula_units_Z 32
_cell_length_a 23.642402
_cell_length_b 9.035089
_cell_length_c 14.794513
_cell_angle_alpha 90.000000
_cell_angle_beta 149.298410
_cell_angle_gamma 90.000000
_cell_volume 1613.530799
_symmetry_space_group_name_H-M "P 21/M"
_symmetry_group_IT_number 11
_symmetry_cell_setting 'monoclinic'
loop_
_space_group_symop_operation_xyz
x,y,z
-x,1/2+y,-z
-x,-y,-z
x,1/2-y,z
loop_
_atom_site_type_symbol
_atom_site_label
_atom_site_fract_x
_atom_site_fract_y
_atom_site_fract_z
Si Si1 0.899960 0.074112 0.413423
Si Si2 0.683315 0.917249 0.081084
Si Si3 0.423165 0.926920 0.216209
Si Si4 0.675718 0.573793 0.598390
Si Si5 0.231320 0.571768 0.453119
Si Si6 0.974752 0.428910 0.715258
Si Si7 0.389740 0.081975 0.816303
Si Si8 0.769046 0.571846 0.925943
O O1 0.903422 0.250000 0.412841
O O2 0.913456 0.032859 0.537368
O O3 0.791666 0.013668 0.215954
O O4 0.000000 0.000000 0.500000
O O5 0.693444 0.750000 0.060386
O O6 0.672975 0.909823 0.174332
O O7 0.584941 0.999468 0.894141
O O8 0.412057 0.750000 0.195998
O O9 0.544625 0.962961 0.422056
O O10 0.321627 0.994957 0.134159
O O11 0.683690 0.750000 0.591207
O O12 0.735292 0.488268 0.599005
O O13 0.731429 0.544097 0.771269
O O14 0.237009 0.750000 0.463013
O O15 0.108020 0.524922 0.317717
O O16 0.319279 0.506043 0.645774
O O17 0.980905 0.250000 0.728461
O O18 0.102778 0.479538 0.888262
O O19 0.411696 0.250000 0.814610
O O20 0.500000 0.000000 0.000000
O O21 0.765531 0.750000 0.936773
#
# Coordination Sequence:
#
# PCOD9165893 Si02
#       8
#     4   4   4   4   4   4   4   4
#     4  11  21  36  58  86 122 160 200 246 297 358
#     4  11  23  38  57  85 117 156 200 240 297 363
#     4  11  23  39  60  90 125 158 201 257 313 371
#     4  10  23  41  62  90 123 161 204 257 318 369
#     4  11  22  39  62  88 122 163 207 253 306 368
#     4   9  20  38  60  87 121 160 201 250 307 360
#     4  11  23  38  59  87 120 158 202 249 299 362
#     4  10  21  41  66  89 120 161 205 256 313 374
#
# _framework density 19.832281999999999
#
# number of rings (size 3 to 8) (size 9 to 14) (size 15 to 20)
#    0.000    1.500    1.250    3.750    0.000    6.500 
#    0.000    1.875    0.000    0.000    0.000    0.000 
#    0.000    0.000    0.000    0.000    0.000    0.000 
#
# Total GULP energy -178691.327675 kJ/mol
# GULP energy per Si atom -5584.103990 kJ/mol
# Density = 1.978714 g / cm^3
# Si number density = 19.832282 Si / 1000 Ang^3
#
#
#
# Elastic Constant Matrix: (Units=GPa)
#
#
# Indices 1 2 3 4 5 6 
#
# 1 92.6279 35.8542 16.8685 0.0000 5.0554 0.0000
# 2 35.8542 70.0097 34.0757 0.0000 2.9424 0.0000
# 3 16.8685 34.0757 90.4524 0.0000 9.6879 0.0000
# 4 0.0000 0.0000 0.0000 23.2803 0.0000 -2.8387
# 5 5.0554 2.9424 9.6879 0.0000 32.7185 0.0000
# 6 0.0000 0.0000 0.0000 -2.8387 0.0000 32.5059
#
#
#
# Elastic Compliance Matrix: (Units=1/GPa)
#
#
# Indices 1 2 3 4 5 6 
#
# 1 0.013541 -0.007006 0.000280 0.000000 -0.001545 0.000000
# 2 -0.007006 0.021120 -0.006778 0.000000 0.001190 0.000000
# 3 0.000280 -0.006778 0.013938 0.000000 -0.003561 0.000000
# 4 0.000000 0.000000 0.000000 0.043417 0.000000 0.003792
# 5 -0.001545 0.001190 -0.003561 0.000000 0.031750 0.000000
# 6 0.000000 0.000000 0.000000 0.003792 0.000000 0.031095
#
#
# Mechanical properties :
#
#
# Convention : Reuss Voigt Hill
#
# Bulk Modulus (GPa) = 46.31403 47.40965 46.86184
# Shear Modulus (GPa) = 26.44572 28.78705 27.61638
#
# Velocity S-wave (km/s) = 3.65563 3.81402 3.73567
# Velocity P-wave (km/s) = 6.42041 6.58429 6.50287
#
# Compressibility (1/GPa) = 0.02159173
#
# Stress axis : x y z
#
# Youngs Moduli (GPa) = 73.84896 47.34737 71.74606
#
# Poissons Ratio (x) = 0.33171 -0.02005
# Poissons Ratio (y) = 0.51738 0.48626
# Poissons Ratio (z) = -0.02064 0.32090
#
# Static dielectric constant tensor:
#      x y z
#    x 1.737200 0.000000 0.002650 
#    y 0.000000 1.676640 0.000000 
#    z 0.002650 0.000000 1.736770 
# 
# From -- ./inp_files/55726.got.cif
#   From: 2010.05.17/outbox.cif.g08.bks.cpg/sg11_28_cif.got.tgz:55726.got - 2010.06.03 12:22:45.
