data_PCOD9165341
_publ_section_title
;
Structure prediction by ZEFSAII (Michael W. Deem and Ramdas Pophale) SiO2 
 PCOD9165341
Probable space group: P 21/M
;
_chemical_formula_sum "Si O2"
_cell_formula_units_Z 32
_cell_length_a 11.646292
_cell_length_b 18.530310
_cell_length_c 9.208828
_cell_angle_alpha 90.000000
_cell_angle_beta 57.802029
_cell_angle_gamma 90.000000
_cell_volume 1681.720891
_symmetry_space_group_name_H-M "P 21/M"
_symmetry_group_IT_number 11
_symmetry_cell_setting 'monoclinic'
loop_
_space_group_symop_operation_xyz
x,y,z
-x,1/2+y,-z
-x,-y,-z
x,1/2-y,z
loop_
_atom_site_type_symbol
_atom_site_label
_atom_site_fract_x
_atom_site_fract_y
_atom_site_fract_z
Si Si1 0.531887 0.081828 0.032638
Si Si2 0.248665 0.077330 0.318710
Si Si3 0.769424 0.044365 0.444000
Si Si4 0.004851 0.665757 0.996629
Si Si5 0.743303 0.163145 0.692086
Si Si6 0.920500 0.959308 0.848377
Si Si7 0.029334 0.335733 0.647273
Si Si8 0.746285 0.072152 0.143852
O O1 0.386180 0.114295 0.172628
O O2 0.626545 0.079531 0.110697
O O3 0.614038 0.128206 0.859254
O O4 0.500000 0.000000 0.000000
O O5 0.173749 0.045117 0.228745
O O6 0.141465 0.127078 0.473284
O O7 0.286458 0.013530 0.404923
O O8 0.762450 0.122098 0.526662
O O9 0.700963 0.045829 0.332919
O O10 0.927154 0.024328 0.307486
O O11 0.987374 0.750000 0.979868
O O12 0.952946 0.648721 0.194200
O O13 0.164003 0.643976 0.892103
O O14 0.933245 0.616189 0.925385
O O15 0.734229 0.250000 0.686795
O O16 0.877835 0.143834 0.696198
O O17 0.855356 0.016344 0.002220
O O18 0.038379 0.250000 0.623614
#
# Coordination Sequence:
#
# PCOD9165341 Si02
#       8
#     4   4   4   4   4   4   4   4
#     4  12  24  42  64  92 129 169 212 252 310 384
#     4  12  23  38  63  92 129 161 208 258 307 372
#     4  11  22  36  63  94 121 161 208 269 308 364
#     4  10  21  38  62  91 123 159 206 263 317 369
#     4  11  23  42  64  90 125 166 211 259 316 374
#     4  11  21  36  62  92 128 157 205 258 320 362
#     4  10  21  39  63  90 122 162 208 260 313 366
#     4  11  22  39  61  94 129 165 208 254 317 366
#
# _framework density 19.028127999999999
#
# number of rings (size 3 to 8) (size 9 to 14) (size 15 to 20)
#    0.000    1.000    5.000    3.375    0.000    3.500 
#    0.000    0.000    0.000    1.500    0.000    0.000 
#    0.000    0.000    0.000    0.000    0.000    0.000 
#
# Total GULP energy -178824.407316 kJ/mol
# GULP energy per Si atom -5588.262729 kJ/mol
# Density = 1.898482 g / cm^3
# Si number density = 19.028128 Si / 1000 Ang^3
#
#
#
# Elastic Constant Matrix: (Units=GPa)
#
#
# Indices 1 2 3 4 5 6 
#
# 1 35.3701 6.9382 20.8557 0.0000 2.1127 0.0000
# 2 6.9382 66.0401 32.8485 0.0000 -5.6192 0.0000
# 3 20.8557 32.8485 103.7465 0.0000 1.4381 0.0000
# 4 0.0000 0.0000 0.0000 32.0341 0.0000 -0.8619
# 5 2.1127 -5.6192 1.4381 0.0000 40.8241 0.0000
# 6 0.0000 0.0000 0.0000 -0.8619 0.0000 15.5309
#
#
#
# Elastic Compliance Matrix: (Units=1/GPa)
#
#
# Indices 1 2 3 4 5 6 
#
# 1 0.032165 -0.000356 -0.006333 0.000000 -0.001491 0.000000
# 2 -0.000356 0.018274 -0.005752 0.000000 0.002736 0.000000
# 3 -0.006333 -0.005752 0.012746 0.000000 -0.000913 0.000000
# 4 0.000000 0.000000 0.000000 0.031263 0.000000 0.001735
# 5 -0.001491 0.002736 -0.000913 0.000000 0.024981 0.000000
# 6 0.000000 0.000000 0.000000 0.001735 0.000000 0.064484
#
#
# Mechanical properties :
#
#
# Convention : Reuss Voigt Hill
#
# Bulk Modulus (GPa) = 26.10780 36.27129 31.18955
# Shear Modulus (GPa) = 22.56692 27.31212 24.93952
#
# Velocity S-wave (km/s) = 3.44754 3.79272 3.62424
# Velocity P-wave (km/s) = 5.44038 6.18732 5.82583
#
# Compressibility (1/GPa) = 0.03830273
#
# Stress axis : x y z
#
# Youngs Moduli (GPa) = 31.08939 54.72337 78.45709
#
# Poissons Ratio (x) = 0.01950 0.49683
# Poissons Ratio (y) = 0.01108 0.45130
# Poissons Ratio (z) = 0.19688 0.31478
#
# Static dielectric constant tensor:
#      x y z
#    x 1.646620 0.000000 0.004760 
#    y 0.000000 1.676670 0.000000 
#    z 0.004760 0.000000 1.680110 
# 
# From -- ./inp_files/18812.got.cif
#   From: 2010.05.17/outbox.cif.g08.bks.cpg/sg11_10_cif.got.tgz:18812.got - 2010.06.03 12:22:45.
