data_PCOD9165722
_publ_section_title
;
Structure prediction by ZEFSAII (Michael W. Deem and Ramdas Pophale) SiO2 
 PCOD9165722
Probable space group: P 21/M
;
_chemical_formula_sum "Si O2"
_cell_formula_units_Z 32
_cell_length_a 11.980826
_cell_length_b 8.153628
_cell_length_c 29.052500
_cell_angle_alpha 90.000000
_cell_angle_beta 148.362013
_cell_angle_gamma 90.000000
_cell_volume 1488.704346
_symmetry_space_group_name_H-M "P 21/M"
_symmetry_group_IT_number 11
_symmetry_cell_setting 'monoclinic'
loop_
_space_group_symop_operation_xyz
x,y,z
-x,1/2+y,-z
-x,-y,-z
x,1/2-y,z
loop_
_atom_site_type_symbol
_atom_site_label
_atom_site_fract_x
_atom_site_fract_y
_atom_site_fract_z
Si Si1 0.554111 0.942117 0.285768
Si Si2 0.852211 0.055414 0.140923
Si Si3 0.340085 0.949830 0.305581
Si Si4 0.911722 0.446268 0.347602
Si Si5 0.343089 0.550010 0.830701
Si Si6 0.210994 0.057983 0.977451
Si Si7 0.847483 0.936718 0.905885
Si Si8 0.396200 0.448051 0.511770
O O1 0.590000 0.750000 0.303606
O O2 0.463689 0.005037 0.302816
O O3 0.771234 0.018109 0.343112
O O4 0.367687 0.970709 0.182668
O O5 0.814921 0.250000 0.124111
O O6 0.771313 0.999233 0.162336
O O7 0.738891 0.966691 0.058460
O O8 0.102092 0.017407 0.224463
O O9 0.326620 0.750000 0.299039
O O10 0.465328 0.999811 0.395588
O O11 0.923766 0.250000 0.346938
O O12 0.780570 0.510513 0.257386
O O13 0.153235 0.508509 0.431706
O O14 0.342023 0.750000 0.829387
O O15 0.589960 0.503673 0.921848
O O16 0.165059 0.250000 0.969797
O O17 0.003164 0.955271 0.916835
O O18 0.788593 0.750000 0.894655
O O19 0.000000 0.000000 0.000000
O O20 0.500000 0.500000 0.500000
O O21 0.391992 0.250000 0.510947
#
# Coordination Sequence:
#
# PCOD9165722 Si02
#       8
#     4   4   4   4   4   4   4   4
#     4  11  23  40  61  87 123 163 207 256 308 367
#     4  11  21  36  59  87 117 156 207 253 303 367
#     4  10  22  40  61  87 124 164 203 253 315 369
#     4  10  21  40  63  88 121 159 205 258 311 366
#     4   9  20  36  56  83 117 157 199 251 307 361
#     4  11  21  36  56  83 120 160 201 250 309 366
#     4  12  24  39  60  87 120 162 212 259 306 364
#     4  10  22  41  66  95 125 162 204 255 314 374
#
# _framework density 21.495201999999999
#
# number of rings (size 3 to 8) (size 9 to 14) (size 15 to 20)
#    0.000    1.500    1.250    4.125    0.000    4.000 
#    0.000    3.750    0.000    0.000    0.000    0.000 
#    0.000    0.000    0.000    0.000    0.000    0.000 
#
# Total GULP energy -178922.864466 kJ/mol
# GULP energy per Si atom -5591.339515 kJ/mol
# Density = 2.144628 g / cm^3
# Si number density = 21.495202 Si / 1000 Ang^3
#
#
#
# Elastic Constant Matrix: (Units=GPa)
#
#
# Indices 1 2 3 4 5 6 
#
# 1 99.4177 -6.2185 28.9212 0.0000 5.1405 0.0000
# 2 -6.2185 16.3828 0.6858 0.0000 -3.1003 0.0000
# 3 28.9212 0.6858 108.9989 0.0000 0.6146 0.0000
# 4 0.0000 0.0000 0.0000 15.9348 0.0000 1.0893
# 5 5.1405 -3.1003 0.6146 0.0000 39.6037 0.0000
# 6 0.0000 0.0000 0.0000 1.0893 0.0000 30.7269
#
#
#
# Elastic Compliance Matrix: (Units=1/GPa)
#
#
# Indices 1 2 3 4 5 6 
#
# 1 0.011251 0.004191 -0.003006 0.000000 -0.001086 0.000000
# 2 0.004191 0.063538 -0.001537 0.000000 0.004454 0.000000
# 3 -0.003006 -0.001537 0.009981 0.000000 0.000115 0.000000
# 4 0.000000 0.000000 0.000000 0.062908 0.000000 -0.002230
# 5 -0.001086 0.004454 0.000115 0.000000 0.025738 0.000000
# 6 0.000000 0.000000 0.000000 -0.002230 0.000000 0.032624
#
#
# Mechanical properties :
#
#
# Convention : Reuss Voigt Hill
#
# Bulk Modulus (GPa) = 11.89532 30.17516 21.03524
# Shear Modulus (GPa) = 21.29792 30.68047 25.98919
#
# Velocity S-wave (km/s) = 3.15115 3.78208 3.48094
# Velocity P-wave (km/s) = 4.33424 5.75680 5.09541
#
# Compressibility (1/GPa) = 0.08406666
#
# Stress axis : x y z
#
# Youngs Moduli (GPa) = 88.87945 15.73873 100.19126
#
# Poissons Ratio (x) = -0.06596 0.30113
# Poissons Ratio (y) = -0.37250 0.15399
# Poissons Ratio (z) = 0.26713 0.02419
#
# Static dielectric constant tensor:
#      x y z
#    x 1.807270 0.000000 -0.011830 
#    y 0.000000 1.755670 0.000000 
#    z -0.011830 0.000000 1.764620 
# 
# From -- ./inp_files/38300.got.cif
#   From: 2010.05.17/outbox.cif.g08.bks.cpg/sg11_20_cif.got.tgz:38300.got - 2010.06.03 12:22:45.
