data_PCOD9165718
_publ_section_title
;
Structure prediction by ZEFSAII (Michael W. Deem and Ramdas Pophale) SiO2 
 PCOD9165718
Probable space group: P 21/M
;
_chemical_formula_sum "Si O2"
_cell_formula_units_Z 32
_cell_length_a 9.078063
_cell_length_b 12.901784
_cell_length_c 16.848098
_cell_angle_alpha 90.000000
_cell_angle_beta 125.487494
_cell_angle_gamma 90.000000
_cell_volume 1606.746906
_symmetry_space_group_name_H-M "P 21/M"
_symmetry_group_IT_number 11
_symmetry_cell_setting 'monoclinic'
loop_
_space_group_symop_operation_xyz
x,y,z
-x,1/2+y,-z
-x,-y,-z
x,1/2-y,z
loop_
_atom_site_type_symbol
_atom_site_label
_atom_site_fract_x
_atom_site_fract_y
_atom_site_fract_z
Si Si1 0.485528 0.368355 0.617674
Si Si2 0.019367 0.453277 0.918929
Si Si3 0.905030 0.871198 0.755290
Si Si4 0.501357 0.374114 0.439398
Si Si5 0.788320 0.498334 0.421655
Si Si6 0.344068 0.867732 0.170200
Si Si7 0.576486 0.537612 0.940506
Si Si8 0.248107 0.867681 0.745371
O O1 0.541281 0.250000 0.637853
O O2 0.521250 0.401345 0.539069
O O3 0.277378 0.386820 0.574373
O O4 0.574728 0.417095 0.723738
O O5 0.963574 0.544049 0.839400
O O6 0.866991 0.366397 0.873452
O O7 0.000000 0.500000 0.000000
O O8 0.225616 0.417071 0.977540
O O9 0.902094 0.750000 0.783229
O O10 0.704746 0.893691 0.656537
O O11 0.064196 0.876322 0.739295
O O12 0.524208 0.250000 0.440424
O O13 0.658586 0.429101 0.437993
O O14 0.755393 0.453700 0.323971
O O15 0.000000 0.500000 0.500000
O O16 0.408813 0.750000 0.175900
O O17 0.388998 0.941781 0.110032
O O18 0.426652 0.611145 0.853910
O O19 0.500000 0.500000 0.000000
O O20 0.256264 0.750000 0.715660
#
# Coordination Sequence:
#
# PCOD9165718 Si02
#       8
#     4   4   4   4   4   4   4   4
#     4  10  21  40  63  87 123 167 212 256 309 377
#     4  10  22  37  60  90 124 162 213 261 312 376
#     4  10  21  40  66  92 127 169 213 265 318 377
#     4  10  22  40  64  95 125 165 216 260 308 379
#     4  12  24  39  63  95 130 164 200 260 322 379
#     4  10  22  41  64  89 125 168 211 258 315 381
#     4  11  22  42  65  92 129 166 211 270 321 380
#     4  11  24  42  64  96 131 169 214 266 324 381
#
# _framework density 19.916018000000001
#
# number of rings (size 3 to 8) (size 9 to 14) (size 15 to 20)
#    0.000    1.500    2.500    2.250    1.750    6.000 
#    0.000    0.000    0.000    0.750    0.000    0.000 
#    0.000    0.000    0.000    0.000    0.000    0.000 
#
# Total GULP energy -178258.857486 kJ/mol
# GULP energy per Si atom -5570.589296 kJ/mol
# Density = 1.987069 g / cm^3
# Si number density = 19.916018 Si / 1000 Ang^3
#
#
#
# Elastic Constant Matrix: (Units=GPa)
#
#
# Indices 1 2 3 4 5 6 
#
# 1 127.4397 14.1167 51.0479 0.0000 14.0655 0.0000
# 2 14.1167 64.7058 22.0102 0.0000 -11.6028 0.0000
# 3 51.0479 22.0102 109.0238 0.0000 -3.1900 0.0000
# 4 0.0000 0.0000 0.0000 19.7365 0.0000 -1.7734
# 5 14.0655 -11.6028 -3.1900 0.0000 41.5409 0.0000
# 6 0.0000 0.0000 0.0000 -1.7734 0.0000 29.4793
#
#
#
# Elastic Compliance Matrix: (Units=1/GPa)
#
#
# Indices 1 2 3 4 5 6 
#
# 1 0.010352 -0.001430 -0.004683 0.000000 -0.004264 0.000000
# 2 -0.001430 0.017630 -0.002738 0.000000 0.005198 0.000000
# 3 -0.004683 -0.002738 0.011969 0.000000 0.001740 0.000000
# 4 0.000000 0.000000 0.000000 0.050943 0.000000 0.003065
# 5 -0.004264 0.005198 0.001740 0.000000 0.027102 0.000000
# 6 0.000000 0.000000 0.000000 0.003065 0.000000 0.034106
#
#
# Mechanical properties :
#
#
# Convention : Reuss Voigt Hill
#
# Bulk Modulus (GPa) = 44.94579 52.83543 48.89061
# Shear Modulus (GPa) = 28.21368 32.41765 30.31567
#
# Velocity S-wave (km/s) = 3.76790 4.03888 3.90574
# Velocity P-wave (km/s) = 6.44563 6.95246 6.70384
#
# Compressibility (1/GPa) = 0.02224902
#
# Stress axis : x y z
#
# Youngs Moduli (GPa) = 96.60211 56.72196 83.55192
#
# Poissons Ratio (x) = 0.08112 0.39128
# Poissons Ratio (y) = 0.13815 0.22872
# Poissons Ratio (z) = 0.45239 0.15528
#
# Static dielectric constant tensor:
#      x y z
#    x 1.734550 0.000000 0.086750 
#    y 0.000000 1.813320 0.000000 
#    z 0.086750 0.000000 1.786770 
# 
# From -- ./inp_files/47629.got.cif
#   From: 2010.05.17/outbox.cif.g08.bks.cpg/sg11_24_cif.got.tgz:47629.got - 2010.06.03 12:22:45.
