data_PCOD9165189
_publ_section_title
;
Structure prediction by ZEFSAII (Michael W. Deem and Ramdas Pophale) SiO2 
 PCOD9165189
Probable space group: P 21/M
;
_chemical_formula_sum "Si O2"
_cell_formula_units_Z 28
_cell_length_a 13.764019
_cell_length_b 8.931806
_cell_length_c 21.191910
_cell_angle_alpha 90.000000
_cell_angle_beta 143.905524
_cell_angle_gamma 90.000000
_cell_volume 1534.819377
_symmetry_space_group_name_H-M "P 21/M"
_symmetry_group_IT_number 11
_symmetry_cell_setting 'monoclinic'
loop_
_space_group_symop_operation_xyz
x,y,z
-x,1/2+y,-z
-x,-y,-z
x,1/2-y,z
loop_
_atom_site_type_symbol
_atom_site_label
_atom_site_fract_x
_atom_site_fract_y
_atom_site_fract_z
Si Si1 0.299515 0.928496 0.807410
Si Si2 0.503640 0.070717 0.268279
Si Si3 0.661791 0.571613 0.948129
Si Si4 0.108345 0.572378 0.833976
Si Si5 0.834219 0.928689 0.385851
Si Si6 0.506444 0.426927 0.604496
Si Si7 0.241988 0.927083 0.379048
O O1 0.280364 0.750000 0.784821
O O2 0.490940 0.964529 0.895208
O O3 0.236455 0.959314 0.844315
O O4 0.193624 0.018907 0.700783
O O5 0.525026 0.250000 0.280080
O O6 0.376523 0.034824 0.144914
O O7 0.676661 0.994177 0.340473
O O8 0.452137 0.010703 0.309200
O O9 0.688549 0.750000 0.967177
O O10 0.810656 0.486914 0.059326
O O11 0.082543 0.750000 0.823425
O O12 0.937644 0.492719 0.727579
O O13 0.838465 0.750000 0.392708
O O14 0.000000 0.000000 0.500000
O O15 0.489750 0.250000 0.606978
O O16 0.646438 0.450456 0.624939
O O17 0.338050 0.491546 0.486224
O O18 0.234777 0.750000 0.387904
#
# Coordination Sequence:
#
# PCOD9165189 Si02
#       7
#     4   4   4   4   4   4   4
#     4   9  20  37  54  78 113 151 189 232 279 331
#     4  10  21  38  60  83 111 149 186 228 285 341
#     4   9  19  37  57  80 113 150 189 230 279 338
#     4  11  22  35  57  85 115 148 190 238 282 330
#     4  11  22  35  53  79 113 149 188 233 275 332
#     4  10  21  39  62  86 112 145 186 234 285 339
#     4  10  22  39  59  84 115 148 186 232 283 339
#
# _framework density 18.243189999999998
#
# number of rings (size 3 to 8) (size 9 to 14) (size 15 to 20)
#    0.000    2.000    0.000    4.286    2.000    5.714 
#    0.000    0.714    0.000    0.000    0.000    0.000 
#    0.000    0.000    0.000    0.000    0.000    0.000 
#
# Total GULP energy -156403.532711 kJ/mol
# GULP energy per Si atom -5585.840454 kJ/mol
# Density = 1.820167 g / cm^3
# Si number density = 18.243190 Si / 1000 Ang^3
#
#
#
# Elastic Constant Matrix: (Units=GPa)
#
#
# Indices 1 2 3 4 5 6 
#
# 1 42.1459 36.6378 33.7591 0.0000 -17.1526 0.0000
# 2 36.6378 67.1759 43.2699 0.0000 -12.2004 0.0000
# 3 33.7591 43.2699 89.5512 0.0000 -6.3409 0.0000
# 4 0.0000 0.0000 0.0000 36.2547 0.0000 -3.2888
# 5 -17.1526 -12.2004 -6.3409 0.0000 19.9863 0.0000
# 6 0.0000 0.0000 0.0000 -3.2888 0.0000 30.5666
#
#
#
# Elastic Compliance Matrix: (Units=1/GPa)
#
#
# Indices 1 2 3 4 5 6 
#
# 1 0.071555 -0.022870 -0.012854 0.000000 0.043371 0.000000
# 2 -0.022870 0.031121 -0.006609 0.000000 -0.002726 0.000000
# 3 -0.012854 -0.006609 0.018556 0.000000 -0.009178 0.000000
# 4 0.000000 0.000000 0.000000 0.027855 0.000000 0.002997
# 5 0.043371 -0.002726 -0.009178 0.000000 0.082680 0.000000
# 6 0.000000 0.000000 0.000000 0.002997 0.000000 0.033038
#
#
# Mechanical properties :
#
#
# Convention : Reuss Voigt Hill
#
# Bulk Modulus (GPa) = 27.34663 47.35631 37.35147
# Shear Modulus (GPa) = 13.82518 23.04193 18.43355
#
# Velocity S-wave (km/s) = 2.75585 3.55779 3.18218
# Velocity P-wave (km/s) = 5.01487 6.54919 5.83270
#
# Compressibility (1/GPa) = 0.03656758
#
# Stress axis : x y z
#
# Youngs Moduli (GPa) = 13.97522 32.13220 53.89147
#
# Poissons Ratio (x) = 0.73486 0.69270
# Poissons Ratio (y) = 0.31961 0.35617
# Poissons Ratio (z) = 0.17963 0.21236
#
# Static dielectric constant tensor:
#      x y z
#    x 1.630800 0.000000 -0.012780 
#    y 0.000000 1.607040 0.000000 
#    z -0.012780 0.000000 1.599520 
# 
# From -- ./inp_files/38464.got.cif
#   From: 2010.05.17/outbox.cif.g08.bks.cpg/sg11_20_cif.got.tgz:38464.got - 2010.06.03 12:22:45.
