data_PCOD9165186
_publ_section_title
;
Structure prediction by ZEFSAII (Michael W. Deem and Ramdas Pophale) SiO2 
 PCOD9165186
Probable space group: P 21/M
;
_chemical_formula_sum "Si O2"
_cell_formula_units_Z 20
_cell_length_a 15.757788
_cell_length_b 14.035354
_cell_length_c 6.952269
_cell_angle_alpha 90.000000
_cell_angle_beta 142.333663
_cell_angle_gamma 90.000000
_cell_volume 939.572975
_symmetry_space_group_name_H-M "P 21/M"
_symmetry_group_IT_number 11
_symmetry_cell_setting 'monoclinic'
loop_
_space_group_symop_operation_xyz
x,y,z
-x,1/2+y,-z
-x,-y,-z
x,1/2-y,z
loop_
_atom_site_type_symbol
_atom_site_label
_atom_site_fract_x
_atom_site_fract_y
_atom_site_fract_z
Si Si1 0.190302 0.638615 0.294246
Si Si2 0.224274 0.982025 0.984168
Si Si3 0.118895 0.142508 0.316730
Si Si4 0.971416 0.641998 0.396351
Si Si5 0.649606 0.490094 0.176120
O O1 0.190765 0.750000 0.252082
O O2 0.287146 0.610539 0.643693
O O3 0.247518 0.581526 0.212393
O O4 0.028225 0.613195 0.042872
O O5 0.344275 0.999469 0.044051
O O6 0.107354 0.923849 0.651486
O O7 0.152342 0.081043 0.919724
O O8 0.157485 0.250000 0.324481
O O9 0.075268 0.148099 0.463891
O O10 0.244083 0.068024 0.542286
O O11 0.993764 0.750000 0.366824
O O12 0.500000 0.500000 0.000000
#
# Coordination Sequence:
#
# PCOD9165186 Si02
#       5
#     4   4   4   4   4
#     4  10  21  38  60  82 105 141 190 236 275 319
#     4   9  18  34  54  78 111 146 183 227 273 323
#     4   8  16  34  57  80 109 144 186 234 275 318
#     4   8  14  28  54  83 108 140 184 234 279 315
#     4  11  23  36  55  83 117 150 180 219 275 337
#
# _framework density 21.286266000000001
#
# number of rings (size 3 to 8) (size 9 to 14) (size 15 to 20)
#    0.000    2.800    0.000    3.600    0.000    3.200 
#    0.000    3.000    0.000    0.000    0.000    0.000 
#    0.000    0.000    0.000    0.000    0.000    0.000 
#
# Total GULP energy -111648.952073 kJ/mol
# GULP energy per Si atom -5582.447604 kJ/mol
# Density = 2.123782 g / cm^3
# Si number density = 21.286266 Si / 1000 Ang^3
#
#
#
# Elastic Constant Matrix: (Units=GPa)
#
#
# Indices 1 2 3 4 5 6 
#
# 1 108.7256 13.9044 24.3945 0.0000 21.7770 0.0000
# 2 13.9044 111.6337 11.9221 0.0000 14.4799 0.0000
# 3 24.3945 11.9221 44.2502 0.0000 13.7464 0.0000
# 4 0.0000 0.0000 0.0000 16.6938 0.0000 -9.8468
# 5 21.7770 14.4799 13.7464 0.0000 34.3327 0.0000
# 6 0.0000 0.0000 0.0000 -9.8468 0.0000 24.9834
#
#
#
# Elastic Compliance Matrix: (Units=1/GPa)
#
#
# Indices 1 2 3 4 5 6 
#
# 1 0.011297 -0.000242 -0.004532 0.000000 -0.005249 0.000000
# 2 -0.000242 0.009569 -0.001415 0.000000 -0.003316 0.000000
# 3 -0.004532 -0.001415 0.027866 0.000000 -0.007686 0.000000
# 4 0.000000 0.000000 0.000000 0.078047 0.000000 0.030761
# 5 -0.005249 -0.003316 -0.007686 0.000000 0.036932 0.000000
# 6 0.000000 0.000000 0.000000 0.030761 0.000000 0.052150
#
#
# Mechanical properties :
#
#
# Convention : Reuss Voigt Hill
#
# Bulk Modulus (GPa) = 27.50705 40.56127 34.03416
# Shear Modulus (GPa) = 20.80248 29.49455 25.14852
#
# Velocity S-wave (km/s) = 3.12953 3.72642 3.44094
# Velocity P-wave (km/s) = 5.09991 6.13282 5.64006
#
# Compressibility (1/GPa) = 0.03635432
#
# Stress axis : x y z
#
# Youngs Moduli (GPa) = 88.52292 104.50191 35.88610
#
# Poissons Ratio (x) = 0.02531 0.16263
# Poissons Ratio (y) = 0.02144 0.05076
# Poissons Ratio (z) = 0.40117 0.14783
#
# Static dielectric constant tensor:
#      x y z
#    x 1.829780 0.000000 -0.034390 
#    y 0.000000 1.791270 0.000000 
#    z -0.034390 0.000000 1.773580 
# 
# From -- ./inp_files/12257.got.cif
#   From: 2010.05.17/outbox.cif.g08.bks.cpg/sg11_7_cif.got.tgz:12257.got - 2010.06.03 12:22:45.
