data_PCOD9165930
_publ_section_title
;
Structure prediction by ZEFSAII (Michael W. Deem and Ramdas Pophale) SiO2 
 PCOD9165930
Probable space group: P 21/M
;
_chemical_formula_sum "Si O2"
_cell_formula_units_Z 24
_cell_length_a 4.910184
_cell_length_b 24.763210
_cell_length_c 9.098365
_cell_angle_alpha 90.000000
_cell_angle_beta 72.691556
_cell_angle_gamma 90.000000
_cell_volume 1056.191583
_symmetry_space_group_name_H-M "P 21/M"
_symmetry_group_IT_number 11
_symmetry_cell_setting 'monoclinic'
loop_
_space_group_symop_operation_xyz
x,y,z
-x,1/2+y,-z
-x,-y,-z
x,1/2-y,z
loop_
_atom_site_type_symbol
_atom_site_label
_atom_site_fract_x
_atom_site_fract_y
_atom_site_fract_z
Si Si1 0.942245 0.815366 0.239103
Si Si2 0.256816 0.079314 0.218459
Si Si3 0.127256 0.847640 0.530226
Si Si4 0.626172 0.750000 0.854047
Si Si5 0.426782 0.750000 0.635305
Si Si6 0.315233 0.545754 0.605186
Si Si7 0.549858 0.851696 0.060693
O O1 0.944320 0.750000 0.226459
O O2 0.986125 0.830409 0.401408
O O3 0.211857 0.842912 0.115470
O O4 0.667501 0.840009 0.203897
O O5 0.528246 0.065799 0.272971
O O6 0.344025 0.094745 0.039469
O O7 0.110832 0.132512 0.314690
O O8 0.011086 0.034965 0.291438
O O9 0.334037 0.802123 0.562890
O O10 0.296515 0.904394 0.494442
O O11 0.309825 0.750000 0.823053
O O12 0.740349 0.750000 0.666008
O O13 0.663588 0.801513 0.946043
O O14 0.500000 0.500000 0.500000
#
# Coordination Sequence:
#
# PCOD9165930 Si02
#       7
#     4   4   4   2   2   4   4
#     4  12  24  38  54  87 129 171 198 241 306 372
#     4  10  22  39  64  92 111 160 205 256 302 355
#     4  10  25  37  62  90 125 159 202 257 309 363
#     4  12  20  34  54  82 112 165 203 240 286 350
#     4  12  22  34  60  88 126 151 207 256 300 362
#     4  10  21  41  69  95 115 153 213 265 310 352
#     4  12  23  38  57  84 126 163 208 236 298 368
#
# _framework density 22.723153
#
# number of rings (size 3 to 8) (size 9 to 14) (size 15 to 20)
#    1.000    0.000    4.167    3.500    2.333    0.000 
#    0.000    0.000    0.000    6.000    0.000    0.000 
#    0.000    0.000    0.000    0.000    0.000    0.000 
#
# Total GULP energy -133767.378995 kJ/mol
# GULP energy per Si atom -5573.640791 kJ/mol
# Density = 2.267143 g / cm^3
# Si number density = 22.723153 Si / 1000 Ang^3
#
#
#
# Elastic Constant Matrix: (Units=GPa)
#
#
# Indices 1 2 3 4 5 6 
#
# 1 61.7861 4.2038 12.3319 0.0000 17.7845 0.0000
# 2 4.2038 22.4692 -2.2299 0.0000 10.3888 0.0000
# 3 12.3319 -2.2299 63.3531 0.0000 17.3929 0.0000
# 4 0.0000 0.0000 0.0000 10.0980 0.0000 4.2194
# 5 17.7845 10.3888 17.3929 0.0000 42.3420 0.0000
# 6 0.0000 0.0000 0.0000 4.2194 0.0000 14.2701
#
#
#
# Elastic Compliance Matrix: (Units=1/GPa)
#
#
# Indices 1 2 3 4 5 6 
#
# 1 0.018568 -0.000408 -0.001708 0.000000 -0.006997 0.000000
# 2 -0.000408 0.052176 0.006068 0.000000 -0.015123 0.000000
# 3 -0.001708 0.006068 0.018645 0.000000 -0.008430 0.000000
# 4 0.000000 0.000000 0.000000 0.112989 0.000000 -0.033409
# 5 -0.006997 -0.015123 -0.008430 0.000000 0.033730 0.000000
# 6 0.000000 0.000000 0.000000 -0.033409 0.000000 0.079955
#
#
# Mechanical properties :
#
#
# Convention : Reuss Voigt Hill
#
# Bulk Modulus (GPa) = 10.27828 19.58000 14.92914
# Shear Modulus (GPa) = 14.68042 22.22885 18.45464
#
# Velocity S-wave (km/s) = 2.54452 3.13109 2.85292
# Velocity P-wave (km/s) = 3.62848 4.65908 4.17570
#
# Compressibility (1/GPa) = 0.09729252
#
# Stress axis : x y z
#
# Youngs Moduli (GPa) = 53.85746 19.16590 53.63374
#
# Poissons Ratio (x) = 0.00782 0.09158
# Poissons Ratio (y) = 0.02198 -0.32543
# Poissons Ratio (z) = 0.09197 -0.11629
#
# Static dielectric constant tensor:
#      x y z
#    x 1.859750 0.000000 -0.078750 
#    y 0.000000 1.847960 0.000000 
#    z -0.078750 0.000000 1.846270 
# 
# From -- ./inp_files/10528.got.cif
#   From: 2010.05.17/outbox.cif.g08.bks.cpg/sg11_6_cif.got.tgz:10528.got - 2010.06.03 12:22:45.
