data_PCOD9165775
_publ_section_title
;
Structure prediction by ZEFSAII (Michael W. Deem and Ramdas Pophale) SiO2 
 PCOD9165775
Probable space group: P 21/M
;
_chemical_formula_sum "Si O2"
_cell_formula_units_Z 24
_cell_length_a 21.262393
_cell_length_b 8.526724
_cell_length_c 9.843163
_cell_angle_alpha 90.000000
_cell_angle_beta 36.982219
_cell_angle_gamma 90.000000
_cell_volume 1073.527403
_symmetry_space_group_name_H-M "P 21/M"
_symmetry_group_IT_number 11
_symmetry_cell_setting 'monoclinic'
loop_
_space_group_symop_operation_xyz
x,y,z
-x,1/2+y,-z
-x,-y,-z
x,1/2-y,z
loop_
_atom_site_type_symbol
_atom_site_label
_atom_site_fract_x
_atom_site_fract_y
_atom_site_fract_z
Si Si1 0.853889 0.438233 0.826098
Si Si2 0.807172 0.934124 0.393855
Si Si3 0.507062 0.067408 0.337380
Si Si4 0.062592 0.935578 0.601695
Si Si5 0.709806 0.434098 0.311210
Si Si6 0.396959 0.940671 0.099093
O O1 0.870472 0.250000 0.806038
O O2 0.859553 0.479086 0.657756
O O3 0.949550 0.521909 0.737299
O O4 0.750344 0.472380 0.090326
O O5 0.802854 0.750000 0.374562
O O6 0.905752 0.976202 0.316891
O O7 0.798995 0.026106 0.266197
O O8 0.706162 0.990320 0.654356
O O9 0.527699 0.250000 0.315901
O O10 0.500000 0.000000 0.500000
O O11 0.391492 0.034438 0.477941
O O12 0.587491 0.008162 0.084865
O O13 0.070800 0.750000 0.611331
O O14 0.683755 0.250000 0.363259
O O15 0.392578 0.750000 0.112496
O O16 0.500000 0.000000 0.000000
#
# Coordination Sequence:
#
# PCOD9165775 Si02
#       6
#     4   4   4   4   4   4
#     4   9  21  41  64  91 122 156 198 249 304 363
#     4  12  25  40  61  91 124 162 206 251 302 364
#     4  11  25  42  62  91 125 161 205 250 301 361
#     4  10  21  40  65  92 121 157 200 249 304 364
#     4  11  23  41  64  90 123 161 203 254 306 359
#     4  11  23  41  64  89 122 162 204 250 300 357
#
# _framework density 22.356206
#
# number of rings (size 3 to 8) (size 9 to 14) (size 15 to 20)
#    0.000    1.333    1.667    3.500    2.333    4.667 
#    0.000    0.000    0.000    0.000    0.000    0.000 
#    0.000    0.000    0.000    0.000    0.000    0.000 
#
# Total GULP energy -134248.701994 kJ/mol
# GULP energy per Si atom -5593.695916 kJ/mol
# Density = 2.230532 g / cm^3
# Si number density = 22.356206 Si / 1000 Ang^3
#
#
#
# Elastic Constant Matrix: (Units=GPa)
#
#
# Indices 1 2 3 4 5 6 
#
# 1 63.8309 -7.1318 -15.2042 0.0000 17.1863 0.0000
# 2 -7.1318 20.8595 6.0491 0.0000 5.3596 0.0000
# 3 -15.2042 6.0491 70.4650 0.0000 18.1087 0.0000
# 4 0.0000 0.0000 0.0000 24.5587 0.0000 1.2971
# 5 17.1863 5.3596 18.1087 0.0000 32.5636 0.0000
# 6 0.0000 0.0000 0.0000 1.2971 0.0000 36.1378
#
#
#
# Elastic Compliance Matrix: (Units=1/GPa)
#
#
# Indices 1 2 3 4 5 6 
#
# 1 0.024517 0.010764 0.009505 0.000000 -0.019997 0.000000
# 2 0.010764 0.055176 0.001610 0.000000 -0.015657 0.000000
# 3 0.009505 0.001610 0.020373 0.000000 -0.016611 0.000000
# 4 0.000000 0.000000 0.000000 0.040796 0.000000 -0.001464
# 5 -0.019997 -0.015657 -0.016611 0.000000 0.053077 0.000000
# 6 0.000000 0.000000 0.000000 -0.001464 0.000000 0.027724
#
#
# Mechanical properties :
#
#
# Convention : Reuss Voigt Hill
#
# Bulk Modulus (GPa) = 6.95297 13.62019 10.28658
# Shear Modulus (GPa) = 22.13877 30.08151 26.11014
#
# Velocity S-wave (km/s) = 3.15028 3.67216 3.42118
# Velocity P-wave (km/s) = 4.04341 4.90767 4.49636
#
# Compressibility (1/GPa) = 0.14382349
#
# Stress axis : x y z
#
# Youngs Moduli (GPa) = 40.78768 18.12380 49.08465
#
# Poissons Ratio (x) = -0.19508 -0.46655
# Poissons Ratio (y) = -0.43904 -0.07901
# Poissons Ratio (z) = -0.38769 -0.02917
#
# Static dielectric constant tensor:
#      x y z
#    x 1.860090 0.000000 0.007690 
#    y 0.000000 1.763860 0.000000 
#    z 0.007690 0.000000 1.851390 
# 
# From -- ./inp_files/25743.got.cif
#   From: 2010.05.17/outbox.cif.g08.bks.cpg/sg11_13_cif.got.tgz:25743.got - 2010.06.03 12:22:45.
