data_PCOD9165981
_publ_section_title
;
Structure prediction by ZEFSAII (Michael W. Deem and Ramdas Pophale) SiO2 
 PCOD9165981
Probable space group: P 21/M
;
_chemical_formula_sum "Si O2"
_cell_formula_units_Z 26
_cell_length_a 7.390961
_cell_length_b 27.187340
_cell_length_c 5.645484
_cell_angle_alpha 90.000000
_cell_angle_beta 93.449767
_cell_angle_gamma 90.000000
_cell_volume 1132.351155
_symmetry_space_group_name_H-M "P 21/M"
_symmetry_group_IT_number 11
_symmetry_cell_setting 'monoclinic'
loop_
_space_group_symop_operation_xyz
x,y,z
-x,1/2+y,-z
-x,-y,-z
x,1/2-y,z
loop_
_atom_site_type_symbol
_atom_site_label
_atom_site_fract_x
_atom_site_fract_y
_atom_site_fract_z
Si Si1 0.265541 0.592552 0.486487
Si Si2 0.125202 0.833393 0.783690
Si Si3 0.369562 0.250000 0.756737
Si Si4 0.708360 0.250000 0.525121
Si Si5 0.450413 0.048942 0.141658
Si Si6 0.997430 0.750000 0.072311
Si Si7 0.526947 0.145132 0.874590
Si Si8 0.894820 0.003732 0.742649
O O1 0.101884 0.619016 0.615660
O O2 0.381743 0.559170 0.672139
O O3 0.412084 0.629933 0.384852
O O4 0.190966 0.558250 0.274576
O O5 0.215107 0.795402 0.610373
O O6 0.282551 0.848976 0.975631
O O7 0.983049 0.799832 0.915299
O O8 0.492620 0.250000 0.531597
O O9 0.153398 0.250000 0.736240
O O10 0.427951 0.197812 0.878080
O O11 0.803902 0.250000 0.790989
O O12 0.266636 0.035846 0.263537
O O13 0.427526 0.098246 0.982315
O O14 0.500000 0.000000 0.000000
O O15 0.000000 0.000000 0.500000
O O16 0.000000 0.000000 0.000000
#
# Coordination Sequence:
#
# PCOD9165981 Si02
#       8
#     4   4   2   2   4   2   4   4
#     4  11  23  43  78 100 138 202 244 300 378 451
#     4  10  21  42  70  98 135 192 239 295 380 432
#     4  12  23  44  67 105 140 184 249 296 371 446
#     4  11  20  45  65  93 144 189 231 300 368 439
#     4  11  24  46  76 107 140 197 258 298 373 465
#     4  11  23  41  70 102 148 189 238 316 361 455
#     4  11  23  44  77  98 140 192 250 305 363 452
#     4  12  28  46  70 110 156 188 242 321 382 445
#
# _framework density 22.961075000000001
#
# number of rings (size 3 to 8) (size 9 to 14) (size 15 to 20)
#    0.000    0.923    4.615    1.846    4.308    1.231 
#    8.308    0.000    0.000    0.000    0.000    0.000 
#    0.000    0.000    0.000    0.000    0.000    0.000 
#
# Total GULP energy -145142.344342 kJ/mol
# GULP energy per Si atom -5582.397859 kJ/mol
# Density = 2.290881 g / cm^3
# Si number density = 22.961075 Si / 1000 Ang^3
#
#
#
# Elastic Constant Matrix: (Units=GPa)
#
#
# Indices 1 2 3 4 5 6 
#
# 1 71.0723 29.1631 24.1389 0.0000 -25.6189 0.0000
# 2 29.1631 148.8319 45.6676 0.0000 3.3428 0.0000
# 3 24.1389 45.6676 94.8020 0.0000 -2.9887 0.0000
# 4 0.0000 0.0000 0.0000 52.8634 0.0000 1.4840
# 5 -25.6189 3.3428 -2.9887 0.0000 31.3585 0.0000
# 6 0.0000 0.0000 0.0000 1.4840 0.0000 13.1582
#
#
#
# Elastic Compliance Matrix: (Units=1/GPa)
#
#
# Indices 1 2 3 4 5 6 
#
# 1 0.024067 -0.004072 -0.003543 0.000000 0.019758 0.000000
# 2 -0.004072 0.008619 -0.003259 0.000000 -0.004556 0.000000
# 3 -0.003543 -0.003259 0.012979 0.000000 -0.001310 0.000000
# 4 0.000000 0.000000 0.000000 0.018977 0.000000 -0.002140
# 5 0.019758 -0.004556 -0.001310 0.000000 0.048392 0.000000
# 6 0.000000 0.000000 0.000000 -0.002140 0.000000 0.076240
#
#
# Mechanical properties :
#
#
# Convention : Reuss Voigt Hill
#
# Bulk Modulus (GPa) = 41.81290 56.96060 49.38675
# Shear Modulus (GPa) = 22.83164 33.85844 28.34504
#
# Velocity S-wave (km/s) = 3.15677 3.84422 3.51733
# Velocity P-wave (km/s) = 5.61577 6.67573 6.16856
#
# Compressibility (1/GPa) = 0.02391606
#
# Stress axis : x y z
#
# Youngs Moduli (GPa) = 41.55111 116.02013 77.04757
#
# Poissons Ratio (x) = 0.47247 0.27301
# Poissons Ratio (y) = 0.16921 0.25108
# Poissons Ratio (z) = 0.14723 0.37808
#
# Static dielectric constant tensor:
#      x y z
#    x 1.850900 0.000000 -0.044650 
#    y 0.000000 1.980900 0.000000 
#    z -0.044650 0.000000 1.945030 
# 
# From -- ./inp_files/3022.got.cif
#   From: 2010.05.17/outbox.cif.g08.bks.cpg/sg11_2_cif.got.tgz:3022.got - 2010.06.03 12:22:45.
