data_PCOD9165439
_publ_section_title
;
Structure prediction by ZEFSAII (Michael W. Deem and Ramdas Pophale) SiO2 
 PCOD9165439
Probable space group: P 21/M
;
_chemical_formula_sum "Si O2"
_cell_formula_units_Z 28
_cell_length_a 11.652216
_cell_length_b 14.804156
_cell_length_c 9.483237
_cell_angle_alpha 90.000000
_cell_angle_beta 121.957421
_cell_angle_gamma 90.000000
_cell_volume 1387.940258
_symmetry_space_group_name_H-M "P 21/M"
_symmetry_group_IT_number 11
_symmetry_cell_setting 'monoclinic'
loop_
_space_group_symop_operation_xyz
x,y,z
-x,1/2+y,-z
-x,-y,-z
x,1/2-y,z
loop_
_atom_site_type_symbol
_atom_site_label
_atom_site_fract_x
_atom_site_fract_y
_atom_site_fract_z
Si Si1 0.123341 0.043482 0.940281
Si Si2 0.308072 0.647516 0.699857
Si Si3 0.992265 0.094448 0.577608
Si Si4 0.621781 0.459891 0.989501
Si Si5 0.800561 0.651416 0.500424
Si Si6 0.008268 0.146199 0.108290
Si Si7 0.555439 0.985906 0.378576
O O1 0.012023 0.074788 0.754933
O O2 0.265832 0.036631 0.956716
O O3 0.095137 0.938621 0.966203
O O4 0.117749 0.113256 0.064281
O O5 0.352566 0.750000 0.713061
O O6 0.151719 0.637780 0.550788
O O7 0.317612 0.617398 0.870355
O O8 0.398337 0.580034 0.664119
O O9 0.121615 0.145394 0.597530
O O10 0.000000 0.000000 0.500000
O O11 0.500000 0.500000 0.000000
O O12 0.559335 0.440620 0.795617
O O13 0.736642 0.750000 0.474430
O O14 0.689579 0.575493 0.455259
O O15 0.919782 0.643844 0.693539
O O16 0.962281 0.250000 0.053351
O O17 0.500000 0.000000 0.500000
#
# Coordination Sequence:
#
# PCOD9165439 Si02
#       7
#     4   4   4   4   4   4   4
#     4  11  21  38  61  87 121 154 196 248 300 362
#     4  11  23  40  63  92 124 159 205 257 309 363
#     4  12  19  38  65  92 118 154 196 255 311 360
#     4  10  21  39  60  84 118 162 203 241 297 357
#     4  11  22  39  61  88 119 155 200 251 306 365
#     4  10  22  38  59  87 118 154 192 244 311 366
#     4  11  23  41  63  89 123 167 208 249 301 361
#
# _framework density 20.173777000000001
#
# number of rings (size 3 to 8) (size 9 to 14) (size 15 to 20)
#    0.000    1.143    4.286    2.143    0.000    5.143 
#    0.000    4.286    0.000    0.000    0.000    0.000 
#    0.000    0.000    0.000    0.000    0.000    0.000 
#
# Total GULP energy -156242.254412 kJ/mol
# GULP energy per Si atom -5580.080515 kJ/mol
# Density = 2.012786 g / cm^3
# Si number density = 20.173777 Si / 1000 Ang^3
#
#
#
# Elastic Constant Matrix: (Units=GPa)
#
#
# Indices 1 2 3 4 5 6 
#
# 1 83.5263 25.8921 28.7074 0.0000 -8.5440 0.0000
# 2 25.8921 83.1408 11.9490 0.0000 -16.3105 0.0000
# 3 28.7074 11.9490 51.8356 0.0000 -13.8145 0.0000
# 4 0.0000 0.0000 0.0000 6.4659 0.0000 -8.8577
# 5 -8.5440 -16.3105 -13.8145 0.0000 34.5385 0.0000
# 6 0.0000 0.0000 0.0000 -8.8577 0.0000 6.7027
#
#
#
# Elastic Compliance Matrix: (Units=1/GPa)
#
#
# Indices 1 2 3 4 5 6 
#
# 1 0.015916 -0.004020 -0.008221 0.000000 -0.001249 0.000000
# 2 -0.004020 0.014384 0.000510 0.000000 0.006002 0.000000
# 3 -0.008221 0.000510 0.026023 0.000000 0.008616 0.000000
# 4 0.000000 0.000000 0.000000 -0.190856 0.000000 -0.252216
# 5 -0.001249 0.006002 0.008616 0.000000 0.034925 0.000000
# 6 0.000000 0.000000 0.000000 -0.252216 0.000000 -0.184111
#
#
# Mechanical properties :
#
#
# Convention : Reuss Voigt Hill
#
# Bulk Modulus (GPa) = 30.43042 39.06661 34.74852
# Shear Modulus (GPa) = -20.05586 19.67170 -0.19208
#
# Velocity S-wave (km/s) = -3.15644 3.12607 -0.30890
# Velocity P-wave (km/s) = 1.35378 5.69533 4.13942
#
# Compressibility (1/GPa) = 0.03286185
#
# Stress axis : x y z
#
# Youngs Moduli (GPa) = 62.82918 69.52178 38.42727
#
# Poissons Ratio (x) = 0.27950 0.31591
# Poissons Ratio (y) = 0.25259 -0.01961
# Poissons Ratio (z) = 0.51651 -0.03548
#
# Static dielectric constant tensor:
#      x y z
#    x 1.735990 0.000000 -0.016760 
#    y 0.000000 1.764190 0.000000 
#    z -0.016760 0.000000 1.729730 
# 
# From -- ./inp_files/18149.got.cif
#   From: 2010.05.17/outbox.cif.g08.bks.cpg/sg11_10_cif.got.tgz:18149.got - 2010.06.03 12:22:45.
