data_PCOD9165085
_publ_section_title
;
Structure prediction by ZEFSAII (Michael W. Deem and Ramdas Pophale) SiO2 
 PCOD9165085
Probable space group: P 21/M
;
_chemical_formula_sum "Si O2"
_cell_formula_units_Z 20
_cell_length_a 12.600529
_cell_length_b 15.461250
_cell_length_c 5.066980
_cell_angle_alpha 90.000000
_cell_angle_beta 87.755812
_cell_angle_gamma 90.000000
_cell_volume 986.391554
_symmetry_space_group_name_H-M "P 21/M"
_symmetry_group_IT_number 11
_symmetry_cell_setting 'monoclinic'
loop_
_space_group_symop_operation_xyz
x,y,z
-x,1/2+y,-z
-x,-y,-z
x,1/2-y,z
loop_
_atom_site_type_symbol
_atom_site_label
_atom_site_fract_x
_atom_site_fract_y
_atom_site_fract_z
Si Si1 0.889764 0.951324 0.058225
Si Si2 0.198559 0.354333 0.447754
Si Si3 0.423686 0.075053 0.632432
Si Si4 0.631106 0.154936 0.539314
Si Si5 0.686980 0.053613 0.028024
O O1 0.878078 0.889044 0.311458
O O2 0.803693 0.027259 0.103551
O O3 0.848172 0.895456 0.814116
O O4 0.000000 0.000000 0.000000
O O5 0.203603 0.250000 0.438422
O O6 0.316705 0.393280 0.497826
O O7 0.507820 0.151633 0.637766
O O8 0.500000 0.000000 0.500000
O O9 0.383852 0.031813 0.908582
O O10 0.675507 0.250000 0.570850
O O11 0.643849 0.124966 0.236603
O O12 0.685646 0.087612 0.732607
#
# Coordination Sequence:
#
# PCOD9165085 Si02
#       5
#     4   4   4   4   4
#     4  11  23  43  65  84 114 159 201 243 300 359
#     4  11  23  40  63  95 123 150 198 257 298 342
#     4   9  19  36  59  85 119 159 192 229 287 361
#     4  11  21  35  55  85 119 153 190 236 288 344
#     4  10  21  38  56  81 113 153 198 237 285 354
#
# _framework density 20.275922000000001
#
# number of rings (size 3 to 8) (size 9 to 14) (size 15 to 20)
#    0.000    1.600    0.000    6.600    0.000    4.800 
#    0.000   16.000    0.000    0.000    0.000    0.000 
#    0.000    0.000    0.000    0.000    0.000    0.000 
#
# Total GULP energy -111570.092468 kJ/mol
# GULP energy per Si atom -5578.504623 kJ/mol
# Density = 2.022977 g / cm^3
# Si number density = 20.275922 Si / 1000 Ang^3
#
#
#
# Elastic Constant Matrix: (Units=GPa)
#
#
# Indices 1 2 3 4 5 6 
#
# 1 91.9275 29.7632 -4.4229 0.0000 -15.1931 0.0000
# 2 29.7632 119.0925 23.3108 0.0000 -1.0112 0.0000
# 3 -4.4229 23.3108 83.8130 0.0000 -1.9050 0.0000
# 4 0.0000 0.0000 0.0000 19.8970 0.0000 0.5510
# 5 -15.1931 -1.0112 -1.9050 0.0000 21.6595 0.0000
# 6 0.0000 0.0000 0.0000 0.5510 0.0000 20.4434
#
#
#
# Elastic Compliance Matrix: (Units=1/GPa)
#
#
# Indices 1 2 3 4 5 6 
#
# 1 0.013788 -0.003753 0.001991 0.000000 0.009671 0.000000
# 2 -0.003753 0.009903 -0.003008 0.000000 -0.002435 0.000000
# 3 0.001991 -0.003008 0.012927 0.000000 0.002393 0.000000
# 4 0.000000 0.000000 0.000000 0.050296 0.000000 -0.001356
# 5 0.009671 -0.002435 0.002393 0.000000 0.053050 0.000000
# 6 0.000000 0.000000 0.000000 -0.001356 0.000000 0.048952
#
#
# Mechanical properties :
#
#
# Convention : Reuss Voigt Hill
#
# Bulk Modulus (GPa) = 36.92999 43.57057 40.25028
# Shear Modulus (GPa) = 24.09852 28.81212 26.45532
#
# Velocity S-wave (km/s) = 3.45124 3.77371 3.61607
# Velocity P-wave (km/s) = 5.84249 6.36579 6.10975
#
# Compressibility (1/GPa) = 0.02707826
#
# Stress axis : x y z
#
# Youngs Moduli (GPa) = 72.52918 100.98041 77.35553
#
# Poissons Ratio (x) = 0.37902 -0.15404
# Poissons Ratio (y) = 0.27223 0.23266
# Poissons Ratio (z) = -0.14443 0.30372
#
# Static dielectric constant tensor:
#      x y z
#    x 1.733600 0.000000 -0.001540 
#    y 0.000000 1.772380 0.000000 
#    z -0.001540 0.000000 1.736010 
# 
# From -- ./inp_files/4161.got.cif
#   From: 2010.05.17/outbox.cif.g08.bks.cpg/sg11_3_cif.got.tgz:4161.got - 2010.06.03 12:22:45.
