data_PCOD9165616
_publ_section_title
;
Structure prediction by ZEFSAII (Michael W. Deem and Ramdas Pophale) SiO2 
 PCOD9165616
Probable space group: P 21/M
;
_chemical_formula_sum "Si O2"
_cell_formula_units_Z 24
_cell_length_a 14.174093
_cell_length_b 8.790077
_cell_length_c 17.564145
_cell_angle_alpha 90.000000
_cell_angle_beta 143.961246
_cell_angle_gamma 90.000000
_cell_volume 1287.471670
_symmetry_space_group_name_H-M "P 21/M"
_symmetry_group_IT_number 11
_symmetry_cell_setting 'monoclinic'
loop_
_space_group_symop_operation_xyz
x,y,z
-x,1/2+y,-z
-x,-y,-z
x,1/2-y,z
loop_
_atom_site_type_symbol
_atom_site_label
_atom_site_fract_x
_atom_site_fract_y
_atom_site_fract_z
Si Si1 0.527238 0.566531 0.781792
Si Si2 0.174161 0.067729 0.130144
Si Si3 0.072861 0.570031 0.624251
Si Si4 0.576396 0.931872 0.126288
Si Si5 0.675003 0.428659 0.621942
Si Si6 0.210609 0.571280 0.475196
O O1 0.529031 0.750000 0.791803
O O2 0.687831 0.521561 0.840727
O O3 0.509326 0.491162 0.852613
O O4 0.369825 0.529936 0.627777
O O5 0.166384 0.250000 0.123471
O O6 0.231598 0.012148 0.250102
O O7 0.000000 0.000000 0.000000
O O8 0.096813 0.750000 0.632056
O O9 0.241112 0.490257 0.750248
O O10 0.000000 0.500000 0.500000
O O11 0.939532 0.530172 0.599657
O O12 0.570878 0.750000 0.120513
O O13 0.500000 0.000000 0.000000
O O14 0.500000 0.500000 0.500000
O O15 0.663089 0.250000 0.632460
O O16 0.754859 0.443081 0.591411
O O17 0.176465 0.750000 0.469640
#
# Coordination Sequence:
#
# PCOD9165616 Si02
#       6
#     4   4   4   4   4   4
#     4  10  21  41  66  91 127 170 211 258 318 379
#     4  11  24  43  65  94 130 171 212 262 319 377
#     4  12  24  40  64  95 127 164 210 261 312 372
#     4  12  26  44  67  95 128 168 211 262 319 380
#     4  11  22  39  64  94 127 166 210 261 312 370
#     4  10  21  39  64  94 129 169 212 260 316 372
#
# _framework density 18.641186000000001
#
# number of rings (size 3 to 8) (size 9 to 14) (size 15 to 20)
#    0.000    1.000    3.333    4.000    0.000    4.000 
#    0.000    1.667    0.000    0.000    0.000    0.000 
#    0.000    0.000    0.000    0.000    0.000    0.000 
#
# Total GULP energy -134206.238448 kJ/mol
# GULP energy per Si atom -5591.926602 kJ/mol
# Density = 1.859876 g / cm^3
# Si number density = 18.641186 Si / 1000 Ang^3
#
#
#
# Elastic Constant Matrix: (Units=GPa)
#
#
# Indices 1 2 3 4 5 6 
#
# 1 117.3822 66.7400 72.5651 0.0000 -4.0841 0.0000
# 2 66.7400 99.6217 58.3242 0.0000 -4.2061 0.0000
# 3 72.5651 58.3242 166.6635 0.0000 -9.4978 0.0000
# 4 0.0000 0.0000 0.0000 36.8331 0.0000 -0.7801
# 5 -4.0841 -4.2061 -9.4978 0.0000 29.1702 0.0000
# 6 0.0000 0.0000 0.0000 -0.7801 0.0000 38.3739
#
#
#
# Elastic Compliance Matrix: (Units=1/GPa)
#
#
# Indices 1 2 3 4 5 6 
#
# 1 0.015577 -0.008134 -0.003952 0.000000 -0.000279 0.000000
# 2 -0.008134 0.016876 -0.002334 0.000000 0.000535 0.000000
# 3 -0.003952 -0.002334 0.008647 0.000000 0.001926 0.000000
# 4 0.000000 0.000000 0.000000 0.027161 0.000000 0.000552
# 5 -0.000279 0.000535 0.001926 0.000000 0.034947 0.000000
# 6 0.000000 0.000000 0.000000 0.000552 0.000000 0.026071
#
#
# Mechanical properties :
#
#
# Convention : Reuss Voigt Hill
#
# Bulk Modulus (GPa) = 81.55590 86.54733 84.05161
# Shear Modulus (GPa) = 30.82526 33.27797 32.05162
#
# Velocity S-wave (km/s) = 4.07087 4.22973 4.15106
# Velocity P-wave (km/s) = 8.12043 8.38945 8.25604
#
# Compressibility (1/GPa) = 0.01226153
#
# Stress axis : x y z
#
# Youngs Moduli (GPa) = 64.19716 59.25553 115.64518
#
# Poissons Ratio (x) = 0.48197 0.45699
# Poissons Ratio (y) = 0.52217 0.26990
# Poissons Ratio (z) = 0.25368 0.13830
#
# Static dielectric constant tensor:
#      x y z
#    x 1.659240 0.000000 -0.033950 
#    y 0.000000 1.631550 0.000000 
#    z -0.033950 0.000000 1.789700 
# 
# From -- ./inp_files/46566.got.cif
#   From: 2010.05.17/outbox.cif.g08.bks.cpg/sg11_24_cif.got.tgz:46566.got - 2010.06.03 12:22:45.
