data_PCOD9165720
_publ_section_title
;
Structure prediction by ZEFSAII (Michael W. Deem and Ramdas Pophale) SiO2 
 PCOD9165720
Probable space group: P 21/M
;
_chemical_formula_sum "Si O2"
_cell_formula_units_Z 24
_cell_length_a 8.219162
_cell_length_b 8.646199
_cell_length_c 14.705567
_cell_angle_alpha 90.000000
_cell_angle_beta 102.453901
_cell_angle_gamma 90.000000
_cell_volume 1020.453860
_symmetry_space_group_name_H-M "P 21/M"
_symmetry_group_IT_number 11
_symmetry_cell_setting 'monoclinic'
loop_
_space_group_symop_operation_xyz
x,y,z
-x,1/2+y,-z
-x,-y,-z
x,1/2-y,z
loop_
_atom_site_type_symbol
_atom_site_label
_atom_site_fract_x
_atom_site_fract_y
_atom_site_fract_z
Si Si1 0.129438 0.931170 0.943667
Si Si2 0.866547 0.068443 0.553120
Si Si3 0.723042 0.566637 0.205568
Si Si4 0.366034 0.071755 0.607236
Si Si5 0.254757 0.932772 0.274244
Si Si6 0.370501 0.069575 0.106248
O O1 0.104827 0.750000 0.928886
O O2 0.135069 0.016069 0.847377
O O3 0.304318 0.967128 0.015400
O O4 0.000000 0.000000 0.000000
O O5 0.894274 0.250000 0.564531
O O6 0.856218 0.008701 0.655170
O O7 0.691363 0.036090 0.481139
O O8 0.000000 0.000000 0.500000
O O9 0.692645 0.750000 0.192911
O O10 0.742926 0.537190 0.315160
O O11 0.557554 0.474909 0.155890
O O12 0.335352 0.250000 0.576890
O O13 0.555922 0.059919 0.663275
O O14 0.221006 0.750000 0.250956
O O15 0.260374 0.027998 0.182122
O O16 0.355446 0.250000 0.082055
#
# Coordination Sequence:
#
# PCOD9165720 Si02
#       6
#     4   4   4   4   4   4
#     4  12  25  41  60  85 118 155 193 237 288 345
#     4  11  23  37  56  82 116 153 190 232 283 341
#     4  10  21  40  63  88 118 153 191 236 286 340
#     4   9  19  37  61  85 112 145 186 235 286 335
#     4   9  20  39  60  84 113 149 190 237 288 338
#     4  11  22  38  62  90 116 149 193 241 287 339
#
# _framework density 23.518948000000002
#
# number of rings (size 3 to 8) (size 9 to 14) (size 15 to 20)
#    0.000    1.667    0.000    6.000    0.000    6.000 
#    0.000    1.667    0.000    0.000    0.000    0.000 
#    0.000    0.000    0.000    0.000    0.000    0.000 
#
# Total GULP energy -134346.593288 kJ/mol
# GULP energy per Si atom -5597.774720 kJ/mol
# Density = 2.346542 g / cm^3
# Si number density = 23.518948 Si / 1000 Ang^3
#
#
#
# Elastic Constant Matrix: (Units=GPa)
#
#
# Indices 1 2 3 4 5 6 
#
# 1 58.6801 -0.3299 11.8423 0.0000 -20.5235 0.0000
# 2 -0.3299 57.6998 26.8897 0.0000 -12.6679 0.0000
# 3 11.8423 26.8897 126.5551 0.0000 -32.1946 0.0000
# 4 0.0000 0.0000 0.0000 34.2777 0.0000 -2.7873
# 5 -20.5235 -12.6679 -32.1946 0.0000 48.7630 0.0000
# 6 0.0000 0.0000 0.0000 -2.7873 0.0000 32.5015
#
#
#
# Elastic Compliance Matrix: (Units=1/GPa)
#
#
# Indices 1 2 3 4 5 6 
#
# 1 0.020221 0.002119 -0.000045 0.000000 0.009032 0.000000
# 2 0.002119 0.019773 -0.003444 0.000000 0.003755 0.000000
# 3 -0.000045 -0.003444 0.010102 0.000000 0.005756 0.000000
# 4 0.000000 0.000000 0.000000 0.029378 0.000000 0.002519
# 5 0.009032 0.003755 0.005756 0.000000 0.029084 0.000000
# 6 0.000000 0.000000 0.000000 0.002519 0.000000 0.030984
#
#
# Mechanical properties :
#
#
# Convention : Reuss Voigt Hill
#
# Bulk Modulus (GPa) = 21.11643 35.52657 28.32150
# Shear Modulus (GPa) = 31.63199 36.74395 34.18797
#
# Velocity S-wave (km/s) = 3.67135 3.95690 3.81679
# Velocity P-wave (km/s) = 5.19323 6.00120 5.61177
#
# Compressibility (1/GPa) = 0.04735650
#
# Stress axis : x y z
#
# Youngs Moduli (GPa) = 49.45252 50.57477 98.99035
#
# Poissons Ratio (x) = -0.10719 0.00445
# Poissons Ratio (y) = -0.10481 0.34096
# Poissons Ratio (z) = 0.00222 0.17420
#
# Static dielectric constant tensor:
#      x y z
#    x 2.041620 0.000000 -0.008250 
#    y 0.000000 1.774470 0.000000 
#    z -0.008250 0.000000 1.885340 
# 
# From -- ./inp_files/20511.got.cif
#   From: 2010.05.17/outbox.cif.g08.bks.cpg/sg11_11_cif.got.tgz:20511.got - 2010.06.03 12:22:45.
