data_PCOD9165641
_publ_section_title
;
Structure prediction by ZEFSAII (Michael W. Deem and Ramdas Pophale) SiO2 
 PCOD9165641
Probable space group: P 21/M
;
_chemical_formula_sum "Si O2"
_cell_formula_units_Z 28
_cell_length_a 9.800328
_cell_length_b 13.713376
_cell_length_c 12.257373
_cell_angle_alpha 90.000000
_cell_angle_beta 123.677559
_cell_angle_gamma 90.000000
_cell_volume 1370.866518
_symmetry_space_group_name_H-M "P 21/M"
_symmetry_group_IT_number 11
_symmetry_cell_setting 'monoclinic'
loop_
_space_group_symop_operation_xyz
x,y,z
-x,1/2+y,-z
-x,-y,-z
x,1/2-y,z
loop_
_atom_site_type_symbol
_atom_site_label
_atom_site_fract_x
_atom_site_fract_y
_atom_site_fract_z
Si Si1 0.743263 0.132458 0.310288
Si Si2 0.629570 0.365784 0.013828
Si Si3 0.896052 0.867883 0.456495
Si Si4 0.576102 0.863633 0.453917
Si Si5 0.562643 0.942661 0.688867
Si Si6 0.243261 0.367066 0.839110
Si Si7 0.172821 0.023513 0.023655
O O1 0.734587 0.250000 0.318276
O O2 0.702718 0.112139 0.165952
O O3 0.603096 0.086930 0.322962
O O4 0.923709 0.099644 0.427645
O O5 0.642194 0.250000 0.000624
O O6 0.437032 0.392037 0.925424
O O7 0.730377 0.426748 0.971073
O O8 0.904787 0.750000 0.455814
O O9 0.753172 0.888431 0.480222
O O10 0.837567 0.898788 0.310408
O O11 0.539172 0.750000 0.413551
O O12 0.579193 0.883116 0.584310
O O13 0.451211 0.942742 0.348602
O O14 0.711948 0.924428 0.836606
O O15 0.233208 0.250000 0.841517
O O16 0.160642 0.413396 0.908285
O O17 0.000000 0.000000 0.000000
#
# Coordination Sequence:
#
# PCOD9165641 Si02
#       7
#     4   4   4   4   4   4   4
#     4  10  21  39  65  96 126 162 212 262 312 373
#     4  10  22  42  67  91 122 170 216 261 316 378
#     4   9  20  38  64  95 123 160 208 261 314 367
#     4  10  23  42  64  92 128 164 206 260 319 380
#     4  11  24  41  64  92 125 171 211 255 321 378
#     4  10  21  41  68  94 125 168 215 263 318 377
#     4  12  27  41  61  94 132 168 213 263 320 382
#
# _framework density 20.425035999999999
#
# number of rings (size 3 to 8) (size 9 to 14) (size 15 to 20)
#    0.000    1.714    1.429    1.714    4.000    5.714 
#    0.000    1.429    0.000    0.000    0.000    0.000 
#    0.000    0.000    0.000    0.000    0.000    0.000 
#
# Total GULP energy -156642.281811 kJ/mol
# GULP energy per Si atom -5594.367208 kJ/mol
# Density = 2.037855 g / cm^3
# Si number density = 20.425036 Si / 1000 Ang^3
#
#
#
# Elastic Constant Matrix: (Units=GPa)
#
#
# Indices 1 2 3 4 5 6 
#
# 1 115.5652 16.0456 37.7668 0.0000 -7.0389 0.0000
# 2 16.0456 75.8024 11.5502 0.0000 -0.6691 0.0000
# 3 37.7668 11.5502 114.4225 0.0000 0.7460 0.0000
# 4 0.0000 0.0000 0.0000 25.9080 0.0000 -0.3450
# 5 -7.0389 -0.6691 0.7460 0.0000 33.0769 0.0000
# 6 0.0000 0.0000 0.0000 -0.3450 0.0000 29.1319
#
#
#
# Elastic Compliance Matrix: (Units=1/GPa)
#
#
# Indices 1 2 3 4 5 6 
#
# 1 0.010046 -0.001625 -0.003166 0.000000 0.002176 0.000000
# 2 -0.001625 0.013664 -0.000843 0.000000 -0.000050 0.000000
# 3 -0.003166 -0.000843 0.009876 0.000000 -0.000913 0.000000
# 4 0.000000 0.000000 0.000000 0.038604 0.000000 0.000457
# 5 0.002176 -0.000050 -0.000913 0.000000 0.030715 0.000000
# 6 0.000000 0.000000 0.000000 0.000457 0.000000 0.034332
#
#
# Mechanical properties :
#
#
# Convention : Reuss Voigt Hill
#
# Bulk Modulus (GPa) = 44.80578 48.50169 46.65373
# Shear Modulus (GPa) = 32.06287 33.65186 32.85737
#
# Velocity S-wave (km/s) = 3.96635 4.06344 4.01519
# Velocity P-wave (km/s) = 6.55440 6.76854 6.66233
#
# Compressibility (1/GPa) = 0.02231855
#
# Stress axis : x y z
#
# Youngs Moduli (GPa) = 99.54283 73.18456 101.26037
#
# Poissons Ratio (x) = 0.11892 0.32059
# Poissons Ratio (y) = 0.16174 0.08533
# Poissons Ratio (z) = 0.31515 0.06167
#
# Static dielectric constant tensor:
#      x y z
#    x 1.666740 0.000000 -0.001630 
#    y 0.000000 1.777840 0.000000 
#    z -0.001630 0.000000 1.714790 
# 
# From -- ./inp_files/31970.got.cif
#   From: 2010.05.17/outbox.cif.g08.bks.cpg/sg11_16_cif.got.tgz:31970.got - 2010.06.03 12:22:45.
