data_PCOD9165306
_publ_section_title
;
Structure prediction by ZEFSAII (Michael W. Deem and Ramdas Pophale) SiO2 
 PCOD9165306
Probable space group: P 21/M
;
_chemical_formula_sum "Si O2"
_cell_formula_units_Z 32
_cell_length_a 20.497379
_cell_length_b 15.837869
_cell_length_c 7.534516
_cell_angle_alpha 90.000000
_cell_angle_beta 142.867816
_cell_angle_gamma 90.000000
_cell_volume 1476.521902
_symmetry_space_group_name_H-M "P 21/M"
_symmetry_group_IT_number 11
_symmetry_cell_setting 'monoclinic'
loop_
_space_group_symop_operation_xyz
x,y,z
-x,1/2+y,-z
-x,-y,-z
x,1/2-y,z
loop_
_atom_site_type_symbol
_atom_site_label
_atom_site_fract_x
_atom_site_fract_y
_atom_site_fract_z
Si Si1 0.094815 0.981406 0.341815
Si Si2 0.259360 0.842286 0.559824
Si Si3 0.926421 0.347538 0.418021
Si Si4 0.656823 0.656012 0.788778
Si Si5 0.500555 0.118405 0.867114
Si Si6 0.478449 0.072713 0.212354
Si Si7 0.307258 0.845359 0.245365
Si Si8 0.120584 0.345755 0.581568
O O1 0.188782 0.920871 0.469812
O O2 0.044771 0.923287 0.388964
O O3 0.136831 0.072969 0.494173
O O4 0.000000 0.000000 0.000000
O O5 0.209878 0.750000 0.491439
O O6 0.273109 0.849299 0.377674
O O7 0.380614 0.842648 0.900778
O O8 0.940595 0.250000 0.511312
O O9 0.002231 0.353566 0.410273
O O10 0.800221 0.360792 0.099118
O O11 0.632210 0.750000 0.804855
O O12 0.594389 0.648078 0.468161
O O13 0.611479 0.592825 0.838394
O O14 0.786263 0.648269 0.065604
O O15 0.519217 0.021678 0.852447
O O16 0.471959 0.126193 0.014354
O O17 0.592077 0.093215 0.555032
O O18 0.344788 0.750000 0.288769
O O19 0.129548 0.250000 0.524100
#
# Coordination Sequence:
#
# PCOD9165306 Si02
#       8
#     4   4   4   4   4   4   4   4
#     4  12  25  40  64  97 123 163 212 265 331 388
#     4  10  21  39  62  94 133 165 210 271 324 379
#     4  10  22  42  66  93 122 164 217 264 317 384
#     4  11  23  39  62  88 124 173 214 258 317 386
#     4  10  22  39  62  94 131 169 210 266 324 386
#     4  10  21  38  61  96 128 166 212 265 323 388
#     4   9  19  36  63  92 125 165 208 269 326 372
#     4  10  24  45  62  87 128 171 216 264 320 384
#
# _framework density 21.672554000000002
#
# number of rings (size 3 to 8) (size 9 to 14) (size 15 to 20)
#    0.000    1.750    0.000    3.375    3.500    3.500 
#    6.750    0.000    0.000    0.000    0.000    0.000 
#    0.000    0.000    0.000    0.000    0.000    0.000 
#
# Total GULP energy -178725.300790 kJ/mol
# GULP energy per Si atom -5585.165650 kJ/mol
# Density = 2.162323 g / cm^3
# Si number density = 21.672554 Si / 1000 Ang^3
#
#
#
# Elastic Constant Matrix: (Units=GPa)
#
#
# Indices 1 2 3 4 5 6 
#
# 1 21.9251 12.7130 5.0717 0.0000 2.2586 0.0000
# 2 12.7130 130.8043 45.3706 0.0000 -6.3605 0.0000
# 3 5.0717 45.3706 115.2111 0.0000 -6.2568 0.0000
# 4 0.0000 0.0000 0.0000 60.9967 0.0000 -20.0477
# 5 2.2586 -6.3605 -6.2568 0.0000 26.0850 0.0000
# 6 0.0000 0.0000 0.0000 -20.0477 0.0000 42.7994
#
#
#
# Elastic Compliance Matrix: (Units=1/GPa)
#
#
# Indices 1 2 3 4 5 6 
#
# 1 0.049126 -0.004853 -0.000554 0.000000 -0.005570 0.000000
# 2 -0.004853 0.009380 -0.003377 0.000000 0.001897 0.000000
# 3 -0.000554 -0.003377 0.010124 0.000000 0.001653 0.000000
# 4 0.000000 0.000000 0.000000 0.019378 0.000000 0.009077
# 5 -0.005570 0.001897 0.001653 0.000000 0.039678 0.000000
# 6 0.000000 0.000000 0.000000 0.009077 0.000000 0.027616
#
#
# Mechanical properties :
#
#
# Convention : Reuss Voigt Hill
#
# Bulk Modulus (GPa) = 19.58435 43.80567 31.69501
# Shear Modulus (GPa) = 26.33089 39.62858 32.97974
#
# Velocity S-wave (km/s) = 3.48938 4.28075 3.90517
# Velocity P-wave (km/s) = 5.02896 6.68502 5.91523
#
# Compressibility (1/GPa) = 0.05106117
#
# Stress axis : x y z
#
# Youngs Moduli (GPa) = 20.35589 106.60474 98.77638
#
# Poissons Ratio (x) = 0.51739 0.05470
# Poissons Ratio (y) = 0.09879 0.33360
# Poissons Ratio (z) = 0.01127 0.36004
#
# Static dielectric constant tensor:
#      x y z
#    x 1.797540 0.000000 -0.012730 
#    y 0.000000 1.812220 0.000000 
#    z -0.012730 0.000000 1.784050 
# 
# From -- ./inp_files/27813.got.cif
#   From: 2010.05.17/outbox.cif.g08.bks.cpg/sg11_14_cif.got.tgz:27813.got - 2010.06.03 12:22:45.
