data_PCOD9165938
_publ_section_title
;
Structure prediction by ZEFSAII (Michael W. Deem and Ramdas Pophale) SiO2 
 PCOD9165938
Probable space group: P 21/M
;
_chemical_formula_sum "Si O2"
_cell_formula_units_Z 30
_cell_length_a 9.495612
_cell_length_b 14.475971
_cell_length_c 11.101918
_cell_angle_alpha 90.000000
_cell_angle_beta 69.215689
_cell_angle_gamma 90.000000
_cell_volume 1426.738786
_symmetry_space_group_name_H-M "P 21/M"
_symmetry_group_IT_number 11
_symmetry_cell_setting 'monoclinic'
loop_
_space_group_symop_operation_xyz
x,y,z
-x,1/2+y,-z
-x,-y,-z
x,1/2-y,z
loop_
_atom_site_type_symbol
_atom_site_label
_atom_site_fract_x
_atom_site_fract_y
_atom_site_fract_z
Si Si1 0.855975 0.142681 0.068351
Si Si2 0.956595 0.928474 0.407669
Si Si3 0.181419 0.146387 0.086772
Si Si4 0.249664 0.250000 0.530916
Si Si5 0.507087 0.882828 0.410754
Si Si6 0.501353 0.849854 0.136065
Si Si7 0.215565 0.953674 0.159567
Si Si8 0.284890 0.947663 0.655293
O O1 0.820612 0.250000 0.053678
O O2 0.762362 0.106802 0.211516
O O3 0.030986 0.137811 0.053610
O O4 0.827878 0.080251 0.960596
O O5 0.108090 0.904268 0.288133
O O6 0.869287 0.834505 0.467981
O O7 0.000000 0.000000 0.500000
O O8 0.851400 0.988033 0.348010
O O9 0.183650 0.250000 0.138816
O O10 0.188119 0.063059 0.178062
O O11 0.328329 0.135397 0.958898
O O12 0.371629 0.329022 0.545127
O O13 0.496396 0.844527 0.280587
O O14 0.347983 0.884956 0.527722
O O15 0.572971 0.985396 0.365738
O O16 0.452287 0.750000 0.099771
O O17 0.387769 0.927775 0.128252
#
# Coordination Sequence:
#
# PCOD9165938 Si02
#       8
#     4   4   4   2   4   4   4   4
#     4  11  24  40  67 100 132 185 236 277 341 419
#     4  11  25  45  69 104 141 181 235 295 358 423
#     4  10  23  41  64  92 129 180 232 279 341 417
#     4  10  24  42  72 104 134 190 230 284 348 428
#     4  10  21  41  70  98 133 178 228 283 346 414
#     4  11  23  38  64 100 132 172 226 279 349 409
#     4  12  24  42  68  96 142 176 226 292 351 406
#     4  10  22  42  67  96 138 178 234 282 341 410
#
# _framework density 21.026973999999999
#
# number of rings (size 3 to 8) (size 9 to 14) (size 15 to 20)
#    0.000    1.333    2.000    2.800    6.533    0.000 
#    2.400    0.000    2.933    0.000    0.000    0.000 
#    0.000    0.000    0.000    0.000    0.000    0.000 
#
# Total GULP energy -167010.529502 kJ/mol
# GULP energy per Si atom -5567.017650 kJ/mol
# Density = 2.097912 g / cm^3
# Si number density = 21.026974 Si / 1000 Ang^3
#
#
#
# Elastic Constant Matrix: (Units=GPa)
#
#
# Indices 1 2 3 4 5 6 
#
# 1 66.7312 30.8823 23.0877 0.0000 -20.6500 0.0000
# 2 30.8823 108.0928 7.4389 0.0000 -4.1009 0.0000
# 3 23.0877 7.4389 39.7265 0.0000 -16.7616 0.0000
# 4 0.0000 0.0000 0.0000 8.9620 0.0000 3.9854
# 5 -20.6500 -4.1009 -16.7616 0.0000 21.6327 0.0000
# 6 0.0000 0.0000 0.0000 3.9854 0.0000 29.8629
#
#
#
# Elastic Compliance Matrix: (Units=1/GPa)
#
#
# Indices 1 2 3 4 5 6 
#
# 1 0.025720 -0.006232 -0.005824 0.000000 0.018858 0.000000
# 2 -0.006232 0.010888 -0.000083 0.000000 -0.003949 0.000000
# 3 -0.005824 -0.000083 0.038955 0.000000 0.024608 0.000000
# 4 0.000000 0.000000 0.000000 0.118622 0.000000 -0.015831
# 5 0.018858 -0.003949 0.024608 0.000000 0.082546 0.000000
# 6 0.000000 0.000000 0.000000 -0.015831 0.000000 0.035599
#
#
# Mechanical properties :
#
#
# Convention : Reuss Voigt Hill
#
# Bulk Modulus (GPa) = 19.49918 37.48538 28.49228
# Shear Modulus (GPa) = 14.13609 22.30095 18.21852
#
# Velocity S-wave (km/s) = 2.59566 3.26020 2.94672
# Velocity P-wave (km/s) = 4.27514 5.66020 5.01571
#
# Compressibility (1/GPa) = 0.05128422
#
# Stress axis : x y z
#
# Youngs Moduli (GPa) = 38.87999 91.84675 25.67033
#
# Poissons Ratio (x) = 0.57239 0.14951
# Poissons Ratio (y) = 0.24230 0.00214
# Poissons Ratio (z) = 0.22645 0.00765
#
# Static dielectric constant tensor:
#      x y z
#    x 1.736930 0.000000 -0.008690 
#    y 0.000000 1.834930 0.000000 
#    z -0.008690 0.000000 1.743430 
# 
# From -- ./inp_files/31835.got.cif
#   From: 2010.05.17/outbox.cif.g08.bks.cpg/sg11_16_cif.got.tgz:31835.got - 2010.06.03 12:22:45.
