data_PCOD9165560
_publ_section_title
;
Structure prediction by ZEFSAII (Michael W. Deem and Ramdas Pophale) SiO2 
 PCOD9165560
Probable space group: P 21/M
;
_chemical_formula_sum "Si O2"
_cell_formula_units_Z 20
_cell_length_a 11.878775
_cell_length_b 11.134701
_cell_length_c 15.990844
_cell_angle_alpha 90.000000
_cell_angle_beta 154.830852
_cell_angle_gamma 90.000000
_cell_volume 899.515859
_symmetry_space_group_name_H-M "P 21/M"
_symmetry_group_IT_number 11
_symmetry_cell_setting 'monoclinic'
loop_
_space_group_symop_operation_xyz
x,y,z
-x,1/2+y,-z
-x,-y,-z
x,1/2-y,z
loop_
_atom_site_type_symbol
_atom_site_label
_atom_site_fract_x
_atom_site_fract_y
_atom_site_fract_z
Si Si1 0.240221 0.618134 0.078439
Si Si2 0.860711 0.111181 0.798804
Si Si3 0.417245 0.118932 0.994644
Si Si4 0.703998 0.010010 0.335850
Si Si5 0.781217 0.383175 0.566071
O O1 0.119101 0.750000 0.979759
O O2 0.280514 0.612338 0.206098
O O3 0.509646 0.604491 0.206551
O O4 0.063617 0.500915 0.939468
O O5 0.969406 0.250000 0.863906
O O6 0.693870 0.091630 0.601957
O O7 0.490528 0.250000 0.007626
O O8 0.556692 0.105572 0.178100
O O9 0.100667 0.115529 0.787723
O O10 0.500000 0.000000 0.000000
O O11 0.713422 0.041740 0.439594
O O12 0.000000 0.000000 0.500000
O O13 0.685743 0.250000 0.481540
#
# Coordination Sequence:
#
# PCOD9165560 Si02
#       5
#     4   4   4   4   4
#     4  10  22  39  64  97 131 166 214 271 316 375
#     4   9  19  41  68  93 126 170 215 263 324 381
#     4  11  23  42  63  89 124 168 214 260 313 380
#     4  12  24  39  60  95 131 170 208 259 320 380
#     4  10  21  39  63  90 122 164 214 260 313 382
#
# _framework density 22.234183000000002
#
# number of rings (size 3 to 8) (size 9 to 14) (size 15 to 20)
#    0.000    1.600    4.000    0.600    0.000    4.000 
#    0.000    1.000    0.000    0.000    0.000    0.000 
#    0.000    0.000    0.000    0.000    0.000    0.000 
#
# Total GULP energy -111448.046753 kJ/mol
# GULP energy per Si atom -5572.402338 kJ/mol
# Density = 2.218358 g / cm^3
# Si number density = 22.234183 Si / 1000 Ang^3
#
#
#
# Elastic Constant Matrix: (Units=GPa)
#
#
# Indices 1 2 3 4 5 6 
#
# 1 69.0648 73.6322 11.8943 0.0000 -1.5143 0.0000
# 2 73.6322 175.9012 39.3790 0.0000 -0.0185 0.0000
# 3 11.8943 39.3790 63.0382 0.0000 -18.8831 0.0000
# 4 0.0000 0.0000 0.0000 21.5933 0.0000 -3.8044
# 5 -1.5143 -0.0185 -18.8831 0.0000 43.1363 0.0000
# 6 0.0000 0.0000 0.0000 -3.8044 0.0000 39.8994
#
#
#
# Elastic Compliance Matrix: (Units=1/GPa)
#
#
# Indices 1 2 3 4 5 6 
#
# 1 0.026603 -0.011816 0.003038 0.000000 0.002259 0.000000
# 2 -0.011816 0.012023 -0.006219 0.000000 -0.003132 0.000000
# 3 0.003038 -0.006219 0.022105 0.000000 0.009781 0.000000
# 4 0.000000 0.000000 0.000000 0.047102 0.000000 0.004491
# 5 0.002259 -0.003132 0.009781 0.000000 0.027542 0.000000
# 6 0.000000 0.000000 0.000000 0.004491 0.000000 0.025491
#
#
# Mechanical properties :
#
#
# Convention : Reuss Voigt Hill
#
# Bulk Modulus (GPa) = 32.53419 61.97947 47.25683
# Shear Modulus (GPa) = 24.86260 33.13238 28.99749
#
# Velocity S-wave (km/s) = 3.34760 3.86444 3.61527
# Velocity P-wave (km/s) = 5.44116 6.91723 6.22311
#
# Compressibility (1/GPa) = 0.03073690
#
# Stress axis : x y z
#
# Youngs Moduli (GPa) = 37.59028 83.17314 45.23844
#
# Poissons Ratio (x) = 0.98276 -0.13745
# Poissons Ratio (y) = 0.44416 0.28136
# Poissons Ratio (z) = -0.11421 0.51729
#
# Static dielectric constant tensor:
#      x y z
#    x 1.891210 0.000000 0.017270 
#    y 0.000000 1.823490 0.000000 
#    z 0.017270 0.000000 1.834720 
# 
# From -- ./inp_files/39133.got.cif
#   From: 2010.05.17/outbox.cif.g08.bks.cpg/sg11_20_cif.got.tgz:39133.got - 2010.06.03 12:22:45.
