data_PCOD9165278
_publ_section_title
;
Structure prediction by ZEFSAII (Michael W. Deem and Ramdas Pophale) SiO2 
 PCOD9165278
Probable space group: P 21/M
;
_chemical_formula_sum "Si O2"
_cell_formula_units_Z 20
_cell_length_a 5.110141
_cell_length_b 8.687535
_cell_length_c 25.423128
_cell_angle_alpha 90.000000
_cell_angle_beta 59.538157
_cell_angle_gamma 90.000000
_cell_volume 972.857117
_symmetry_space_group_name_H-M "P 21/M"
_symmetry_group_IT_number 11
_symmetry_cell_setting 'monoclinic'
loop_
_space_group_symop_operation_xyz
x,y,z
-x,1/2+y,-z
-x,-y,-z
x,1/2-y,z
loop_
_atom_site_type_symbol
_atom_site_label
_atom_site_fract_x
_atom_site_fract_y
_atom_site_fract_z
Si Si1 0.664221 0.567576 0.534097
Si Si2 0.570749 0.067595 0.126486
Si Si3 0.271314 0.066915 0.667644
Si Si4 0.433924 0.566563 0.253514
Si Si5 0.765966 0.433908 0.936222
O O1 0.500000 0.500000 0.500000
O O2 0.677489 0.750000 0.529102
O O3 0.478902 0.518909 0.604693
O O4 0.000000 0.500000 0.500000
O O5 0.555731 0.250000 0.119047
O O6 0.503355 0.025302 0.193679
O O7 0.331393 0.983669 0.112696
O O8 0.910890 0.006198 0.081183
O O9 0.331013 0.250000 0.656570
O O10 0.355811 0.023574 0.718750
O O11 0.915451 0.041296 0.694586
O O12 0.473245 0.750000 0.238699
O O13 0.782372 0.250000 0.938602
O O14 0.500000 0.500000 0.000000
#
# Coordination Sequence:
#
# PCOD9165278 Si02
#       5
#     4   4   4   4   4
#     4  12  25  42  65  93 127 165 209 258 313 372
#     4  12  25  42  65  96 130 165 209 260 311 368
#     4  10  21  38  61  89 123 161 205 254 309 368
#     4  10  21  38  61  89 123 164 204 250 309 370
#     4  12  25  44  67  93 127 167 211 258 313 374
#
# _framework density 20.558001000000001
#
# number of rings (size 3 to 8) (size 9 to 14) (size 15 to 20)
#    0.000    0.800    0.000    8.400    0.000    4.800 
#    0.000    0.000    0.000    0.000    0.000    0.000 
#    0.000    0.000    0.000    0.000    0.000    0.000 
#
# Total GULP energy -112025.889378 kJ/mol
# GULP energy per Si atom -5601.294469 kJ/mol
# Density = 2.051121 g / cm^3
# Si number density = 20.558001 Si / 1000 Ang^3
#
#
#
# Elastic Constant Matrix: (Units=GPa)
#
#
# Indices 1 2 3 4 5 6 
#
# 1 68.7358 0.5731 -20.3058 0.0000 4.4884 0.0000
# 2 0.5731 102.8723 24.9209 0.0000 -6.2833 0.0000
# 3 -20.3058 24.9209 59.7829 0.0000 2.5967 0.0000
# 4 0.0000 0.0000 0.0000 44.3586 0.0000 1.8112
# 5 4.4884 -6.2833 2.5967 0.0000 31.9770 0.0000
# 6 0.0000 0.0000 0.0000 1.8112 0.0000 27.3589
#
#
#
# Elastic Compliance Matrix: (Units=1/GPa)
#
#
# Indices 1 2 3 4 5 6 
#
# 1 0.016731 -0.001894 0.006614 0.000000 -0.003258 0.000000
# 2 -0.001894 0.011230 -0.005451 0.000000 0.002915 0.000000
# 3 0.006614 -0.005451 0.021409 0.000000 -0.003738 0.000000
# 4 0.000000 0.000000 0.000000 0.022605 0.000000 -0.001496
# 5 -0.003258 0.002915 -0.003738 0.000000 0.032606 0.000000
# 6 0.000000 0.000000 0.000000 -0.001496 0.000000 0.036650
#
#
# Mechanical properties :
#
#
# Convention : Reuss Voigt Hill
#
# Bulk Modulus (GPa) = 20.87431 26.86305 23.86868
# Shear Modulus (GPa) = 31.51338 35.81907 33.66622
#
# Velocity S-wave (km/s) = 3.91948 4.17867 4.05114
# Velocity P-wave (km/s) = 5.53705 6.03133 5.78947
#
# Compressibility (1/GPa) = 0.04790578
#
# Stress axis : x y z
#
# Youngs Moduli (GPa) = 59.76967 89.04708 46.71035
#
# Poissons Ratio (x) = 0.16869 -0.30894
# Poissons Ratio (y) = 0.11323 0.25464
# Poissons Ratio (z) = -0.39532 0.48543
#
# Static dielectric constant tensor:
#      x y z
#    x 1.699850 0.000000 0.012320 
#    y 0.000000 1.690600 0.000000 
#    z 0.012320 0.000000 1.714910 
# 
# From -- ./inp_files/7474.got.cif
#   From: 2010.05.17/outbox.cif.g08.bks.cpg/sg11_4_cif.got.tgz:7474.got - 2010.06.03 12:22:45.
