data_PCOD9165908
_publ_section_title
;
Structure prediction by ZEFSAII (Michael W. Deem and Ramdas Pophale) SiO2 
 PCOD9165908
Probable space group: P 21/M
;
_chemical_formula_sum "Si O2"
_cell_formula_units_Z 28
_cell_length_a 5.112566
_cell_length_b 17.844380
_cell_length_c 14.631002
_cell_angle_alpha 90.000000
_cell_angle_beta 110.743572
_cell_angle_gamma 90.000000
_cell_volume 1248.266531
_symmetry_space_group_name_H-M "P 21/M"
_symmetry_group_IT_number 11
_symmetry_cell_setting 'monoclinic'
loop_
_space_group_symop_operation_xyz
x,y,z
-x,1/2+y,-z
-x,-y,-z
x,1/2-y,z
loop_
_atom_site_type_symbol
_atom_site_label
_atom_site_fract_x
_atom_site_fract_y
_atom_site_fract_z
Si Si1 0.655517 0.464670 0.737949
Si Si2 0.033341 0.336982 0.449350
Si Si3 0.409561 0.601213 0.078602
Si Si4 0.433743 0.750000 0.971475
Si Si5 0.814128 0.464307 0.107899
Si Si6 0.210731 0.250000 0.165902
Si Si7 0.399126 0.885315 0.747788
Si Si8 0.384163 0.916713 0.467001
O O1 0.611121 0.407541 0.815955
O O2 0.428903 0.531937 0.705074
O O3 0.695371 0.421280 0.649424
O O4 0.913907 0.514859 0.802744
O O5 0.013784 0.250000 0.473207
O O6 0.867607 0.348664 0.333922
O O7 0.873041 0.388913 0.503493
O O8 0.353815 0.362227 0.482257
O O9 0.646743 0.541683 0.080874
O O10 0.467317 0.680413 0.043390
O O11 0.144944 0.571331 0.986499
O O12 0.665078 0.750000 0.921404
O O13 0.124786 0.750000 0.884874
O O14 0.644100 0.406661 0.151291
O O15 0.348852 0.324868 0.227977
O O16 0.500000 0.000000 0.500000
#
# Coordination Sequence:
#
# PCOD9165908 Si02
#       8
#     4   4   4   2   4   2   4   4
#     4  11  24  41  70  98 132 185 237 285 339 409
#     4  12  27  48  72 107 147 185 230 300 370 423
#     4  10  23  40  65  97 137 179 229 279 342 408
#     4  12  26  44  64  96 141 187 220 278 346 417
#     4  10  21  41  67 101 132 175 231 287 337 410
#     4  12  26  42  68 104 139 175 222 282 356 423
#     4  11  23  41  70 104 134 176 223 290 356 414
#     4  12  26  47  75 105 140 187 245 293 348 426
#
# _framework density 22.431106
#
# number of rings (size 3 to 8) (size 9 to 14) (size 15 to 20)
#    0.000    0.857    3.571    3.000    6.000    0.000 
#    2.571    0.000    0.000    0.000    0.000    0.000 
#    0.000    0.000    0.000    0.000    0.000    0.000 
#
# Total GULP energy -156586.893508 kJ/mol
# GULP energy per Si atom -5592.389054 kJ/mol
# Density = 2.238005 g / cm^3
# Si number density = 22.431106 Si / 1000 Ang^3
#
#
#
# Elastic Constant Matrix: (Units=GPa)
#
#
# Indices 1 2 3 4 5 6 
#
# 1 32.8228 -13.0942 -13.1749 0.0000 -7.7387 0.0000
# 2 -13.0942 96.9087 19.9687 0.0000 -15.1801 0.0000
# 3 -13.1749 19.9687 92.2004 0.0000 -16.9997 0.0000
# 4 0.0000 0.0000 0.0000 -140.5919 0.0000 -100.0930
# 5 -7.7387 -15.1801 -16.9997 0.0000 29.0034 0.0000
# 6 0.0000 0.0000 0.0000 -100.0930 0.0000 -29.1146
#
#
#
# Elastic Compliance Matrix: (Units=1/GPa)
#
#
# Indices 1 2 3 4 5 6 
#
# 1 0.040895 0.006901 0.007878 0.000000 0.019141 0.000000
# 2 0.006901 0.012596 -0.000210 0.000000 0.008311 0.000000
# 3 0.007878 -0.000210 0.013885 0.000000 0.010131 0.000000
# 4 0.000000 0.000000 0.000000 0.004914 0.000000 -0.016892
# 5 0.019141 0.008311 0.010131 0.000000 0.049874 0.000000
# 6 0.000000 0.000000 0.000000 -0.016892 0.000000 0.023727
#
#
# Mechanical properties :
#
#
# Convention : Reuss Voigt Hill
#
# Bulk Modulus (GPa) = 10.36115 23.25902 16.81009
# Shear Modulus (GPa) = 33.57416 -12.92514 10.32451
#
# Velocity S-wave (km/s) = 3.87301 -2.40305 2.14773
# Velocity P-wave (km/s) = 4.96280 1.64075 3.69604
#
# Compressibility (1/GPa) = 0.09651439
#
# Stress axis : x y z
#
# Youngs Moduli (GPa) = 24.45307 79.38717 72.02024
#
# Poissons Ratio (x) = -0.54782 -0.56739
# Poissons Ratio (y) = -0.16874 0.01510
# Poissons Ratio (z) = -0.19265 0.01665
#
# Static dielectric constant tensor:
#      x y z
#    x 1.903660 0.000000 0.027630 
#    y 0.000000 1.824290 0.000000 
#    z 0.027630 0.000000 1.912460 
# 
# From -- ./inp_files/45901.got.cif
#   From: 2010.05.17/outbox.cif.g08.bks.cpg/sg11_23_cif.got.tgz:45901.got - 2010.06.03 12:22:45.
