data_PCOD9165820
_publ_section_title
;
Structure prediction by ZEFSAII (Michael W. Deem and Ramdas Pophale) SiO2 
 PCOD9165820
Probable space group: P 21/M
;
_chemical_formula_sum "Si O2"
_cell_formula_units_Z 28
_cell_length_a 28.163483
_cell_length_b 9.002085
_cell_length_c 7.843766
_cell_angle_alpha 90.000000
_cell_angle_beta 46.081026
_cell_angle_gamma 90.000000
_cell_volume 1432.453216
_symmetry_space_group_name_H-M "P 21/M"
_symmetry_group_IT_number 11
_symmetry_cell_setting 'monoclinic'
loop_
_space_group_symop_operation_xyz
x,y,z
-x,1/2+y,-z
-x,-y,-z
x,1/2-y,z
loop_
_atom_site_type_symbol
_atom_site_label
_atom_site_fract_x
_atom_site_fract_y
_atom_site_fract_z
Si Si1 0.709181 0.930279 0.925278
Si Si2 0.848905 0.572498 0.722927
Si Si3 0.845484 0.427100 0.076410
Si Si4 0.071766 0.427434 0.824288
Si Si5 0.711483 0.569775 0.516846
Si Si6 0.433193 0.081972 0.121605
Si Si7 0.433007 0.418530 0.711637
O O1 0.705910 0.750000 0.941882
O O2 0.774108 0.976062 0.863876
O O3 0.717742 0.965036 0.703400
O O4 0.637742 0.984896 0.167430
O O5 0.848162 0.750000 0.760058
O O6 0.892215 0.548273 0.446543
O O7 0.873053 0.484729 0.827486
O O8 0.846563 0.250000 0.084442
O O9 0.885702 0.498856 0.131725
O O10 0.771181 0.490470 0.275258
O O11 0.068202 0.250000 0.860404
O O12 0.000000 0.500000 0.000000
O O13 0.716048 0.750000 0.487203
O O14 0.638040 0.522795 0.641635
O O15 0.438563 0.250000 0.172549
O O16 0.428299 0.086642 0.928632
O O17 0.500000 0.000000 0.000000
O O18 0.500000 0.500000 0.500000
O O19 0.437670 0.250000 0.634989
#
# Coordination Sequence:
#
# PCOD9165820 Si02
#       7
#     4   4   4   4   4   4   4
#     4   8  15  33  59  80 103 146 203 252 296 353
#     4  10  21  40  67  93 119 161 211 253 298 362
#     4  12  25  39  61  96 132 163 201 255 310 366
#     4  11  24  45  72  97 127 166 205 252 306 364
#     4   9  17  36  60  80 108 156 209 255 305 366
#     4   9  19  33  52  76 109 150 197 249 302 361
#     4   9  18  32  50  74 106 145 190 242 295 352
#
# _framework density 19.546887999999999
#
# number of rings (size 3 to 8) (size 9 to 14) (size 15 to 20)
#    0.000    2.286    1.429    3.429    0.000    4.000 
#    0.000    7.143    0.000    0.000    0.000    0.000 
#    0.000    0.000    0.000    0.000    0.000    0.000 
#
# Total GULP energy -156262.180385 kJ/mol
# GULP energy per Si atom -5580.792157 kJ/mol
# Density = 1.950240 g / cm^3
# Si number density = 19.546888 Si / 1000 Ang^3
#
#
#
# Elastic Constant Matrix: (Units=GPa)
#
#
# Indices 1 2 3 4 5 6 
#
# 1 92.9343 55.4214 67.7965 0.0000 -10.2350 0.0000
# 2 55.4214 79.9289 63.7121 0.0000 -4.8834 0.0000
# 3 67.7965 63.7121 109.4276 0.0000 -18.6894 0.0000
# 4 0.0000 0.0000 0.0000 22.8334 0.0000 -5.6906
# 5 -10.2350 -4.8834 -18.6894 0.0000 35.1852 0.0000
# 6 0.0000 0.0000 0.0000 -5.6906 0.0000 27.0268
#
#
#
# Elastic Compliance Matrix: (Units=1/GPa)
#
#
# Indices 1 2 3 4 5 6 
#
# 1 0.022238 -0.008369 -0.008797 0.000000 0.000635 0.000000
# 2 -0.008369 0.027125 -0.011416 0.000000 -0.004734 0.000000
# 3 -0.008797 -0.011416 0.022576 0.000000 0.007848 0.000000
# 4 0.000000 0.000000 0.000000 0.046221 0.000000 0.009732
# 5 0.000635 -0.004734 0.007848 0.000000 0.032117 0.000000
# 6 0.000000 0.000000 0.000000 0.009732 0.000000 0.039049
#
#
# Mechanical properties :
#
#
# Convention : Reuss Voigt Hill
#
# Bulk Modulus (GPa) = 67.68234 72.90564 70.29399
# Shear Modulus (GPa) = 19.88730 23.36646 21.62688
#
# Velocity S-wave (km/s) = 3.19315 3.46122 3.32988
# Velocity P-wave (km/s) = 6.94952 7.30426 7.12909
#
# Compressibility (1/GPa) = 0.01477490
#
# Stress axis : x y z
#
# Youngs Moduli (GPa) = 44.96731 36.86650 44.29465
#
# Poissons Ratio (x) = 0.30853 0.38966
# Poissons Ratio (y) = 0.37632 0.50569
# Poissons Ratio (z) = 0.39557 0.42089
#
# Static dielectric constant tensor:
#      x y z
#    x 1.706770 0.000000 -0.000870 
#    y 0.000000 1.662140 0.000000 
#    z -0.000870 0.000000 1.704480 
# 
# From -- ./inp_files/29042.got.cif
#   From: 2010.05.17/outbox.cif.g08.bks.cpg/sg11_15_cif.got.tgz:29042.got - 2010.06.03 12:22:45.
