data_PCOD9165242
_publ_section_title
;
Structure prediction by ZEFSAII (Michael W. Deem and Ramdas Pophale) SiO2 
 PCOD9165242
Probable space group: P 21/M
;
_chemical_formula_sum "Si O2"
_cell_formula_units_Z 32
_cell_length_a 12.466256
_cell_length_b 13.577503
_cell_length_c 9.921647
_cell_angle_alpha 90.000000
_cell_angle_beta 94.231121
_cell_angle_gamma 90.000000
_cell_volume 1674.767235
_symmetry_space_group_name_H-M "P 21/M"
_symmetry_group_IT_number 11
_symmetry_cell_setting 'monoclinic'
loop_
_space_group_symop_operation_xyz
x,y,z
-x,1/2+y,-z
-x,-y,-z
x,1/2-y,z
loop_
_atom_site_type_symbol
_atom_site_label
_atom_site_fract_x
_atom_site_fract_y
_atom_site_fract_z
Si Si1 0.502518 0.365842 0.414032
Si Si2 0.048192 0.967356 0.647973
Si Si3 0.891961 0.635474 0.139508
Si Si4 0.476337 0.866262 0.274223
Si Si5 0.886703 0.634430 0.827812
Si Si6 0.663986 0.526085 0.794860
Si Si7 0.274323 0.632510 0.713245
Si Si8 0.659551 0.543732 0.104492
O O1 0.482004 0.250000 0.397251
O O2 0.491263 0.390499 0.569569
O O3 0.417341 0.419942 0.312896
O O4 0.624983 0.382031 0.377685
O O5 0.165535 0.916789 0.646646
O O6 0.974368 0.891028 0.723943
O O7 0.056409 0.062121 0.747675
O O8 0.000000 0.000000 0.500000
O O9 0.912784 0.750000 0.170371
O O10 0.764275 0.612351 0.134245
O O11 0.924091 0.615329 0.986096
O O12 0.477689 0.750000 0.256589
O O13 0.562130 0.916981 0.184421
O O14 0.359096 0.911707 0.234914
O O15 0.856500 0.750000 0.820067
O O16 0.783591 0.566272 0.790045
O O17 0.631534 0.547088 0.945485
O O18 0.261903 0.750000 0.737128
O O19 0.306143 0.566294 0.846194
#
# Coordination Sequence:
#
# PCOD9165242 Si02
#       8
#     4   4   4   4   4   4   4   4
#     4  10  22  38  59  84 117 162 196 236 300 362
#     4  11  24  39  64  92 122 153 201 255 304 356
#     4   9  20  40  63  87 120 159 200 246 302 359
#     4  11  23  36  55  84 122 162 201 244 294 355
#     4  10  22  41  64  88 118 160 202 247 299 360
#     4  11  22  38  61  90 124 155 203 248 297 353
#     4  10  22  40  61  85 120 159 198 246 306 363
#     4  10  21  38  60  92 119 158 199 251 298 354
#
# _framework density 19.107133000000001
#
# number of rings (size 3 to 8) (size 9 to 14) (size 15 to 20)
#    0.000    1.750    1.250    2.250    1.750    4.000 
#    0.000    0.625    0.000    0.000    0.000    0.000 
#    0.000    0.000    0.000    0.000    0.000    0.000 
#
# Total GULP energy -178667.650826 kJ/mol
# GULP energy per Si atom -5583.364088 kJ/mol
# Density = 1.906364 g / cm^3
# Si number density = 19.107133 Si / 1000 Ang^3
#
#
#
# Elastic Constant Matrix: (Units=GPa)
#
#
# Indices 1 2 3 4 5 6 
#
# 1 43.1879 18.8276 26.1983 0.0000 12.1115 0.0000
# 2 18.8276 85.3543 29.1450 0.0000 21.6701 0.0000
# 3 26.1983 29.1450 54.9837 0.0000 18.6381 0.0000
# 4 0.0000 0.0000 0.0000 20.4396 0.0000 2.9824
# 5 12.1115 21.6701 18.6381 0.0000 21.4212 0.0000
# 6 0.0000 0.0000 0.0000 2.9824 0.0000 22.9657
#
#
#
# Elastic Compliance Matrix: (Units=1/GPa)
#
#
# Indices 1 2 3 4 5 6 
#
# 1 0.033425 -0.001332 -0.013149 0.000000 -0.006111 0.000000
# 2 -0.001332 0.016527 -0.003849 0.000000 -0.012617 0.000000
# 3 -0.013149 -0.003849 0.032128 0.000000 -0.016626 0.000000
# 4 0.000000 0.000000 0.000000 0.049870 0.000000 -0.006476
# 5 -0.006111 -0.012617 -0.016626 0.000000 0.077367 0.000000
# 6 0.000000 0.000000 0.000000 -0.006476 0.000000 0.044384
#
#
# Mechanical properties :
#
#
# Convention : Reuss Voigt Hill
#
# Bulk Modulus (GPa) = 22.01605 36.87418 29.44511
# Shear Modulus (GPa) = 16.36651 20.25565 18.31108
#
# Velocity S-wave (km/s) = 2.92989 3.25946 3.09906
# Velocity P-wave (km/s) = 4.79511 5.78844 5.31503
#
# Compressibility (1/GPa) = 0.04542141
#
# Stress axis : x y z
#
# Youngs Moduli (GPa) = 29.91757 60.50599 31.12520
#
# Poissons Ratio (x) = 0.08058 0.40926
# Poissons Ratio (y) = 0.03984 0.11980
# Poissons Ratio (z) = 0.39338 0.23289
#
# Static dielectric constant tensor:
#      x y z
#    x 1.649490 0.000000 -0.006680 
#    y 0.000000 1.686650 0.000000 
#    z -0.006680 0.000000 1.646290 
# 
# From -- ./inp_files/18064.got.cif
#   From: 2010.05.17/outbox.cif.g08.bks.cpg/sg11_10_cif.got.tgz:18064.got - 2010.06.03 12:22:45.
