data_PCOD9165388
_publ_section_title
;
Structure prediction by ZEFSAII (Michael W. Deem and Ramdas Pophale) SiO2 
 PCOD9165388
Probable space group: P 21/M
;
_chemical_formula_sum "Si O2"
_cell_formula_units_Z 32
_cell_length_a 12.442623
_cell_length_b 17.955414
_cell_length_c 16.095381
_cell_angle_alpha 90.000000
_cell_angle_beta 26.589922
_cell_angle_gamma 90.000000
_cell_volume 1609.535114
_symmetry_space_group_name_H-M "P 21/M"
_symmetry_group_IT_number 11
_symmetry_cell_setting 'monoclinic'
loop_
_space_group_symop_operation_xyz
x,y,z
-x,1/2+y,-z
-x,-y,-z
x,1/2-y,z
loop_
_atom_site_type_symbol
_atom_site_label
_atom_site_fract_x
_atom_site_fract_y
_atom_site_fract_z
Si Si1 0.281681 0.663831 0.234162
Si Si2 0.952433 0.838383 0.189246
Si Si3 0.431951 0.338396 0.684630
Si Si4 0.423037 0.920456 0.829839
Si Si5 0.318904 0.406942 0.930894
Si Si6 0.111115 0.078871 0.592298
Si Si7 0.654577 0.835142 0.821925
Si Si8 0.960009 0.094670 0.330105
O O1 0.231506 0.750000 0.289079
O O2 0.433080 0.624306 0.201547
O O3 0.046670 0.619354 0.369211
O O4 0.457633 0.662576 0.032055
O O5 0.975071 0.750000 0.186666
O O6 0.722156 0.853558 0.291208
O O7 0.933751 0.879344 0.290245
O O8 0.189429 0.869703 0.980705
O O9 0.469069 0.250000 0.665531
O O10 0.286721 0.367030 0.865266
O O11 0.688174 0.378823 0.507827
O O12 0.611138 0.917755 0.625040
O O13 0.561732 0.889286 0.814708
O O14 0.344022 0.005050 0.900165
O O15 0.110692 0.391634 0.141604
O O16 0.033997 0.993066 0.653948
O O17 0.670382 0.750000 0.781013
O O18 0.902365 0.861675 0.691855
#
# Coordination Sequence:
#
# PCOD9165388 Si02
#       8
#     4   4   4   4   4   4   4   4
#     4  10  21  38  64  96 137 173 208 265 330 397
#     4  11  26  48  67  92 135 175 217 276 330 388
#     4  11  26  46  69  96 131 173 221 274 326 392
#     4  12  24  41  66 100 130 173 220 271 326 386
#     4  11  23  43  67  99 132 173 216 270 329 388
#     4  12  24  41  66 100 130 173 220 271 326 386
#     4  10  21  38  64  96 137 173 208 265 330 397
#     4  11  23  43  67  99 132 173 216 270 329 388
#
# _framework density 19.881516000000001
#
# number of rings (size 3 to 8) (size 9 to 14) (size 15 to 20)
#    0.000    1.000    3.750    2.250    1.750    8.500 
#    0.000    2.500    0.000    0.000    0.000    0.000 
#    0.000    0.000    0.000    0.000    0.000    0.000 
#
# Total GULP energy -179064.807886 kJ/mol
# GULP energy per Si atom -5595.775246 kJ/mol
# Density = 1.983626 g / cm^3
# Si number density = 19.881516 Si / 1000 Ang^3
#
#
#
# Elastic Constant Matrix: (Units=GPa)
#
#
# Indices 1 2 3 4 5 6 
#
# 1 47.0011 19.0566 -4.5301 0.0000 -8.4525 0.0000
# 2 19.0566 62.1714 -5.2344 0.0000 -2.5808 0.0000
# 3 -4.5301 -5.2344 68.4717 0.0000 -11.1603 0.0000
# 4 0.0000 0.0000 0.0000 50.3421 0.0000 -51.3255
# 5 -8.4525 -2.5808 -11.1603 0.0000 22.1338 0.0000
# 6 0.0000 0.0000 0.0000 -51.3255 0.0000 134.4034
#
#
#
# Elastic Compliance Matrix: (Units=1/GPa)
#
#
# Indices 1 2 3 4 5 6 
#
# 1 0.026502 -0.007431 0.002935 0.000000 0.010734 0.000000
# 2 -0.007431 0.018426 0.000877 0.000000 -0.000247 0.000000
# 3 0.002935 0.000877 0.016414 0.000000 0.009499 0.000000
# 4 0.000000 0.000000 0.000000 0.032529 0.000000 0.012422
# 5 0.010734 -0.000247 0.009499 0.000000 0.054040 0.000000
# 6 0.000000 0.000000 0.000000 0.012422 0.000000 0.012184
#
#
# Mechanical properties :
#
#
# Convention : Reuss Voigt Hill
#
# Bulk Modulus (GPa) = 18.48298 21.80314 20.14306
# Shear Modulus (GPa) = 26.97349 52.59932 39.78641
#
# Velocity S-wave (km/s) = 3.68735 5.14916 4.47830
# Velocity P-wave (km/s) = 5.23885 6.80750 6.07403
#
# Compressibility (1/GPa) = 0.05410382
#
# Stress axis : x y z
#
# Youngs Moduli (GPa) = 37.73285 54.27192 60.92331
#
# Poissons Ratio (x) = 0.40328 -0.17880
# Poissons Ratio (y) = 0.28038 -0.05341
# Poissons Ratio (z) = -0.11074 -0.04758
#
# Static dielectric constant tensor:
#      x y z
#    x 1.666060 0.000000 0.010060 
#    y 0.000000 1.661780 0.000000 
#    z 0.010060 0.000000 1.714430 
# 
# From -- ./inp_files/50668.got.cif
#   From: 2010.05.17/outbox.cif.g08.bks.cpg/sg11_26_cif.got.tgz:50668.got - 2010.06.03 12:22:45.
