data_PCOD9165365
_publ_section_title
;
Structure prediction by ZEFSAII (Michael W. Deem and Ramdas Pophale) SiO2 
 PCOD9165365
Probable space group: P 21/M
;
_chemical_formula_sum "Si O2"
_cell_formula_units_Z 22
_cell_length_a 12.354609
_cell_length_b 17.604100
_cell_length_c 5.003884
_cell_angle_alpha 90.000000
_cell_angle_beta 116.875304
_cell_angle_gamma 90.000000
_cell_volume 970.758603
_symmetry_space_group_name_H-M "P 21/M"
_symmetry_group_IT_number 11
_symmetry_cell_setting 'monoclinic'
loop_
_space_group_symop_operation_xyz
x,y,z
-x,1/2+y,-z
-x,-y,-z
x,1/2-y,z
loop_
_atom_site_type_symbol
_atom_site_label
_atom_site_fract_x
_atom_site_fract_y
_atom_site_fract_z
Si Si1 0.429419 0.750000 0.576317
Si Si2 0.824630 0.660142 0.478143
Si Si3 0.645096 0.028273 0.948042
Si Si4 0.981859 0.659271 0.171091
Si Si5 0.748301 0.394381 0.559903
Si Si6 0.411220 0.390016 0.474231
O O1 0.331260 0.817553 0.552499
O O2 0.524941 0.816121 0.577856
O O3 0.802752 0.750000 0.415157
O O4 0.928606 0.649755 0.816725
O O5 0.701739 0.628842 0.464749
O O6 0.881195 0.629913 0.267089
O O7 0.732027 0.074205 0.840606
O O8 0.514370 0.067820 0.762217
O O9 0.629535 0.944865 0.811449
O O10 0.693653 0.043796 0.296115
O O11 0.996840 0.750000 0.234297
O O12 0.112103 0.621480 0.346724
#
# Coordination Sequence:
#
# PCOD9165365 Si02
#       6
#     2   4   4   4   4   4
#     4  10  22  38  70  88 122 158 222 250 306 372
#     4  10  21  38  63  92 125 162 203 263 308 365
#     4  10  25  40  67  88 141 158 206 259 328 354
#     4  10  21  39  63  91 126 161 208 263 308 361
#     4  11  22  44  62  99 117 174 206 264 305 385
#     4  10  22  45  61 100 123 173 203 263 310 386
#
# _framework density 22.662687999999999
#
# number of rings (size 3 to 8) (size 9 to 14) (size 15 to 20)
#    0.000    1.818    1.818    1.091    0.000   13.818 
#    3.273    5.455    0.000    0.000    0.000    0.000 
#    0.000    0.000    0.000    0.000    0.000    0.000 
#
# Total GULP energy -122671.106143 kJ/mol
# GULP energy per Si atom -5575.959370 kJ/mol
# Density = 2.261111 g / cm^3
# Si number density = 22.662688 Si / 1000 Ang^3
#
#
#
# Elastic Constant Matrix: (Units=GPa)
#
#
# Indices 1 2 3 4 5 6 
#
# 1 77.4528 -11.7695 96.1210 0.0000 23.3318 0.0000
# 2 -11.7695 31.4688 78.2554 0.0000 8.5473 0.0000
# 3 96.1210 78.2554 -60.5852 0.0000 -6.3600 0.0000
# 4 0.0000 0.0000 0.0000 11.3571 0.0000 2.3947
# 5 23.3318 8.5473 -6.3600 0.0000 32.9156 0.0000
# 6 0.0000 0.0000 0.0000 2.3947 0.0000 29.2237
#
#
#
# Elastic Compliance Matrix: (Units=1/GPa)
#
#
# Indices 1 2 3 4 5 6 
#
# 1 0.007712 -0.006532 0.004112 0.000000 -0.002976 0.000000
# 2 -0.006532 0.013077 0.006271 0.000000 0.002446 0.000000
# 3 0.004112 0.006271 -0.001378 0.000000 -0.004809 0.000000
# 4 0.000000 0.000000 0.000000 0.089599 0.000000 -0.007342
# 5 -0.002976 0.002446 -0.004809 0.000000 0.030926 0.000000
# 6 0.000000 0.000000 0.000000 -0.007342 0.000000 0.034820
#
#
# Mechanical properties :
#
#
# Convention : Reuss Voigt Hill
#
# Bulk Modulus (GPa) = 36.88403 41.50558 39.19481
# Shear Modulus (GPa) = 28.39417 7.08126 17.73771
#
# Velocity S-wave (km/s) = 3.54348 1.76958 2.80068
# Velocity P-wave (km/s) = 5.74911 4.74652 5.27170
#
# Compressibility (1/GPa) = 0.02711200
#
# Stress axis : x y z
#
# Youngs Moduli (GPa) = 129.66084 76.47275 -725.70476
#
# Poissons Ratio (x) = 0.49951 2.98384
# Poissons Ratio (y) = 0.84692 4.55065
# Poissons Ratio (z) = -0.53312 -0.47954
#
# Static dielectric constant tensor:
#      x y z
#    x 1.828330 0.000000 -0.023450 
#    y 0.000000 1.827220 0.000000 
#    z -0.023450 0.000000 1.835550 
# 
# From -- ./inp_files/4683.got.cif
#   From: 2010.05.17/outbox.cif.g08.bks.cpg/sg11_3_cif.got.tgz:4683.got - 2010.06.03 12:22:45.
