data_PCOD9165002
_publ_section_title
;
Structure prediction by ZEFSAII (Michael W. Deem and Ramdas Pophale) SiO2 
 PCOD9165002
Probable space group: P 21/M
;
_chemical_formula_sum "Si O2"
_cell_formula_units_Z 28
_cell_length_a 17.500547
_cell_length_b 14.561588
_cell_length_c 5.491061
_cell_angle_alpha 90.000000
_cell_angle_beta 65.418931
_cell_angle_gamma 90.000000
_cell_volume 1272.503465
_symmetry_space_group_name_H-M "P 21/M"
_symmetry_group_IT_number 11
_symmetry_cell_setting 'monoclinic'
loop_
_space_group_symop_operation_xyz
x,y,z
-x,1/2+y,-z
-x,-y,-z
x,1/2-y,z
loop_
_atom_site_type_symbol
_atom_site_label
_atom_site_fract_x
_atom_site_fract_y
_atom_site_fract_z
Si Si1 0.841627 0.851800 0.440962
Si Si2 0.401590 0.511627 0.109442
Si Si3 0.111552 0.645075 0.482606
Si Si4 0.700228 0.646629 0.995578
Si Si5 0.281141 0.642801 0.026033
Si Si6 0.972109 0.407056 0.900035
Si Si7 0.731855 0.500145 0.342856
O O1 0.814850 0.750000 0.372360
O O2 0.795519 0.852771 0.764468
O O3 0.807141 0.948858 0.382735
O O4 0.940887 0.856102 0.283870
O O5 0.358242 0.414307 0.101075
O O6 0.367567 0.589939 0.971760
O O7 0.351154 0.537369 0.417343
O O8 0.500000 0.500000 0.000000
O O9 0.095428 0.750000 0.421683
O O10 0.212744 0.632890 0.334217
O O11 0.072050 0.585533 0.310045
O O12 0.077822 0.637713 0.803865
O O13 0.670853 0.750000 0.055425
O O14 0.699466 0.589036 0.239123
O O15 0.291411 0.750000 0.958193
O O16 0.240458 0.581436 0.868390
O O17 0.000000 0.500000 0.000000
#
# Coordination Sequence:
#
# PCOD9165002 Si02
#       7
#     4   4   4   4   4   4   4
#     4  10  21  37  60  92 128 174 217 268 329 383
#     4  10  23  42  64  92 126 160 204 264 328 398
#     4  11  25  44  63  92 133 180 228 280 330 393
#     4   9  20  37  61  91 126 163 207 259 323 391
#     4  10  24  42  65  91 125 170 217 265 329 392
#     4  12  26  40  65  97 136 179 232 286 335 391
#     4  10  21  39  65  88 126 161 215 261 326 389
#
# _framework density 22.003869000000002
#
# number of rings (size 3 to 8) (size 9 to 14) (size 15 to 20)
#    0.000    1.714    0.000    3.000   10.000    4.000 
#    0.000    1.429    0.000    0.000    0.000    0.000 
#    0.000    0.000    0.000    0.000    0.000    0.000 
#
# Total GULP energy -155956.572615 kJ/mol
# GULP energy per Si atom -5569.877593 kJ/mol
# Density = 2.195379 g / cm^3
# Si number density = 22.003869 Si / 1000 Ang^3
#
#
#
# Elastic Constant Matrix: (Units=GPa)
#
#
# Indices 1 2 3 4 5 6 
#
# 1 83.9224 8.2025 28.1247 0.0000 -26.0574 0.0000
# 2 8.2025 127.1853 -11.1048 0.0000 -7.6296 0.0000
# 3 28.1247 -11.1048 49.0420 0.0000 -17.1650 0.0000
# 4 0.0000 0.0000 0.0000 26.3647 0.0000 -0.6833
# 5 -26.0574 -7.6296 -17.1650 0.0000 29.8384 0.0000
# 6 0.0000 0.0000 0.0000 -0.6833 0.0000 18.5691
#
#
#
# Elastic Compliance Matrix: (Units=1/GPa)
#
#
# Indices 1 2 3 4 5 6 
#
# 1 0.017736 -0.001003 -0.006345 0.000000 0.011583 0.000000
# 2 -0.001003 0.008453 0.003680 0.000000 0.003402 0.000000
# 3 -0.006345 0.003680 0.029115 0.000000 0.012149 0.000000
# 4 0.000000 0.000000 0.000000 0.037966 0.000000 0.001397
# 5 0.011583 0.003402 0.012149 0.000000 0.051488 0.000000
# 6 0.000000 0.000000 0.000000 0.001397 0.000000 0.053904
#
#
# Mechanical properties :
#
#
# Convention : Reuss Voigt Hill
#
# Bulk Modulus (GPa) = 20.84698 34.51049 27.67874
# Shear Modulus (GPa) = 22.52393 30.61626 26.57010
#
# Velocity S-wave (km/s) = 3.20290 3.73420 3.47871
# Velocity P-wave (km/s) = 4.81382 5.85749 5.36111
#
# Compressibility (1/GPa) = 0.04796857
#
# Stress axis : x y z
#
# Youngs Moduli (GPa) = 56.38129 118.30620 34.34688
#
# Poissons Ratio (x) = 0.11866 0.21792
# Poissons Ratio (y) = 0.05655 -0.12640
# Poissons Ratio (z) = 0.35772 -0.43537
#
# Static dielectric constant tensor:
#      x y z
#    x 1.862750 0.000000 0.079070 
#    y 0.000000 1.854350 0.000000 
#    z 0.079070 0.000000 1.882590 
# 
# From -- ./inp_files/8025.got.cif
#   From: 2010.05.17/outbox.cif.g08.bks.cpg/sg11_5_cif.got.tgz:8025.got - 2010.06.03 12:22:45.
