data_PCOD9165757
_publ_section_title
;
Structure prediction by ZEFSAII (Michael W. Deem and Ramdas Pophale) SiO2 
 PCOD9165757
Probable space group: P 21/M
;
_chemical_formula_sum "Si O2"
_cell_formula_units_Z 24
_cell_length_a 10.198570
_cell_length_b 8.752054
_cell_length_c 13.773654
_cell_angle_alpha 90.000000
_cell_angle_beta 89.920878
_cell_angle_gamma 90.000000
_cell_volume 1229.413633
_symmetry_space_group_name_H-M "P 21/M"
_symmetry_group_IT_number 11
_symmetry_cell_setting 'monoclinic'
loop_
_space_group_symop_operation_xyz
x,y,z
-x,1/2+y,-z
-x,-y,-z
x,1/2-y,z
loop_
_atom_site_type_symbol
_atom_site_label
_atom_site_fract_x
_atom_site_fract_y
_atom_site_fract_z
Si Si1 0.719041 0.567367 0.420562
Si Si2 0.392409 0.068082 0.927891
Si Si3 0.891596 0.068201 0.071517
Si Si4 0.232715 0.066447 0.355652
Si Si5 0.962825 0.931439 0.279125
Si Si6 0.484302 0.931833 0.725005
O O1 0.693802 0.750000 0.416286
O O2 0.739204 0.524614 0.532443
O O3 0.851708 0.536638 0.359909
O O4 0.600945 0.480797 0.367944
O O5 0.389231 0.250000 0.935116
O O6 0.250346 0.000478 0.952337
O O7 0.428839 0.018366 0.818549
O O8 0.500000 0.000000 0.000000
O O9 0.888296 0.250000 0.063594
O O10 0.926362 0.018946 0.180997
O O11 0.000000 0.000000 0.000000
O O12 0.211396 0.250000 0.352200
O O13 0.363412 0.031956 0.294284
O O14 0.104383 0.983397 0.316559
O O15 0.961524 0.750000 0.259869
O O16 0.471874 0.750000 0.740141
#
# Coordination Sequence:
#
# PCOD9165757 Si02
#       6
#     4   4   4   4   4   4
#     4  10  21  40  64  91 128 171 217 268 321 380
#     4  12  26  46  70  97 130 168 215 267 323 386
#     4  12  26  46  71  98 130 168 212 264 324 387
#     4  10  23  40  61  93 131 172 219 267 316 379
#     4  11  23  40  64  95 130 170 217 264 320 383
#     4  11  23  40  64  94 129 170 217 265 322 384
#
# _framework density 19.521502000000002
#
# number of rings (size 3 to 8) (size 9 to 14) (size 15 to 20)
#    0.000    1.000    1.667    5.000    2.333    2.667 
#    0.000    0.000    0.000    0.000    0.000    0.000 
#    0.000    0.000    0.000    0.000    0.000    0.000 
#
# Total GULP energy -134336.938132 kJ/mol
# GULP energy per Si atom -5597.372422 kJ/mol
# Density = 1.947707 g / cm^3
# Si number density = 19.521502 Si / 1000 Ang^3
#
#
#
# Elastic Constant Matrix: (Units=GPa)
#
#
# Indices 1 2 3 4 5 6 
#
# 1 106.0735 58.5866 34.7016 0.0000 4.3108 0.0000
# 2 58.5866 112.0598 39.0808 0.0000 -5.4670 0.0000
# 3 34.7016 39.0808 72.3249 0.0000 -2.3689 0.0000
# 4 0.0000 0.0000 0.0000 32.3154 0.0000 7.9160
# 5 4.3108 -5.4670 -2.3689 0.0000 38.3610 0.0000
# 6 0.0000 0.0000 0.0000 7.9160 0.0000 35.8642
#
#
#
# Elastic Compliance Matrix: (Units=1/GPa)
#
#
# Indices 1 2 3 4 5 6 
#
# 1 0.014168 -0.006331 -0.003466 0.000000 -0.002708 0.000000
# 2 -0.006331 0.013880 -0.004384 0.000000 0.002419 0.000000
# 3 -0.003466 -0.004384 0.017886 0.000000 0.000869 0.000000
# 4 0.000000 0.000000 0.000000 0.032714 0.000000 -0.007221
# 5 -0.002708 0.002419 0.000869 0.000000 0.026771 0.000000
# 6 0.000000 0.000000 0.000000 -0.007221 0.000000 0.029477
#
#
# Mechanical properties :
#
#
# Convention : Reuss Voigt Hill
#
# Bulk Modulus (GPa) = 56.89953 61.68848 59.29400
# Shear Modulus (GPa) = 29.56583 31.84738 30.70661
#
# Velocity S-wave (km/s) = 3.89591 4.04344 3.97036
# Velocity P-wave (km/s) = 7.03192 7.31219 7.17342
#
# Compressibility (1/GPa) = 0.01757484
#
# Stress axis : x y z
#
# Youngs Moduli (GPa) = 70.58252 72.04438 55.90817
#
# Poissons Ratio (x) = 0.45609 0.19376
# Poissons Ratio (y) = 0.44683 0.24508
# Poissons Ratio (z) = 0.24462 0.31581
#
# Static dielectric constant tensor:
#      x y z
#    x 1.649710 0.000000 -0.007720 
#    y 0.000000 1.652980 0.000000 
#    z -0.007720 0.000000 1.659800 
# 
# From -- ./inp_files/46554.got.cif
#   From: 2010.05.17/outbox.cif.g08.bks.cpg/sg11_24_cif.got.tgz:46554.got - 2010.06.03 12:22:45.
