data_PCOD9165027
_publ_section_title
;
Structure prediction by ZEFSAII (Michael W. Deem and Ramdas Pophale) SiO2 
 PCOD9165027
Probable space group: P 21/M
;
_chemical_formula_sum "Si O2"
_cell_formula_units_Z 26
_cell_length_a 8.970902
_cell_length_b 18.660294
_cell_length_c 8.686964
_cell_angle_alpha 90.000000
_cell_angle_beta 128.676325
_cell_angle_gamma 90.000000
_cell_volume 1135.273516
_symmetry_space_group_name_H-M "P 21/M"
_symmetry_group_IT_number 11
_symmetry_cell_setting 'monoclinic'
loop_
_space_group_symop_operation_xyz
x,y,z
-x,1/2+y,-z
-x,-y,-z
x,1/2-y,z
loop_
_atom_site_type_symbol
_atom_site_label
_atom_site_fract_x
_atom_site_fract_y
_atom_site_fract_z
Si Si1 0.308061 0.135038 0.187514
Si Si2 0.999728 0.119173 0.232283
Si Si3 0.310255 0.538277 0.174884
Si Si4 0.052084 0.250000 0.454766
Si Si5 0.255790 0.470616 0.628100
Si Si6 0.144456 0.354916 0.761866
Si Si7 0.274634 0.886570 0.482052
O O1 0.154841 0.155786 0.217145
O O2 0.524602 0.152760 0.371139
O O3 0.288442 0.047826 0.165891
O O4 0.255955 0.163874 0.986619
O O5 0.116598 0.061696 0.408924
O O6 0.932296 0.185051 0.293405
O O7 0.840466 0.078491 0.030509
O O8 0.526546 0.552440 0.261156
O O9 0.286232 0.568116 0.332037
O O10 0.180515 0.311045 0.631120
O O11 0.187843 0.437163 0.744735
O O12 0.255970 0.556061 0.609159
O O13 0.919345 0.342247 0.646394
#
# Coordination Sequence:
#
# PCOD9165027 Si02
#       7
#     4   4   4   2   4   4   4
#     4  11  21  37  70  99 124 157 201 260 320 380
#     4  11  20  41  65  86 122 171 208 248 306 358
#     4  11  20  36  68 104 125 153 207 251 316 391
#     4  10  28  46  58  82 124 176 220 256 294 366
#     4  10  21  37  61  99 134 156 190 252 319 385
#     4  11  24  41  60  88 131 164 210 255 307 352
#     4  11  20  37  65 100 131 153 197 256 317 381
#
# _framework density 22.901971
#
# number of rings (size 3 to 8) (size 9 to 14) (size 15 to 20)
#    0.000    1.231    4.615    2.769    0.000    6.769 
#    0.000    7.692    0.000    0.000    0.000    0.000 
#    0.000    0.000    0.000    0.000    0.000    0.000 
#
# Total GULP energy -144896.623180 kJ/mol
# GULP energy per Si atom -5572.947045 kJ/mol
# Density = 2.284985 g / cm^3
# Si number density = 22.901971 Si / 1000 Ang^3
#
#
#
# Elastic Constant Matrix: (Units=GPa)
#
#
# Indices 1 2 3 4 5 6 
#
# 1 60.3849 6.1588 20.9280 0.0000 17.0272 0.0000
# 2 6.1588 62.1883 12.3945 0.0000 9.8774 0.0000
# 3 20.9280 12.3945 106.5489 0.0000 12.8594 0.0000
# 4 0.0000 0.0000 0.0000 -74.0989 0.0000 120.8499
# 5 17.0272 9.8774 12.8594 0.0000 38.5634 0.0000
# 6 0.0000 0.0000 0.0000 120.8499 0.0000 -171.1007
#
#
#
# Elastic Compliance Matrix: (Units=1/GPa)
#
#
# Indices 1 2 3 4 5 6 
#
# 1 0.019767 -0.000148 -0.002935 0.000000 -0.007711 0.000000
# 2 -0.000148 0.016994 -0.001490 0.000000 -0.003790 0.000000
# 3 -0.002935 -0.001490 0.010349 0.000000 -0.001774 0.000000
# 4 0.000000 0.000000 0.000000 0.088822 0.000000 0.062736
# 5 -0.007711 -0.003790 -0.001774 0.000000 0.030899 0.000000
# 6 0.000000 0.000000 0.000000 0.062736 0.000000 0.038467
#
#
# Mechanical properties :
#
#
# Convention : Reuss Voigt Hill
#
# Bulk Modulus (GPa) = 26.34052 34.23164 30.28608
# Shear Modulus (GPa) = 22.01690 -28.68455 -3.33382
#
# Velocity S-wave (km/s) = 3.10393 -3.54290 -1.20783
# Velocity P-wave (km/s) = 4.93683 1.32540 3.36271
#
# Compressibility (1/GPa) = 0.03796432
#
# Stress axis : x y z
#
# Youngs Moduli (GPa) = 50.58920 58.84459 96.62586
#
# Poissons Ratio (x) = 0.00870 0.28357
# Poissons Ratio (y) = 0.00748 0.14400
# Poissons Ratio (z) = 0.14846 0.08770
#
# Static dielectric constant tensor:
#      x y z
#    x 1.932500 0.000000 -0.037450 
#    y 0.000000 2.026140 0.000000 
#    z -0.037450 0.000000 1.825000 
# 
# From -- ./inp_files/14488.got.cif
#   From: 2010.05.17/outbox.cif.g08.bks.cpg/sg11_8_cif.got.tgz:14488.got - 2010.06.03 12:22:45.
