data_PCOD9165931
_publ_section_title
;
Structure prediction by ZEFSAII (Michael W. Deem and Ramdas Pophale) SiO2 
 PCOD9165931
Probable space group: P 21/M
;
_chemical_formula_sum "Si O2"
_cell_formula_units_Z 20
_cell_length_a 6.751055
_cell_length_b 17.067652
_cell_length_c 7.881827
_cell_angle_alpha 90.000000
_cell_angle_beta 79.466185
_cell_angle_gamma 90.000000
_cell_volume 892.875411
_symmetry_space_group_name_H-M "P 21/M"
_symmetry_group_IT_number 11
_symmetry_cell_setting 'monoclinic'
loop_
_space_group_symop_operation_xyz
x,y,z
-x,1/2+y,-z
-x,-y,-z
x,1/2-y,z
loop_
_atom_site_type_symbol
_atom_site_label
_atom_site_fract_x
_atom_site_fract_y
_atom_site_fract_z
Si Si1 0.673342 0.841058 0.744550
Si Si2 0.934680 0.662567 0.172296
Si Si3 0.202100 0.620795 0.819414
Si Si4 0.296125 0.459052 0.967528
Si Si5 0.996512 0.093800 0.504682
O O1 0.720566 0.750000 0.778428
O O2 0.760330 0.908393 0.857116
O O3 0.783359 0.866849 0.555471
O O4 0.131782 0.875351 0.635128
O O5 0.879780 0.750000 0.228562
O O6 0.066594 0.622212 0.299468
O O7 0.737668 0.609762 0.164460
O O8 0.071599 0.664940 0.981304
O O9 0.433724 0.648479 0.785634
O O10 0.186920 0.531623 0.893216
O O11 0.500000 0.500000 0.000000
O O12 0.000000 0.000000 0.500000
#
# Coordination Sequence:
#
# PCOD9165931 Si02
#       5
#     4   4   4   4   4
#     4  11  24  43  69 101 141 181 226 291 353 402
#     4  12  24  42  71 103 138 182 235 292 348 407
#     4  11  24  47  71  98 141 185 232 282 349 418
#     4  10  21  41  69  98 130 183 231 274 340 417
#     4  12  25  45  72 100 137 186 235 282 344 419
#
# _framework density 22.399542
#
# number of rings (size 3 to 8) (size 9 to 14) (size 15 to 20)
#    0.000    0.800    4.000    3.600    0.000    3.200 
#    7.200    0.000    0.000    0.000    0.000    0.000 
#    0.000    0.000    0.000    0.000    0.000    0.000 
#
# Total GULP energy -111440.352884 kJ/mol
# GULP energy per Si atom -5572.017644 kJ/mol
# Density = 2.234856 g / cm^3
# Si number density = 22.399542 Si / 1000 Ang^3
#
#
#
# Elastic Constant Matrix: (Units=GPa)
#
#
# Indices 1 2 3 4 5 6 
#
# 1 89.7817 25.7750 33.5110 0.0000 8.3340 0.0000
# 2 25.7750 180.9448 27.1217 0.0000 7.2466 0.0000
# 3 33.5110 27.1217 120.1633 0.0000 29.9768 0.0000
# 4 0.0000 0.0000 0.0000 35.0778 0.0000 -3.2762
# 5 8.3340 7.2466 29.9768 0.0000 32.1978 0.0000
# 6 0.0000 0.0000 0.0000 -3.2762 0.0000 23.8421
#
#
#
# Elastic Compliance Matrix: (Units=1/GPa)
#
#
# Indices 1 2 3 4 5 6 
#
# 1 0.012733 -0.001326 -0.003261 0.000000 0.000039 0.000000
# 2 -0.001326 0.005859 -0.000924 0.000000 -0.000115 0.000000
# 3 -0.003261 -0.000924 0.011954 0.000000 -0.010077 0.000000
# 4 0.000000 0.000000 0.000000 0.028879 0.000000 0.003968
# 5 0.000039 -0.000115 -0.010077 0.000000 0.040456 0.000000
# 6 0.000000 0.000000 0.000000 0.003968 0.000000 0.042488
#
#
# Mechanical properties :
#
#
# Convention : Reuss Voigt Hill
#
# Bulk Modulus (GPa) = 51.22310 62.63391 56.92851
# Shear Modulus (GPa) = 31.26999 38.52236 34.89618
#
# Velocity S-wave (km/s) = 3.74038 4.15153 3.95130
# Velocity P-wave (km/s) = 6.44759 7.14164 6.80347
#
# Compressibility (1/GPa) = 0.01952244
#
# Stress axis : x y z
#
# Youngs Moduli (GPa) = 78.53888 170.69049 83.65444
#
# Poissons Ratio (x) = 0.22641 0.27281
# Poissons Ratio (y) = 0.10418 0.07727
# Poissons Ratio (z) = 0.25613 0.15766
#
# Static dielectric constant tensor:
#      x y z
#    x 1.893320 0.000000 0.005730 
#    y 0.000000 1.826290 0.000000 
#    z 0.005730 0.000000 1.888610 
# 
# From -- ./inp_files/12709.got.cif
#   From: 2010.05.17/outbox.cif.g08.bks.cpg/sg11_7_cif.got.tgz:12709.got - 2010.06.03 12:22:45.
