data_PCOD9165918
_publ_section_title
;
Structure prediction by ZEFSAII (Michael W. Deem and Ramdas Pophale) SiO2 
 PCOD9165918
Probable space group: P 21/M
;
_chemical_formula_sum "Si O2"
_cell_formula_units_Z 32
_cell_length_a 12.530179
_cell_length_b 19.693861
_cell_length_c 14.496357
_cell_angle_alpha 90.000000
_cell_angle_beta 154.913784
_cell_angle_gamma 90.000000
_cell_volume 1516.680069
_symmetry_space_group_name_H-M "P 21/M"
_symmetry_group_IT_number 11
_symmetry_cell_setting 'monoclinic'
loop_
_space_group_symop_operation_xyz
x,y,z
-x,1/2+y,-z
-x,-y,-z
x,1/2-y,z
loop_
_atom_site_type_symbol
_atom_site_label
_atom_site_fract_x
_atom_site_fract_y
_atom_site_fract_z
Si Si1 0.405444 0.972206 0.828766
Si Si2 0.808290 0.568985 0.919546
Si Si3 0.473024 0.821977 0.428769
Si Si4 0.785772 0.420151 0.912767
Si Si5 0.078722 0.063166 0.449956
Si Si6 0.015550 0.671776 0.777188
Si Si7 0.632293 0.327656 0.437512
Si Si8 0.953855 0.567264 0.226442
O O1 0.148858 0.932872 0.653550
O O2 0.316492 0.034791 0.694240
O O3 0.648842 0.929076 0.989096
O O4 0.500000 0.000000 0.000000
O O5 0.677394 0.496078 0.828260
O O6 0.618637 0.630929 0.784390
O O7 0.008550 0.565065 0.159865
O O8 0.942501 0.572990 0.925579
O O9 0.373872 0.750000 0.313211
O O10 0.373986 0.879024 0.285125
O O11 0.771789 0.821759 0.651709
O O12 0.386857 0.825772 0.466159
O O13 0.805876 0.378859 0.023943
O O14 0.072169 0.131747 0.384125
O O15 0.024285 0.001658 0.334858
O O16 0.104843 0.750000 0.830732
O O17 0.636655 0.250000 0.407575
O O18 0.878583 0.371371 0.603469
#
# Coordination Sequence:
#
# PCOD9165918 Si02
#       8
#     4   4   4   4   4   4   4   4
#     4   9  21  40  68  95 121 157 205 264 330 389
#     4  11  23  35  59  90 125 172 219 274 316 372
#     4  10  22  36  53  80 125 175 213 259 316 381
#     4  11  22  37  57  89 128 172 223 263 311 379
#     4  10  21  41  67  95 128 162 212 270 329 397
#     4  11  23  39  62  94 133 173 210 264 328 391
#     4  11  24  39  56  85 127 174 221 271 328 386
#     4  11  21  39  62  94 121 166 216 266 321 382
#
# _framework density 21.098714999999999
#
# number of rings (size 3 to 8) (size 9 to 14) (size 15 to 20)
#    0.000    1.500    3.750    1.125    3.500    1.500 
#    0.000    0.625    0.000    9.750    0.000    0.000 
#    0.000    0.000    0.000    0.000    0.000    0.000 
#
# Total GULP energy -178353.581876 kJ/mol
# GULP energy per Si atom -5573.549434 kJ/mol
# Density = 2.105069 g / cm^3
# Si number density = 21.098715 Si / 1000 Ang^3
#
#
#
# Elastic Constant Matrix: (Units=GPa)
#
#
# Indices 1 2 3 4 5 6 
#
# 1 65.7393 17.4311 13.7008 0.0000 0.1113 0.0000
# 2 17.4311 142.0593 23.2465 0.0000 -11.5798 0.0000
# 3 13.7008 23.2465 53.5569 0.0000 -2.0768 0.0000
# 4 0.0000 0.0000 0.0000 20.2635 0.0000 8.6475
# 5 0.1113 -11.5798 -2.0768 0.0000 45.3018 0.0000
# 6 0.0000 0.0000 0.0000 8.6475 0.0000 5.9959
#
#
#
# Elastic Compliance Matrix: (Units=1/GPa)
#
#
# Indices 1 2 3 4 5 6 
#
# 1 0.016345 -0.001469 -0.003566 0.000000 -0.000579 0.000000
# 2 -0.001469 0.007857 -0.002962 0.000000 0.001876 0.000000
# 3 -0.003566 -0.002962 0.020878 0.000000 0.000209 0.000000
# 4 0.000000 0.000000 0.000000 0.128345 0.000000 -0.185106
# 5 -0.000579 0.001876 0.000209 0.000000 0.022565 0.000000
# 6 0.000000 0.000000 0.000000 -0.185106 0.000000 0.433753
#
#
# Mechanical properties :
#
#
# Convention : Reuss Voigt Hill
#
# Bulk Modulus (GPa) = 34.38104 41.12357 37.75231
# Shear Modulus (GPa) = 7.62855 28.11070 17.86962
#
# Velocity S-wave (km/s) = 1.90355 3.65409 2.91340
# Velocity P-wave (km/s) = 4.60022 6.11036 5.40826
#
# Compressibility (1/GPa) = 0.02908580
#
# Stress axis : x y z
#
# Youngs Moduli (GPa) = 61.17930 127.27171 47.89796
#
# Poissons Ratio (x) = 0.18700 0.17081
# Poissons Ratio (y) = 0.08989 0.14186
# Poissons Ratio (z) = 0.21818 0.37695
#
# Static dielectric constant tensor:
#      x y z
#    x 1.830330 0.000000 0.043120 
#    y 0.000000 1.898830 0.000000 
#    z 0.043120 0.000000 1.817890 
# 
# From -- ./inp_files/50705.got.cif
#   From: 2010.05.17/outbox.cif.g08.bks.cpg/sg11_26_cif.got.tgz:50705.got - 2010.06.03 12:22:45.
