data_PCOD9165364
_publ_section_title
;
Structure prediction by ZEFSAII (Michael W. Deem and Ramdas Pophale) SiO2 
 PCOD9165364
Probable space group: P 21/M
;
_chemical_formula_sum "Si O2"
_cell_formula_units_Z 28
_cell_length_a 12.094994
_cell_length_b 8.675903
_cell_length_c 15.762945
_cell_angle_alpha 90.000000
_cell_angle_beta 60.254108
_cell_angle_gamma 90.000000
_cell_volume 1436.133091
_symmetry_space_group_name_H-M "P 21/M"
_symmetry_group_IT_number 11
_symmetry_cell_setting 'monoclinic'
loop_
_space_group_symop_operation_xyz
x,y,z
-x,1/2+y,-z
-x,-y,-z
x,1/2-y,z
loop_
_atom_site_type_symbol
_atom_site_label
_atom_site_fract_x
_atom_site_fract_y
_atom_site_fract_z
Si Si1 0.427624 0.935122 0.609731
Si Si2 0.416656 0.430681 0.160405
Si Si3 0.898085 0.933726 0.471730
Si Si4 0.868794 0.063581 0.298427
Si Si5 0.638509 0.431521 0.644607
Si Si6 0.669669 0.566077 0.998080
Si Si7 0.042048 0.435790 0.073977
O O1 0.435096 0.750000 0.607909
O O2 0.279081 0.979060 0.661184
O O3 0.500000 0.000000 0.500000
O O4 0.506003 0.002160 0.658902
O O5 0.403172 0.250000 0.185772
O O6 0.356626 0.529869 0.257989
O O7 0.563950 0.475767 0.091324
O O8 0.354272 0.460812 0.092630
O O9 0.905115 0.750000 0.470156
O O10 0.917026 0.995055 0.368912
O O11 0.757283 0.988350 0.553308
O O12 0.000000 0.000000 0.500000
O O13 0.874539 0.250000 0.302776
O O14 0.953590 0.013757 0.186075
O O15 0.644702 0.250000 0.626045
O O16 0.652777 0.750000 0.019134
O O17 0.811990 0.520099 0.965998
O O18 0.035919 0.250000 0.074307
O O19 0.000000 0.500000 0.000000
#
# Coordination Sequence:
#
# PCOD9165364 Si02
#       7
#     4   4   4   4   4   4   4
#     4  11  22  39  63  92 126 162 206 256 313 373
#     4  10  21  38  63  92 122 161 207 260 318 377
#     4  12  26  44  67  96 131 169 214 261 317 384
#     4  10  23  43  66  92 127 169 213 265 320 376
#     4  12  25  41  63  94 129 165 210 260 314 377
#     4   9  20  40  62  88 122 161 205 260 320 378
#     4  10  23  42  63  91 124 164 212 261 315 373
#
# _framework density 19.4968
#
# number of rings (size 3 to 8) (size 9 to 14) (size 15 to 20)
#    0.000    1.429    1.429    3.429    4.000    2.286 
#    0.000    0.000    0.000    0.000    0.000    0.000 
#    0.000    0.000    0.000    0.000    0.000    0.000 
#
# Total GULP energy -156559.298235 kJ/mol
# GULP energy per Si atom -5591.403508 kJ/mol
# Density = 1.945242 g / cm^3
# Si number density = 19.496800 Si / 1000 Ang^3
#
#
#
# Elastic Constant Matrix: (Units=GPa)
#
#
# Indices 1 2 3 4 5 6 
#
# 1 137.9697 39.0376 58.3349 0.0000 -2.0338 0.0000
# 2 39.0376 58.8030 29.9106 0.0000 5.1026 0.0000
# 3 58.3349 29.9106 114.1119 0.0000 6.3784 0.0000
# 4 0.0000 0.0000 0.0000 35.8566 0.0000 5.4576
# 5 -2.0338 5.1026 6.3784 0.0000 19.1382 0.0000
# 6 0.0000 0.0000 0.0000 5.4576 0.0000 31.3529
#
#
#
# Elastic Compliance Matrix: (Units=1/GPa)
#
#
# Indices 1 2 3 4 5 6 
#
# 1 0.010580 -0.005194 -0.004267 0.000000 0.003931 0.000000
# 2 -0.005194 0.022417 -0.002910 0.000000 -0.005559 0.000000
# 3 -0.004267 -0.002910 0.011911 0.000000 -0.003647 0.000000
# 4 0.000000 0.000000 0.000000 0.028648 0.000000 -0.004987
# 5 0.003931 -0.005559 -0.003647 0.000000 0.055367 0.000000
# 6 0.000000 0.000000 0.000000 -0.004987 0.000000 0.032763
#
#
# Mechanical properties :
#
#
# Convention : Reuss Voigt Hill
#
# Bulk Modulus (GPa) = 49.58827 62.82789 56.20808
# Shear Modulus (GPa) = 25.88681 29.50962 27.69822
#
# Velocity S-wave (km/s) = 3.64778 3.89467 3.77325
# Velocity P-wave (km/s) = 6.57503 7.24702 6.91919
#
# Compressibility (1/GPa) = 0.02016606
#
# Stress axis : x y z
#
# Youngs Moduli (GPa) = 94.52173 44.60955 83.95620
#
# Poissons Ratio (x) = 0.23172 0.35820
# Poissons Ratio (y) = 0.49098 0.24428
# Poissons Ratio (z) = 0.40328 0.12980
#
# Static dielectric constant tensor:
#      x y z
#    x 1.677880 0.000000 0.009890 
#    y 0.000000 1.618360 0.000000 
#    z 0.009890 0.000000 1.665320 
# 
# From -- ./inp_files/49170.got.cif
#   From: 2010.05.17/outbox.cif.g08.bks.cpg/sg11_25_cif.got.tgz:49170.got - 2010.06.03 12:22:45.
