data_PCOD9165491
_publ_section_title
;
Structure prediction by ZEFSAII (Michael W. Deem and Ramdas Pophale) SiO2 
 PCOD9165491
Probable space group: P 21/M
;
_chemical_formula_sum "Si O2"
_cell_formula_units_Z 28
_cell_length_a 16.778914
_cell_length_b 15.050376
_cell_length_c 6.608353
_cell_angle_alpha 90.000000
_cell_angle_beta 55.099973
_cell_angle_gamma 90.000000
_cell_volume 1368.669444
_symmetry_space_group_name_H-M "P 21/M"
_symmetry_group_IT_number 11
_symmetry_cell_setting 'monoclinic'
loop_
_space_group_symop_operation_xyz
x,y,z
-x,1/2+y,-z
-x,-y,-z
x,1/2-y,z
loop_
_atom_site_type_symbol
_atom_site_label
_atom_site_fract_x
_atom_site_fract_y
_atom_site_fract_z
Si Si1 0.927157 0.913799 0.719501
Si Si2 0.443720 0.856607 0.550160
Si Si3 0.437040 0.008086 0.890238
Si Si4 0.851193 0.654171 0.221349
Si Si5 0.958544 0.395712 0.812190
Si Si6 0.773764 0.987270 0.619466
Si Si7 0.230066 0.852103 0.663333
O O1 0.855098 0.957176 0.660128
O O2 0.011465 0.870169 0.461364
O O3 0.964155 0.996794 0.799160
O O4 0.868293 0.853524 0.958169
O O5 0.460659 0.750000 0.550449
O O6 0.521782 0.908450 0.297198
O O7 0.336981 0.867482 0.602648
O O8 0.443795 0.916464 0.752713
O O9 0.327138 0.021127 0.119632
O O10 0.500000 0.000000 0.000000
O O11 0.811568 0.750000 0.335867
O O12 0.784448 0.578145 0.411718
O O13 0.957974 0.643103 0.165941
O O14 0.853508 0.370135 0.048098
O O15 0.785906 0.083834 0.503979
O O16 0.223438 0.750000 0.611090
#
# Coordination Sequence:
#
# PCOD9165491 Si02
#       7
#     4   4   4   4   4   4   4
#     4  10  22  38  66  86 126 171 210 259 316 371
#     4  10  24  44  68 100 130 161 209 264 318 384
#     4  11  23  43  71  95 128 169 206 259 323 383
#     4  11  24  41  62  91 129 170 218 264 305 368
#     4  10  21  39  61  90 123 166 213 259 313 370
#     4  11  24  41  67  93 128 164 213 257 319 377
#     4  11  22  40  65  94 130 164 205 262 318 377
#
# _framework density 20.457823999999999
#
# number of rings (size 3 to 8) (size 9 to 14) (size 15 to 20)
#    0.000    1.429    2.857    1.714    4.000    4.571 
#    0.000    2.857    0.000    0.000    0.000    0.000 
#    0.000    0.000    0.000    0.000    0.000    0.000 
#
# Total GULP energy -156391.704798 kJ/mol
# GULP energy per Si atom -5585.418029 kJ/mol
# Density = 2.041126 g / cm^3
# Si number density = 20.457824 Si / 1000 Ang^3
#
#
#
# Elastic Constant Matrix: (Units=GPa)
#
#
# Indices 1 2 3 4 5 6 
#
# 1 58.0510 41.0227 47.2514 0.0000 -4.4395 0.0000
# 2 41.0227 139.1025 67.8025 0.0000 -3.9262 0.0000
# 3 47.2514 67.8025 154.9122 0.0000 -22.3221 0.0000
# 4 0.0000 0.0000 0.0000 -7.7675 0.0000 -9.4484
# 5 -4.4395 -3.9262 -22.3221 0.0000 39.3701 0.0000
# 6 0.0000 0.0000 0.0000 -9.4484 0.0000 8.4773
#
#
#
# Elastic Compliance Matrix: (Units=1/GPa)
#
#
# Indices 1 2 3 4 5 6 
#
# 1 0.025119 -0.004621 -0.005769 0.000000 -0.000899 0.000000
# 2 -0.004621 0.010068 -0.003188 0.000000 -0.001325 0.000000
# 3 -0.005769 -0.003188 0.010313 0.000000 0.004879 0.000000
# 4 0.000000 0.000000 0.000000 -0.054650 0.000000 -0.060910
# 5 -0.000899 -0.001325 0.004879 0.000000 0.027933 0.000000
# 6 0.000000 0.000000 0.000000 -0.060910 0.000000 0.050074
#
#
# Mechanical properties :
#
#
# Convention : Reuss Voigt Hill
#
# Bulk Modulus (GPa) = 54.51280 73.80211 64.15745
# Shear Modulus (GPa) = 48.95835 21.08192 35.02013
#
# Velocity S-wave (km/s) = 4.89728 3.21363 4.14190
# Velocity P-wave (km/s) = 7.66042 7.06565 7.36904
#
# Compressibility (1/GPa) = 0.01834432
#
# Stress axis : x y z
#
# Youngs Moduli (GPa) = 39.81105 99.32093 96.96331
#
# Poissons Ratio (x) = 0.45900 0.55934
# Poissons Ratio (y) = 0.18398 0.30912
# Poissons Ratio (z) = 0.22965 0.31664
#
# Static dielectric constant tensor:
#      x y z
#    x 1.761830 0.000000 -0.010280 
#    y 0.000000 1.743220 0.000000 
#    z -0.010280 0.000000 1.754760 
# 
# From -- ./inp_files/8021.got.cif
#   From: 2010.05.17/outbox.cif.g08.bks.cpg/sg11_5_cif.got.tgz:8021.got - 2010.06.03 12:22:45.
