data_PCOD9165451
_publ_section_title
;
Structure prediction by ZEFSAII (Michael W. Deem and Ramdas Pophale) SiO2 
 PCOD9165451
Probable space group: P 21/M
;
_chemical_formula_sum "Si O2"
_cell_formula_units_Z 24
_cell_length_a 10.754444
_cell_length_b 16.210550
_cell_length_c 15.515931
_cell_angle_alpha 90.000000
_cell_angle_beta 25.090324
_cell_angle_gamma 90.000000
_cell_volume 1147.035927
_symmetry_space_group_name_H-M "P 21/M"
_symmetry_group_IT_number 11
_symmetry_cell_setting 'monoclinic'
loop_
_space_group_symop_operation_xyz
x,y,z
-x,1/2+y,-z
-x,-y,-z
x,1/2-y,z
loop_
_atom_site_type_symbol
_atom_site_label
_atom_site_fract_x
_atom_site_fract_y
_atom_site_fract_z
Si Si1 0.850548 0.155065 0.511876
Si Si2 0.097676 0.424228 0.500890
Si Si3 0.168038 0.471050 0.196361
Si Si4 0.291781 0.850900 0.841090
Si Si5 0.713821 0.078006 0.348265
Si Si6 0.659078 0.845351 0.276477
O O1 0.861223 0.250000 0.480706
O O2 0.539874 0.117598 0.675358
O O3 0.900057 0.146276 0.582217
O O4 0.097401 0.106666 0.302987
O O5 0.428963 0.393332 0.289936
O O6 0.000000 0.500000 0.500000
O O7 0.022010 0.453852 0.643837
O O8 0.028519 0.445356 0.192645
O O9 0.500000 0.500000 0.000000
O O10 0.327711 0.750000 0.817959
O O11 0.269655 0.887804 0.758315
O O12 0.987825 0.877483 0.077882
O O13 0.548475 0.145533 0.511059
O O14 0.500000 0.000000 0.500000
O O15 0.705328 0.750000 0.225895
#
# Coordination Sequence:
#
# PCOD9165451 Si02
#       6
#     4   4   4   4   4   4
#     4   9  19  39  62  85 119 161 210 260 309 374
#     4  10  21  39  60  87 121 160 205 255 307 376
#     4  10  22  39  59  89 127 162 205 253 314 375
#     4  11  23  41  66  94 124 165 212 264 321 375
#     4  11  22  39  61  92 125 161 205 259 310 374
#     4   9  21  40  63  91 122 161 206 260 321 372
#
# _framework density 20.923494000000002
#
# number of rings (size 3 to 8) (size 9 to 14) (size 15 to 20)
#    0.000    2.000    1.667    1.000    2.333    4.000 
#    0.000    1.667    0.000    0.000    0.000    0.000 
#    0.000    0.000    0.000    0.000    0.000    0.000 
#
# Total GULP energy -133674.515661 kJ/mol
# GULP energy per Si atom -5569.771486 kJ/mol
# Density = 2.087587 g / cm^3
# Si number density = 20.923494 Si / 1000 Ang^3
#
#
#
# Elastic Constant Matrix: (Units=GPa)
#
#
# Indices 1 2 3 4 5 6 
#
# 1 81.8512 12.9004 16.5029 0.0000 -23.3908 0.0000
# 2 12.9004 72.4082 29.1440 0.0000 -16.3674 0.0000
# 3 16.5029 29.1440 105.8770 0.0000 -38.7745 0.0000
# 4 0.0000 0.0000 0.0000 31.4347 0.0000 -3.3730
# 5 -23.3908 -16.3674 -38.7745 0.0000 32.4317 0.0000
# 6 0.0000 0.0000 0.0000 -3.3730 0.0000 31.9192
#
#
#
# Elastic Compliance Matrix: (Units=1/GPa)
#
#
# Indices 1 2 3 4 5 6 
#
# 1 0.015965 -0.000750 0.003195 0.000000 0.014957 0.000000
# 2 -0.000750 0.016008 -0.002720 0.000000 0.004286 0.000000
# 3 0.003195 -0.002720 0.017854 0.000000 0.022278 0.000000
# 4 0.000000 0.000000 0.000000 0.032177 0.000000 0.003400
# 5 0.014957 0.004286 0.022278 0.000000 0.070419 0.000000
# 6 0.000000 0.000000 0.000000 0.003400 0.000000 0.031688
#
#
# Mechanical properties :
#
#
# Convention : Reuss Voigt Hill
#
# Bulk Modulus (GPa) = 20.29263 41.91456 31.10359
# Shear Modulus (GPa) = 24.86496 32.59642 28.73069
#
# Velocity S-wave (km/s) = 3.45102 3.95129 3.70960
# Velocity P-wave (km/s) = 5.05954 6.39474 5.76592
#
# Compressibility (1/GPa) = 0.04927898
#
# Stress axis : x y z
#
# Youngs Moduli (GPa) = 62.63558 62.46981 56.00934
#
# Poissons Ratio (x) = 0.04683 -0.17897
# Poissons Ratio (y) = 0.04696 0.15233
# Poissons Ratio (z) = -0.20014 0.16990
#
# Static dielectric constant tensor:
#      x y z
#    x 1.843290 0.000000 -0.018320 
#    y 0.000000 1.884040 0.000000 
#    z -0.018320 0.000000 1.782410 
# 
# From -- ./inp_files/59598.got.cif
#   From: 2010.05.17/outbox.cif.g08.bks.cpg/sg11_30_cif.got.tgz:59598.got - 2010.06.03 12:22:45.
