data_PCOD9165472
_publ_section_title
;
Structure prediction by ZEFSAII (Michael W. Deem and Ramdas Pophale) SiO2 
 PCOD9165472
Probable space group: P 21/M
;
_chemical_formula_sum "Si O2"
_cell_formula_units_Z 32
_cell_length_a 11.808280
_cell_length_b 11.197268
_cell_length_c 12.594831
_cell_angle_alpha 90.000000
_cell_angle_beta 72.776809
_cell_angle_gamma 90.000000
_cell_volume 1590.620397
_symmetry_space_group_name_H-M "P 21/M"
_symmetry_group_IT_number 11
_symmetry_cell_setting 'monoclinic'
loop_
_space_group_symop_operation_xyz
x,y,z
-x,1/2+y,-z
-x,-y,-z
x,1/2-y,z
loop_
_atom_site_type_symbol
_atom_site_label
_atom_site_fract_x
_atom_site_fract_y
_atom_site_fract_z
Si Si1 0.325349 0.620913 0.291470
Si Si2 0.799215 0.876918 0.378857
Si Si3 0.572669 0.120374 0.974067
Si Si4 0.318843 0.616804 0.827187
Si Si5 0.454354 0.051812 0.626000
Si Si6 0.816828 0.880956 0.626265
Si Si7 0.961332 0.386151 0.078565
Si Si8 0.049961 0.884452 0.688346
O O1 0.264466 0.750000 0.328851
O O2 0.368493 0.622752 0.157750
O O3 0.435078 0.612170 0.344085
O O4 0.249702 0.500826 0.321663
O O5 0.855227 0.750000 0.326212
O O6 0.799224 0.874889 0.505703
O O7 0.665483 0.879238 0.372385
O O8 0.864698 0.001362 0.336253
O O9 0.508941 0.250000 0.002400
O O10 0.655513 0.111298 0.054350
O O11 0.500000 0.000000 0.000000
O O12 0.344707 0.750000 0.783025
O O13 0.402047 0.536312 0.731220
O O14 0.178449 0.598322 0.858423
O O15 0.500000 0.000000 0.500000
O O16 0.776049 0.750000 0.680865
O O17 0.953792 0.892822 0.622025
O O18 0.978475 0.250000 0.030062
O O19 0.018692 0.389122 0.179762
O O20 0.000000 0.500000 0.000000
O O21 0.105405 0.750000 0.667615
#
# Coordination Sequence:
#
# PCOD9165472 Si02
#       8
#     4   4   4   4   4   4   4   4
#     4  11  24  40  61  93 128 163 212 268 317 374
#     4  11  23  40  62  93 126 161 210 265 317 377
#     4  10  21  39  61  86 116 157 204 253 306 366
#     4  10  22  41  66  90 123 170 216 258 317 389
#     4  12  23  41  64  94 132 175 215 262 319 381
#     4  10  23  42  62  88 124 165 210 259 313 382
#     4  10  22  41  63  93 123 158 207 259 318 382
#     4  10  22  42  65  89 122 164 212 259 315 386
#
# _framework density 20.117934999999999
#
# number of rings (size 3 to 8) (size 9 to 14) (size 15 to 20)
#    0.000    1.500    3.750    0.750    1.750    3.500 
#    0.000    0.625    0.000    0.000    0.000    0.000 
#    0.000    0.000    0.000    0.000    0.000    0.000 
#
# Total GULP energy -178152.888146 kJ/mol
# GULP energy per Si atom -5567.277755 kJ/mol
# Density = 2.007215 g / cm^3
# Si number density = 20.117935 Si / 1000 Ang^3
#
#
#
# Elastic Constant Matrix: (Units=GPa)
#
#
# Indices 1 2 3 4 5 6 
#
# 1 57.5485 46.5426 6.9039 0.0000 12.0018 0.0000
# 2 46.5426 213.0850 44.7570 0.0000 -13.6030 0.0000
# 3 6.9039 44.7570 79.2602 0.0000 14.1985 0.0000
# 4 0.0000 0.0000 0.0000 18.9635 0.0000 -0.6446
# 5 12.0018 -13.6030 14.1985 0.0000 16.1072 0.0000
# 6 0.0000 0.0000 0.0000 -0.6446 0.0000 21.8355
#
#
#
# Elastic Compliance Matrix: (Units=1/GPa)
#
#
# Indices 1 2 3 4 5 6 
#
# 1 0.039871 -0.015549 0.015416 0.000000 -0.056430 0.000000
# 2 -0.015549 0.012585 -0.011557 0.000000 0.032402 0.000000
# 3 0.015416 -0.011557 0.025657 0.000000 -0.043864 0.000000
# 4 0.000000 0.000000 0.000000 0.052786 0.000000 0.001558
# 5 -0.056430 0.032402 -0.043864 0.000000 0.170161 0.000000
# 6 0.000000 0.000000 0.000000 0.001558 0.000000 0.045843
#
#
# Mechanical properties :
#
#
# Convention : Reuss Voigt Hill
#
# Bulk Modulus (GPa) = 18.27006 60.70008 39.48507
# Shear Modulus (GPa) = 12.86910 28.16059 20.51484
#
# Velocity S-wave (km/s) = 2.53194 3.74542 3.19678
# Velocity P-wave (km/s) = 4.20105 6.99584 5.77021
#
# Compressibility (1/GPa) = 0.05473436
#
# Stress axis : x y z
#
# Youngs Moduli (GPa) = 25.08073 79.45889 38.97533
#
# Poissons Ratio (x) = 1.23553 -0.60085
# Poissons Ratio (y) = 0.38999 0.45042
# Poissons Ratio (z) = -0.38665 0.91827
#
# Static dielectric constant tensor:
#      x y z
#    x 1.685180 0.000000 -0.041550 
#    y 0.000000 1.789630 0.000000 
#    z -0.041550 0.000000 1.580230 
# 
# From -- ./inp_files/35053.got.cif
#   From: 2010.05.17/outbox.cif.g08.bks.cpg/sg11_18_cif.got.tgz:35053.got - 2010.06.03 12:22:45.
