data_PCOD9165004
_publ_section_title
;
Structure prediction by ZEFSAII (Michael W. Deem and Ramdas Pophale) SiO2 
 PCOD9165004
Probable space group: P 21/M
;
_chemical_formula_sum "Si O2"
_cell_formula_units_Z 28
_cell_length_a 8.198483
_cell_length_b 21.732690
_cell_length_c 7.659010
_cell_angle_alpha 90.000000
_cell_angle_beta 106.010327
_cell_angle_gamma 90.000000
_cell_volume 1311.712949
_symmetry_space_group_name_H-M "P 21/M"
_symmetry_group_IT_number 11
_symmetry_cell_setting 'monoclinic'
loop_
_space_group_symop_operation_xyz
x,y,z
-x,1/2+y,-z
-x,-y,-z
x,1/2-y,z
loop_
_atom_site_type_symbol
_atom_site_label
_atom_site_fract_x
_atom_site_fract_y
_atom_site_fract_z
Si Si1 0.183209 0.080719 0.823304
Si Si2 0.524169 0.652746 0.977743
Si Si3 0.899133 0.932660 0.794739
Si Si4 0.717098 0.050813 0.221995
Si Si5 0.642135 0.316871 0.727062
Si Si6 0.339739 0.318384 0.358951
Si Si7 0.178392 0.567213 0.366168
O O1 0.019407 0.081451 0.652999
O O2 0.293429 0.022227 0.800418
O O3 0.298031 0.140244 0.872596
O O4 0.115379 0.069531 0.999926
O O5 0.431376 0.588058 0.912387
O O6 0.562993 0.680213 0.799781
O O7 0.409114 0.685331 0.085716
O O8 0.792130 0.875059 0.688417
O O9 0.096303 0.931791 0.797669
O O10 0.821414 0.998386 0.712068
O O11 0.717276 0.067107 0.425436
O O12 0.719007 0.250000 0.701502
O O13 0.477041 0.324977 0.554107
O O14 0.755379 0.377097 0.731621
O O15 0.260597 0.250000 0.352950
#
# Coordination Sequence:
#
# PCOD9165004 Si02
#       7
#     4   4   4   4   4   4   4
#     4  10  21  37  60  94 126 157 203 254 303 367
#     4  11  22  40  64  91 122 161 206 248 309 359
#     4  10  21  38  64  89 125 162 204 252 306 359
#     4  11  21  37  61  94 127 161 199 258 304 360
#     4  11  24  42  64  88 124 165 203 254 307 362
#     4  10  23  43  61  92 125 158 205 254 305 364
#     4  11  22  39  62  92 126 160 208 249 304 366
#
# _framework density 21.346133999999999
#
# number of rings (size 3 to 8) (size 9 to 14) (size 15 to 20)
#    0.000    1.429    1.429    6.000    4.000    1.714 
#    0.000    8.571    0.000    0.000    0.000    0.000 
#    0.000    0.000    0.000    0.000    0.000    0.000 
#
# Total GULP energy -156399.221769 kJ/mol
# GULP energy per Si atom -5585.686492 kJ/mol
# Density = 2.129755 g / cm^3
# Si number density = 21.346134 Si / 1000 Ang^3
#
#
#
# Elastic Constant Matrix: (Units=GPa)
#
#
# Indices 1 2 3 4 5 6 
#
# 1 32.5067 32.2288 5.4424 0.0000 -3.9656 0.0000
# 2 32.2288 90.3084 15.4030 0.0000 11.3737 0.0000
# 3 5.4424 15.4030 62.2069 0.0000 5.0953 0.0000
# 4 0.0000 0.0000 0.0000 2.7516 0.0000 -14.9337
# 5 -3.9656 11.3737 5.0953 0.0000 36.5433 0.0000
# 6 0.0000 0.0000 0.0000 -14.9337 0.0000 -5.8795
#
#
#
# Elastic Compliance Matrix: (Units=1/GPa)
#
#
# Indices 1 2 3 4 5 6 
#
# 1 0.052182 -0.020031 -0.000587 0.000000 0.011979 0.000000
# 2 -0.020031 0.019642 -0.002460 0.000000 -0.007944 0.000000
# 3 -0.000587 -0.002460 0.016871 0.000000 -0.001650 0.000000
# 4 0.000000 0.000000 0.000000 0.024581 0.000000 -0.062434
# 5 0.011979 -0.007944 -0.001650 0.000000 0.031367 0.000000
# 6 0.000000 0.000000 0.000000 -0.062434 0.000000 -0.011504
#
#
# Mechanical properties :
#
#
# Convention : Reuss Voigt Hill
#
# Bulk Modulus (GPa) = 23.50782 32.35227 27.93004
# Shear Modulus (GPa) = 25.84301 15.47959 20.66130
#
# Velocity S-wave (km/s) = 3.48324 2.69582 3.11451
# Velocity P-wave (km/s) = 5.21669 4.98787 5.10356
#
# Compressibility (1/GPa) = 0.04253904
#
# Stress axis : x y z
#
# Youngs Moduli (GPa) = 19.16354 50.91148 59.27302
#
# Poissons Ratio (x) = 1.01982 0.03477
# Poissons Ratio (y) = 0.38387 0.14583
# Poissons Ratio (z) = 0.01124 0.12526
#
# Static dielectric constant tensor:
#      x y z
#    x 1.776990 0.000000 -0.012990 
#    y 0.000000 1.804210 0.000000 
#    z -0.012990 0.000000 1.761170 
# 
# From -- ./inp_files/14073.got.cif
#   From: 2010.05.17/outbox.cif.g08.bks.cpg/sg11_8_cif.got.tgz:14073.got - 2010.06.03 12:22:45.
