data_PCOD9165225
_publ_section_title
;
Structure prediction by ZEFSAII (Michael W. Deem and Ramdas Pophale) SiO2 
 PCOD9165225
Probable space group: P 21/M
;
_chemical_formula_sum "Si O2"
_cell_formula_units_Z 32
_cell_length_a 11.458404
_cell_length_b 22.301618
_cell_length_c 5.167051
_cell_angle_alpha 90.000000
_cell_angle_beta 96.678062
_cell_angle_gamma 90.000000
_cell_volume 1311.434577
_symmetry_space_group_name_H-M "P 21/M"
_symmetry_group_IT_number 11
_symmetry_cell_setting 'monoclinic'
loop_
_space_group_symop_operation_xyz
x,y,z
-x,1/2+y,-z
-x,-y,-z
x,1/2-y,z
loop_
_atom_site_type_symbol
_atom_site_label
_atom_site_fract_x
_atom_site_fract_y
_atom_site_fract_z
Si Si1 0.767974 0.905547 0.421409
Si Si2 0.432717 0.179717 0.599338
Si Si3 0.224656 0.818263 0.690024
Si Si4 0.026791 0.419849 0.188889
Si Si5 0.539534 0.125691 0.112780
Si Si6 0.811642 0.011006 0.030347
Si Si7 0.939129 0.317514 0.845420
Si Si8 0.405307 0.481273 0.262435
O O1 0.690548 0.848242 0.334550
O O2 0.895429 0.890527 0.568252
O O3 0.779154 0.955817 0.206436
O O4 0.686685 0.937142 0.618075
O O5 0.429303 0.250000 0.612416
O O6 0.464734 0.160141 0.316101
O O7 0.527387 0.154787 0.828498
O O8 0.273885 0.750000 0.661019
O O9 0.329279 0.865582 0.747105
O O10 0.150422 0.815518 0.934657
O O11 0.136963 0.830125 0.429404
O O12 0.893165 0.441161 0.196811
O O13 0.023011 0.372164 0.953522
O O14 0.098987 0.481396 0.153900
O O15 0.479160 0.060131 0.085062
O O16 0.687871 0.029653 0.872474
O O17 0.991158 0.250000 0.834204
O O18 0.500000 0.500000 0.500000
#
# Coordination Sequence:
#
# PCOD9165225 Si02
#       8
#     4   4   4   4   4   4   4   4
#     4  10  22  41  60  89 126 161 211 267 308 382
#     4  11  22  39  64  92 126 168 212 259 320 380
#     4  10  21  38  60  88 126 164 206 252 308 378
#     4  10  23  39  66  86 119 169 211 260 316 373
#     4  11  22  40  62  92 129 170 211 259 314 389
#     4  10  21  43  62  88 121 162 217 257 315 380
#     4  10  23  41  61  94 126 159 211 265 311 368
#     4  10  23  39  60  94 129 161 209 266 325 377
#
# _framework density 24.400756999999999
#
# number of rings (size 3 to 8) (size 9 to 14) (size 15 to 20)
#    0.000    1.750    1.250    2.250    3.500    3.000 
#    0.000    0.625    0.000    0.000    0.000    0.000 
#    0.000    0.000    0.000    0.000    0.000    0.000 
#
# Total GULP energy -178888.809789 kJ/mol
# GULP energy per Si atom -5590.275306 kJ/mol
# Density = 2.434522 g / cm^3
# Si number density = 24.400757 Si / 1000 Ang^3
#
#
#
# Elastic Constant Matrix: (Units=GPa)
#
#
# Indices 1 2 3 4 5 6 
#
# 1 106.0988 26.5011 40.4146 0.0000 40.1480 0.0000
# 2 26.5011 92.0286 16.9502 0.0000 18.5276 0.0000
# 3 40.4146 16.9502 110.7694 0.0000 27.8425 0.0000
# 4 0.0000 0.0000 0.0000 37.5222 0.0000 3.6578
# 5 40.1480 18.5276 27.8425 0.0000 50.8441 0.0000
# 6 0.0000 0.0000 0.0000 3.6578 0.0000 19.7783
#
#
#
# Elastic Compliance Matrix: (Units=1/GPa)
#
#
# Indices 1 2 3 4 5 6 
#
# 1 0.014383 -0.001791 -0.002647 0.000000 -0.009255 0.000000
# 2 -0.001791 0.012017 -0.000510 0.000000 -0.002685 0.000000
# 3 -0.002647 -0.000510 0.011016 0.000000 -0.003756 0.000000
# 4 0.000000 0.000000 0.000000 0.027140 0.000000 -0.005019
# 5 -0.009255 -0.002685 -0.003756 0.000000 0.030011 0.000000
# 6 0.000000 0.000000 0.000000 -0.005019 0.000000 0.051489
#
#
# Mechanical properties :
#
#
# Convention : Reuss Voigt Hill
#
# Bulk Modulus (GPa) = 36.34008 52.95874 44.64941
# Shear Modulus (GPa) = 30.27998 36.63098 33.45548
#
# Velocity S-wave (km/s) = 3.52653 3.87877 3.70683
# Velocity P-wave (km/s) = 5.61313 6.46611 6.05466
#
# Compressibility (1/GPa) = 0.02751782
#
# Stress axis : x y z
#
# Youngs Moduli (GPa) = 69.52637 83.21883 90.77844
#
# Poissons Ratio (x) = 0.14904 0.24032
# Poissons Ratio (y) = 0.12452 0.04634
# Poissons Ratio (z) = 0.18406 0.04248
#
# Static dielectric constant tensor:
#      x y z
#    x 1.977030 0.000000 -0.005990 
#    y 0.000000 2.037340 0.000000 
#    z -0.005990 0.000000 1.961610 
# 
# From -- ./inp_files/5505.got.cif
#   From: 2010.05.17/outbox.cif.g08.bks.cpg/sg11_3_cif.got.tgz:5505.got - 2010.06.03 12:22:45.
