data_PCOD9165337
_publ_section_title
;
Structure prediction by ZEFSAII (Michael W. Deem and Ramdas Pophale) SiO2 
 PCOD9165337
Probable space group: P 21/M
;
_chemical_formula_sum "Si O2"
_cell_formula_units_Z 28
_cell_length_a 8.462227
_cell_length_b 8.776925
_cell_length_c 25.048486
_cell_angle_alpha 90.000000
_cell_angle_beta 43.021506
_cell_angle_gamma 90.000000
_cell_volume 1269.306821
_symmetry_space_group_name_H-M "P 21/M"
_symmetry_group_IT_number 11
_symmetry_cell_setting 'monoclinic'
loop_
_space_group_symop_operation_xyz
x,y,z
-x,1/2+y,-z
-x,-y,-z
x,1/2-y,z
loop_
_atom_site_type_symbol
_atom_site_label
_atom_site_fract_x
_atom_site_fract_y
_atom_site_fract_z
Si Si1 0.814527 0.070919 0.752424
Si Si2 0.341734 0.928523 0.881189
Si Si3 0.415551 0.930994 0.465348
Si Si4 0.057432 0.932298 0.396412
Si Si5 0.954573 0.929115 0.829397
Si Si6 0.431491 0.066720 0.687369
Si Si7 0.868480 0.429398 0.956092
O O1 0.847745 0.250000 0.754452
O O2 0.950326 0.031656 0.664865
O O3 0.545371 0.032958 0.808718
O O4 0.882342 0.978426 0.787993
O O5 0.387078 0.750000 0.859769
O O6 0.094475 0.976400 0.918682
O O7 0.319367 0.951352 0.950840
O O8 0.427236 0.750000 0.466054
O O9 0.562039 0.975306 0.377002
O O10 0.500000 0.000000 0.500000
O O11 0.150097 0.982445 0.523298
O O12 0.027111 0.750000 0.409994
O O13 0.314199 0.970193 0.353211
O O14 0.930736 0.750000 0.842224
O O15 0.222513 0.981648 0.767608
O O16 0.812715 0.014554 0.910680
O O17 0.397783 0.250000 0.700493
O O18 0.924467 0.250000 0.941634
#
# Coordination Sequence:
#
# PCOD9165337 Si02
#       7
#     4   4   4   4   4   4   4
#     4  11  23  39  60  85 117 158 197 241 301 357
#     4  10  21  38  62  91 119 151 196 245 290 344
#     4  11  23  38  60  88 120 156 192 236 289 346
#     4  10  22  40  62  86 114 151 195 240 288 347
#     4  12  25  39  59  87 118 154 198 248 295 346
#     4  10  22  41  62  86 117 153 194 240 295 355
#     4  10  21  39  62  87 119 157 194 238 294 353
#
# _framework density 22.059284999999999
#
# number of rings (size 3 to 8) (size 9 to 14) (size 15 to 20)
#    0.000    1.429    0.000    5.143    0.000    9.714 
#    0.000    0.000    0.000    0.000    0.000    0.000 
#    0.000    0.000    0.000    0.000    0.000    0.000 
#
# Total GULP energy -156725.205737 kJ/mol
# GULP energy per Si atom -5597.328776 kJ/mol
# Density = 2.200908 g / cm^3
# Si number density = 22.059285 Si / 1000 Ang^3
#
#
#
# Elastic Constant Matrix: (Units=GPa)
#
#
# Indices 1 2 3 4 5 6 
#
# 1 58.5085 2.2480 -6.0608 0.0000 13.2306 0.0000
# 2 2.2480 39.0278 21.0073 0.0000 14.9615 0.0000
# 3 -6.0608 21.0073 71.9928 0.0000 15.2794 0.0000
# 4 0.0000 0.0000 0.0000 26.2248 0.0000 -4.4372
# 5 13.2306 14.9615 15.2794 0.0000 37.2002 0.0000
# 6 0.0000 0.0000 0.0000 -4.4372 0.0000 30.9223
#
#
#
# Elastic Compliance Matrix: (Units=1/GPa)
#
#
# Indices 1 2 3 4 5 6 
#
# 1 0.019311 0.000308 0.003308 0.000000 -0.008351 0.000000
# 2 0.000308 0.033732 -0.007575 0.000000 -0.010565 0.000000
# 3 0.003308 -0.007575 0.017508 0.000000 -0.005321 0.000000
# 4 0.000000 0.000000 0.000000 0.039081 0.000000 0.005608
# 5 -0.008351 -0.010565 -0.005321 0.000000 0.036286 0.000000
# 6 0.000000 0.000000 0.000000 0.005608 0.000000 0.033144
#
#
# Mechanical properties :
#
#
# Convention : Reuss Voigt Hill
#
# Bulk Modulus (GPa) = 15.96551 22.65757 19.31154
# Shear Modulus (GPa) = 24.05493 29.02511 26.54002
#
# Velocity S-wave (km/s) = 3.30580 3.63130 3.47237
# Velocity P-wave (km/s) = 4.67166 5.27971 4.98496
#
# Compressibility (1/GPa) = 0.06263502
#
# Stress axis : x y z
#
# Youngs Moduli (GPa) = 51.78469 29.64503 57.11533
#
# Poissons Ratio (x) = -0.00914 -0.18894
# Poissons Ratio (y) = -0.01597 0.43263
# Poissons Ratio (z) = -0.17131 0.22455
#
# Static dielectric constant tensor:
#      x y z
#    x 1.872150 0.000000 0.013140 
#    y 0.000000 1.716250 0.000000 
#    z 0.013140 0.000000 1.798300 
# 
# From -- ./inp_files/70824.got.cif
#   From: 2010.05.17/outbox.cif.g08.bks.cpg/sg11_36_cif.got.tgz:70824.got - 2010.06.03 12:22:45.
