data_PCOD9165136
_publ_section_title
;
Structure prediction by ZEFSAII (Michael W. Deem and Ramdas Pophale) SiO2 
 PCOD9165136
Probable space group: P 21/M
;
_chemical_formula_sum "Si O2"
_cell_formula_units_Z 26
_cell_length_a 10.475028
_cell_length_b 9.521412
_cell_length_c 12.323619
_cell_angle_alpha 90.000000
_cell_angle_beta 109.926235
_cell_angle_gamma 90.000000
_cell_volume 1155.536661
_symmetry_space_group_name_H-M "P 21/M"
_symmetry_group_IT_number 11
_symmetry_cell_setting 'monoclinic'
loop_
_space_group_symop_operation_xyz
x,y,z
-x,1/2+y,-z
-x,-y,-z
x,1/2-y,z
loop_
_atom_site_type_symbol
_atom_site_label
_atom_site_fract_x
_atom_site_fract_y
_atom_site_fract_z
Si Si1 0.416056 0.909007 0.660026
Si Si2 0.155574 0.591028 0.445605
Si Si3 0.326089 0.909776 0.270462
Si Si4 0.660768 0.486439 0.127229
Si Si5 0.464349 0.750000 0.033062
Si Si6 0.056013 0.591731 0.722846
Si Si7 0.894127 0.909155 0.900138
O O1 0.449634 0.750000 0.633754
O O2 0.269023 0.944343 0.567978
O O3 0.409098 0.914571 0.787844
O O4 0.530761 0.019199 0.660683
O O5 0.105282 0.750000 0.449350
O O6 0.238411 0.595260 0.355144
O O7 0.036206 0.480207 0.394594
O O8 0.346380 0.750000 0.233906
O O9 0.245028 0.006667 0.161949
O O10 0.581049 0.627435 0.081686
O O11 0.816526 0.502267 0.206443
O O12 0.647052 0.374263 0.027834
O O13 0.102053 0.750000 0.707484
O O14 0.962427 0.602912 0.801780
O O15 0.872979 0.750000 0.936387
O O16 0.000000 0.000000 0.000000
#
# Coordination Sequence:
#
# PCOD9165136 Si02
#       7
#     4   4   4   4   2   4   4
#     4  11  22  39  62  91 123 158 203 251 295 360
#     4   9  21  39  62  90 123 159 198 247 306 353
#     4  10  21  38  59  87 125 160 200 249 300 357
#     4  11  23  44  62  90 120 160 202 246 301 360
#     4  10  24  42  62  82 122 160 198 244 300 354
#     4  10  21  40  62  86 121 159 194 247 302 359
#     4  10  21  38  58  87 119 157 205 249 299 356
#
# _framework density 22.500367000000001
#
# number of rings (size 3 to 8) (size 9 to 14) (size 15 to 20)
#    0.000    1.846    1.538    1.385    2.154    4.923 
#    2.769    0.000    0.000    0.000    0.000    0.000 
#    0.000    0.000    0.000    0.000    0.000    0.000 
#
# Total GULP energy -144891.839770 kJ/mol
# GULP energy per Si atom -5572.763068 kJ/mol
# Density = 2.244916 g / cm^3
# Si number density = 22.500367 Si / 1000 Ang^3
#
#
#
# Elastic Constant Matrix: (Units=GPa)
#
#
# Indices 1 2 3 4 5 6 
#
# 1 34.8698 12.7664 19.6407 0.0000 17.8289 0.0000
# 2 12.7664 139.4330 63.8847 0.0000 27.8944 0.0000
# 3 19.6407 63.8847 92.4767 0.0000 22.7422 0.0000
# 4 0.0000 0.0000 0.0000 28.1903 0.0000 11.2641
# 5 17.8289 27.8944 22.7422 0.0000 38.8996 0.0000
# 6 0.0000 0.0000 0.0000 11.2641 0.0000 14.3282
#
#
#
# Elastic Compliance Matrix: (Units=1/GPa)
#
#
# Indices 1 2 3 4 5 6 
#
# 1 0.039549 0.002419 -0.006057 0.000000 -0.016320 0.000000
# 2 0.002419 0.011156 -0.006985 0.000000 -0.005025 0.000000
# 3 -0.006057 -0.006985 0.017531 0.000000 -0.002465 0.000000
# 4 0.000000 0.000000 0.000000 0.051720 0.000000 -0.040660
# 5 -0.016320 -0.005025 -0.002465 0.000000 0.038231 0.000000
# 6 0.000000 0.000000 0.000000 -0.040660 0.000000 0.101757
#
#
# Mechanical properties :
#
#
# Convention : Reuss Voigt Hill
#
# Bulk Modulus (GPa) = 21.28116 51.04034 36.16075
# Shear Modulus (GPa) = 16.84337 27.64947 22.24642
#
# Velocity S-wave (km/s) = 2.73899 3.50929 3.14779
# Velocity P-wave (km/s) = 4.41378 6.25729 5.41457
#
# Compressibility (1/GPa) = 0.04698992
#
# Stress axis : x y z
#
# Youngs Moduli (GPa) = 25.28540 89.63841 57.04082
#
# Poissons Ratio (x) = -0.21685 0.34551
# Poissons Ratio (y) = -0.06117 0.39842
# Poissons Ratio (z) = 0.15316 0.62610
#
# Static dielectric constant tensor:
#      x y z
#    x 1.862390 0.000000 -0.092350 
#    y 0.000000 1.791740 0.000000 
#    z -0.092350 0.000000 1.885240 
# 
# From -- ./inp_files/49054.got.cif
#   From: 2010.05.17/outbox.cif.g08.bks.cpg/sg11_25_cif.got.tgz:49054.got - 2010.06.03 12:22:45.
