data_PCOD9165866
_publ_section_title
;
Structure prediction by ZEFSAII (Michael W. Deem and Ramdas Pophale) SiO2 
 PCOD9165866
Probable space group: P 21/M
;
_chemical_formula_sum "Si O2"
_cell_formula_units_Z 30
_cell_length_a 11.801560
_cell_length_b 18.862792
_cell_length_c 14.614093
_cell_angle_alpha 90.000000
_cell_angle_beta 29.180204
_cell_angle_gamma 90.000000
_cell_volume 1586.147516
_symmetry_space_group_name_H-M "P 21/M"
_symmetry_group_IT_number 11
_symmetry_cell_setting 'monoclinic'
loop_
_space_group_symop_operation_xyz
x,y,z
-x,1/2+y,-z
-x,-y,-z
x,1/2-y,z
loop_
_atom_site_type_symbol
_atom_site_label
_atom_site_fract_x
_atom_site_fract_y
_atom_site_fract_z
Si Si1 0.065562 0.582468 0.340044
Si Si2 0.456841 0.369096 0.660356
Si Si3 0.720731 0.042511 0.628559
Si Si4 0.658439 0.070156 0.035065
Si Si5 0.892360 0.981930 0.173699
Si Si6 0.102335 0.250000 0.978477
Si Si7 0.290148 0.863804 0.689235
Si Si8 0.400100 0.165694 0.358584
O O1 0.921970 0.508011 0.444724
O O2 0.865864 0.639903 0.460558
O O3 0.168691 0.589609 0.369055
O O4 0.269353 0.582366 0.120926
O O5 0.598256 0.413038 0.636045
O O6 0.302354 0.423990 0.709473
O O7 0.616468 0.333478 0.471403
O O8 0.295658 0.312043 0.821710
O O9 0.528952 0.991799 0.812709
O O10 0.902695 0.048908 0.909111
O O11 0.545378 0.136281 0.169111
O O12 0.796102 0.057113 0.274681
O O13 0.000000 0.000000 0.000000
O O14 0.906420 0.312584 0.133499
O O15 0.482782 0.867895 0.633541
O O16 0.415365 0.250000 0.353974
#
# Coordination Sequence:
#
# PCOD9165866 Si02
#       8
#     4   4   4   4   4   2   4   4
#     4  10  22  39  65  90 116 159 203 250 307 346
#     4  12  24  40  64  90 126 165 197 252 308 360
#     4  10  21  41  64  91 120 151 206 257 293 360
#     4  11  20  38  63  93 122 154 195 255 307 353
#     4  12  19  37  63  93 124 156 197 254 304 362
#     4  12  24  40  56  88 126 162 202 240 300 372
#     4  12  23  40  62  91 125 161 201 246 309 368
#     4  11  23  39  57  85 125 158 204 247 288 365
#
# _framework density 18.913751999999999
#
# number of rings (size 3 to 8) (size 9 to 14) (size 15 to 20)
#    0.000    0.800    4.667    3.600    0.000    0.533 
#    1.200    0.000    2.933    0.000    0.000    0.000 
#    0.000    0.000    0.000    0.000    0.000    0.000 
#
# Total GULP energy -167048.731604 kJ/mol
# GULP energy per Si atom -5568.291053 kJ/mol
# Density = 1.887070 g / cm^3
# Si number density = 18.913752 Si / 1000 Ang^3
#
#
#
# Elastic Constant Matrix: (Units=GPa)
#
#
# Indices 1 2 3 4 5 6 
#
# 1 41.8974 1.3773 30.6380 0.0000 0.7704 0.0000
# 2 1.3773 63.9530 6.8948 0.0000 -5.0787 0.0000
# 3 30.6380 6.8948 85.0219 0.0000 7.1143 0.0000
# 4 0.0000 0.0000 0.0000 45.8998 0.0000 -13.0572
# 5 0.7704 -5.0787 7.1143 0.0000 26.7085 0.0000
# 6 0.0000 0.0000 0.0000 -13.0572 0.0000 5.1128
#
#
#
# Elastic Compliance Matrix: (Units=1/GPa)
#
#
# Indices 1 2 3 4 5 6 
#
# 1 0.032576 0.000784 -0.012004 0.000000 0.002407 0.000000
# 2 0.000784 0.016104 -0.001885 0.000000 0.003542 0.000000
# 3 -0.012004 -0.001885 0.016611 0.000000 -0.004437 0.000000
# 4 0.000000 0.000000 0.000000 0.079658 0.000000 0.203435
# 5 0.002407 0.003542 -0.004437 0.000000 0.039227 0.000000
# 6 0.000000 0.000000 0.000000 0.203435 0.000000 0.715133
#
#
# Mechanical properties :
#
#
# Convention : Reuss Voigt Hill
#
# Bulk Modulus (GPa) = 25.58744 29.85472 27.72108
# Shear Modulus (GPa) = 5.32739 25.67502 15.50120
#
# Velocity S-wave (km/s) = 1.68012 3.68840 2.86592
# Velocity P-wave (km/s) = 4.16192 5.82734 5.06357
#
# Compressibility (1/GPa) = 0.03908167
#
# Stress axis : x y z
#
# Youngs Moduli (GPa) = 30.69769 62.09614 60.19968
#
# Poissons Ratio (x) = -0.04867 0.72262
# Poissons Ratio (y) = -0.02406 0.11346
# Poissons Ratio (z) = 0.36849 0.11703
#
# Static dielectric constant tensor:
#      x y z
#    x 1.474770 0.000000 0.113630 
#    y 0.000000 1.648260 0.000000 
#    z 0.113630 0.000000 1.616500 
# 
# From -- ./inp_files/39919.got.cif
#   From: 2010.05.17/outbox.cif.g08.bks.cpg/sg11_20_cif.got.tgz:39919.got - 2010.06.03 12:22:45.
