data_PCOD9165231
_publ_section_title
;
Structure prediction by ZEFSAII (Michael W. Deem and Ramdas Pophale) SiO2 
 PCOD9165231
Probable space group: P 21/M
;
_chemical_formula_sum "Si O2"
_cell_formula_units_Z 24
_cell_length_a 9.538228
_cell_length_b 13.754608
_cell_length_c 7.052589
_cell_angle_alpha 90.000000
_cell_angle_beta 112.209278
_cell_angle_gamma 90.000000
_cell_volume 856.615785
_symmetry_space_group_name_H-M "P 21/M"
_symmetry_group_IT_number 11
_symmetry_cell_setting 'monoclinic'
loop_
_space_group_symop_operation_xyz
x,y,z
-x,1/2+y,-z
-x,-y,-z
x,1/2-y,z
loop_
_atom_site_type_symbol
_atom_site_label
_atom_site_fract_x
_atom_site_fract_y
_atom_site_fract_z
Si Si1 0.340438 0.139908 0.046023
Si Si2 0.103612 0.359504 0.411579
Si Si3 0.316851 0.639337 0.704316
Si Si4 0.557869 0.860424 0.342244
Si Si5 0.056027 0.570096 0.317070
Si Si6 0.750700 0.065443 0.913143
O O1 0.285170 0.250000 0.050001
O O2 0.503897 0.128359 0.232419
O O3 0.233450 0.049928 0.039766
O O4 0.388552 0.129906 0.849882
O O5 0.058813 0.250000 0.332899
O O6 0.283275 0.369714 0.467877
O O7 0.023225 0.454808 0.286179
O O8 0.062314 0.371259 0.615497
O O9 0.276826 0.750000 0.637433
O O10 0.207905 0.572935 0.526215
O O11 0.282178 0.619345 0.907070
O O12 0.505095 0.750000 0.344765
O O13 0.408490 0.924073 0.283713
O O14 0.115832 0.607110 0.147724
#
# Coordination Sequence:
#
# PCOD9165231 Si02
#       6
#     4   4   4   4   4   4
#     4   9  18  33  56  88 124 158 193 242 298 347
#     4  10  22  41  60  83 123 163 193 238 299 355
#     4  10  21  38  60  89 124 156 193 244 297 348
#     4   9  18  35  60  87 117 156 199 242 292 349
#     4  11  24  40  62  90 118 156 201 243 292 351
#     4  11  21  37  64  92 117 151 201 249 290 343
#
# _framework density 28.017227999999999
#
# number of rings (size 3 to 8) (size 9 to 14) (size 15 to 20)
#    0.000    2.000    0.000    6.000    0.000    6.000 
#    0.000   10.833    0.000    8.000    0.000    0.000 
#    0.000    0.000    0.000    0.000    0.000    0.000 
#
# Total GULP energy -134537.874972 kJ/mol
# GULP energy per Si atom -5605.744790 kJ/mol
# Density = 2.795346 g / cm^3
# Si number density = 28.017228 Si / 1000 Ang^3
#
#
#
# Elastic Constant Matrix: (Units=GPa)
#
#
# Indices 1 2 3 4 5 6 
#
# 1 148.6106 33.0175 15.9672 0.0000 -20.1175 0.0000
# 2 33.0175 124.6697 -7.6230 0.0000 -4.1406 0.0000
# 3 15.9672 -7.6230 73.3136 0.0000 -10.6190 0.0000
# 4 0.0000 0.0000 0.0000 19.1730 0.0000 12.5079
# 5 -20.1175 -4.1406 -10.6190 0.0000 53.5362 0.0000
# 6 0.0000 0.0000 0.0000 12.5079 0.0000 25.9437
#
#
#
# Elastic Compliance Matrix: (Units=1/GPa)
#
#
# Indices 1 2 3 4 5 6 
#
# 1 0.007676 -0.002046 -0.001534 0.000000 0.002422 0.000000
# 2 -0.002046 0.008653 0.001370 0.000000 0.000172 0.000000
# 3 -0.001534 0.001370 0.014464 0.000000 0.002399 0.000000
# 4 0.000000 0.000000 0.000000 0.076088 0.000000 -0.036683
# 5 0.002422 0.000172 0.002399 0.000000 0.020078 0.000000
# 6 0.000000 0.000000 0.000000 -0.036683 0.000000 0.056231
#
#
# Mechanical properties :
#
#
# Convention : Reuss Voigt Hill
#
# Bulk Modulus (GPa) = 37.91718 47.70188 42.80953
# Shear Modulus (GPa) = 25.45817 40.07938 32.76877
#
# Velocity S-wave (km/s) = 3.01767 3.78633 3.42364
# Velocity P-wave (km/s) = 5.06998 6.01481 5.56249
#
# Compressibility (1/GPa) = 0.02637327
#
# Stress axis : x y z
#
# Youngs Moduli (GPa) = 130.27092 115.57154 69.13720
#
# Poissons Ratio (x) = 0.23650 0.10604
# Poissons Ratio (y) = 0.26658 -0.09474
# Poissons Ratio (z) = 0.19981 -0.15837
#
# Static dielectric constant tensor:
#      x y z
#    x 2.114070 0.000000 0.039550 
#    y 0.000000 2.093200 0.000000 
#    z 0.039550 0.000000 2.264080 
# 
# From -- ./inp_files/17537.got.cif
#   From: 2010.05.17/outbox.cif.g08.bks.cpg/sg11_9_cif.got.tgz:17537.got - 2010.06.03 12:22:45.
