data_PCOD9165303
_publ_section_title
;
Structure prediction by ZEFSAII (Michael W. Deem and Ramdas Pophale) SiO2 
 PCOD9165303
Probable space group: P 21/M
;
_chemical_formula_sum "Si O2"
_cell_formula_units_Z 28
_cell_length_a 20.118375
_cell_length_b 14.881972
_cell_length_c 8.778609
_cell_angle_alpha 90.000000
_cell_angle_beta 147.152012
_cell_angle_gamma 90.000000
_cell_volume 1425.635186
_symmetry_space_group_name_H-M "P 21/M"
_symmetry_group_IT_number 11
_symmetry_cell_setting 'monoclinic'
loop_
_space_group_symop_operation_xyz
x,y,z
-x,1/2+y,-z
-x,-y,-z
x,1/2-y,z
loop_
_atom_site_type_symbol
_atom_site_label
_atom_site_fract_x
_atom_site_fract_y
_atom_site_fract_z
Si Si1 0.286468 0.538963 0.723837
Si Si2 0.107655 0.074150 0.177258
Si Si3 0.751758 0.640359 0.842279
Si Si4 0.466245 0.490585 0.613703
Si Si5 0.031941 0.654044 0.859378
Si Si6 0.694793 0.143349 0.539718
Si Si7 0.878052 0.968877 0.349757
O O1 0.226852 0.461788 0.499403
O O2 0.304238 0.619784 0.638504
O O3 0.192834 0.544101 0.687308
O O4 0.415027 0.517758 0.050606
O O5 0.151236 0.102648 0.094992
O O6 0.035351 0.157661 0.108733
O O7 0.000000 0.000000 0.000000
O O8 0.751616 0.750000 0.851664
O O9 0.621313 0.597071 0.543097
O O10 0.789274 0.588510 0.069994
O O11 0.500000 0.500000 0.500000
O O12 0.394846 0.578343 0.539574
O O13 0.045262 0.750000 0.810374
O O14 0.936907 0.597511 0.583522
O O15 0.168547 0.617911 0.139758
O O16 0.674677 0.250000 0.523489
O O17 0.000000 0.000000 0.500000
#
# Coordination Sequence:
#
# PCOD9165303 Si02
#       7
#     4   4   4   4   4   4   4
#     4  11  23  42  70  93 126 179 221 276 334 407
#     4  11  20  40  67  94 132 165 216 271 344 394
#     4  12  25  42  68 101 137 180 233 282 334 407
#     4  12  25  47  67  93 135 179 227 283 345 398
#     4  10  21  38  61  93 130 162 207 266 327 399
#     4  11  24  44  69 100 131 174 228 278 333 403
#     4  11  23  40  67  95 134 175 217 270 344 398
#
# _framework density 19.640367999999999
#
# number of rings (size 3 to 8) (size 9 to 14) (size 15 to 20)
#    0.000    0.857    4.286    3.857    0.000    1.143 
#    0.000    1.429    0.000    0.000    0.000    0.000 
#    0.000    0.000    0.000    0.000    0.000    0.000 
#
# Total GULP energy -155940.085996 kJ/mol
# GULP energy per Si atom -5569.288786 kJ/mol
# Density = 1.959567 g / cm^3
# Si number density = 19.640368 Si / 1000 Ang^3
#
#
#
# Elastic Constant Matrix: (Units=GPa)
#
#
# Indices 1 2 3 4 5 6 
#
# 1 115.1941 39.9109 20.5335 0.0000 3.1234 0.0000
# 2 39.9109 107.0090 30.3785 0.0000 3.6687 0.0000
# 3 20.5335 30.3785 132.8348 0.0000 4.5837 0.0000
# 4 0.0000 0.0000 0.0000 17.0675 0.0000 -3.5475
# 5 3.1234 3.6687 4.5837 0.0000 27.8909 0.0000
# 6 0.0000 0.0000 0.0000 -3.5475 0.0000 9.6741
#
#
#
# Elastic Compliance Matrix: (Units=1/GPa)
#
#
# Indices 1 2 3 4 5 6 
#
# 1 0.010046 -0.003521 -0.000729 0.000000 -0.000542 0.000000
# 2 -0.003521 0.011253 -0.002003 0.000000 -0.000757 0.000000
# 3 -0.000729 -0.002003 0.008133 0.000000 -0.000992 0.000000
# 4 0.000000 0.000000 0.000000 0.063425 0.000000 0.023258
# 5 -0.000542 -0.000757 -0.000992 0.000000 0.036177 0.000000
# 6 0.000000 0.000000 0.000000 0.023258 0.000000 0.111898
#
#
# Mechanical properties :
#
#
# Convention : Reuss Voigt Hill
#
# Bulk Modulus (GPa) = 59.08285 59.63153 59.35719
# Shear Modulus (GPa) = 19.29907 28.54081 23.91994
#
# Velocity S-wave (km/s) = 3.13808 3.81618 3.49362
# Velocity P-wave (km/s) = 6.57858 7.06012 6.82360
#
# Compressibility (1/GPa) = 0.01692539
#
# Stress axis : x y z
#
# Youngs Moduli (GPa) = 99.54620 88.86612 122.95408
#
# Poissons Ratio (x) = 0.31291 0.08962
# Poissons Ratio (y) = 0.35052 0.24628
# Poissons Ratio (z) = 0.07256 0.17800
#
# Static dielectric constant tensor:
#      x y z
#    x 1.644900 0.000000 0.035010 
#    y 0.000000 1.941060 0.000000 
#    z 0.035010 0.000000 1.673060 
# 
# From -- ./inp_files/26931.got.cif
#   From: 2010.05.17/outbox.cif.g08.bks.cpg/sg11_14_cif.got.tgz:26931.got - 2010.06.03 12:22:45.
