data_PCOD9165804
_publ_section_title
;
Structure prediction by ZEFSAII (Michael W. Deem and Ramdas Pophale) SiO2 
 PCOD9165804
Probable space group: P 21/M
;
_chemical_formula_sum "Si O2"
_cell_formula_units_Z 26
_cell_length_a 22.418389
_cell_length_b 8.555408
_cell_length_c 8.703811
_cell_angle_alpha 90.000000
_cell_angle_beta 132.090143
_cell_angle_gamma 90.000000
_cell_volume 1238.830363
_symmetry_space_group_name_H-M "P 21/M"
_symmetry_group_IT_number 11
_symmetry_cell_setting 'monoclinic'
loop_
_space_group_symop_operation_xyz
x,y,z
-x,1/2+y,-z
-x,-y,-z
x,1/2-y,z
loop_
_atom_site_type_symbol
_atom_site_label
_atom_site_fract_x
_atom_site_fract_y
_atom_site_fract_z
Si Si1 0.964935 0.750000 0.414129
Si Si2 0.292098 0.421454 0.379825
Si Si3 0.042791 0.750000 0.889065
Si Si4 0.272600 0.924097 0.889533
Si Si5 0.182236 0.436370 0.467471
Si Si6 0.849948 0.999438 0.076186
Si Si7 0.070520 0.750000 0.284064
Si Si8 0.410816 0.934825 0.351139
O O1 0.910431 0.899414 0.282744
O O2 0.990224 0.750000 0.637831
O O3 0.028666 0.750000 0.381204
O O4 0.324896 0.250000 0.470700
O O5 0.247777 0.483597 0.452727
O O6 0.361397 0.517844 0.417586
O O7 0.216945 0.408215 0.133939
O O8 0.098331 0.599230 0.954213
O O9 0.020540 0.750000 0.033399
O O10 0.284404 0.750000 0.840159
O O11 0.232667 0.048909 0.709846
O O12 0.205850 0.904612 0.906377
O O13 0.354083 0.982849 0.109974
O O14 0.157911 0.250000 0.401832
O O15 0.117919 0.581017 0.360793
O O16 0.414568 0.750000 0.350247
O O17 0.500000 0.000000 0.500000
#
# Coordination Sequence:
#
# PCOD9165804 Si02
#       8
#     2   4   2   4   4   4   2   4
#     4  12  28  46  60 100 133 179 235 294 359 422
#     4  10  21  40  66  91 127 171 224 273 323 410
#     4  12  24  44  68  90 131 176 223 286 372 404
#     4  10  21  40  69  94 130 178 227 275 335 406
#     4  11  24  42  69 101 129 176 234 281 341 412
#     4  11  22  43  62  91 124 173 228 277 339 413
#     4  12  26  48  72  94 144 177 230 306 355 410
#     4  10  22  38  66 102 137 174 216 269 336 404
#
# _framework density 20.987539000000002
#
# number of rings (size 3 to 8) (size 9 to 14) (size 15 to 20)
#    0.000    1.231    3.846    1.846    3.231    1.846 
#    4.154    0.769    0.000    0.000    0.000    0.000 
#    0.000    0.000    0.000    0.000    0.000    0.000 
#
# Total GULP energy -144860.427921 kJ/mol
# GULP energy per Si atom -5571.554920 kJ/mol
# Density = 2.093977 g / cm^3
# Si number density = 20.987539 Si / 1000 Ang^3
#
#
#
# Elastic Constant Matrix: (Units=GPa)
#
#
# Indices 1 2 3 4 5 6 
#
# 1 103.4517 24.1391 57.0215 0.0000 -1.9471 0.0000
# 2 24.1391 71.5745 27.9632 0.0000 8.7007 0.0000
# 3 57.0215 27.9632 89.9748 0.0000 -1.1713 0.0000
# 4 0.0000 0.0000 0.0000 29.0773 0.0000 -8.2321
# 5 -1.9471 8.7007 -1.1713 0.0000 26.1701 0.0000
# 6 0.0000 0.0000 0.0000 -8.2321 0.0000 -5.8985
#
#
#
# Elastic Compliance Matrix: (Units=1/GPa)
#
#
# Indices 1 2 3 4 5 6 
#
# 1 0.015043 -0.001721 -0.008982 0.000000 0.001289 0.000000
# 2 -0.001721 0.016935 -0.004250 0.000000 -0.005949 0.000000
# 3 -0.008982 -0.004250 0.018148 0.000000 0.001557 0.000000
# 4 0.000000 0.000000 0.000000 0.024651 0.000000 -0.034404
# 5 0.001289 -0.005949 0.001557 0.000000 0.040355 0.000000
# 6 0.000000 0.000000 0.000000 -0.034404 0.000000 -0.121521
#
#
# Mechanical properties :
#
#
# Convention : Reuss Voigt Hill
#
# Bulk Modulus (GPa) = 49.45563 53.69429 51.57496
# Shear Modulus (GPa) = 165.25203 20.26161 92.75682
#
# Velocity S-wave (km/s) = 8.88308 3.11048 6.65523
# Velocity P-wave (km/s) = 11.35022 6.20802 9.14787
#
# Compressibility (1/GPa) = 0.02022014
#
# Stress axis : x y z
#
# Youngs Moduli (GPa) = 66.47685 59.04761 55.10381
#
# Poissons Ratio (x) = 0.10162 0.49493
# Poissons Ratio (y) = 0.11441 0.23420
# Poissons Ratio (z) = 0.59708 0.25096
#
# Static dielectric constant tensor:
#      x y z
#    x 1.855970 0.000000 -0.018420 
#    y 0.000000 1.842890 0.000000 
#    z -0.018420 0.000000 1.813310 
# 
# From -- ./inp_files/26210.got.cif
#   From: 2010.05.17/outbox.cif.g08.bks.cpg/sg11_14_cif.got.tgz:26210.got - 2010.06.03 12:22:45.
