data_PCOD9165586
_publ_section_title
;
Structure prediction by ZEFSAII (Michael W. Deem and Ramdas Pophale) SiO2 
 PCOD9165586
Probable space group: P 21/M
;
_chemical_formula_sum "Si O2"
_cell_formula_units_Z 32
_cell_length_a 22.610536
_cell_length_b 8.202020
_cell_length_c 15.148320
_cell_angle_alpha 90.000000
_cell_angle_beta 147.673285
_cell_angle_gamma 90.000000
_cell_volume 1502.256278
_symmetry_space_group_name_H-M "P 21/M"
_symmetry_group_IT_number 11
_symmetry_cell_setting 'monoclinic'
loop_
_space_group_symop_operation_xyz
x,y,z
-x,1/2+y,-z
-x,-y,-z
x,1/2-y,z
loop_
_atom_site_type_symbol
_atom_site_label
_atom_site_fract_x
_atom_site_fract_y
_atom_site_fract_z
Si Si1 0.627184 0.945774 0.663440
Si Si2 0.265648 0.937967 0.019744
Si Si3 0.210867 0.556910 0.611478
Si Si4 0.585603 0.445839 0.249033
Si Si5 0.048621 0.445775 0.154673
Si Si6 0.298720 0.446554 0.435890
Si Si7 0.658023 0.940082 0.066079
Si Si8 0.974503 0.943121 0.247421
O O1 0.633415 0.750000 0.675370
O O2 0.682913 0.000126 0.641610
O O3 0.500000 0.000000 0.500000
O O4 0.686327 0.015430 0.824280
O O5 0.290352 0.750000 0.033028
O O6 0.319498 0.040446 0.009066
O O7 0.134545 0.969012 0.855938
O O8 0.205269 0.750000 0.586486
O O9 0.311303 0.489174 0.678094
O O10 0.089508 0.493055 0.434322
O O11 0.248906 0.528023 0.759138
O O12 0.582515 0.250000 0.235818
O O13 0.610849 0.486574 0.382521
O O14 0.464834 0.507954 0.069173
O O15 0.041582 0.250000 0.154243
O O16 0.177637 0.495351 0.317658
O O17 0.986489 0.527828 0.157808
O O18 0.000000 0.500000 0.000000
O O19 0.304300 0.250000 0.444129
O O20 0.661416 0.750000 0.094019
O O21 0.962729 0.750000 0.249968
#
# Coordination Sequence:
#
# PCOD9165586 Si02
#       8
#     4   4   4   4   4   4   4   4
#     4  11  23  41  63  92 129 170 216 264 315 373
#     4  12  26  44  65  91 126 169 217 266 318 381
#     4  10  22  41  65  94 127 164 206 259 322 382
#     4  10  21  39  63  94 128 163 206 257 314 376
#     4  11  22  37  59  89 122 161 208 255 309 371
#     4  10  22  37  58  88 122 160 202 250 306 368
#     4  11  24  41  65  94 125 164 211 264 320 382
#     4  11  23  42  66  91 126 166 208 264 320 378
#
# _framework density 21.301292
#
# number of rings (size 3 to 8) (size 9 to 14) (size 15 to 20)
#    0.000    1.250    1.250    4.500    0.000    7.500 
#    0.000    0.000    0.000    0.000    0.000    0.000 
#    0.000    0.000    0.000    0.000    0.000    0.000 
#
# Total GULP energy -179006.758839 kJ/mol
# GULP energy per Si atom -5593.961214 kJ/mol
# Density = 2.125281 g / cm^3
# Si number density = 21.301292 Si / 1000 Ang^3
#
#
#
# Elastic Constant Matrix: (Units=GPa)
#
#
# Indices 1 2 3 4 5 6 
#
# 1 57.4129 -9.1612 5.6864 0.0000 5.7371 0.0000
# 2 -9.1612 21.7005 1.3409 0.0000 5.2166 0.0000
# 3 5.6864 1.3409 107.8488 0.0000 6.2468 0.0000
# 4 0.0000 0.0000 0.0000 23.0341 0.0000 -6.0922
# 5 5.7371 5.2166 6.2468 0.0000 36.4210 0.0000
# 6 0.0000 0.0000 0.0000 -6.0922 0.0000 27.1795
#
#
#
# Elastic Compliance Matrix: (Units=1/GPa)
#
#
# Indices 1 2 3 4 5 6 
#
# 1 0.019407 0.009265 -0.000893 0.000000 -0.004231 0.000000
# 2 0.009265 0.052153 -0.000626 0.000000 -0.008822 0.000000
# 3 -0.000893 -0.000626 0.009407 0.000000 -0.001383 0.000000
# 4 0.000000 0.000000 0.000000 0.046150 0.000000 0.010344
# 5 -0.004231 -0.008822 -0.001383 0.000000 0.029624 0.000000
# 6 0.000000 0.000000 0.000000 0.010344 0.000000 0.039111
#
#
# Mechanical properties :
#
#
# Convention : Reuss Voigt Hill
#
# Bulk Modulus (GPa) = 10.36702 20.29935 15.33319
# Shear Modulus (GPa) = 23.52793 29.93332 26.73063
#
# Velocity S-wave (km/s) = 3.32705 3.75271 3.54628
# Velocity P-wave (km/s) = 4.43130 5.32235 4.89714
#
# Compressibility (1/GPa) = 0.09645971
#
# Stress axis : x y z
#
# Youngs Moduli (GPa) = 51.52664 19.17442 106.30109
#
# Poissons Ratio (x) = -0.17766 0.09497
# Poissons Ratio (y) = -0.47742 0.06654
# Poissons Ratio (z) = 0.04603 0.01200
#
# Static dielectric constant tensor:
#      x y z
#    x 1.744870 0.000000 0.021320 
#    y 0.000000 1.743070 0.000000 
#    z 0.021320 0.000000 1.761330 
# 
# From -- ./inp_files/55675.got.cif
#   From: 2010.05.17/outbox.cif.g08.bks.cpg/sg11_28_cif.got.tgz:55675.got - 2010.06.03 12:22:45.
