data_PCOD9165755
_publ_section_title
;
Structure prediction by ZEFSAII (Michael W. Deem and Ramdas Pophale) SiO2 
 PCOD9165755
Probable space group: P 21/M
;
_chemical_formula_sum "Si O2"
_cell_formula_units_Z 20
_cell_length_a 18.916782
_cell_length_b 10.290589
_cell_length_c 14.504241
_cell_angle_alpha 90.000000
_cell_angle_beta 161.090131
_cell_angle_gamma 90.000000
_cell_volume 915.029783
_symmetry_space_group_name_H-M "P 21/M"
_symmetry_group_IT_number 11
_symmetry_cell_setting 'monoclinic'
loop_
_space_group_symop_operation_xyz
x,y,z
-x,1/2+y,-z
-x,-y,-z
x,1/2-y,z
loop_
_atom_site_type_symbol
_atom_site_label
_atom_site_fract_x
_atom_site_fract_y
_atom_site_fract_z
Si Si1 0.922245 0.250000 0.052168
Si Si2 0.641239 0.528926 0.908235
Si Si3 0.510068 0.397416 0.093947
Si Si4 0.037557 0.530391 0.252764
Si Si5 0.418120 0.750000 0.521437
Si Si6 0.480194 0.750000 0.297723
Si Si7 0.182076 0.250000 0.130708
O O1 0.810201 0.250000 0.813272
O O2 0.714343 0.250000 0.866087
O O3 0.046234 0.382787 0.228023
O O4 0.667245 0.576943 0.044580
O O5 0.467591 0.623212 0.643200
O O6 0.554931 0.382070 0.801069
O O7 0.857229 0.536597 0.112211
O O8 0.492217 0.250000 0.038279
O O9 0.739215 0.418567 0.429151
O O10 0.500000 0.500000 0.000000
O O11 0.951633 0.623219 0.065060
O O12 0.607265 0.750000 0.677472
O O13 0.708570 0.750000 0.634329
#
# Coordination Sequence:
#
# PCOD9165755 Si02
#       7
#     2   4   4   4   2   2   2
#     4   9  18  33  61  98 129 163 198 232 288 360
#     4  10  21  40  64  91 126 161 198 245 297 358
#     4  12  28  46  65  87 114 154 207 263 313 354
#     4  10  21  40  64  91 126 161 198 245 297 358
#     4   9  16  33  61  92 129 165 196 236 288 354
#     4   9  18  33  61  98 129 163 198 232 288 360
#     4   9  16  33  61  92 129 165 196 236 288 354
#
# _framework density 21.857213000000002
#
# number of rings (size 3 to 8) (size 9 to 14) (size 15 to 20)
#    0.000    2.000    2.000    1.200    2.800    5.600 
#    0.000    6.000    0.000    0.000    0.000    0.000 
#    0.000    0.000    0.000    0.000    0.000    0.000 
#
# Total GULP energy -111900.010410 kJ/mol
# GULP energy per Si atom -5595.000520 kJ/mol
# Density = 2.180747 g / cm^3
# Si number density = 21.857213 Si / 1000 Ang^3
#
#
#
# Elastic Constant Matrix: (Units=GPa)
#
#
# Indices 1 2 3 4 5 6 
#
# 1 100.1772 30.0364 8.4938 0.0000 -0.3170 0.0000
# 2 30.0364 184.5362 2.5108 0.0000 -12.1143 0.0000
# 3 8.4938 2.5108 28.8026 0.0000 9.8681 0.0000
# 4 0.0000 0.0000 0.0000 24.8575 0.0000 -14.7599
# 5 -0.3170 -12.1143 9.8681 0.0000 30.8616 0.0000
# 6 0.0000 0.0000 0.0000 -14.7599 0.0000 16.3828
#
#
#
# Elastic Compliance Matrix: (Units=1/GPa)
#
#
# Indices 1 2 3 4 5 6 
#
# 1 0.010757 -0.001677 -0.003188 0.000000 0.000472 0.000000
# 2 -0.001677 0.005873 -0.000900 0.000000 0.002576 0.000000
# 3 -0.003188 -0.000900 0.040283 0.000000 -0.013267 0.000000
# 4 0.000000 0.000000 0.000000 0.086507 0.000000 0.077937
# 5 0.000472 0.002576 -0.013267 0.000000 0.037661 0.000000
# 6 0.000000 0.000000 0.000000 0.077937 0.000000 0.131256
#
#
# Mechanical properties :
#
#
# Convention : Reuss Voigt Hill
#
# Bulk Modulus (GPa) = 22.03400 43.95530 32.99465
# Shear Modulus (GPa) = 14.74955 32.58538 23.66747
#
# Velocity S-wave (km/s) = 2.60054 3.86532 3.29420
# Velocity P-wave (km/s) = 4.37262 6.33046 5.44034
#
# Compressibility (1/GPa) = 0.04538441
#
# Stress axis : x y z
#
# Youngs Moduli (GPa) = 92.96497 170.26401 24.82439
#
# Poissons Ratio (x) = 0.28545 0.07913
# Poissons Ratio (y) = 0.15586 0.02235
# Poissons Ratio (z) = 0.29633 0.15327
#
# Static dielectric constant tensor:
#      x y z
#    x 1.850890 0.000000 0.057620 
#    y 0.000000 1.757360 0.000000 
#    z 0.057620 0.000000 1.765260 
# 
# From -- ./inp_files/16048.got.cif
#   From: 2010.05.17/outbox.cif.g08.bks.cpg/sg11_9_cif.got.tgz:16048.got - 2010.06.03 12:22:45.
