data_PCOD9165010
_publ_section_title
;
Structure prediction by ZEFSAII (Michael W. Deem and Ramdas Pophale) SiO2 
 PCOD9165010
Probable space group: P 21/M
;
_chemical_formula_sum "Si O2"
_cell_formula_units_Z 32
_cell_length_a 19.810619
_cell_length_b 14.492859
_cell_length_c 5.088725
_cell_angle_alpha 90.000000
_cell_angle_beta 94.548444
_cell_angle_gamma 90.000000
_cell_volume 1456.435266
_symmetry_space_group_name_H-M "P 21/M"
_symmetry_group_IT_number 11
_symmetry_cell_setting 'monoclinic'
loop_
_space_group_symop_operation_xyz
x,y,z
-x,1/2+y,-z
-x,-y,-z
x,1/2-y,z
loop_
_atom_site_type_symbol
_atom_site_label
_atom_site_fract_x
_atom_site_fract_y
_atom_site_fract_z
Si Si1 0.549037 0.499907 0.265532
Si Si2 0.959498 0.595203 0.487958
Si Si3 0.966875 0.349584 0.983754
Si Si4 0.664235 0.642758 0.464605
Si Si5 0.655527 0.356139 0.090999
Si Si6 0.243526 0.141830 0.008299
Si Si7 0.857119 0.500930 0.796548
Si Si8 0.257479 0.857566 0.376286
O O1 0.500000 0.500000 0.500000
O O2 0.601857 0.582072 0.344366
O O3 0.597007 0.413886 0.210200
O O4 0.500000 0.500000 0.000000
O O5 0.887070 0.566246 0.576813
O O6 0.000000 0.500000 0.500000
O O7 0.972964 0.638753 0.210443
O O8 0.998777 0.651224 0.723136
O O9 0.932689 0.250000 0.925277
O O10 0.916946 0.437581 0.939777
O O11 0.643601 0.750000 0.470302
O O12 0.698449 0.619159 0.755029
O O13 0.722896 0.633158 0.265555
O O14 0.633906 0.250000 0.058657
O O15 0.716669 0.361516 0.318117
O O16 0.683846 0.385955 0.815089
O O17 0.224237 0.250000 0.043667
O O18 0.182990 0.070118 0.026973
O O19 0.804698 0.425527 0.675496
O O20 0.241696 0.750000 0.310364
#
# Coordination Sequence:
#
# PCOD9165010 Si02
#       8
#     4   4   4   4   4   4   4   4
#     4  12  24  37  60  89 113 151 200 239 282 342
#     4  10  23  41  60  86 122 165 203 248 307 360
#     4  11  24  42  62  88 125 166 205 251 308 370
#     4  10  22  42  60  83 120 156 190 239 297 348
#     4  10  22  40  58  84 123 155 185 236 298 351
#     4  10  22  38  61  87 115 154 197 243 298 354
#     4  11  22  39  63  91 119 152 203 254 300 356
#     4  10  21  37  61  88 116 153 190 236 300 363
#
# _framework density 21.971457000000001
#
# number of rings (size 3 to 8) (size 9 to 14) (size 15 to 20)
#    0.000    1.500    0.000    5.250    0.000    8.000 
#    0.000    5.000    0.000    0.000    0.000    0.000 
#    0.000    0.000    0.000    0.000    0.000    0.000 
#
# Total GULP energy -178860.032872 kJ/mol
# GULP energy per Si atom -5589.376027 kJ/mol
# Density = 2.192145 g / cm^3
# Si number density = 21.971457 Si / 1000 Ang^3
#
#
#
# Elastic Constant Matrix: (Units=GPa)
#
#
# Indices 1 2 3 4 5 6 
#
# 1 74.6442 36.3751 -11.2171 0.0000 4.5395 0.0000
# 2 36.3751 95.3902 -11.1598 0.0000 7.1473 0.0000
# 3 -11.2171 -11.1598 62.8684 0.0000 11.3842 0.0000
# 4 0.0000 0.0000 0.0000 -2.4790 0.0000 0.4962
# 5 4.5395 7.1473 11.3842 0.0000 15.7596 0.0000
# 6 0.0000 0.0000 0.0000 0.4962 0.0000 -4.4928
#
#
#
# Elastic Compliance Matrix: (Units=1/GPa)
#
#
# Indices 1 2 3 4 5 6 
#
# 1 0.016895 -0.005805 0.002748 0.000000 -0.004219 0.000000
# 2 -0.005805 0.013453 0.002478 0.000000 -0.006219 0.000000
# 3 0.002748 0.002478 0.019769 0.000000 -0.016196 0.000000
# 4 0.000000 0.000000 0.000000 -0.412508 0.000000 -0.045556
# 5 -0.004219 -0.006219 -0.016196 0.000000 0.079189 0.000000
# 6 0.000000 0.000000 0.000000 -0.045556 0.000000 -0.227609
#
#
# Mechanical properties :
#
#
# Convention : Reuss Voigt Hill
#
# Bulk Modulus (GPa) = 20.42471 28.98881 24.70676
# Shear Modulus (GPa) = -10.13512 16.35120 3.10804
#
# Velocity S-wave (km/s) = -2.15009 2.73097 1.19065
# Velocity P-wave (km/s) = 1.77549 4.81318 3.62761
#
# Compressibility (1/GPa) = 0.04896031
#
# Stress axis : x y z
#
# Youngs Moduli (GPa) = 59.18806 74.33365 50.58339
#
# Poissons Ratio (x) = 0.43151 -0.13900
# Poissons Ratio (y) = 0.34359 -0.12537
# Poissons Ratio (z) = -0.16265 -0.18423
#
# Static dielectric constant tensor:
#      x y z
#    x 2.139660 0.000000 0.013990 
#    y 0.000000 2.085180 0.000000 
#    z 0.013990 0.000000 1.805700 
# 
# From -- ./inp_files/8106.got.cif
#   From: 2010.05.17/outbox.cif.g08.bks.cpg/sg11_5_cif.got.tgz:8106.got - 2010.06.03 12:22:45.
