data_PCOD9165229
_publ_section_title
;
Structure prediction by ZEFSAII (Michael W. Deem and Ramdas Pophale) SiO2 
 PCOD9165229
Probable space group: P 21/M
;
_chemical_formula_sum "Si O2"
_cell_formula_units_Z 24
_cell_length_a 17.856547
_cell_length_b 8.685002
_cell_length_c 14.475526
_cell_angle_alpha 90.000000
_cell_angle_beta 144.582741
_cell_angle_gamma 90.000000
_cell_volume 1300.993706
_symmetry_space_group_name_H-M "P 21/M"
_symmetry_group_IT_number 11
_symmetry_cell_setting 'monoclinic'
loop_
_space_group_symop_operation_xyz
x,y,z
-x,1/2+y,-z
-x,-y,-z
x,1/2-y,z
loop_
_atom_site_type_symbol
_atom_site_label
_atom_site_fract_x
_atom_site_fract_y
_atom_site_fract_z
Si Si1 0.878060 0.934808 0.933243
Si Si2 0.128230 0.563939 0.676415
Si Si3 0.617429 0.435225 0.176564
Si Si4 0.381692 0.434131 0.439373
Si Si5 0.778466 0.435404 0.024943
Si Si6 0.485352 0.934727 0.728538
O O1 0.887599 0.750000 0.949508
O O2 0.750649 0.974009 0.745348
O O3 0.855456 0.002164 0.013176
O O4 0.000000 0.000000 0.000000
O O5 0.122695 0.750000 0.670034
O O6 0.249399 0.512686 0.735504
O O7 0.000000 0.500000 0.500000
O O8 0.156987 0.518087 0.811923
O O9 0.615929 0.250000 0.170544
O O10 0.588652 0.479903 0.252505
O O11 0.500000 0.500000 0.000000
O O12 0.500000 0.500000 0.500000
O O13 0.390666 0.250000 0.453440
O O14 0.400810 0.505571 0.558839
O O15 0.774951 0.250000 0.017830
O O16 0.630519 0.496465 0.872631
O O17 0.497821 0.750000 0.736671
#
# Coordination Sequence:
#
# PCOD9165229 Si02
#       6
#     4   4   4   4   4   4
#     4  11  25  43  64  92 126 163 208 255 310 372
#     4  10  23  41  61  90 125 163 206 253 307 368
#     4  10  21  38  60  89 121 156 205 254 301 361
#     4  11  23  39  62  91 123 159 206 255 304 366
#     4  11  22  39  64  90 123 164 207 254 310 371
#     4  11  22  36  61  94 125 161 208 257 310 366
#
# _framework density 18.447438999999999
#
# number of rings (size 3 to 8) (size 9 to 14) (size 15 to 20)
#    0.000    1.333    3.333    2.000    0.000    6.000 
#    0.000    3.333    0.000    0.000    0.000    0.000 
#    0.000    0.000    0.000    0.000    0.000    0.000 
#
# Total GULP energy -134081.448213 kJ/mol
# GULP energy per Si atom -5586.727009 kJ/mol
# Density = 1.840545 g / cm^3
# Si number density = 18.447439 Si / 1000 Ang^3
#
#
#
# Elastic Constant Matrix: (Units=GPa)
#
#
# Indices 1 2 3 4 5 6 
#
# 1 213.2994 55.0003 110.1686 0.0000 -9.2229 0.0000
# 2 55.0003 38.2246 48.2706 0.0000 -2.8987 0.0000
# 3 110.1686 48.2706 145.3622 0.0000 -1.0157 0.0000
# 4 0.0000 0.0000 0.0000 35.7111 0.0000 -2.8042
# 5 -9.2229 -2.8987 -1.0157 0.0000 42.1027 0.0000
# 6 0.0000 0.0000 0.0000 -2.8042 0.0000 24.5219
#
#
#
# Elastic Compliance Matrix: (Units=1/GPa)
#
#
# Indices 1 2 3 4 5 6 
#
# 1 0.008806 -0.007153 -0.004289 0.000000 0.001333 0.000000
# 2 -0.007153 0.051183 -0.011564 0.000000 0.001678 0.000000
# 3 -0.004289 -0.011564 0.013960 0.000000 -0.001399 0.000000
# 4 0.000000 0.000000 0.000000 0.028256 0.000000 0.003231
# 5 0.001333 0.001678 -0.001399 0.000000 0.024125 0.000000
# 6 0.000000 0.000000 0.000000 0.003231 0.000000 0.041149
#
#
# Mechanical properties :
#
#
# Convention : Reuss Voigt Hill
#
# Bulk Modulus (GPa) = 35.79382 91.52947 63.66164
# Shear Modulus (GPa) = 22.44130 32.69691 27.56910
#
# Velocity S-wave (km/s) = 3.49162 4.21460 3.87003
# Velocity P-wave (km/s) = 5.97499 8.56784 7.38608
#
# Compressibility (1/GPa) = 0.02793778
#
# Stress axis : x y z
#
# Youngs Moduli (GPa) = 113.56484 19.53773 71.63149
#
# Poissons Ratio (x) = 0.13974 0.30724
# Poissons Ratio (y) = 0.81228 0.82834
# Poissons Ratio (z) = 0.48710 0.22593
#
# Static dielectric constant tensor:
#      x y z
#    x 1.597500 0.000000 0.002590 
#    y 0.000000 1.627540 0.000000 
#    z 0.002590 0.000000 1.595770 
# 
# From -- ./inp_files/53343.got.cif
#   From: 2010.05.17/outbox.cif.g08.bks.cpg/sg11_27_cif.got.tgz:53343.got - 2010.06.03 12:22:45.
