data_PCOD9165914
_publ_section_title
;
Structure prediction by ZEFSAII (Michael W. Deem and Ramdas Pophale) SiO2 
 PCOD9165914
Probable space group: P 21/M
;
_chemical_formula_sum "Si O2"
_cell_formula_units_Z 28
_cell_length_a 25.169310
_cell_length_b 9.292497
_cell_length_c 9.461380
_cell_angle_alpha 90.000000
_cell_angle_beta 139.715935
_cell_angle_gamma 90.000000
_cell_volume 1430.799924
_symmetry_space_group_name_H-M "P 21/M"
_symmetry_group_IT_number 11
_symmetry_cell_setting 'monoclinic'
loop_
_space_group_symop_operation_xyz
x,y,z
-x,1/2+y,-z
-x,-y,-z
x,1/2-y,z
loop_
_atom_site_type_symbol
_atom_site_label
_atom_site_fract_x
_atom_site_fract_y
_atom_site_fract_z
Si Si1 0.005268 0.078396 0.359364
Si Si2 0.159019 0.579988 0.157973
Si Si3 0.422814 0.918591 0.412387
Si Si4 0.323393 0.084650 0.438187
Si Si5 0.672452 0.083492 0.057769
Si Si6 0.145224 0.577464 0.462697
Si Si7 0.426837 0.086309 0.922969
O O1 0.017100 0.250000 0.402143
O O2 0.078074 0.009734 0.414264
O O3 0.000000 0.000000 0.500000
O O4 0.921411 0.057390 0.100093
O O5 0.180301 0.750000 0.197480
O O6 0.235164 0.489839 0.253444
O O7 0.143365 0.543265 0.291401
O O8 0.441495 0.750000 0.471709
O O9 0.500000 0.000000 0.500000
O O10 0.390798 0.996689 0.486842
O O11 0.347453 0.927512 0.147647
O O12 0.321204 0.250000 0.384508
O O13 0.352682 0.084038 0.659787
O O14 0.658962 0.250000 0.072963
O O15 0.764510 0.045781 0.290669
O O16 0.606701 0.987186 0.005281
O O17 0.131167 0.750000 0.448875
O O18 0.452015 0.250000 0.998705
O O19 0.500000 0.000000 0.000000
#
# Coordination Sequence:
#
# PCOD9165914 Si02
#       7
#     4   4   4   4   4   4   4
#     4  11  25  42  64  96 129 163 203 248 300 364
#     4  10  22  42  67  92 122 163 206 248 306 369
#     4  11  24  41  61  88 123 165 209 256 309 368
#     4  11  24  40  61  92 125 160 206 256 306 363
#     4  10  22  40  63  89 120 159 205 253 304 361
#     4  10  21  41  67  93 123 160 202 254 309 361
#     4  11  23  38  60  90 123 159 203 253 302 360
#
# _framework density 19.569472000000001
#
# number of rings (size 3 to 8) (size 9 to 14) (size 15 to 20)
#    0.000    1.429    1.429    3.000    2.000    8.571 
#    0.000    0.000    0.000    0.000    0.000    0.000 
#    0.000    0.000    0.000    0.000    0.000    0.000 
#
# Total GULP energy -156541.841673 kJ/mol
# GULP energy per Si atom -5590.780060 kJ/mol
# Density = 1.952493 g / cm^3
# Si number density = 19.569472 Si / 1000 Ang^3
#
#
#
# Elastic Constant Matrix: (Units=GPa)
#
#
# Indices 1 2 3 4 5 6 
#
# 1 97.6329 58.2478 23.2519 0.0000 2.1938 0.0000
# 2 58.2478 96.5180 37.1848 0.0000 7.9100 0.0000
# 3 23.2519 37.1848 93.9068 0.0000 -3.1848 0.0000
# 4 0.0000 0.0000 0.0000 29.8719 0.0000 2.5328
# 5 2.1938 7.9100 -3.1848 0.0000 31.2998 0.0000
# 6 0.0000 0.0000 0.0000 2.5328 0.0000 42.1970
#
#
#
# Elastic Compliance Matrix: (Units=1/GPa)
#
#
# Indices 1 2 3 4 5 6 
#
# 1 0.016061 -0.009780 -0.000059 0.000000 0.001340 0.000000
# 2 -0.009780 0.018598 -0.005096 0.000000 -0.004533 0.000000
# 3 -0.000059 -0.005096 0.012769 0.000000 0.002591 0.000000
# 4 0.000000 0.000000 0.000000 0.033648 0.000000 -0.002020
# 5 0.001340 -0.004533 0.002591 0.000000 0.033264 0.000000
# 6 0.000000 0.000000 0.000000 -0.002020 0.000000 0.023820
#
#
# Mechanical properties :
#
#
# Convention : Reuss Voigt Hill
#
# Bulk Modulus (GPa) = 56.95412 58.38076 57.66744
# Shear Modulus (GPa) = 28.75504 31.96529 30.36016
#
# Velocity S-wave (km/s) = 3.83741 4.04595 3.94306
# Velocity P-wave (km/s) = 6.98577 7.19191 7.08959
#
# Compressibility (1/GPa) = 0.01755799
#
# Stress axis : x y z
#
# Youngs Moduli (GPa) = 62.26268 53.76982 78.31238
#
# Poissons Ratio (x) = 0.52586 0.00460
# Poissons Ratio (y) = 0.60892 0.39912
# Poissons Ratio (z) = 0.00366 0.27404
#
# Static dielectric constant tensor:
#      x y z
#    x 1.629880 0.000000 -0.007930 
#    y 0.000000 1.665440 0.000000 
#    z -0.007930 0.000000 1.699500 
# 
# From -- ./inp_files/24078.got.cif
#   From: 2010.05.17/outbox.cif.g08.bks.cpg/sg11_13_cif.got.tgz:24078.got - 2010.06.03 12:22:45.
