data_PCOD9165951
_publ_section_title
;
Structure prediction by ZEFSAII (Michael W. Deem and Ramdas Pophale) SiO2 
 PCOD9165951
Probable space group: P 21/M
;
_chemical_formula_sum "Si O2"
_cell_formula_units_Z 20
_cell_length_a 5.438123
_cell_length_b 27.638411
_cell_length_c 4.855865
_cell_angle_alpha 90.000000
_cell_angle_beta 87.464412
_cell_angle_gamma 90.000000
_cell_volume 729.127185
_symmetry_space_group_name_H-M "P 21/M"
_symmetry_group_IT_number 11
_symmetry_cell_setting 'monoclinic'
loop_
_space_group_symop_operation_xyz
x,y,z
-x,1/2+y,-z
-x,-y,-z
x,1/2-y,z
loop_
_atom_site_type_symbol
_atom_site_label
_atom_site_fract_x
_atom_site_fract_y
_atom_site_fract_z
Si Si1 0.233917 0.404573 0.142726
Si Si2 0.892629 0.388497 0.687241
Si Si3 0.573842 0.169802 0.367830
Si Si4 0.686347 0.750000 0.911274
Si Si5 0.812117 0.250000 0.024748
Si Si6 0.741843 0.493287 0.676809
O O1 0.483920 0.380227 0.236286
O O2 0.262990 0.462433 0.107188
O O3 0.029936 0.396695 0.390431
O O4 0.116762 0.379915 0.882685
O O5 0.690503 0.346988 0.650174
O O6 0.760229 0.438418 0.779096
O O7 0.784043 0.202627 0.217559
O O8 0.346011 0.204539 0.293412
O O9 0.444641 0.750000 0.120224
O O10 0.917804 0.750000 0.095484
O O11 0.500000 0.500000 0.500000
O O12 0.000000 0.500000 0.500000
#
# Coordination Sequence:
#
# PCOD9165951 Si02
#       6
#     4   4   4   2   2   4
#     4  11  23  41  64  96 133 174 220 269 326 388
#     4  11  23  41  64  96 133 174 220 269 326 388
#     4   9  20  37  66  94 130 171 216 275 322 398
#     4   8  18  36  64  93 130 167 217 269 334 390
#     4   8  18  36  64  93 130 167 217 269 334 390
#     4  10  21  42  64  95 135 175 220 270 324 387
#
# _framework density 27.430053999999998
#
# number of rings (size 3 to 8) (size 9 to 14) (size 15 to 20)
#    1.200    0.800    2.000    1.800    0.000    1.600 
#    0.000    8.000    0.000   12.000    0.000    0.000 
#    0.000    0.000    0.000    0.000    0.000    0.000 
#
# Total GULP energy -111793.403990 kJ/mol
# GULP energy per Si atom -5589.670200 kJ/mol
# Density = 2.736762 g / cm^3
# Si number density = 27.430054 Si / 1000 Ang^3
#
#
#
# Elastic Constant Matrix: (Units=GPa)
#
#
# Indices 1 2 3 4 5 6 
#
# 1 192.9956 17.1024 38.0100 0.0000 33.9579 0.0000
# 2 17.1024 149.4242 8.2497 0.0000 -8.8512 0.0000
# 3 38.0100 8.2497 63.3111 0.0000 19.6517 0.0000
# 4 0.0000 0.0000 0.0000 27.1392 0.0000 -3.4478
# 5 33.9579 -8.8512 19.6517 0.0000 47.6193 0.0000
# 6 0.0000 0.0000 0.0000 -3.4478 0.0000 11.1096
#
#
#
# Elastic Compliance Matrix: (Units=1/GPa)
#
#
# Indices 1 2 3 4 5 6 
#
# 1 0.006408 -0.000805 -0.002612 0.000000 -0.003641 0.000000
# 2 -0.000805 0.006988 -0.001157 0.000000 0.002350 0.000000
# 3 -0.002612 -0.001157 0.019500 0.000000 -0.006400 0.000000
# 4 0.000000 0.000000 0.000000 0.038359 0.000000 0.011905
# 5 -0.003641 0.002350 -0.006400 0.000000 0.026674 0.000000
# 6 0.000000 0.000000 0.000000 0.011905 0.000000 0.093707
#
#
# Mechanical properties :
#
#
# Convention : Reuss Voigt Hill
#
# Bulk Modulus (GPa) = 42.10778 59.16168 50.63473
# Shear Modulus (GPa) = 23.95784 39.99822 31.97803
#
# Velocity S-wave (km/s) = 2.95857 3.82277 3.41809
# Velocity P-wave (km/s) = 5.20145 6.41091 5.83759
#
# Compressibility (1/GPa) = 0.02374858
#
# Stress axis : x y z
#
# Youngs Moduli (GPa) = 156.05740 143.11144 51.28096
#
# Poissons Ratio (x) = 0.11519 0.13395
# Poissons Ratio (y) = 0.12561 0.05932
# Poissons Ratio (z) = 0.40762 0.16555
#
# Static dielectric constant tensor:
#      x y z
#    x 2.205060 0.000000 -0.066460 
#    y 0.000000 2.192510 0.000000 
#    z -0.066460 0.000000 2.068200 
# 
# From -- ./inp_files/1022.got.cif
#   From: 2010.05.17/outbox.cif.g08.bks.cpg/sg11_1_cif.got.tgz:1022.got - 2010.06.03 12:22:45.
