data_PCOD9165567
_publ_section_title
;
Structure prediction by ZEFSAII (Michael W. Deem and Ramdas Pophale) SiO2 
 PCOD9165567
Probable space group: P 21/M
;
_chemical_formula_sum "Si O2"
_cell_formula_units_Z 28
_cell_length_a 15.788534
_cell_length_b 8.937727
_cell_length_c 11.855677
_cell_angle_alpha 90.000000
_cell_angle_beta 123.735588
_cell_angle_gamma 90.000000
_cell_volume 1391.280201
_symmetry_space_group_name_H-M "P 21/M"
_symmetry_group_IT_number 11
_symmetry_cell_setting 'monoclinic'
loop_
_space_group_symop_operation_xyz
x,y,z
-x,1/2+y,-z
-x,-y,-z
x,1/2-y,z
loop_
_atom_site_type_symbol
_atom_site_label
_atom_site_fract_x
_atom_site_fract_y
_atom_site_fract_z
Si Si1 0.835765 0.577113 0.371636
Si Si2 0.611791 0.429370 0.588549
Si Si3 0.530636 0.429708 0.902892
Si Si4 0.724399 0.069980 0.903215
Si Si5 0.349218 0.570645 0.633996
Si Si6 0.981727 0.078868 0.312032
Si Si7 0.054169 0.426658 0.933750
O O1 0.814455 0.750000 0.325945
O O2 0.738644 0.497997 0.353516
O O3 0.883285 0.486801 0.302855
O O4 0.924916 0.576537 0.531731
O O5 0.500000 0.500000 0.500000
O O6 0.600312 0.250000 0.585932
O O7 0.672551 0.475237 0.745521
O O8 0.666280 0.464652 0.509877
O O9 0.520089 0.250000 0.899419
O O10 0.644779 0.464301 0.944613
O O11 0.454078 0.497462 0.753672
O O12 0.500000 0.500000 0.000000
O O13 0.738857 0.250000 0.911604
O O14 0.831856 0.990050 0.994210
O O15 0.353272 0.750000 0.650041
O O16 0.963682 0.250000 0.263627
O O17 0.004388 0.976848 0.222032
O O18 0.055536 0.250000 0.946166
O O19 0.000000 0.500000 0.000000
#
# Coordination Sequence:
#
# PCOD9165567 Si02
#       7
#     4   4   4   4   4   4   4
#     4  10  22  40  65  95 125 163 208 259 316 377
#     4  10  21  39  63  91 123 160 202 251 306 365
#     4  11  24  42  65  92 130 171 214 262 314 380
#     4  10  23  44  66  92 126 169 212 262 320 375
#     4  11  23  38  62  95 128 164 206 257 314 376
#     4  10  22  43  67  93 126 163 209 262 318 379
#     4  12  27  45  67  94 127 169 216 266 320 380
#
# _framework density 20.125347999999999
#
# number of rings (size 3 to 8) (size 9 to 14) (size 15 to 20)
#    0.000    1.429    1.429    3.000    4.000    4.000 
#    0.000    0.000    0.000    0.000    0.000    0.000 
#    0.000    0.000    0.000    0.000    0.000    0.000 
#
# Total GULP energy -156592.077816 kJ/mol
# GULP energy per Si atom -5592.574208 kJ/mol
# Density = 2.007954 g / cm^3
# Si number density = 20.125348 Si / 1000 Ang^3
#
#
#
# Elastic Constant Matrix: (Units=GPa)
#
#
# Indices 1 2 3 4 5 6 
#
# 1 114.7882 57.5312 9.1103 0.0000 -9.9549 0.0000
# 2 57.5312 98.7397 19.4840 0.0000 -1.1577 0.0000
# 3 9.1103 19.4840 51.1812 0.0000 -13.7241 0.0000
# 4 0.0000 0.0000 0.0000 34.0675 0.0000 0.8645
# 5 -9.9549 -1.1577 -13.7241 0.0000 27.7478 0.0000
# 6 0.0000 0.0000 0.0000 0.8645 0.0000 34.4968
#
#
#
# Elastic Compliance Matrix: (Units=1/GPa)
#
#
# Indices 1 2 3 4 5 6 
#
# 1 0.012980 -0.007924 0.002152 0.000000 0.005390 0.000000
# 2 -0.007924 0.015871 -0.006014 0.000000 -0.005155 0.000000
# 3 0.002152 -0.006014 0.024885 0.000000 0.012829 0.000000
# 4 0.000000 0.000000 0.000000 0.029372 0.000000 -0.000736
# 5 0.005390 -0.005155 0.012829 0.000000 0.044103 0.000000
# 6 0.000000 0.000000 0.000000 -0.000736 0.000000 0.029007
#
#
# Mechanical properties :
#
#
# Convention : Reuss Voigt Hill
#
# Bulk Modulus (GPa) = 33.15299 48.55112 40.85206
# Shear Modulus (GPa) = 26.33734 31.16800 28.75267
#
# Velocity S-wave (km/s) = 3.62147 3.93961 3.78389
# Velocity P-wave (km/s) = 5.83059 6.69857 6.27959
#
# Compressibility (1/GPa) = 0.03016319
#
# Stress axis : x y z
#
# Youngs Moduli (GPa) = 77.04175 63.00826 40.18508
#
# Poissons Ratio (x) = 0.49929 -0.08646
# Poissons Ratio (y) = 0.61050 0.24166
# Poissons Ratio (z) = -0.16576 0.37891
#
# Static dielectric constant tensor:
#      x y z
#    x 1.690660 0.000000 -0.014210 
#    y 0.000000 1.673800 0.000000 
#    z -0.014210 0.000000 1.732270 
# 
# From -- ./inp_files/38408.got.cif
#   From: 2010.05.17/outbox.cif.g08.bks.cpg/sg11_20_cif.got.tgz:38408.got - 2010.06.03 12:22:45.
