data_PCOD9165996
_publ_section_title
;
Structure prediction by ZEFSAII (Michael W. Deem and Ramdas Pophale) SiO2 
 PCOD9165996
Probable space group: P 21/M
;
_chemical_formula_sum "Si O2"
_cell_formula_units_Z 28
_cell_length_a 5.388413
_cell_length_b 18.367290
_cell_length_c 11.936807
_cell_angle_alpha 90.000000
_cell_angle_beta 108.456375
_cell_angle_gamma 90.000000
_cell_volume 1120.627344
_symmetry_space_group_name_H-M "P 21/M"
_symmetry_group_IT_number 11
_symmetry_cell_setting 'monoclinic'
loop_
_space_group_symop_operation_xyz
x,y,z
-x,1/2+y,-z
-x,-y,-z
x,1/2-y,z
loop_
_atom_site_type_symbol
_atom_site_label
_atom_site_fract_x
_atom_site_fract_y
_atom_site_fract_z
Si Si1 0.857693 0.840997 0.541246
Si Si2 0.535097 0.024193 0.871046
Si Si3 0.391105 0.250000 0.220275
Si Si4 0.266665 0.664336 0.411901
Si Si5 0.202831 0.167106 0.816392
Si Si6 0.039770 0.620837 0.007147
Si Si7 0.699280 0.597154 0.741806
Si Si8 0.229850 0.750000 0.931880
O O1 0.874624 0.750000 0.565134
O O2 0.085726 0.862938 0.488123
O O3 0.857583 0.894689 0.649044
O O4 0.569164 0.857424 0.448112
O O5 0.361126 0.093796 0.814339
O O6 0.831843 0.053744 0.913240
O O7 0.514536 0.964299 0.769730
O O8 0.500000 0.000000 0.000000
O O9 0.452104 0.174319 0.287914
O O10 0.576541 0.250000 0.141282
O O11 0.076688 0.250000 0.151782
O O12 0.281371 0.750000 0.433245
O O13 0.087505 0.655240 0.277062
O O14 0.282132 0.250000 0.792070
O O15 0.160359 0.163180 0.943525
O O16 0.908720 0.600958 0.872204
O O17 0.264090 0.678491 0.009955
#
# Coordination Sequence:
#
# PCOD9165996 Si02
#       8
#     4   4   2   4   4   4   4   2
#     4  10  21  43  70 102 136 182 236 297 348 412
#     4  12  26  42  66 101 150 183 225 293 363 424
#     4  10  22  40  62  96 133 181 222 276 331 423
#     4   9  22  43  70  99 135 180 240 294 346 405
#     4  11  25  45  70 101 134 187 241 286 346 425
#     4  11  24  40  66  97 140 182 225 288 347 423
#     4  11  23  43  66 103 140 183 229 285 361 422
#     4  10  22  36  62  94 129 169 234 268 327 403
#
# _framework density 24.986006
#
# number of rings (size 3 to 8) (size 9 to 14) (size 15 to 20)
#    0.000    1.429    2.857    1.286    5.000    3.429 
#    0.000    1.429    0.000    0.000    0.000    0.000 
#    0.000    0.000    0.000    0.000    0.000    0.000 
#
# Total GULP energy -156214.024056 kJ/mol
# GULP energy per Si atom -5579.072288 kJ/mol
# Density = 2.492914 g / cm^3
# Si number density = 24.986006 Si / 1000 Ang^3
#
#
#
# Elastic Constant Matrix: (Units=GPa)
#
#
# Indices 1 2 3 4 5 6 
#
# 1 94.3525 23.5489 15.3917 0.0000 -1.4222 0.0000
# 2 23.5489 93.4804 24.0825 0.0000 3.4373 0.0000
# 3 15.3917 24.0825 58.7744 0.0000 9.9952 0.0000
# 4 0.0000 0.0000 0.0000 841.3527 0.0000 -277.1059
# 5 -1.4222 3.4373 9.9952 0.0000 42.9865 0.0000
# 6 0.0000 0.0000 0.0000 -277.1059 0.0000 117.9098
#
#
#
# Elastic Compliance Matrix: (Units=1/GPa)
#
#
# Indices 1 2 3 4 5 6 
#
# 1 0.011574 -0.002378 -0.002243 0.000000 0.001095 0.000000
# 2 -0.002378 0.012450 -0.004473 0.000000 -0.000034 0.000000
# 3 -0.002243 -0.004473 0.020184 0.000000 -0.004410 0.000000
# 4 0.000000 0.000000 0.000000 0.005260 0.000000 0.012362
# 5 0.001095 -0.000034 -0.004410 0.000000 0.024327 0.000000
# 6 0.000000 0.000000 0.000000 0.012362 0.000000 0.037533
#
#
# Mechanical properties :
#
#
# Convention : Reuss Voigt Hill
#
# Bulk Modulus (GPa) = 38.43013 41.40593 39.91803
# Shear Modulus (GPa) = 36.18186 212.68875 124.43530
#
# Velocity S-wave (km/s) = 3.80950 9.23623 7.06471
# Velocity P-wave (km/s) = 5.89608 11.41716 9.08612
#
# Compressibility (1/GPa) = 0.02602125
#
# Stress axis : x y z
#
# Youngs Moduli (GPa) = 86.39695 80.32095 49.54386
#
# Poissons Ratio (x) = 0.19102 0.11112
# Poissons Ratio (y) = 0.20547 0.22160
# Poissons Ratio (z) = 0.19377 0.35925
#
# Static dielectric constant tensor:
#      x y z
#    x 2.128000 0.000000 0.032580 
#    y 0.000000 2.205740 0.000000 
#    z 0.032580 0.000000 2.046350 
# 
# From -- ./inp_files/30036.got.cif
#   From: 2010.05.17/outbox.cif.g08.bks.cpg/sg11_16_cif.got.tgz:30036.got - 2010.06.03 12:22:45.
