data_PCOD9165589
_publ_section_title
;
Structure prediction by ZEFSAII (Michael W. Deem and Ramdas Pophale) SiO2 
 PCOD9165589
Probable space group: P 21/M
;
_chemical_formula_sum "Si O2"
_cell_formula_units_Z 20
_cell_length_a 5.230724
_cell_length_b 13.626682
_cell_length_c 13.687432
_cell_angle_alpha 90.000000
_cell_angle_beta 97.116163
_cell_angle_gamma 90.000000
_cell_volume 968.089684
_symmetry_space_group_name_H-M "P 21/M"
_symmetry_group_IT_number 11
_symmetry_cell_setting 'monoclinic'
loop_
_space_group_symop_operation_xyz
x,y,z
-x,1/2+y,-z
-x,-y,-z
x,1/2-y,z
loop_
_atom_site_type_symbol
_atom_site_label
_atom_site_fract_x
_atom_site_fract_y
_atom_site_fract_z
Si Si1 0.473212 0.859258 0.598137
Si Si2 0.828353 0.453578 0.576462
Si Si3 0.442633 0.250000 0.058144
Si Si4 0.099579 0.557967 0.202857
Si Si5 0.614015 0.430758 0.198936
Si Si6 0.098470 0.750000 0.070567
O O1 0.586205 0.750000 0.612146
O O2 0.318894 0.868826 0.489523
O O3 0.322306 0.883087 0.691528
O O4 0.660903 0.951860 0.599129
O O5 0.000000 0.500000 0.500000
O O6 0.940719 0.417004 0.683836
O O7 0.511878 0.345191 0.124971
O O8 0.631471 0.250000 0.973945
O O9 0.144492 0.250000 0.013983
O O10 0.869421 0.481943 0.169645
O O11 0.379827 0.508335 0.200256
O O12 0.080232 0.653584 0.136251
#
# Coordination Sequence:
#
# PCOD9165589 Si02
#       6
#     4   4   2   4   4   2
#     4  10  21  39  63  97 130 170 214 266 321 384
#     4  10  21  40  61  96 133 169 212 256 322 399
#     4  12  26  46  71  99 126 170 232 276 330 399
#     4  11  25  44  67  98 138 174 213 275 329 395
#     4  11  23  44  71  97 132 169 223 281 325 378
#     4  12  28  46  65  99 132 174 224 268 340 401
#
# _framework density 20.659243
#
# number of rings (size 3 to 8) (size 9 to 14) (size 15 to 20)
#    0.000    1.200    3.000    2.400    1.400    5.600 
#    1.800    0.000    0.000    0.000    0.000    0.000 
#    0.000    0.000    0.000    0.000    0.000    0.000 
#
# Total GULP energy -111627.277236 kJ/mol
# GULP energy per Si atom -5581.363862 kJ/mol
# Density = 2.061222 g / cm^3
# Si number density = 20.659243 Si / 1000 Ang^3
#
#
#
# Elastic Constant Matrix: (Units=GPa)
#
#
# Indices 1 2 3 4 5 6 
#
# 1 39.3156 -5.4363 -19.5709 0.0000 1.4347 0.0000
# 2 -5.4363 99.3418 31.2013 0.0000 3.3204 0.0000
# 3 -19.5709 31.2013 60.1652 0.0000 1.6445 0.0000
# 4 0.0000 0.0000 0.0000 32.4435 0.0000 -8.8302
# 5 1.4347 3.3204 1.6445 0.0000 34.5365 0.0000
# 6 0.0000 0.0000 0.0000 -8.8302 0.0000 16.4772
#
#
#
# Elastic Compliance Matrix: (Units=1/GPa)
#
#
# Indices 1 2 3 4 5 6 
#
# 1 0.030689 -0.001691 0.010904 0.000000 -0.001632 0.000000
# 2 -0.001691 0.012144 -0.006826 0.000000 -0.000772 0.000000
# 3 0.010904 -0.006826 0.023733 0.000000 -0.000927 0.000000
# 4 0.000000 0.000000 0.000000 0.036086 0.000000 0.019339
# 5 -0.001632 -0.000772 -0.000927 0.000000 0.029141 0.000000
# 6 0.000000 0.000000 0.000000 0.019339 0.000000 0.071054
#
#
# Mechanical properties :
#
#
# Convention : Reuss Voigt Hill
#
# Bulk Modulus (GPa) = 14.01746 23.46785 18.74265
# Shear Modulus (GPa) = 22.53741 29.53332 26.03536
#
# Velocity S-wave (km/s) = 3.30648 3.78503 3.55382
# Velocity P-wave (km/s) = 4.62351 5.52142 5.09230
#
# Compressibility (1/GPa) = 0.07133960
#
# Stress axis : x y z
#
# Youngs Moduli (GPa) = 32.58501 82.34789 42.13475
#
# Poissons Ratio (x) = 0.13924 -0.45944
# Poissons Ratio (y) = 0.05510 0.28763
# Poissons Ratio (z) = -0.35531 0.56215
#
# Static dielectric constant tensor:
#      x y z
#    x 1.791170 0.000000 -0.001950 
#    y 0.000000 1.734680 0.000000 
#    z -0.001950 0.000000 1.817860 
# 
# From -- ./inp_files/6150.got.cif
#   From: 2010.05.17/outbox.cif.g08.bks.cpg/sg11_4_cif.got.tgz:6150.got - 2010.06.03 12:22:45.
