data_PCOD9165478
_publ_section_title
;
Structure prediction by ZEFSAII (Michael W. Deem and Ramdas Pophale) SiO2 
 PCOD9165478
Probable space group: P 21/M
;
_chemical_formula_sum "Si O2"
_cell_formula_units_Z 28
_cell_length_a 26.036384
_cell_length_b 8.771620
_cell_length_c 9.636364
_cell_angle_alpha 90.000000
_cell_angle_beta 139.848546
_cell_angle_gamma 90.000000
_cell_volume 1419.075953
_symmetry_space_group_name_H-M "P 21/M"
_symmetry_group_IT_number 11
_symmetry_cell_setting 'monoclinic'
loop_
_space_group_symop_operation_xyz
x,y,z
-x,1/2+y,-z
-x,-y,-z
x,1/2-y,z
loop_
_atom_site_type_symbol
_atom_site_label
_atom_site_fract_x
_atom_site_fract_y
_atom_site_fract_z
Si Si1 0.576712 0.566024 0.579849
Si Si2 0.747449 0.067794 0.922129
Si Si3 0.771342 0.566114 0.665018
Si Si4 0.506947 0.429132 0.863989
Si Si5 0.331611 0.427052 0.806860
Si Si6 0.170450 0.070707 0.653042
Si Si7 0.915500 0.067215 0.780322
O O1 0.500000 0.500000 0.500000
O O2 0.579448 0.750000 0.600611
O O3 0.559259 0.523883 0.383344
O O4 0.661422 0.495786 0.793452
O O5 0.746780 0.250000 0.919900
O O6 0.813525 0.005854 0.165886
O O7 0.761752 0.003066 0.797305
O O8 0.777133 0.750000 0.684543
O O9 0.697605 0.531856 0.408754
O O10 0.848447 0.499273 0.745929
O O11 0.501033 0.250000 0.864979
O O12 0.500000 0.500000 0.000000
O O13 0.594452 0.474466 0.991293
O O14 0.356518 0.250000 0.858574
O O15 0.254207 0.441444 0.742687
O O16 0.151915 0.250000 0.628944
O O17 0.107715 0.989396 0.422249
O O18 0.915218 0.250000 0.785030
O O19 0.000000 0.000000 0.000000
#
# Coordination Sequence:
#
# PCOD9165478 Si02
#       7
#     4   4   4   4   4   4   4
#     4  11  24  40  56  79 112 154 200 249 302 358
#     4  12  24  38  58  87 119 155 199 248 299 355
#     4  10  21  39  61  87 119 158 198 241 294 351
#     4  11  23  35  51  75 105 141 187 239 292 343
#     4   9  19  35  56  79 106 142 189 237 286 343
#     4  10  21  39  62  87 116 154 192 233 286 346
#     4  11  22  40  66  96 126 156 192 235 283 344
#
# _framework density 19.731148999999998
#
# number of rings (size 3 to 8) (size 9 to 14) (size 15 to 20)
#    0.000    1.429    0.000    6.857    0.000   11.429 
#    0.000    0.714    0.000    0.000    0.000    0.000 
#    0.000    0.000    0.000    0.000    0.000    0.000 
#
# Total GULP energy -156558.814261 kJ/mol
# GULP energy per Si atom -5591.386224 kJ/mol
# Density = 1.968624 g / cm^3
# Si number density = 19.731149 Si / 1000 Ang^3
#
#
#
# Elastic Constant Matrix: (Units=GPa)
#
#
# Indices 1 2 3 4 5 6 
#
# 1 45.4292 21.6078 29.3383 0.0000 -11.7515 0.0000
# 2 21.6078 101.7738 58.5316 0.0000 -8.5157 0.0000
# 3 29.3383 58.5316 143.2597 0.0000 -11.2009 0.0000
# 4 0.0000 0.0000 0.0000 33.7613 0.0000 -0.0888
# 5 -11.7515 -8.5157 -11.2009 0.0000 35.9038 0.0000
# 6 0.0000 0.0000 0.0000 -0.0888 0.0000 31.4032
#
#
#
# Elastic Compliance Matrix: (Units=1/GPa)
#
#
# Indices 1 2 3 4 5 6 
#
# 1 0.027838 -0.003077 -0.003883 0.000000 0.007170 0.000000
# 2 -0.003077 0.013257 -0.004735 0.000000 0.000660 0.000000
# 3 -0.003883 -0.004735 0.009761 0.000000 0.000651 0.000000
# 4 0.000000 0.000000 0.000000 0.029620 0.000000 0.000084
# 5 0.007170 0.000660 0.000651 0.000000 0.030559 0.000000
# 6 0.000000 0.000000 0.000000 0.000084 0.000000 0.031844
#
#
# Mechanical properties :
#
#
# Convention : Reuss Voigt Hill
#
# Bulk Modulus (GPa) = 36.40804 56.60200 46.50502
# Shear Modulus (GPa) = 28.50216 32.27933 30.39074
#
# Velocity S-wave (km/s) = 3.80482 4.04909 3.92885
# Velocity P-wave (km/s) = 6.14771 7.11400 6.64843
#
# Compressibility (1/GPa) = 0.02746646
#
# Stress axis : x y z
#
# Youngs Moduli (GPa) = 35.92151 75.43020 102.44902
#
# Poissons Ratio (x) = 0.23211 0.39783
# Poissons Ratio (y) = 0.11054 0.48507
# Poissons Ratio (z) = 0.13949 0.35714
#
# Static dielectric constant tensor:
#      x y z
#    x 1.728730 0.000000 -0.054440 
#    y 0.000000 1.657910 0.000000 
#    z -0.054440 0.000000 1.787760 
# 
# From -- ./inp_files/28629.got.cif
#   From: 2010.05.17/outbox.cif.g08.bks.cpg/sg11_15_cif.got.tgz:28629.got - 2010.06.03 12:22:45.
