data_PCOD9165094
_publ_section_title
;
Structure prediction by ZEFSAII (Michael W. Deem and Ramdas Pophale) SiO2 
 PCOD9165094
Probable space group: P 21/M
;
_chemical_formula_sum "Si O2"
_cell_formula_units_Z 32
_cell_length_a 16.201181
_cell_length_b 8.724860
_cell_length_c 26.130005
_cell_angle_alpha 90.000000
_cell_angle_beta 150.253464
_cell_angle_gamma 90.000000
_cell_volume 1832.609339
_symmetry_space_group_name_H-M "P 21/M"
_symmetry_group_IT_number 11
_symmetry_cell_setting 'monoclinic'
loop_
_space_group_symop_operation_xyz
x,y,z
-x,1/2+y,-z
-x,-y,-z
x,1/2-y,z
loop_
_atom_site_type_symbol
_atom_site_label
_atom_site_fract_x
_atom_site_fract_y
_atom_site_fract_z
Si Si1 0.902491 0.564787 0.795055
Si Si2 0.475221 0.433667 0.226311
Si Si3 0.221689 0.433103 0.475551
Si Si4 0.016724 0.933103 0.270587
Si Si5 0.150306 0.934440 0.547852
Si Si6 0.728493 0.433667 0.977402
Si Si7 0.342944 0.934440 0.945398
Si Si8 0.580184 0.564787 0.687620
O O1 0.905066 0.750000 0.789796
O O2 0.902649 0.488541 0.739461
O O3 0.743175 0.524212 0.743175
O O4 0.076894 0.520903 0.915828
O O5 0.467680 0.250000 0.219392
O O6 0.670241 0.477611 0.331366
O O7 0.371938 0.500000 0.123979
O O8 0.406301 0.479096 0.245236
O O9 0.213584 0.250000 0.471422
O O10 0.119094 0.500000 0.373031
O O11 0.150979 0.498959 0.490899
O O12 0.413086 0.488541 0.576274
O O13 0.012905 0.750000 0.270742
O O14 0.829260 0.998958 0.169180
O O15 0.142097 0.750000 0.541021
O O16 0.000000 0.000000 0.500000
O O17 0.722817 0.250000 0.971105
O O18 0.653615 0.477610 0.992491
O O19 0.338868 0.750000 0.939944
O O20 0.500000 0.000000 0.000000
O O21 0.559256 0.750000 0.674526
#
# Coordination Sequence:
#
# PCOD9165094 Si02
#       8
#     4   4   4   4   4   4   4   4
#     4   9  19  37  57  78 108 143 179 223 272 321
#     4   9  19  34  53  78 108 141 176 217 264 315
#     4  11  22  37  57  81 109 142 181 225 272 323
#     4  11  22  37  57  81 109 142 181 225 272 323
#     4  10  21  38  57  80 110 143 181 224 271 321
#     4   9  19  34  53  78 108 141 176 217 264 315
#     4  10  21  38  57  80 110 143 181 224 271 321
#     4   9  19  37  57  78 108 143 179 223 272 321
#
# _framework density 17.461441000000001
#
# number of rings (size 3 to 8) (size 9 to 14) (size 15 to 20)
#    0.000    2.250    0.000    4.500    0.000    7.500 
#    0.000    2.500    0.000    0.000    0.000    0.000 
#    0.000    0.000    0.000    0.000    0.000    0.000 
#
# Total GULP energy -178624.550535 kJ/mol
# GULP energy per Si atom -5582.017204 kJ/mol
# Density = 1.742170 g / cm^3
# Si number density = 17.461441 Si / 1000 Ang^3
#
#
#
# Elastic Constant Matrix: (Units=GPa)
#
#
# Indices 1 2 3 4 5 6 
#
# 1 170.8636 68.3159 132.3921 0.0000 17.9928 0.0000
# 2 68.3159 72.8602 66.4158 0.0000 1.2201 0.0000
# 3 132.3921 66.4158 175.3485 0.0000 -20.8761 0.0000
# 4 0.0000 0.0000 0.0000 36.2688 0.0000 -2.6181
# 5 17.9928 1.2201 -20.8761 0.0000 30.1951 0.0000
# 6 0.0000 0.0000 0.0000 -2.6181 0.0000 32.1932
#
#
#
# Elastic Compliance Matrix: (Units=1/GPa)
#
#
# Indices 1 2 3 4 5 6 
#
# 1 0.034875 -0.005502 -0.029090 0.000000 -0.040671 0.000000
# 2 -0.005502 0.023241 -0.004762 0.000000 -0.000952 0.000000
# 3 -0.029090 -0.004762 0.034387 0.000000 0.041301 0.000000
# 4 0.000000 0.000000 0.000000 0.027735 0.000000 0.002255
# 5 -0.040671 -0.000952 0.041301 0.000000 0.085946 0.000000
# 6 0.000000 0.000000 0.000000 0.002255 0.000000 0.031246
#
#
# Mechanical properties :
#
#
# Convention : Reuss Voigt Hill
#
# Bulk Modulus (GPa) = 72.48817 105.92443 89.20630
# Shear Modulus (GPa) = 15.58917 29.86133 22.72525
#
# Velocity S-wave (km/s) = 2.99118 4.13986 3.61148
# Velocity P-wave (km/s) = 7.31662 9.14575 8.28184
#
# Compressibility (1/GPa) = 0.01379535
#
# Stress axis : x y z
#
# Youngs Moduli (GPa) = 28.67350 43.02821 29.08080
#
# Poissons Ratio (x) = 0.23676 0.84595
# Poissons Ratio (y) = 0.15777 0.13847
# Poissons Ratio (z) = 0.83410 0.20489
#
# Static dielectric constant tensor:
#      x y z
#    x 1.576820 0.000000 0.004670 
#    y 0.000000 1.586070 0.000000 
#    z 0.004670 0.000000 1.569540 
# 
# From -- ./inp_files/55622.got.cif
#   From: 2010.05.17/outbox.cif.g08.bks.cpg/sg11_28_cif.got.tgz:55622.got - 2010.06.03 12:22:45.
