data_PCOD9165876
_publ_section_title
;
Structure prediction by ZEFSAII (Michael W. Deem and Ramdas Pophale) SiO2 
 PCOD9165876
Probable space group: P 21/M
;
_chemical_formula_sum "Si O2"
_cell_formula_units_Z 28
_cell_length_a 20.384568
_cell_length_b 8.109637
_cell_length_c 13.717049
_cell_angle_alpha 90.000000
_cell_angle_beta 144.305561
_cell_angle_gamma 90.000000
_cell_volume 1323.050689
_symmetry_space_group_name_H-M "P 21/M"
_symmetry_group_IT_number 11
_symmetry_cell_setting 'monoclinic'
loop_
_space_group_symop_operation_xyz
x,y,z
-x,1/2+y,-z
-x,-y,-z
x,1/2-y,z
loop_
_atom_site_type_symbol
_atom_site_label
_atom_site_fract_x
_atom_site_fract_y
_atom_site_fract_z
Si Si1 0.807795 0.446162 0.988796
Si Si2 0.728400 0.445952 0.103302
Si Si3 0.294168 0.951883 0.498096
Si Si4 0.510683 0.447851 0.124936
Si Si5 0.944003 0.441389 0.723894
Si Si6 0.093748 0.058375 0.536316
Si Si7 0.377263 0.550723 0.387146
O O1 0.790920 0.250000 0.974301
O O2 0.717548 0.511064 0.802543
O O3 0.782678 0.508969 0.067858
O O4 0.935702 0.477497 0.113149
O O5 0.748712 0.250000 0.136653
O O6 0.788362 0.530851 0.267269
O O7 0.596298 0.480696 0.946785
O O8 0.290515 0.750000 0.495248
O O9 0.374115 0.002759 0.684043
O O10 0.166102 0.010268 0.355176
O O11 0.348761 0.004699 0.462179
O O12 0.506097 0.250000 0.124527
O O13 0.500000 0.500000 0.000000
O O14 0.955576 0.250000 0.763245
O O15 0.917239 0.459315 0.576680
O O16 0.075473 0.250000 0.491442
O O17 0.000000 0.000000 0.500000
O O18 0.500000 0.500000 0.500000
O O19 0.372748 0.750000 0.382752
#
# Coordination Sequence:
#
# PCOD9165876 Si02
#       7
#     4   4   4   4   4   4   4
#     4  10  22  38  59  87 120 156 196 249 305 356
#     4  11  22  37  57  85 122 158 198 249 302 358
#     4   9  21  40  61  86 120 159 198 249 307 357
#     4  11  22  38  60  86 118 157 201 250 306 365
#     4  11  22  38  61  88 121 162 204 247 299 363
#     4  12  23  37  58  87 121 161 202 246 299 356
#     4  10  21  41  65  89 118 154 199 251 305 361
#
# _framework density 21.163212000000001
#
# number of rings (size 3 to 8) (size 9 to 14) (size 15 to 20)
#    0.000    1.429    1.429    4.286    0.000    2.857 
#    0.000    4.286    0.000    0.000    0.000    0.000 
#    0.000    0.000    0.000    0.000    0.000    0.000 
#
# Total GULP energy -156573.067730 kJ/mol
# GULP energy per Si atom -5591.895276 kJ/mol
# Density = 2.111504 g / cm^3
# Si number density = 21.163212 Si / 1000 Ang^3
#
#
#
# Elastic Constant Matrix: (Units=GPa)
#
#
# Indices 1 2 3 4 5 6 
#
# 1 124.8069 -9.5798 55.7483 0.0000 15.6232 0.0000
# 2 -9.5798 16.9518 -10.7286 0.0000 -3.5472 0.0000
# 3 55.7483 -10.7286 148.0730 0.0000 7.6784 0.0000
# 4 0.0000 0.0000 0.0000 26.7472 0.0000 9.1490
# 5 15.6232 -3.5472 7.6784 0.0000 38.4289 0.0000
# 6 0.0000 0.0000 0.0000 9.1490 0.0000 21.7105
#
#
#
# Elastic Compliance Matrix: (Units=1/GPa)
#
#
# Indices 1 2 3 4 5 6 
#
# 1 0.010177 0.002898 -0.003457 0.000000 -0.003179 0.000000
# 2 0.002898 0.063564 0.003305 0.000000 0.004028 0.000000
# 3 -0.003457 0.003305 0.008292 0.000000 0.000054 0.000000
# 4 0.000000 0.000000 0.000000 0.043684 0.000000 -0.018409
# 5 -0.003179 0.004028 0.000054 0.000000 0.027676 0.000000
# 6 0.000000 0.000000 0.000000 -0.018409 0.000000 0.053818
#
#
# Mechanical properties :
#
#
# Convention : Reuss Voigt Hill
#
# Bulk Modulus (GPa) = 11.42519 40.07906 25.75212
# Shear Modulus (GPa) = 21.65526 34.33679 27.99602
#
# Velocity S-wave (km/s) = 3.20230 4.03237 3.64106
# Velocity P-wave (km/s) = 4.36844 6.37645 5.46546
#
# Compressibility (1/GPa) = 0.08752589
#
# Stress axis : x y z
#
# Youngs Moduli (GPa) = 98.26268 15.73229 120.60500
#
# Poissons Ratio (x) = -0.04560 0.41689
# Poissons Ratio (y) = -0.28479 -0.39865
# Poissons Ratio (z) = 0.33966 -0.05200
#
# Static dielectric constant tensor:
#      x y z
#    x 1.769130 0.000000 -0.003330 
#    y 0.000000 1.759730 0.000000 
#    z -0.003330 0.000000 1.761170 
# 
# From -- ./inp_files/38469.got.cif
#   From: 2010.05.17/outbox.cif.g08.bks.cpg/sg11_20_cif.got.tgz:38469.got - 2010.06.03 12:22:45.
