data_PCOD9165313
_publ_section_title
;
Structure prediction by ZEFSAII (Michael W. Deem and Ramdas Pophale) SiO2 
 PCOD9165313
Probable space group: P 21/M
;
_chemical_formula_sum "Si O2"
_cell_formula_units_Z 24
_cell_length_a 16.379738
_cell_length_b 7.548881
_cell_length_c 17.401308
_cell_angle_alpha 90.000000
_cell_angle_beta 27.059037
_cell_angle_gamma 90.000000
_cell_volume 978.803076
_symmetry_space_group_name_H-M "P 21/M"
_symmetry_group_IT_number 11
_symmetry_cell_setting 'monoclinic'
loop_
_space_group_symop_operation_xyz
x,y,z
-x,1/2+y,-z
-x,-y,-z
x,1/2-y,z
loop_
_atom_site_type_symbol
_atom_site_label
_atom_site_fract_x
_atom_site_fract_y
_atom_site_fract_z
Si Si1 0.056172 0.549467 0.075214
Si Si2 0.665389 0.962396 0.416756
Si Si3 0.551743 0.463324 0.256916
Si Si4 0.708564 0.460712 0.817057
Si Si5 0.028462 0.045645 0.270367
Si Si6 0.282160 0.538337 0.361506
O O1 0.053833 0.750000 0.045815
O O2 0.858944 0.468189 0.226046
O O3 0.065498 0.553156 0.160413
O O4 0.248303 0.467317 0.891977
O O5 0.688518 0.750000 0.403993
O O6 0.594434 0.029223 0.558776
O O7 0.500000 0.000000 0.500000
O O8 0.560970 0.250000 0.254777
O O9 0.477637 0.505068 0.234089
O O10 0.739303 0.250000 0.793876
O O11 0.813690 0.541833 0.799883
O O12 0.756377 0.528948 0.691628
O O13 0.500000 0.500000 0.000000
O O14 0.993392 0.250000 0.278297
O O15 0.860894 0.967261 0.457693
O O16 0.258505 0.750000 0.377968
#
# Coordination Sequence:
#
# PCOD9165313 Si02
#       6
#     4   4   4   4   4   4
#     4  10  21  39  62  88 118 155 197 240 290 348
#     4  10  22  40  61  88 120 152 190 238 290 351
#     4  10  21  38  62  88 116 154 196 238 290 349
#     4  11  23  38  55  81 117 156 200 248 294 344
#     4  11  22  37  58  85 116 154 199 244 293 347
#     4  10  22  38  57  83 116 154 198 244 291 345
#
# _framework density 24.519743999999999
#
# number of rings (size 3 to 8) (size 9 to 14) (size 15 to 20)
#    0.000    1.667    1.667    2.500    0.000    7.333 
#    0.000    0.000    0.000    0.000    0.000    0.000 
#    0.000    0.000    0.000    0.000    0.000    0.000 
#
# Total GULP energy -134175.053979 kJ/mol
# GULP energy per Si atom -5590.627249 kJ/mol
# Density = 2.446394 g / cm^3
# Si number density = 24.519744 Si / 1000 Ang^3
#
#
#
# Elastic Constant Matrix: (Units=GPa)
#
#
# Indices 1 2 3 4 5 6 
#
# 1 85.1522 -15.1506 -10.1481 0.0000 -30.0127 0.0000
# 2 -15.1506 78.8568 -4.7066 0.0000 4.5677 0.0000
# 3 -10.1481 -4.7066 85.4635 0.0000 -36.9251 0.0000
# 4 0.0000 0.0000 0.0000 7.2373 0.0000 -10.6392
# 5 -30.0127 4.5677 -36.9251 0.0000 46.4934 0.0000
# 6 0.0000 0.0000 0.0000 -10.6392 0.0000 21.3878
#
#
#
# Elastic Compliance Matrix: (Units=1/GPa)
#
#
# Indices 1 2 3 4 5 6 
#
# 1 0.023204 0.003805 0.014120 0.000000 0.025819 0.000000
# 2 0.003805 0.013381 0.002561 0.000000 0.003176 0.000000
# 3 0.014120 0.002561 0.026410 0.000000 0.029838 0.000000
# 4 0.000000 0.000000 0.000000 0.514168 0.000000 0.255770
# 5 0.025819 0.003176 0.029838 0.000000 0.061561 0.000000
# 6 0.000000 0.000000 0.000000 0.255770 0.000000 0.173987
#
#
# Mechanical properties :
#
#
# Convention : Reuss Voigt Hill
#
# Bulk Modulus (GPa) = 9.61842 21.05131 15.33486
# Shear Modulus (GPa) = 6.20044 33.65555 19.92800
#
# Velocity S-wave (km/s) = 1.59193 3.70887 2.85394
# Velocity P-wave (km/s) = 2.70374 5.19086 4.13855
#
# Compressibility (1/GPa) = 0.10396722
#
# Stress axis : x y z
#
# Youngs Moduli (GPa) = 43.09692 74.73156 37.86384
#
# Poissons Ratio (x) = -0.28438 -0.53463
# Poissons Ratio (y) = -0.16400 -0.09696
# Poissons Ratio (z) = -0.60853 -0.19137
#
# Static dielectric constant tensor:
#      x y z
#    x 1.956670 0.000000 -0.000390 
#    y 0.000000 1.942050 0.000000 
#    z -0.000390 0.000000 1.994710 
# 
# From -- ./inp_files/23776.got.cif
#   From: 2010.05.17/outbox.cif.g08.bks.cpg/sg11_12_cif.got.tgz:23776.got - 2010.06.03 12:22:45.
