data_PCOD9165794
_publ_section_title
;
Structure prediction by ZEFSAII (Michael W. Deem and Ramdas Pophale) SiO2 
 PCOD9165794
Probable space group: P 21/M
;
_chemical_formula_sum "Si O2"
_cell_formula_units_Z 28
_cell_length_a 8.039518
_cell_length_b 9.019913
_cell_length_c 25.279529
_cell_angle_alpha 90.000000
_cell_angle_beta 130.886383
_cell_angle_gamma 90.000000
_cell_volume 1385.888642
_symmetry_space_group_name_H-M "P 21/M"
_symmetry_group_IT_number 11
_symmetry_cell_setting 'monoclinic'
loop_
_space_group_symop_operation_xyz
x,y,z
-x,1/2+y,-z
-x,-y,-z
x,1/2-y,z
loop_
_atom_site_type_symbol
_atom_site_label
_atom_site_fract_x
_atom_site_fract_y
_atom_site_fract_z
Si Si1 0.635386 0.072205 0.688676
Si Si2 0.036590 0.071532 0.329576
Si Si3 0.793031 0.413918 0.432723
Si Si4 0.187742 0.429368 0.167084
Si Si5 0.282597 0.588590 0.463960
Si Si6 0.680654 0.428643 0.075333
Si Si7 0.588939 0.429209 0.177119
O O1 0.639418 0.250000 0.686099
O O2 0.782403 0.000062 0.672261
O O3 0.384878 0.011918 0.634576
O O4 0.735511 0.011724 0.764049
O O5 0.058576 0.250000 0.333673
O O6 0.795331 0.030243 0.257463
O O7 0.083642 0.006100 0.397701
O O8 0.835264 0.250000 0.417710
O O9 0.690651 0.388941 0.468760
O O10 0.000000 0.500000 0.500000
O O11 0.206810 0.250000 0.178578
O O12 0.355621 0.472666 0.154788
O O13 0.928638 0.463188 0.107317
O O14 0.500000 0.500000 0.500000
O O15 0.273902 0.750000 0.436105
O O16 0.659689 0.250000 0.070204
O O17 0.639002 0.479120 0.127525
O O18 0.500000 0.500000 0.000000
O O19 0.588084 0.250000 0.175126
#
# Coordination Sequence:
#
# PCOD9165794 Si02
#       7
#     4   4   4   4   4   4   4
#     4  12  24  39  61  89 122 162 209 263 319 378
#     4  11  21  38  62  87 116 157 208 258 313 376
#     4  11  25  42  59  83 120 163 210 262 319 377
#     4  10  21  41  66  91 124 168 212 257 310 372
#     4  11  23  38  57  83 114 153 204 258 313 372
#     4  10  21  40  65  95 130 164 205 250 305 373
#     4   9  20  39  64  93 122 161 208 251 302 370
#
# _framework density 20.203641999999999
#
# number of rings (size 3 to 8) (size 9 to 14) (size 15 to 20)
#    0.000    1.429    2.857    2.571    2.000    2.857 
#    0.000    1.429    0.000    0.000    0.000    0.000 
#    0.000    0.000    0.000    0.000    0.000    0.000 
#
# Total GULP energy -156102.882980 kJ/mol
# GULP energy per Si atom -5575.102964 kJ/mol
# Density = 2.015766 g / cm^3
# Si number density = 20.203642 Si / 1000 Ang^3
#
#
#
# Elastic Constant Matrix: (Units=GPa)
#
#
# Indices 1 2 3 4 5 6 
#
# 1 75.1193 24.4950 35.0982 0.0000 26.7673 0.0000
# 2 24.4950 94.5360 39.0279 0.0000 21.3862 0.0000
# 3 35.0982 39.0279 151.9565 0.0000 28.0648 0.0000
# 4 0.0000 0.0000 0.0000 35.2820 0.0000 -1.8402
# 5 26.7673 21.3862 28.0648 0.0000 35.2522 0.0000
# 6 0.0000 0.0000 0.0000 -1.8402 0.0000 16.8432
#
#
#
# Elastic Compliance Matrix: (Units=1/GPa)
#
#
# Indices 1 2 3 4 5 6 
#
# 1 0.018911 -0.001437 -0.001768 0.000000 -0.012080 0.000000
# 2 -0.001437 0.012958 -0.002047 0.000000 -0.005140 0.000000
# 3 -0.001768 -0.002047 0.008251 0.000000 -0.003985 0.000000
# 4 0.000000 0.000000 0.000000 0.028506 0.000000 0.003114
# 5 -0.012080 -0.005140 -0.003985 0.000000 0.043830 0.000000
# 6 0.000000 0.000000 0.000000 0.003114 0.000000 0.059711
#
#
# Mechanical properties :
#
#
# Convention : Reuss Voigt Hill
#
# Bulk Modulus (GPa) = 33.76513 57.65046 45.70780
# Shear Modulus (GPa) = 25.96812 32.34152 29.15482
#
# Velocity S-wave (km/s) = 3.58902 4.00531 3.80287
# Velocity P-wave (km/s) = 5.82439 7.07012 6.47727
#
# Compressibility (1/GPa) = 0.02961635
#
# Stress axis : x y z
#
# Youngs Moduli (GPa) = 52.87819 77.17070 121.20141
#
# Poissons Ratio (x) = 0.11093 0.21426
# Poissons Ratio (y) = 0.07601 0.24807
# Poissons Ratio (z) = 0.09348 0.15795
#
# Static dielectric constant tensor:
#      x y z
#    x 1.803700 0.000000 0.000170 
#    y 0.000000 1.893410 0.000000 
#    z 0.000170 0.000000 1.679920 
# 
# From -- ./inp_files/70929.got.cif
#   From: 2010.05.17/outbox.cif.g08.bks.cpg/sg11_36_cif.got.tgz:70929.got - 2010.06.03 12:22:45.
