data_PCOD9165419
_publ_section_title
;
Structure prediction by ZEFSAII (Michael W. Deem and Ramdas Pophale) SiO2 
 PCOD9165419
Probable space group: P 21/M
;
_chemical_formula_sum "Si O2"
_cell_formula_units_Z 20
_cell_length_a 8.496328
_cell_length_b 9.509090
_cell_length_c 10.696282
_cell_angle_alpha 90.000000
_cell_angle_beta 109.014419
_cell_angle_gamma 90.000000
_cell_volume 817.025270
_symmetry_space_group_name_H-M "P 21/M"
_symmetry_group_IT_number 11
_symmetry_cell_setting 'monoclinic'
loop_
_space_group_symop_operation_xyz
x,y,z
-x,1/2+y,-z
-x,-y,-z
x,1/2-y,z
loop_
_atom_site_type_symbol
_atom_site_label
_atom_site_fract_x
_atom_site_fract_y
_atom_site_fract_z
Si Si1 0.399103 0.011885 0.645183
Si Si2 0.040535 0.750000 0.356867
Si Si3 0.079032 0.750000 0.956437
Si Si4 0.288769 0.250000 0.024797
Si Si5 0.593892 0.750000 0.669687
Si Si6 0.808660 0.511865 0.175087
Si Si7 0.334433 0.750000 0.251403
Si Si8 0.832749 0.750000 0.530335
O O1 0.303556 0.955037 0.741986
O O2 0.546829 0.115768 0.723361
O O3 0.264197 0.110678 0.542329
O O4 0.489257 0.884689 0.599747
O O5 0.945977 0.614784 0.273610
O O6 0.005450 0.750000 0.497670
O O7 0.223687 0.750000 0.348452
O O8 0.108539 0.611002 0.882307
O O9 0.901182 0.750000 0.976055
O O10 0.211697 0.750000 0.102883
O O11 0.393952 0.250000 0.177732
O O12 0.302985 0.112563 0.942201
O O13 0.781914 0.750000 0.662467
#
# Coordination Sequence:
#
# PCOD9165419 Si02
#       8
#     4   2   2   2   2   4   2   2
#     4  10  23  39  64  90 115 153 199 243 292 352
#     4   9  20  39  64  79 115 162 197 234 291 350
#     4  12  22  33  61  89 128 154 191 236 291 355
#     4  11  23  35  57  88 128 155 194 234 289 354
#     4  12  23  37  63  89 121 149 198 253 289 332
#     4  10  21  39  58  88 123 155 192 235 292 350
#     4  11  21  37  62  87 117 160 196 230 301 352
#     4   9  21  45  63  82 115 158 198 243 297 347
#
# _framework density 24.479047000000001
#
# number of rings (size 3 to 8) (size 9 to 14) (size 15 to 20)
#    0.000    1.600    2.000    4.800    2.800    4.800 
#    0.000    1.000    8.800    0.000    0.000    0.000 
#    0.000    0.000    0.000    0.000    0.000    0.000 
#
# Total GULP energy -112025.422966 kJ/mol
# GULP energy per Si atom -5601.271148 kJ/mol
# Density = 2.442333 g / cm^3
# Si number density = 24.479047 Si / 1000 Ang^3
#
#
#
# Elastic Constant Matrix: (Units=GPa)
#
#
# Indices 1 2 3 4 5 6 
#
# 1 89.3977 6.6733 16.2390 0.0000 -19.4414 0.0000
# 2 6.6733 117.1829 11.9391 0.0000 1.9114 0.0000
# 3 16.2390 11.9391 73.3930 0.0000 -11.1780 0.0000
# 4 0.0000 0.0000 0.0000 15.7634 0.0000 -14.4440
# 5 -19.4414 1.9114 -11.1780 0.0000 47.6648 0.0000
# 6 0.0000 0.0000 0.0000 -14.4440 0.0000 11.7581
#
#
#
# Elastic Compliance Matrix: (Units=1/GPa)
#
#
# Indices 1 2 3 4 5 6 
#
# 1 0.012613 -0.000594 -0.001978 0.000000 0.004704 0.000000
# 2 -0.000594 0.008728 -0.001430 0.000000 -0.000927 0.000000
# 3 -0.001978 -0.001430 0.014707 0.000000 0.002700 0.000000
# 4 0.000000 0.000000 0.000000 -0.505003 0.000000 -0.620363
# 5 0.004704 -0.000927 0.002700 0.000000 0.023569 0.000000
# 6 0.000000 0.000000 0.000000 -0.620363 0.000000 -0.677027
#
#
# Mechanical properties :
#
#
# Convention : Reuss Voigt Hill
#
# Bulk Modulus (GPa) = 35.65618 38.85293 37.25455
# Shear Modulus (GPa) = -4.52463 31.37875 13.42706
#
# Velocity S-wave (km/s) = -1.36102 3.58419 2.34457
# Velocity P-wave (km/s) = 3.48250 5.74760 4.75199
#
# Compressibility (1/GPa) = 0.02804563
#
# Stress axis : x y z
#
# Youngs Moduli (GPa) = 79.28595 114.57028 67.99673
#
# Poissons Ratio (x) = 0.06800 0.13447
# Poissons Ratio (y) = 0.04706 0.09722
# Poissons Ratio (z) = 0.15680 0.16381
#
# Static dielectric constant tensor:
#      x y z
#    x 1.870760 0.000000 -0.010180 
#    y 0.000000 1.914960 0.000000 
#    z -0.010180 0.000000 1.967640 
# 
# From -- ./inp_files/16051.got.cif
#   From: 2010.05.17/outbox.cif.g08.bks.cpg/sg11_9_cif.got.tgz:16051.got - 2010.06.03 12:22:45.
