data_PCOD9165590
_publ_section_title
;
Structure prediction by ZEFSAII (Michael W. Deem and Ramdas Pophale) SiO2 
 PCOD9165590
Probable space group: P 21/M
;
_chemical_formula_sum "Si O2"
_cell_formula_units_Z 28
_cell_length_a 11.753149
_cell_length_b 14.824897
_cell_length_c 8.025557
_cell_angle_alpha 90.000000
_cell_angle_beta 58.131001
_cell_angle_gamma 90.000000
_cell_volume 1187.573488
_symmetry_space_group_name_H-M "P 21/M"
_symmetry_group_IT_number 11
_symmetry_cell_setting 'monoclinic'
loop_
_space_group_symop_operation_xyz
x,y,z
-x,1/2+y,-z
-x,-y,-z
x,1/2-y,z
loop_
_atom_site_type_symbol
_atom_site_label
_atom_site_fract_x
_atom_site_fract_y
_atom_site_fract_z
Si Si1 0.265420 0.348563 0.899282
Si Si2 0.162796 0.653417 0.612475
Si Si3 0.441154 0.976516 0.726732
Si Si4 0.893992 0.650692 0.626052
Si Si5 0.754958 0.142575 0.933245
Si Si6 0.712237 0.493124 0.660543
Si Si7 0.001879 0.104266 0.945102
O O1 0.328613 0.250000 0.829792
O O2 0.364586 0.431558 0.832861
O O3 0.183502 0.349113 0.135914
O O4 0.154434 0.363633 0.840390
O O5 0.230297 0.750000 0.536821
O O6 0.258192 0.569176 0.521763
O O7 0.081170 0.653413 0.845617
O O8 0.048759 0.641912 0.558362
O O9 0.336909 0.895287 0.843012
O O10 0.500000 0.000000 0.500000
O O11 0.569221 0.961150 0.746810
O O12 0.874024 0.750000 0.564374
O O13 0.828803 0.567065 0.583234
O O14 0.737641 0.250000 0.921394
O O15 0.911284 0.122127 0.854646
O O16 0.713847 0.077576 0.812266
O O17 0.000000 0.000000 0.000000
#
# Coordination Sequence:
#
# PCOD9165590 Si02
#       7
#     4   4   4   4   4   4   4
#     4  10  21  41  68  95 123 168 218 264 325 392
#     4  10  21  39  63  97 132 171 214 260 326 402
#     4  12  27  46  65  91 131 180 227 272 324 397
#     4   9  19  38  66  96 128 164 212 270 329 389
#     4  12  25  43  67 101 134 171 222 280 336 395
#     4  12  24  42  66  95 134 177 216 266 336 396
#     4  11  20  40  72  97 131 168 214 277 335 384
#
# _framework density 23.577487999999999
#
# number of rings (size 3 to 8) (size 9 to 14) (size 15 to 20)
#    0.000    1.143    2.857    5.143    0.000    2.286 
#    0.000    0.000    0.000    0.000    0.000    0.000 
#    0.000    0.000    0.000    0.000    0.000    0.000 
#
# Total GULP energy -156647.164833 kJ/mol
# GULP energy per Si atom -5594.541601 kJ/mol
# Density = 2.352382 g / cm^3
# Si number density = 23.577488 Si / 1000 Ang^3
#
#
#
# Elastic Constant Matrix: (Units=GPa)
#
#
# Indices 1 2 3 4 5 6 
#
# 1 70.9269 15.3066 -14.4299 0.0000 5.1115 0.0000
# 2 15.3066 157.7717 -0.2029 0.0000 -8.8375 0.0000
# 3 -14.4299 -0.2029 52.0901 0.0000 7.7780 0.0000
# 4 0.0000 0.0000 0.0000 26.5814 0.0000 -0.8467
# 5 5.1115 -8.8375 7.7780 0.0000 31.2611 0.0000
# 6 0.0000 0.0000 0.0000 -0.8467 0.0000 10.0732
#
#
#
# Elastic Compliance Matrix: (Units=1/GPa)
#
#
# Indices 1 2 3 4 5 6 
#
# 1 0.015815 -0.001771 0.005022 0.000000 -0.004336 0.000000
# 2 -0.001771 0.006642 -0.000819 0.000000 0.002371 0.000000
# 3 0.005022 -0.000819 0.021543 0.000000 -0.006413 0.000000
# 4 0.000000 0.000000 0.000000 0.037721 0.000000 0.003171
# 5 -0.004336 0.002371 -0.006413 0.000000 0.034963 0.000000
# 6 0.000000 0.000000 0.000000 0.003171 0.000000 0.099540
#
#
# Mechanical properties :
#
#
# Convention : Reuss Voigt Hill
#
# Bulk Modulus (GPa) = 20.46476 31.34845 25.90661
# Shear Modulus (GPa) = 21.96374 32.25747 27.11060
#
# Velocity S-wave (km/s) = 3.05545 3.70286 3.39462
# Velocity P-wave (km/s) = 4.59851 5.62195 5.13579
#
# Compressibility (1/GPa) = 0.04886448
#
# Stress axis : x y z
#
# Youngs Moduli (GPa) = 63.22991 150.56116 46.41897
#
# Poissons Ratio (x) = 0.26661 -0.23310
# Poissons Ratio (y) = 0.11197 0.03800
# Poissons Ratio (z) = -0.31752 0.12326
#
# Static dielectric constant tensor:
#      x y z
#    x 1.904930 0.000000 0.053040 
#    y 0.000000 1.946170 0.000000 
#    z 0.053040 0.000000 1.984040 
# 
# From -- ./inp_files/17959.got.cif
#   From: 2010.05.17/outbox.cif.g08.bks.cpg/sg11_9_cif.got.tgz:17959.got - 2010.06.03 12:22:45.
