data_PCOD9165142
_publ_section_title
;
Structure prediction by ZEFSAII (Michael W. Deem and Ramdas Pophale) SiO2 
 PCOD9165142
Probable space group: P 21/M
;
_chemical_formula_sum "Si O2"
_cell_formula_units_Z 28
_cell_length_a 16.466292
_cell_length_b 8.757112
_cell_length_c 12.977489
_cell_angle_alpha 90.000000
_cell_angle_beta 124.274653
_cell_angle_gamma 90.000000
_cell_volume 1546.358228
_symmetry_space_group_name_H-M "P 21/M"
_symmetry_group_IT_number 11
_symmetry_cell_setting 'monoclinic'
loop_
_space_group_symop_operation_xyz
x,y,z
-x,1/2+y,-z
-x,-y,-z
x,1/2-y,z
loop_
_atom_site_type_symbol
_atom_site_label
_atom_site_fract_x
_atom_site_fract_y
_atom_site_fract_z
Si Si1 0.715058 0.567406 0.042221
Si Si2 0.489937 0.933971 0.166401
Si Si3 0.130232 0.932684 0.003660
Si Si4 0.227995 0.065086 0.467207
Si Si5 0.289198 0.064606 0.734197
Si Si6 0.447147 0.432879 0.560947
Si Si7 0.919201 0.067163 0.801618
O O1 0.722679 0.750000 0.041975
O O2 0.780078 0.494844 0.998973
O O3 0.748270 0.516119 0.180651
O O4 0.602310 0.517408 0.948288
O O5 0.479419 0.750000 0.148140
O O6 0.595984 0.978557 0.196197
O O7 0.497104 0.971089 0.293081
O O8 0.127807 0.750000 0.996057
O O9 0.133030 0.975464 0.126898
O O10 0.028548 0.999703 0.886928
O O11 0.222437 0.250000 0.460816
O O12 0.232344 0.015703 0.590360
O O13 0.333577 0.019383 0.494089
O O14 0.141611 0.996366 0.337636
O O15 0.288188 0.250000 0.731733
O O16 0.500000 0.500000 0.500000
O O17 0.446775 0.250000 0.552973
O O18 0.924779 0.250000 0.800531
#
# Coordination Sequence:
#
# PCOD9165142 Si02
#       7
#     4   4   4   4   4   4   4
#     4  11  21  33  54  82 109 139 182 227 262 307
#     4   9  18  34  52  73 107 148 182 216 266 314
#     4  10  22  39  57  79 108 140 172 215 271 323
#     4   9  18  35  57  77 103 143 178 211 268 322
#     4   8  17  35  55  77 108 145 182 220 260 310
#     4   9  19  32  48  73 106 141 178 217 256 309
#     4  10  21  38  59  82 106 133 173 222 268 318
#
# _framework density 18.107059
#
# number of rings (size 3 to 8) (size 9 to 14) (size 15 to 20)
#    0.000    2.571    0.000    3.429    2.000    2.857 
#    0.000    5.000    0.000    0.000    0.000    0.000 
#    0.000    0.000    0.000    0.000    0.000    0.000 
#
# Total GULP energy -156194.609631 kJ/mol
# GULP energy per Si atom -5578.378915 kJ/mol
# Density = 1.806585 g / cm^3
# Si number density = 18.107059 Si / 1000 Ang^3
#
#
#
# Elastic Constant Matrix: (Units=GPa)
#
#
# Indices 1 2 3 4 5 6 
#
# 1 37.4430 11.9974 29.1207 0.0000 -8.6256 0.0000
# 2 11.9974 24.5832 23.8243 0.0000 0.1201 0.0000
# 3 29.1207 23.8243 104.7536 0.0000 8.7845 0.0000
# 4 0.0000 0.0000 0.0000 28.3636 0.0000 3.8918
# 5 -8.6256 0.1201 8.7845 0.0000 17.4786 0.0000
# 6 0.0000 0.0000 0.0000 3.8918 0.0000 19.8258
#
#
#
# Elastic Compliance Matrix: (Units=1/GPa)
#
#
# Indices 1 2 3 4 5 6 
#
# 1 0.047326 -0.010320 -0.013336 0.000000 0.030129 0.000000
# 2 -0.010320 0.055009 -0.009587 0.000000 -0.000652 0.000000
# 3 -0.013336 -0.009587 0.016683 0.000000 -0.014900 0.000000
# 4 0.000000 0.000000 0.000000 0.036232 0.000000 -0.007112
# 5 0.030129 -0.000652 -0.014900 0.000000 0.079574 0.000000
# 6 0.000000 0.000000 0.000000 -0.007112 0.000000 0.051836
#
#
# Mechanical properties :
#
#
# Convention : Reuss Voigt Hill
#
# Bulk Modulus (GPa) = 19.03567 32.96274 25.99920
# Shear Modulus (GPa) = 13.48952 19.92275 16.70614
#
# Velocity S-wave (km/s) = 2.73241 3.32064 3.04078
# Velocity P-wave (km/s) = 4.52663 5.73987 5.16897
#
# Compressibility (1/GPa) = 0.05253297
#
# Stress axis : x y z
#
# Youngs Moduli (GPa) = 21.12988 18.17882 59.93974
#
# Poissons Ratio (x) = 0.18760 0.79935
# Poissons Ratio (y) = 0.21806 0.57466
# Poissons Ratio (z) = 0.28178 0.17429
#
# Static dielectric constant tensor:
#      x y z
#    x 1.607700 0.000000 -0.022170 
#    y 0.000000 1.609480 0.000000 
#    z -0.022170 0.000000 1.626090 
# 
# From -- ./inp_files/37433.got.cif
#   From: 2010.05.17/outbox.cif.g08.bks.cpg/sg11_19_cif.got.tgz:37433.got - 2010.06.03 12:22:45.
