data_PCOD9165311
_publ_section_title
;
Structure prediction by ZEFSAII (Michael W. Deem and Ramdas Pophale) SiO2 
 PCOD9165311
Probable space group: P 21/M
;
_chemical_formula_sum "Si O2"
_cell_formula_units_Z 24
_cell_length_a 12.247883
_cell_length_b 8.652946
_cell_length_c 12.229274
_cell_angle_alpha 90.000000
_cell_angle_beta 91.659384
_cell_angle_gamma 90.000000
_cell_volume 1295.518245
_symmetry_space_group_name_H-M "P 21/M"
_symmetry_group_IT_number 11
_symmetry_cell_setting 'monoclinic'
loop_
_space_group_symop_operation_xyz
x,y,z
-x,1/2+y,-z
-x,-y,-z
x,1/2-y,z
loop_
_atom_site_type_symbol
_atom_site_label
_atom_site_fract_x
_atom_site_fract_y
_atom_site_fract_z
Si Si1 0.527086 0.563494 0.329254
Si Si2 0.411210 0.062981 0.913258
Si Si3 0.036942 0.934611 0.173528
Si Si4 0.331592 0.063509 0.457870
Si Si5 0.169638 0.436419 0.980823
Si Si6 0.917086 0.564870 0.586996
O O1 0.522936 0.750000 0.329388
O O2 0.560906 0.512136 0.209383
O O3 0.614619 0.515931 0.424773
O O4 0.410735 0.500252 0.365940
O O5 0.413851 0.250000 0.914652
O O6 0.289599 0.015376 0.946006
O O7 0.500000 0.000000 0.000000
O O8 0.039986 0.750000 0.184230
O O9 0.922600 0.977739 0.111444
O O10 0.049729 0.009936 0.291640
O O11 0.131349 0.990074 0.093553
O O12 0.333923 0.250000 0.453442
O O13 0.207047 0.012350 0.441205
O O14 0.168079 0.250000 0.992321
O O15 0.918620 0.750000 0.582375
O O16 0.000000 0.500000 0.500000
#
# Coordination Sequence:
#
# PCOD9165311 Si02
#       6
#     4   4   4   4   4   4
#     4   9  19  37  60  83 110 146 189 232 279 334
#     4  10  22  37  57  84 114 149 189 234 282 333
#     4  10  21  38  62  86 114 151 191 235 286 339
#     4   9  20  38  60  82 111 149 186 228 282 338
#     4   9  20  39  61  83 114 154 192 233 286 342
#     4  11  24  39  59  87 118 150 190 235 284 339
#
# _framework density 18.525406
#
# number of rings (size 3 to 8) (size 9 to 14) (size 15 to 20)
#    0.000    2.333    0.000    1.000    4.667    3.333 
#    0.000    0.000    0.000    0.000    0.000    0.000 
#    0.000    0.000    0.000    0.000    0.000    0.000 
#
# Total GULP energy -134010.013557 kJ/mol
# GULP energy per Si atom -5583.750565 kJ/mol
# Density = 1.848324 g / cm^3
# Si number density = 18.525406 Si / 1000 Ang^3
#
#
#
# Elastic Constant Matrix: (Units=GPa)
#
#
# Indices 1 2 3 4 5 6 
#
# 1 176.1202 36.7790 113.6349 0.0000 -23.6863 0.0000
# 2 36.7790 18.6127 38.7775 0.0000 -4.3699 0.0000
# 3 113.6349 38.7775 178.7553 0.0000 -23.2952 0.0000
# 4 0.0000 0.0000 0.0000 34.7519 0.0000 -1.5025
# 5 -23.6863 -4.3699 -23.2952 0.0000 19.5115 0.0000
# 6 0.0000 0.0000 0.0000 -1.5025 0.0000 30.6966
#
#
#
# Elastic Compliance Matrix: (Units=1/GPa)
#
#
# Indices 1 2 3 4 5 6 
#
# 1 0.011941 -0.014669 -0.003491 0.000000 0.007042 0.000000
# 2 -0.014669 0.116326 -0.017569 0.000000 -0.012730 0.000000
# 3 -0.003491 -0.017569 0.012505 0.000000 0.006758 0.000000
# 4 0.000000 0.000000 0.000000 0.028836 0.000000 0.001411
# 5 0.007042 -0.012730 0.006758 0.000000 0.065018 0.000000
# 6 0.000000 0.000000 0.000000 0.001411 0.000000 0.032646
#
#
# Mechanical properties :
#
#
# Convention : Reuss Voigt Hill
#
# Bulk Modulus (GPa) = 14.42683 83.54123 48.98403
# Shear Modulus (GPa) = 13.81852 29.27846 21.54849
#
# Velocity S-wave (km/s) = 2.73412 3.97980 3.41425
# Velocity P-wave (km/s) = 4.21565 8.14321 6.48396
#
# Compressibility (1/GPa) = 0.06931528
#
# Stress axis : x y z
#
# Youngs Moduli (GPa) = 83.74763 8.59656 79.96679
#
# Poissons Ratio (x) = 0.12610 0.27915
# Poissons Ratio (y) = 1.22846 1.40491
# Poissons Ratio (z) = 0.29235 0.15103
#
# Static dielectric constant tensor:
#      x y z
#    x 1.623850 0.000000 0.009900 
#    y 0.000000 1.631440 0.000000 
#    z 0.009900 0.000000 1.609790 
# 
# From -- ./inp_files/33806.got.cif
#   From: 2010.05.17/outbox.cif.g08.bks.cpg/sg11_17_cif.got.tgz:33806.got - 2010.06.03 12:22:45.
