data_PCOD9165348
_publ_section_title
;
Structure prediction by ZEFSAII (Michael W. Deem and Ramdas Pophale) SiO2 
 PCOD9165348
Probable space group: P 21/M
;
_chemical_formula_sum "Si O2"
_cell_formula_units_Z 28
_cell_length_a 11.545810
_cell_length_b 19.568561
_cell_length_c 7.146183
_cell_angle_alpha 90.000000
_cell_angle_beta 118.603820
_cell_angle_gamma 90.000000
_cell_volume 1417.515241
_symmetry_space_group_name_H-M "P 21/M"
_symmetry_group_IT_number 11
_symmetry_cell_setting 'monoclinic'
loop_
_space_group_symop_operation_xyz
x,y,z
-x,1/2+y,-z
-x,-y,-z
x,1/2-y,z
loop_
_atom_site_type_symbol
_atom_site_label
_atom_site_fract_x
_atom_site_fract_y
_atom_site_fract_z
Si Si1 0.235643 0.169419 0.013417
Si Si2 0.493487 0.388370 0.021371
Si Si3 0.117842 0.929605 0.971171
Si Si4 0.236065 0.674430 0.775082
Si Si5 0.564173 0.513808 0.347272
Si Si6 0.814805 0.945972 0.743808
Si Si7 0.066003 0.828160 0.269522
O O1 0.255510 0.250000 0.062164
O O2 0.089582 0.160550 0.811265
O O3 0.352216 0.140150 0.975719
O O4 0.230049 0.125910 0.201760
O O5 0.607523 0.332453 0.127006
O O6 0.535929 0.448779 0.195977
O O7 0.488157 0.421308 0.810331
O O8 0.192221 0.886741 0.874199
O O9 0.966289 0.943024 0.796676
O O10 0.108961 0.882647 0.149027
O O11 0.185844 0.999951 0.084557
O O12 0.202629 0.750000 0.824660
O O13 0.157330 0.666444 0.520931
O O14 0.500000 0.500000 0.500000
O O15 0.717257 0.527780 0.509739
O O16 0.077116 0.750000 0.206371
#
# Coordination Sequence:
#
# PCOD9165348 Si02
#       7
#     4   4   4   4   4   4   4
#     4  10  21  41  63  89 123 159 204 257 302 362
#     4  11  24  38  64  90 124 160 200 253 304 362
#     4  10  21  38  62  92 123 157 207 253 302 360
#     4  11  23  39  61  90 123 163 201 248 305 364
#     4  11  22  40  62  90 123 158 202 247 310 360
#     4  10  21  40  63  92 121 161 204 256 302 360
#     4   9  20  39  62  87 122 163 203 250 305 355
#
# _framework density 19.752873999999998
#
# number of rings (size 3 to 8) (size 9 to 14) (size 15 to 20)
#    0.000    1.714    1.429    2.571    4.000    0.571 
#    0.000    4.286    0.000    0.000    0.000    0.000 
#    0.000    0.000    0.000    0.000    0.000    0.000 
#
# Total GULP energy -156410.126353 kJ/mol
# GULP energy per Si atom -5586.075941 kJ/mol
# Density = 1.970792 g / cm^3
# Si number density = 19.752874 Si / 1000 Ang^3
#
#
#
# Elastic Constant Matrix: (Units=GPa)
#
#
# Indices 1 2 3 4 5 6 
#
# 1 52.4225 18.1679 38.3684 0.0000 9.4674 0.0000
# 2 18.1679 91.5603 30.2656 0.0000 7.9216 0.0000
# 3 38.3684 30.2656 80.3963 0.0000 15.2445 0.0000
# 4 0.0000 0.0000 0.0000 25.5415 0.0000 5.3370
# 5 9.4674 7.9216 15.2445 0.0000 21.8039 0.0000
# 6 0.0000 0.0000 0.0000 5.3370 0.0000 30.6600
#
#
#
# Elastic Compliance Matrix: (Units=1/GPa)
#
#
# Indices 1 2 3 4 5 6 
#
# 1 0.029668 -0.001289 -0.013050 0.000000 -0.003290 0.000000
# 2 -0.001289 0.012569 -0.003870 0.000000 -0.001301 0.000000
# 3 -0.013050 -0.003870 0.021653 0.000000 -0.008066 0.000000
# 4 0.000000 0.000000 0.000000 0.040630 0.000000 -0.007072
# 5 -0.003290 -0.001301 -0.008066 0.000000 0.053404 0.000000
# 6 0.000000 0.000000 0.000000 -0.007072 0.000000 0.033847
#
#
# Mechanical properties :
#
#
# Convention : Reuss Voigt Hill
#
# Bulk Modulus (GPa) = 36.39946 44.22032 40.30989
# Shear Modulus (GPa) = 21.06640 24.77290 22.91965
#
# Velocity S-wave (km/s) = 3.26927 3.54523 3.41004
# Velocity P-wave (km/s) = 5.71999 6.26048 5.99633
#
# Compressibility (1/GPa) = 0.02747293
#
# Stress axis : x y z
#
# Youngs Moduli (GPa) = 33.70675 79.55887 46.18372
#
# Poissons Ratio (x) = 0.10252 0.60268
# Poissons Ratio (y) = 0.04343 0.17873
# Poissons Ratio (z) = 0.43986 0.30790
#
# Static dielectric constant tensor:
#      x y z
#    x 1.707400 0.000000 0.015320 
#    y 0.000000 1.687170 0.000000 
#    z 0.015320 0.000000 1.656820 
# 
# From -- ./inp_files/4934.got.cif
#   From: 2010.05.17/outbox.cif.g08.bks.cpg/sg11_3_cif.got.tgz:4934.got - 2010.06.03 12:22:45.
