data_PCOD9165873
_publ_section_title
;
Structure prediction by ZEFSAII (Michael W. Deem and Ramdas Pophale) SiO2 
 PCOD9165873
Probable space group: P 21/M
;
_chemical_formula_sum "Si O2"
_cell_formula_units_Z 32
_cell_length_a 9.841521
_cell_length_b 21.060904
_cell_length_c 16.118037
_cell_angle_alpha 90.000000
_cell_angle_beta 29.419730
_cell_angle_gamma 90.000000
_cell_volume 1641.016835
_symmetry_space_group_name_H-M "P 21/M"
_symmetry_group_IT_number 11
_symmetry_cell_setting 'monoclinic'
loop_
_space_group_symop_operation_xyz
x,y,z
-x,1/2+y,-z
-x,-y,-z
x,1/2-y,z
loop_
_atom_site_type_symbol
_atom_site_label
_atom_site_fract_x
_atom_site_fract_y
_atom_site_fract_z
Si Si1 0.603062 0.177429 0.451257
Si Si2 0.985026 0.873269 0.628487
Si Si3 0.782309 0.943145 0.111715
Si Si4 0.379441 0.676935 0.910381
Si Si5 0.888844 0.322491 0.121062
Si Si6 0.184606 0.506650 0.198618
Si Si7 0.878595 0.590496 0.241402
Si Si8 0.191613 0.943416 0.365849
O O1 0.507839 0.250000 0.510978
O O2 0.810567 0.161985 0.416878
O O3 0.760195 0.171326 0.280258
O O4 0.341389 0.131132 0.590995
O O5 0.122282 0.885843 0.464966
O O6 0.689821 0.839913 0.771439
O O7 0.915006 0.940920 0.708436
O O8 0.726233 0.926158 0.236862
O O9 0.506606 0.964027 0.212931
O O10 0.897529 0.879408 0.007800
O O11 0.000000 0.000000 0.000000
O O12 0.319373 0.750000 0.963670
O O13 0.333111 0.670065 0.835644
O O14 0.151779 0.631291 0.073180
O O15 0.001493 0.250000 0.053017
O O16 0.157832 0.560221 0.285052
O O17 0.985930 0.528230 0.230448
O O18 0.500000 0.500000 0.000000
O O19 0.000000 0.000000 0.500000
#
# Coordination Sequence:
#
# PCOD9165873 Si02
#       8
#     4   4   4   4   4   4   4   4
#     4  11  24  43  65  94 128 162 212 268 314 374
#     4  11  23  41  61  91 128 166 204 254 320 369
#     4  11  23  40  67  94 126 167 214 258 319 381
#     4  10  21  41  65  86 119 169 212 248 309 381
#     4   9  23  41  64  93 127 167 212 265 320 382
#     4  11  23  40  63  92 129 160 205 257 311 375
#     4  11  23  40  64  96 123 162 207 262 315 370
#     4  10  24  41  57  90 130 162 198 255 316 373
#
# _framework density 19.500105000000001
#
# number of rings (size 3 to 8) (size 9 to 14) (size 15 to 20)
#    0.000    1.500    2.500    1.500   10.500    2.000 
#    0.000    0.000    0.000    0.750    0.000    0.000 
#    0.000    0.000    0.000    0.000    0.000    0.000 
#
# Total GULP energy -178686.237121 kJ/mol
# GULP energy per Si atom -5583.944910 kJ/mol
# Density = 1.945572 g / cm^3
# Si number density = 19.500105 Si / 1000 Ang^3
#
#
#
# Elastic Constant Matrix: (Units=GPa)
#
#
# Indices 1 2 3 4 5 6 
#
# 1 43.8776 8.2395 19.0394 0.0000 -0.7226 0.0000
# 2 8.2395 63.7278 13.7763 0.0000 6.9849 0.0000
# 3 19.0394 13.7763 45.6263 0.0000 1.3348 0.0000
# 4 0.0000 0.0000 0.0000 28.1059 0.0000 -1.2467
# 5 -0.7226 6.9849 1.3348 0.0000 38.4807 0.0000
# 6 0.0000 0.0000 0.0000 -1.2467 0.0000 33.8474
#
#
#
# Elastic Compliance Matrix: (Units=1/GPa)
#
#
# Indices 1 2 3 4 5 6 
#
# 1 0.027961 -0.001297 -0.011310 0.000000 0.001153 0.000000
# 2 -0.001297 0.017171 -0.004556 0.000000 -0.002983 0.000000
# 3 -0.011310 -0.004556 0.028023 0.000000 -0.000357 0.000000
# 4 0.000000 0.000000 0.000000 0.035638 0.000000 0.001313
# 5 0.001153 -0.002983 -0.000357 0.000000 0.026563 0.000000
# 6 0.000000 0.000000 0.000000 0.001313 0.000000 0.029593
#
#
# Mechanical properties :
#
#
# Convention : Reuss Voigt Hill
#
# Bulk Modulus (GPa) = 25.75379 26.14912 25.95146
# Shear Modulus (GPa) = 23.56077 27.56522 25.56299
#
# Velocity S-wave (km/s) = 3.47974 3.76386 3.62458
# Velocity P-wave (km/s) = 5.42038 5.68574 5.55464
#
# Compressibility (1/GPa) = 0.03882923
#
# Stress axis : x y z
#
# Youngs Moduli (GPa) = 35.76439 58.23665 35.68504
#
# Poissons Ratio (x) = 0.07551 0.40360
# Poissons Ratio (y) = 0.04637 0.16259
# Poissons Ratio (z) = 0.40450 0.26535
#
# Static dielectric constant tensor:
#      x y z
#    x 1.663470 0.000000 0.028320 
#    y 0.000000 1.691540 0.000000 
#    z 0.028320 0.000000 1.673180 
# 
# From -- ./inp_files/23402.got.cif
#   From: 2010.05.17/outbox.cif.g08.bks.cpg/sg11_12_cif.got.tgz:23402.got - 2010.06.03 12:22:45.
