data_PCOD9165254
_publ_section_title
;
Structure prediction by ZEFSAII (Michael W. Deem and Ramdas Pophale) SiO2 
 PCOD9165254
Probable space group: P 21/M
;
_chemical_formula_sum "Si O2"
_cell_formula_units_Z 32
_cell_length_a 15.823531
_cell_length_b 8.804564
_cell_length_c 24.217475
_cell_angle_alpha 90.000000
_cell_angle_beta 28.134672
_cell_angle_gamma 90.000000
_cell_volume 1590.976699
_symmetry_space_group_name_H-M "P 21/M"
_symmetry_group_IT_number 11
_symmetry_cell_setting 'monoclinic'
loop_
_space_group_symop_operation_xyz
x,y,z
-x,1/2+y,-z
-x,-y,-z
x,1/2-y,z
loop_
_atom_site_type_symbol
_atom_site_label
_atom_site_fract_x
_atom_site_fract_y
_atom_site_fract_z
Si Si1 0.686973 0.929792 0.373419
Si Si2 0.939227 0.930708 0.803486
Si Si3 0.838511 0.067289 0.664503
Si Si4 0.793602 0.431144 0.997378
Si Si5 0.421823 0.570528 0.775486
Si Si6 0.325790 0.567982 0.129446
Si Si7 0.817325 0.574058 0.175204
Si Si8 0.210889 0.931056 0.433988
O O1 0.693938 0.750000 0.381280
O O2 0.710382 0.948248 0.294005
O O3 0.500000 0.000000 0.500000
O O4 0.860095 0.008878 0.301120
O O5 0.939237 0.750000 0.797352
O O6 0.821110 0.978656 0.925120
O O7 0.846425 0.010102 0.805040
O O8 0.846241 0.250000 0.660191
O O9 0.701105 0.019736 0.791331
O O10 0.792461 0.018693 0.628720
O O11 0.036564 0.003271 0.562217
O O12 0.779504 0.250000 0.993397
O O13 0.977027 0.452053 0.926527
O O14 0.635891 0.478905 0.129481
O O15 0.451994 0.750000 0.759623
O O16 0.261097 0.531759 0.826654
O O17 0.599795 0.487017 0.652644
O O18 0.335756 0.750000 0.121480
O O19 0.500000 0.500000 0.000000
O O20 0.798666 0.750000 0.168551
O O21 0.198221 0.750000 0.443810
#
# Coordination Sequence:
#
# PCOD9165254 Si02
#       8
#     4   4   4   4   4   4   4   4
#     4  10  21  39  62  87 117 155 198 245 297 354
#     4  11  23  39  60  88 119 157 201 244 300 360
#     4   9  21  42  63  84 115 151 192 242 294 349
#     4   9  20  38  57  81 116 155 193 239 290 343
#     4  11  22  34  55  86 116 150 193 236 288 347
#     4  11  24  42  64  92 124 158 202 253 305 362
#     4   9  19  36  55  79 114 150 189 237 287 339
#     4  10  21  38  61  87 115 151 194 240 294 350
#
# _framework density 20.113430999999999
#
# number of rings (size 3 to 8) (size 9 to 14) (size 15 to 20)
#    0.000    2.000    0.000    3.750    1.750    6.000 
#    0.000    0.000    0.000    0.000    0.000    0.000 
#    0.000    0.000    0.000    0.000    0.000    0.000 
#
# Total GULP energy -178797.298626 kJ/mol
# GULP energy per Si atom -5587.415582 kJ/mol
# Density = 2.006765 g / cm^3
# Si number density = 20.113431 Si / 1000 Ang^3
#
#
#
# Elastic Constant Matrix: (Units=GPa)
#
#
# Indices 1 2 3 4 5 6 
#
# 1 36.6384 10.3152 2.1893 0.0000 8.5617 0.0000
# 2 10.3152 34.1372 21.8936 0.0000 9.3388 0.0000
# 3 2.1893 21.8936 97.0380 0.0000 14.8566 0.0000
# 4 0.0000 0.0000 0.0000 30.3242 0.0000 -1.9984
# 5 8.5617 9.3388 14.8566 0.0000 11.5825 0.0000
# 6 0.0000 0.0000 0.0000 -1.9984 0.0000 28.2709
#
#
#
# Elastic Compliance Matrix: (Units=1/GPa)
#
#
# Indices 1 2 3 4 5 6 
#
# 1 0.035077 -0.006269 0.004752 0.000000 -0.026970 0.000000
# 2 -0.006269 0.040573 -0.005865 0.000000 -0.020556 0.000000
# 3 0.004752 -0.005865 0.014105 0.000000 -0.016876 0.000000
# 4 0.000000 0.000000 0.000000 0.033131 0.000000 0.002342
# 5 -0.026970 -0.020556 -0.016876 0.000000 0.144493 0.000000
# 6 0.000000 0.000000 0.000000 0.002342 0.000000 0.035538
#
#
# Mechanical properties :
#
#
# Convention : Reuss Voigt Hill
#
# Bulk Modulus (GPa) = 13.33504 26.28997 19.81250
# Shear Modulus (GPa) = 14.59097 22.92991 18.76044
#
# Velocity S-wave (km/s) = 2.69631 3.38010 3.05738
# Velocity P-wave (km/s) = 4.04200 5.32284 4.72601
#
# Compressibility (1/GPa) = 0.07499043
#
# Stress axis : x y z
#
# Youngs Moduli (GPa) = 28.50870 24.64700 70.89642
#
# Poissons Ratio (x) = 0.15451 -0.33690
# Poissons Ratio (y) = 0.17872 0.41584
# Poissons Ratio (z) = -0.13548 0.14457
#
# Static dielectric constant tensor:
#      x y z
#    x 1.719190 0.000000 0.010120 
#    y 0.000000 1.675270 0.000000 
#    z 0.010120 0.000000 1.715330 
# 
# From -- ./inp_files/68997.got.cif
#   From: 2010.05.17/outbox.cif.g08.bks.cpg/sg11_35_cif.got.tgz:68997.got - 2010.06.03 12:22:45.
