data_PCOD9165083
_publ_section_title
;
Structure prediction by ZEFSAII (Michael W. Deem and Ramdas Pophale) SiO2 
 PCOD9165083
Probable space group: P 21/M
;
_chemical_formula_sum "Si O2"
_cell_formula_units_Z 28
_cell_length_a 10.056904
_cell_length_b 13.846828
_cell_length_c 16.059026
_cell_angle_alpha 90.000000
_cell_angle_beta 37.802079
_cell_angle_gamma 90.000000
_cell_volume 1370.719963
_symmetry_space_group_name_H-M "P 21/M"
_symmetry_group_IT_number 11
_symmetry_cell_setting 'monoclinic'
loop_
_space_group_symop_operation_xyz
x,y,z
-x,1/2+y,-z
-x,-y,-z
x,1/2-y,z
loop_
_atom_site_type_symbol
_atom_site_label
_atom_site_fract_x
_atom_site_fract_y
_atom_site_fract_z
Si Si1 0.538769 0.133610 0.816194
Si Si2 0.965494 0.636378 0.962676
Si Si3 0.873001 0.134828 0.503568
Si Si4 0.447439 0.527724 0.431766
Si Si5 0.092908 0.441050 0.830859
Si Si6 0.122855 0.862380 0.225655
Si Si7 0.235116 0.360673 0.448638
O O1 0.551444 0.250000 0.814677
O O2 0.288336 0.110579 0.928368
O O3 0.689882 0.108562 0.662951
O O4 0.658619 0.097422 0.839989
O O5 0.001537 0.750000 0.927623
O O6 0.005117 0.612285 0.040266
O O7 0.091605 0.556010 0.847777
O O8 0.874661 0.250000 0.492591
O O9 0.103676 0.108611 0.430488
O O10 0.780903 0.083216 0.467604
O O11 0.500000 0.500000 0.500000
O O12 0.655642 0.589956 0.301621
O O13 0.417083 0.433356 0.389213
O O14 0.965922 0.417014 0.810077
O O15 0.154232 0.750000 0.186447
O O16 0.944028 0.862353 0.388357
O O17 0.307841 0.250000 0.402740
#
# Coordination Sequence:
#
# PCOD9165083 Si02
#       7
#     4   4   4   4   4   4   4
#     4   8  15  31  56  78  97 134 180 223 263 301
#     4  10  21  38  56  75 104 142 182 224 265 316
#     4   9  18  34  56  78 102 140 186 223 260 314
#     4  12  22  33  52  84 116 142 173 218 272 328
#     4  11  22  34  54  82 108 142 180 215 273 325
#     4   9  17  32  54  80 107 133 176 226 264 311
#     4   9  19  35  54  76 106 146 183 221 265 310
#
# _framework density 20.427220999999999
#
# number of rings (size 3 to 8) (size 9 to 14) (size 15 to 20)
#    0.000    2.286    2.857    2.571    0.000    2.286 
#    0.000    0.000    0.000    0.000    0.000    0.000 
#    0.000    0.000    0.000    0.000    0.000    0.000 
#
# Total GULP energy -156152.507378 kJ/mol
# GULP energy per Si atom -5576.875263 kJ/mol
# Density = 2.038073 g / cm^3
# Si number density = 20.427221 Si / 1000 Ang^3
#
#
#
# Elastic Constant Matrix: (Units=GPa)
#
#
# Indices 1 2 3 4 5 6 
#
# 1 169.0502 35.7422 12.1457 0.0000 14.3457 0.0000
# 2 35.7422 77.2920 -2.2682 0.0000 3.8457 0.0000
# 3 12.1457 -2.2682 9.3515 0.0000 1.8025 0.0000
# 4 0.0000 0.0000 0.0000 16.3152 0.0000 -3.7775
# 5 14.3457 3.8457 1.8025 0.0000 23.6183 0.0000
# 6 0.0000 0.0000 0.0000 -3.7775 0.0000 33.0917
#
#
#
# Elastic Compliance Matrix: (Units=1/GPa)
#
#
# Indices 1 2 3 4 5 6 
#
# 1 0.007718 -0.003707 -0.010288 0.000000 -0.003299 0.000000
# 2 -0.003707 0.014946 0.008601 0.000000 -0.000839 0.000000
# 3 -0.010288 0.008601 0.123262 0.000000 -0.004559 0.000000
# 4 0.000000 0.000000 0.000000 0.062956 0.000000 0.007187
# 5 -0.003299 -0.000839 -0.004559 0.000000 0.044829 0.000000
# 6 0.000000 0.000000 0.000000 0.007187 0.000000 0.031039
#
#
# Mechanical properties :
#
#
# Convention : Reuss Voigt Hill
#
# Bulk Modulus (GPa) = 7.39975 38.54813 22.97394
# Shear Modulus (GPa) = 14.68068 28.60997 21.64532
#
# Velocity S-wave (km/s) = 2.68373 3.74649 3.25873
# Velocity P-wave (km/s) = 3.63780 6.13407 5.04284
#
# Compressibility (1/GPa) = 0.13513968
#
# Stress axis : x y z
#
# Youngs Moduli (GPa) = 129.56274 66.90638 8.11282
#
# Poissons Ratio (x) = 0.24802 0.08346
# Poissons Ratio (y) = 0.48028 -0.06978
# Poissons Ratio (z) = 1.33290 -0.57548
#
# Static dielectric constant tensor:
#      x y z
#    x 1.765930 0.000000 -0.008610 
#    y 0.000000 1.748010 0.000000 
#    z -0.008610 0.000000 1.726840 
# 
# From -- ./inp_files/17704.got.cif
#   From: 2010.05.17/outbox.cif.g08.bks.cpg/sg11_9_cif.got.tgz:17704.got - 2010.06.03 12:22:45.
