data_PCOD9165177
_publ_section_title
;
Structure prediction by ZEFSAII (Michael W. Deem and Ramdas Pophale) SiO2 
 PCOD9165177
Probable space group: P 21/M
;
_chemical_formula_sum "Si O2"
_cell_formula_units_Z 32
_cell_length_a 26.873908
_cell_length_b 8.592723
_cell_length_c 15.879819
_cell_angle_alpha 90.000000
_cell_angle_beta 152.785891
_cell_angle_gamma 90.000000
_cell_volume 1676.966805
_symmetry_space_group_name_H-M "P 21/M"
_symmetry_group_IT_number 11
_symmetry_cell_setting 'monoclinic'
loop_
_space_group_symop_operation_xyz
x,y,z
-x,1/2+y,-z
-x,-y,-z
x,1/2-y,z
loop_
_atom_site_type_symbol
_atom_site_label
_atom_site_fract_x
_atom_site_fract_y
_atom_site_fract_z
Si Si1 0.509591 0.064719 0.877484
Si Si2 0.277993 0.063782 0.271049
Si Si3 0.502533 0.564280 0.680531
Si Si4 0.056914 0.936239 0.002282
Si Si5 0.955327 0.936639 0.344962
Si Si6 0.922331 0.561903 0.634460
Si Si7 0.330000 0.437422 0.743629
Si Si8 0.274583 0.439415 0.071861
O O1 0.509537 0.250000 0.863782
O O2 0.402008 0.023332 0.769941
O O3 0.511595 0.978785 0.791998
O O4 0.611049 0.016301 0.088475
O O5 0.270021 0.250000 0.261393
O O6 0.264788 0.010871 0.154164
O O7 0.395074 0.012534 0.480623
O O8 0.180250 0.993787 0.178391
O O9 0.494444 0.750000 0.658525
O O10 0.611751 0.509357 0.797351
O O11 0.054637 0.750000 0.001004
O O12 0.991325 0.988454 0.819865
O O13 0.000000 0.000000 0.000000
O O14 0.956287 0.750000 0.348924
O O15 0.831379 0.989394 0.139686
O O16 0.000000 0.000000 0.500000
O O17 0.027263 0.993064 0.374569
O O18 0.927818 0.750000 0.637824
O O19 0.795744 0.518296 0.453424
O O20 0.336258 0.250000 0.763691
O O21 0.275183 0.250000 0.072413
#
# Coordination Sequence:
#
# PCOD9165177 Si02
#       8
#     4   4   4   4   4   4   4   4
#     4  10  21  38  59  89 120 155 200 249 300 358
#     4  11  22  42  65  88 120 159 202 255 309 363
#     4  11  23  39  61  90 120 157 202 250 306 366
#     4  11  24  41  64  95 127 165 209 256 309 371
#     4  11  23  41  63  92 125 164 205 252 309 369
#     4  10  22  41  64  91 122 163 206 252 307 365
#     4   9  20  39  61  82 118 161 196 243 303 358
#     4   9  21  41  63  85 119 160 199 247 306 363
#
# _framework density 19.082070999999999
#
# number of rings (size 3 to 8) (size 9 to 14) (size 15 to 20)
#    0.000    1.750    1.250    2.250    3.500    1.500 
#    0.000    3.750    0.000    0.000    0.000    0.000 
#    0.000    0.000    0.000    0.000    0.000    0.000 
#
# Total GULP energy -178844.147000 kJ/mol
# GULP energy per Si atom -5588.879594 kJ/mol
# Density = 1.903864 g / cm^3
# Si number density = 19.082071 Si / 1000 Ang^3
#
#
#
# Elastic Constant Matrix: (Units=GPa)
#
#
# Indices 1 2 3 4 5 6 
#
# 1 141.6614 29.4232 66.6699 0.0000 6.2299 0.0000
# 2 29.4232 33.2221 18.0747 0.0000 4.4587 0.0000
# 3 66.6699 18.0747 83.8701 0.0000 34.9615 0.0000
# 4 0.0000 0.0000 0.0000 29.6292 0.0000 -3.5687
# 5 6.2299 4.4587 34.9615 0.0000 30.9537 0.0000
# 6 0.0000 0.0000 0.0000 -3.5687 0.0000 31.3137
#
#
#
# Elastic Compliance Matrix: (Units=1/GPa)
#
#
# Indices 1 2 3 4 5 6 
#
# 1 0.017835 -0.006828 -0.021958 0.000000 0.022195 0.000000
# 2 -0.006828 0.037398 -0.001812 0.000000 -0.001966 0.000000
# 3 -0.021958 -0.001812 0.052568 0.000000 -0.054694 0.000000
# 4 0.000000 0.000000 0.000000 0.034220 0.000000 0.003900
# 5 0.022195 -0.001966 -0.054694 0.000000 0.089898 0.000000
# 6 0.000000 0.000000 0.000000 0.003900 0.000000 0.032379
#
#
# Mechanical properties :
#
#
# Convention : Reuss Voigt Hill
#
# Bulk Modulus (GPa) = 21.45752 54.12101 37.78927
# Shear Modulus (GPa) = 14.66143 28.01838 21.33991
#
# Velocity S-wave (km/s) = 2.77489 3.83601 3.34776
# Velocity P-wave (km/s) = 4.64069 6.93136 5.89829
#
# Compressibility (1/GPa) = 0.04660371
#
# Stress axis : x y z
#
# Youngs Moduli (GPa) = 56.06807 26.73966 19.02290
#
# Poissons Ratio (x) = 0.18258 0.41771
# Poissons Ratio (y) = 0.38284 0.03447
# Poissons Ratio (z) = 1.23117 0.04846
#
# Static dielectric constant tensor:
#      x y z
#    x 1.631470 0.000000 0.005420 
#    y 0.000000 1.653800 0.000000 
#    z 0.005420 0.000000 1.643670 
# 
# From -- ./inp_files/55703.got.cif
#   From: 2010.05.17/outbox.cif.g08.bks.cpg/sg11_28_cif.got.tgz:55703.got - 2010.06.03 12:22:45.
