data_PCOD9165271
_publ_section_title
;
Structure prediction by ZEFSAII (Michael W. Deem and Ramdas Pophale) SiO2 
 PCOD9165271
Probable space group: P 21/M
;
_chemical_formula_sum "Si O2"
_cell_formula_units_Z 24
_cell_length_a 7.533892
_cell_length_b 20.620606
_cell_length_c 8.551477
_cell_angle_alpha 90.000000
_cell_angle_beta 55.959938
_cell_angle_gamma 90.000000
_cell_volume 1100.857691
_symmetry_space_group_name_H-M "P 21/M"
_symmetry_group_IT_number 11
_symmetry_cell_setting 'monoclinic'
loop_
_space_group_symop_operation_xyz
x,y,z
-x,1/2+y,-z
-x,-y,-z
x,1/2-y,z
loop_
_atom_site_type_symbol
_atom_site_label
_atom_site_fract_x
_atom_site_fract_y
_atom_site_fract_z
Si Si1 0.106830 0.001025 0.120244
Si Si2 0.351579 0.177516 0.679615
Si Si3 0.257544 0.144256 0.076848
Si Si4 0.693849 0.543180 0.475531
Si Si5 0.789859 0.322650 0.312229
Si Si6 0.578514 0.102418 0.133774
O O1 0.914020 0.995021 0.339152
O O2 0.238150 0.067027 0.064362
O O3 0.268607 0.941096 0.047267
O O4 0.000000 0.000000 0.000000
O O5 0.291363 0.250000 0.648190
O O6 0.272561 0.113114 0.627683
O O7 0.608156 0.171855 0.532855
O O8 0.285620 0.173557 0.891701
O O9 0.454732 0.156076 0.094521
O O10 0.027350 0.165014 0.254693
O O11 0.500000 0.500000 0.500000
O O12 0.607792 0.560515 0.689334
O O13 0.780887 0.250000 0.252814
O O14 0.721221 0.369655 0.205126
#
# Coordination Sequence:
#
# PCOD9165271 Si02
#       6
#     4   4   4   4   4   4
#     4  12  20  37  61  88 123 160 203 253 308 378
#     4  10  21  38  61  88 121 165 209 256 318 385
#     4  12  23  38  62  90 123 158 206 257 315 370
#     4  11  20  38  65  90 126 166 210 263 320 377
#     4  10  22  41  61  83 117 159 202 250 309 373
#     4  11  24  38  61  93 119 159 204 259 311 372
#
# _framework density 21.801185
#
# number of rings (size 3 to 8) (size 9 to 14) (size 15 to 20)
#    0.000    1.000    5.000    2.000    0.000    3.333 
#    0.000    0.000    0.000    4.000    0.000    0.000 
#    0.000    0.000    0.000    0.000    0.000    0.000 
#
# Total GULP energy -134063.806471 kJ/mol
# GULP energy per Si atom -5585.991936 kJ/mol
# Density = 2.175156 g / cm^3
# Si number density = 21.801185 Si / 1000 Ang^3
#
#
#
# Elastic Constant Matrix: (Units=GPa)
#
#
# Indices 1 2 3 4 5 6 
#
# 1 58.2831 6.3781 6.1199 0.0000 -10.7552 0.0000
# 2 6.3781 84.0775 -0.1321 0.0000 -8.2275 0.0000
# 3 6.1199 -0.1321 55.6503 0.0000 -21.7516 0.0000
# 4 0.0000 0.0000 0.0000 29.6854 0.0000 -9.9070
# 5 -10.7552 -8.2275 -21.7516 0.0000 31.8749 0.0000
# 6 0.0000 0.0000 0.0000 -9.9070 0.0000 14.8956
#
#
#
# Elastic Compliance Matrix: (Units=1/GPa)
#
#
# Indices 1 2 3 4 5 6 
#
# 1 0.018358 -0.000776 0.000439 0.000000 0.006294 0.000000
# 2 -0.000776 0.012356 0.001717 0.000000 0.004099 0.000000
# 3 0.000439 0.001717 0.024761 0.000000 0.017488 0.000000
# 4 0.000000 0.000000 0.000000 0.043297 0.000000 0.028797
# 5 0.006294 0.004099 0.017488 0.000000 0.046488 0.000000
# 6 0.000000 0.000000 0.000000 0.028797 0.000000 0.086287
#
#
# Mechanical properties :
#
#
# Convention : Reuss Voigt Hill
#
# Bulk Modulus (GPa) = 17.17171 24.74920 20.96045
# Shear Modulus (GPa) = 20.14519 27.66751 23.90635
#
# Velocity S-wave (km/s) = 3.04310 3.56628 3.31503
# Velocity P-wave (km/s) = 4.49899 5.32304 4.92827
#
# Compressibility (1/GPa) = 0.05823533
#
# Stress axis : x y z
#
# Youngs Moduli (GPa) = 54.47265 80.92915 40.38674
#
# Poissons Ratio (x) = 0.06281 -0.01774
# Poissons Ratio (y) = 0.04227 -0.06934
# Poissons Ratio (z) = -0.02393 -0.13895
#
# Static dielectric constant tensor:
#      x y z
#    x 1.823910 0.000000 0.005430 
#    y 0.000000 1.862060 0.000000 
#    z 0.005430 0.000000 1.775020 
# 
# From -- ./inp_files/14201.got.cif
#   From: 2010.05.17/outbox.cif.g08.bks.cpg/sg11_8_cif.got.tgz:14201.got - 2010.06.03 12:22:45.
