data_PCOD9165805
_publ_section_title
;
Structure prediction by ZEFSAII (Michael W. Deem and Ramdas Pophale) SiO2 
 PCOD9165805
Probable space group: P 21/M
;
_chemical_formula_sum "Si O2"
_cell_formula_units_Z 32
_cell_length_a 10.732678
_cell_length_b 24.584569
_cell_length_c 11.128823
_cell_angle_alpha 90.000000
_cell_angle_beta 146.496586
_cell_angle_gamma 90.000000
_cell_volume 1620.871274
_symmetry_space_group_name_H-M "P 21/M"
_symmetry_group_IT_number 11
_symmetry_cell_setting 'monoclinic'
loop_
_space_group_symop_operation_xyz
x,y,z
-x,1/2+y,-z
-x,-y,-z
x,1/2-y,z
loop_
_atom_site_type_symbol
_atom_site_label
_atom_site_fract_x
_atom_site_fract_y
_atom_site_fract_z
Si Si1 0.875084 0.866119 0.911036
Si Si2 0.385087 0.082396 0.655986
Si Si3 0.379777 0.189450 0.493194
Si Si4 0.951638 0.486981 0.648380
Si Si5 0.433394 0.902189 0.675877
Si Si6 0.799426 0.312647 0.652082
Si Si7 0.843799 0.462268 0.957176
Si Si8 0.396986 0.439659 0.927601
O O1 0.793660 0.819080 0.756496
O O2 0.658211 0.901531 0.775654
O O3 0.984115 0.843120 0.120069
O O4 0.046125 0.903494 0.975056
O O5 0.348479 0.139188 0.558588
O O6 0.577424 0.049066 0.736502
O O7 0.459548 0.090722 0.854220
O O8 0.170998 0.042139 0.492620
O O9 0.357841 0.250000 0.527742
O O10 0.620963 0.185334 0.619458
O O11 0.743967 0.447338 0.511291
O O12 0.126906 0.449902 0.715646
O O13 0.111216 0.509120 0.880940
O O14 0.312146 0.845090 0.547842
O O15 0.504815 0.913279 0.871121
O O16 0.843894 0.250000 0.659245
O O17 0.000000 0.500000 0.000000
O O18 0.500000 0.500000 0.000000
#
# Coordination Sequence:
#
# PCOD9165805 Si02
#       8
#     4   4   4   4   4   4   4   4
#     4  11  21  39  63  95 126 159 205 257 314 379
#     4  12  24  40  61  93 127 172 211 254 314 381
#     4  10  22  40  63  93 124 162 208 259 320 378
#     4  12  23  40  60  91 130 166 210 260 307 379
#     4  11  24  40  63  93 126 168 210 257 312 372
#     4  10  21  40  66  92 124 163 208 264 317 370
#     4  12  23  34  58  95 132 164 203 251 318 376
#     4  12  24  41  61  91 125 170 217 251 308 376
#
# _framework density 19.742469
#
# number of rings (size 3 to 8) (size 9 to 14) (size 15 to 20)
#    0.000    0.750    5.000    3.750    1.750    1.500 
#    0.000    0.625    0.000    0.750    0.000    0.000 
#    0.000    0.000    0.000    0.000    0.000    0.000 
#
# Total GULP energy -178481.945262 kJ/mol
# GULP energy per Si atom -5577.560789 kJ/mol
# Density = 1.969753 g / cm^3
# Si number density = 19.742469 Si / 1000 Ang^3
#
#
#
# Elastic Constant Matrix: (Units=GPa)
#
#
# Indices 1 2 3 4 5 6 
#
# 1 58.5785 32.6252 30.4879 0.0000 -6.0894 0.0000
# 2 32.6252 114.1236 42.4339 0.0000 -6.4821 0.0000
# 3 30.4879 42.4339 70.4086 0.0000 7.9872 0.0000
# 4 0.0000 0.0000 0.0000 24.6582 0.0000 -7.0980
# 5 -6.0894 -6.4821 7.9872 0.0000 31.8563 0.0000
# 6 0.0000 0.0000 0.0000 -7.0980 0.0000 4.8767
#
#
#
# Elastic Compliance Matrix: (Units=1/GPa)
#
#
# Indices 1 2 3 4 5 6 
#
# 1 0.024356 -0.003106 -0.009398 0.000000 0.006380 0.000000
# 2 -0.003106 0.012241 -0.006430 0.000000 0.003509 0.000000
# 3 -0.009398 -0.006430 0.023159 0.000000 -0.008912 0.000000
# 4 0.000000 0.000000 0.000000 0.069798 0.000000 0.101590
# 5 0.006380 0.003509 -0.008912 0.000000 0.035559 0.000000
# 6 0.000000 0.000000 0.000000 0.101590 0.000000 0.352923
#
#
# Mechanical properties :
#
#
# Convention : Reuss Voigt Hill
#
# Bulk Modulus (GPa) = 45.69125 50.46719 48.07922
# Shear Modulus (GPa) = 8.87786 21.44913 15.16350
#
# Velocity S-wave (km/s) = 2.12287 3.29970 2.77441
# Velocity P-wave (km/s) = 5.40395 6.33527 5.88805
#
# Compressibility (1/GPa) = 0.02188603
#
# Stress axis : x y z
#
# Youngs Moduli (GPa) = 41.05838 81.69523 43.18007
#
# Poissons Ratio (x) = 0.25373 0.40582
# Poissons Ratio (y) = 0.12752 0.27767
# Poissons Ratio (z) = 0.38588 0.52534
#
# Static dielectric constant tensor:
#      x y z
#    x 1.821650 0.000000 -0.003390 
#    y 0.000000 1.687740 0.000000 
#    z -0.003390 0.000000 1.736270 
# 
# From -- ./inp_files/36585.got.cif
#   From: 2010.05.17/outbox.cif.g08.bks.cpg/sg11_19_cif.got.tgz:36585.got - 2010.06.03 12:22:45.
