data_PCOD9165674
_publ_section_title
;
Structure prediction by ZEFSAII (Michael W. Deem and Ramdas Pophale) SiO2 
 PCOD9165674
Probable space group: P 21/M
;
_chemical_formula_sum "Si O2"
_cell_formula_units_Z 24
_cell_length_a 7.808557
_cell_length_b 20.247353
_cell_length_c 9.017484
_cell_angle_alpha 90.000000
_cell_angle_beta 128.967819
_cell_angle_gamma 90.000000
_cell_volume 1108.471240
_symmetry_space_group_name_H-M "P 21/M"
_symmetry_group_IT_number 11
_symmetry_cell_setting 'monoclinic'
loop_
_space_group_symop_operation_xyz
x,y,z
-x,1/2+y,-z
-x,-y,-z
x,1/2-y,z
loop_
_atom_site_type_symbol
_atom_site_label
_atom_site_fract_x
_atom_site_fract_y
_atom_site_fract_z
Si Si1 0.207533 0.364694 0.901684
Si Si2 0.962651 0.175630 0.497237
Si Si3 0.330133 0.411768 0.525328
Si Si4 0.006169 0.005794 0.179131
Si Si5 0.574716 0.066308 0.954509
Si Si6 0.524146 0.828871 0.674835
O O1 0.088607 0.435671 0.822112
O O2 0.444487 0.372872 0.952106
O O3 0.057575 0.320062 0.717070
O O4 0.272476 0.346392 0.104027
O O5 0.961648 0.250000 0.432133
O O6 0.710794 0.151391 0.379409
O O7 0.133983 0.128392 0.503607
O O8 0.500052 0.435850 0.743150
O O9 0.439658 0.365531 0.460887
O O10 0.225360 0.473771 0.381932
O O11 0.833898 0.065013 0.115303
O O12 0.000000 0.000000 0.000000
O O13 0.500000 0.000000 0.000000
O O14 0.517056 0.750000 0.651207
#
# Coordination Sequence:
#
# PCOD9165674 Si02
#       6
#     4   4   4   4   4   4
#     4  10  21  40  60  85 125 159 200 252 304 362
#     4  10  23  42  63  88 121 162 206 253 303 356
#     4  11  23  40  65  88 124 164 202 253 304 366
#     4  11  22  37  59  93 124 158 199 246 307 365
#     4   9  22  39  58  87 121 159 197 240 299 367
#     4  11  23  39  62  90 118 159 209 255 303 360
#
# _framework density 21.651441999999999
#
# number of rings (size 3 to 8) (size 9 to 14) (size 15 to 20)
#    0.000    1.667    1.667    2.000    2.333    9.333 
#    0.000    0.000    0.000    8.000    0.000    0.000 
#    0.000    0.000    0.000    0.000    0.000    0.000 
#
# Total GULP energy -133949.267588 kJ/mol
# GULP energy per Si atom -5581.219483 kJ/mol
# Density = 2.160216 g / cm^3
# Si number density = 21.651442 Si / 1000 Ang^3
#
#
#
# Elastic Constant Matrix: (Units=GPa)
#
#
# Indices 1 2 3 4 5 6 
#
# 1 56.8799 20.4542 7.2057 0.0000 -1.1888 0.0000
# 2 20.4542 61.1469 19.4745 0.0000 3.7276 0.0000
# 3 7.2057 19.4745 125.5481 0.0000 -5.9903 0.0000
# 4 0.0000 0.0000 0.0000 20.9827 0.0000 -3.4536
# 5 -1.1888 3.7276 -5.9903 0.0000 32.4452 0.0000
# 6 0.0000 0.0000 0.0000 -3.4536 0.0000 19.1087
#
#
#
# Elastic Compliance Matrix: (Units=1/GPa)
#
#
# Indices 1 2 3 4 5 6 
#
# 1 0.020059 -0.006794 -0.000025 0.000000 0.001511 0.000000
# 2 -0.006794 0.019707 -0.002812 0.000000 -0.003032 0.000000
# 3 -0.000025 -0.002812 0.008493 0.000000 0.001890 0.000000
# 4 0.000000 0.000000 0.000000 0.049120 0.000000 0.008878
# 5 0.001511 -0.003032 0.001890 0.000000 0.031574 0.000000
# 6 0.000000 0.000000 0.000000 0.008878 0.000000 0.053937
#
#
# Mechanical properties :
#
#
# Convention : Reuss Voigt Hill
#
# Bulk Modulus (GPa) = 34.48637 37.53819 36.01228
# Shear Modulus (GPa) = 23.60537 27.60333 25.60435
#
# Velocity S-wave (km/s) = 3.30547 3.57444 3.44258
# Velocity P-wave (km/s) = 5.52546 5.86606 5.69831
#
# Compressibility (1/GPa) = 0.02899696
#
# Stress axis : x y z
#
# Youngs Moduli (GPa) = 49.85344 50.74342 117.74624
#
# Poissons Ratio (x) = 0.34475 0.00298
# Poissons Ratio (y) = 0.33870 0.33106
# Poissons Ratio (z) = 0.00126 0.14267
#
# Static dielectric constant tensor:
#      x y z
#    x 1.862510 0.000000 -0.022810 
#    y 0.000000 1.697860 0.000000 
#    z -0.022810 0.000000 1.806780 
# 
# From -- ./inp_files/14410.got.cif
#   From: 2010.05.17/outbox.cif.g08.bks.cpg/sg11_8_cif.got.tgz:14410.got - 2010.06.03 12:22:45.
