data_PCOD9165403
_publ_section_title
;
Structure prediction by ZEFSAII (Michael W. Deem and Ramdas Pophale) SiO2 
 PCOD9165403
Probable space group: P 21/M
;
_chemical_formula_sum "Si O2"
_cell_formula_units_Z 24
_cell_length_a 5.141005
_cell_length_b 17.199524
_cell_length_c 13.616237
_cell_angle_alpha 90.000000
_cell_angle_beta 98.001873
_cell_angle_gamma 90.000000
_cell_volume 1192.263740
_symmetry_space_group_name_H-M "P 21/M"
_symmetry_group_IT_number 11
_symmetry_cell_setting 'monoclinic'
loop_
_space_group_symop_operation_xyz
x,y,z
-x,1/2+y,-z
-x,-y,-z
x,1/2-y,z
loop_
_atom_site_type_symbol
_atom_site_label
_atom_site_fract_x
_atom_site_fract_y
_atom_site_fract_z
Si Si1 0.108186 0.663142 0.638969
Si Si2 0.595685 0.556543 0.095376
Si Si3 0.475840 0.045160 0.262311
Si Si4 0.879376 0.832884 0.843892
Si Si5 0.904190 0.340783 0.938262
Si Si6 0.229007 0.032084 0.441782
O O1 0.174415 0.750000 0.606802
O O2 0.347457 0.602305 0.660749
O O3 0.020156 0.669808 0.747222
O O4 0.863847 0.622518 0.570674
O O5 0.638204 0.511075 0.200447
O O6 0.851840 0.605869 0.081177
O O7 0.362208 0.617198 0.104565
O O8 0.500000 0.500000 0.000000
O O9 0.321066 0.097563 0.175962
O O10 0.266478 0.009041 0.328302
O O11 0.737921 0.750000 0.852056
O O12 0.080415 0.842018 0.942353
O O13 0.924062 0.250000 0.908949
O O14 0.500000 0.000000 0.500000
O O15 0.000000 0.000000 0.500000
#
# Coordination Sequence:
#
# PCOD9165403 Si02
#       6
#     4   4   4   4   4   4
#     4  10  21  38  65  99 129 158 197 258 334 390
#     4  12  24  38  64  95 130 166 224 262 315 376
#     4  11  22  36  66  93 131 160 207 262 317 372
#     4   9  19  33  54  89 130 167 204 253 319 375
#     4  11  24  41  59  85 131 182 221 262 310 370
#     4  11  23  43  65  92 125 163 206 250 317 382
#
# _framework density 20.129773
#
# number of rings (size 3 to 8) (size 9 to 14) (size 15 to 20)
#    0.000    1.333    3.333    2.500    4.667    0.667 
#    0.000    0.000    0.000    6.000    0.000    0.000 
#    0.000    0.000    0.000    0.000    0.000    0.000 
#
# Total GULP energy -133718.878566 kJ/mol
# GULP energy per Si atom -5571.619940 kJ/mol
# Density = 2.008396 g / cm^3
# Si number density = 20.129773 Si / 1000 Ang^3
#
#
#
# Elastic Constant Matrix: (Units=GPa)
#
#
# Indices 1 2 3 4 5 6 
#
# 1 103.7534 40.2181 23.8095 0.0000 -5.3005 0.0000
# 2 40.2181 94.6317 46.6938 0.0000 -8.3318 0.0000
# 3 23.8095 46.6938 64.7335 0.0000 -6.5979 0.0000
# 4 0.0000 0.0000 0.0000 24.6911 0.0000 7.0616
# 5 -5.3005 -8.3318 -6.5979 0.0000 30.7776 0.0000
# 6 0.0000 0.0000 0.0000 7.0616 0.0000 33.1633
#
#
#
# Elastic Compliance Matrix: (Units=1/GPa)
#
#
# Indices 1 2 3 4 5 6 
#
# 1 0.011600 -0.004351 -0.001068 0.000000 0.000591 0.000000
# 2 -0.004351 0.018154 -0.011317 0.000000 0.001739 0.000000
# 3 -0.001068 -0.011317 0.024202 0.000000 0.001941 0.000000
# 4 0.000000 0.000000 0.000000 0.043127 0.000000 -0.009183
# 5 0.000591 0.001739 0.001941 0.000000 0.033480 0.000000
# 6 0.000000 0.000000 0.000000 -0.009183 0.000000 0.032109
#
#
# Mechanical properties :
#
#
# Convention : Reuss Voigt Hill
#
# Bulk Modulus (GPa) = 48.81956 53.84014 51.32985
# Shear Modulus (GPa) = 24.63402 27.88622 26.26012
#
# Velocity S-wave (km/s) = 3.50202 3.72603 3.61576
# Velocity P-wave (km/s) = 6.37631 6.73169 6.55641
#
# Compressibility (1/GPa) = 0.02048359
#
# Stress axis : x y z
#
# Youngs Moduli (GPa) = 86.20630 55.08502 41.31914
#
# Poissons Ratio (x) = 0.23968 0.04412
# Poissons Ratio (y) = 0.37509 0.46761
# Poissons Ratio (z) = 0.09206 0.62341
#
# Static dielectric constant tensor:
#      x y z
#    x 1.765380 0.000000 -0.011680 
#    y 0.000000 1.774730 0.000000 
#    z -0.011680 0.000000 1.723620 
# 
# From -- ./inp_files/45750.got.cif
#   From: 2010.05.17/outbox.cif.g08.bks.cpg/sg11_23_cif.got.tgz:45750.got - 2010.06.03 12:22:45.
