data_PCOD9165494
_publ_section_title
;
Structure prediction by ZEFSAII (Michael W. Deem and Ramdas Pophale) SiO2 
 PCOD9165494
Probable space group: P 21/M
;
_chemical_formula_sum "Si O2"
_cell_formula_units_Z 22
_cell_length_a 10.171682
_cell_length_b 9.796560
_cell_length_c 10.903500
_cell_angle_alpha 90.000000
_cell_angle_beta 127.972166
_cell_angle_gamma 90.000000
_cell_volume 856.503616
_symmetry_space_group_name_H-M "P 21/M"
_symmetry_group_IT_number 11
_symmetry_cell_setting 'monoclinic'
loop_
_space_group_symop_operation_xyz
x,y,z
-x,1/2+y,-z
-x,-y,-z
x,1/2-y,z
loop_
_atom_site_type_symbol
_atom_site_label
_atom_site_fract_x
_atom_site_fract_y
_atom_site_fract_z
Si Si1 0.786257 0.406549 0.857189
Si Si2 0.477857 0.250000 0.695382
Si Si3 0.138191 0.250000 0.517411
Si Si4 0.397415 0.250000 0.099107
Si Si5 0.190396 0.527569 0.395493
Si Si6 0.777546 0.250000 0.255766
Si Si7 0.163884 0.478211 0.866056
Si Si8 0.472805 0.750000 0.574827
O O1 0.843741 0.250000 0.858940
O O2 0.595869 0.378513 0.792070
O O3 0.775605 0.492955 0.728850
O O4 0.883703 0.466385 0.026356
O O5 0.315127 0.250000 0.688291
O O6 0.471740 0.250000 0.539041
O O7 0.171182 0.387984 0.458260
O O8 0.943252 0.250000 0.436444
O O9 0.594710 0.250000 0.202219
O O10 0.311353 0.376452 0.981949
O O11 0.382462 0.250000 0.239564
O O12 0.345580 0.621795 0.521208
O O13 0.001497 0.587023 0.288853
O O14 0.792282 0.112061 0.185479
#
# Coordination Sequence:
#
# PCOD9165494 Si02
#       8
#     4   2   2   2   4   2   4   2
#     4   9  19  35  61  92 130 157 193 247 301 373
#     4   8  19  35  56  88 129 165 183 240 312 363
#     4  10  22  34  66  84 122 170 208 230 314 362
#     4  12  27  38  69  90 118 157 223 256 300 355
#     4  10  21  39  61  90 134 161 193 247 310 375
#     4  10  23  49  60  86 121 165 207 268 296 353
#     4  11  22  41  66  91 119 165 206 251 309 361
#     4  10  23  40  57  92 134 155 199 256 300 367
#
# _framework density 25.685824
#
# number of rings (size 3 to 8) (size 9 to 14) (size 15 to 20)
#    0.545    1.455    1.818    1.636    5.091    1.455 
#    0.000    3.636    8.000    0.000    0.000    0.000 
#    0.000    0.000    0.000    0.000    0.000    0.000 
#
# Total GULP energy -122800.302569 kJ/mol
# GULP energy per Si atom -5581.831935 kJ/mol
# Density = 2.562736 g / cm^3
# Si number density = 25.685824 Si / 1000 Ang^3
#
#
#
# Elastic Constant Matrix: (Units=GPa)
#
#
# Indices 1 2 3 4 5 6 
#
# 1 55.1882 22.0060 30.3965 0.0000 22.9244 0.0000
# 2 22.0060 100.9946 42.9620 0.0000 -1.4479 0.0000
# 3 30.3965 42.9620 131.4743 0.0000 10.8327 0.0000
# 4 0.0000 0.0000 0.0000 44.8877 0.0000 1.1284
# 5 22.9244 -1.4479 10.8327 0.0000 49.5793 0.0000
# 6 0.0000 0.0000 0.0000 1.1284 0.0000 31.8629
#
#
#
# Elastic Compliance Matrix: (Units=1/GPa)
#
#
# Indices 1 2 3 4 5 6 
#
# 1 0.026828 -0.004396 -0.003802 0.000000 -0.011702 0.000000
# 2 -0.004396 0.012288 -0.003255 0.000000 0.003103 0.000000
# 3 -0.003802 -0.003255 0.009584 0.000000 -0.000431 0.000000
# 4 0.000000 0.000000 0.000000 0.022298 0.000000 -0.000790
# 5 -0.011702 0.003103 -0.000431 0.000000 0.025765 0.000000
# 6 0.000000 0.000000 0.000000 -0.000790 0.000000 0.031412
#
#
# Mechanical properties :
#
#
# Convention : Reuss Voigt Hill
#
# Bulk Modulus (GPa) = 38.76734 53.15401 45.96067
# Shear Modulus (GPa) = 31.31277 38.08548 34.69912
#
# Velocity S-wave (km/s) = 3.49530 3.85482 3.67945
# Velocity P-wave (km/s) = 5.60493 6.36802 5.99862
#
# Compressibility (1/GPa) = 0.02579491
#
# Stress axis : x y z
#
# Youngs Moduli (GPa) = 37.27499 81.37744 104.33935
#
# Poissons Ratio (x) = 0.35774 0.39667
# Poissons Ratio (y) = 0.16386 0.33960
# Poissons Ratio (z) = 0.14171 0.26487
#
# Static dielectric constant tensor:
#      x y z
#    x 2.137000 0.000000 0.066460 
#    y 0.000000 1.913960 0.000000 
#    z 0.066460 0.000000 2.006260 
# 
# From -- ./inp_files/49950.got.cif
#   From: 2010.05.17/outbox.cif.g08.bks.cpg/sg11_25_cif.got.tgz:49950.got - 2010.06.03 12:22:45.
