data_PCOD9165726
_publ_section_title
;
Structure prediction by ZEFSAII (Michael W. Deem and Ramdas Pophale) SiO2 
 PCOD9165726
Probable space group: P 21/M
;
_chemical_formula_sum "Si O2"
_cell_formula_units_Z 28
_cell_length_a 9.592623
_cell_length_b 8.803237
_cell_length_c 25.592954
_cell_angle_alpha 90.000000
_cell_angle_beta 139.763155
_cell_angle_gamma 90.000000
_cell_volume 1396.041191
_symmetry_space_group_name_H-M "P 21/M"
_symmetry_group_IT_number 11
_symmetry_cell_setting 'monoclinic'
loop_
_space_group_symop_operation_xyz
x,y,z
-x,1/2+y,-z
-x,-y,-z
x,1/2-y,z
loop_
_atom_site_type_symbol
_atom_site_label
_atom_site_fract_x
_atom_site_fract_y
_atom_site_fract_z
Si Si1 0.853934 0.566963 0.004580
Si Si2 0.946017 0.074944 0.325767
Si Si3 0.353476 0.934841 0.850758
Si Si4 0.574256 0.430302 0.683508
Si Si5 0.108717 0.069901 0.582327
Si Si6 0.422180 0.424906 0.424382
Si Si7 0.025191 0.932447 0.848663
O O1 0.865902 0.750000 0.006903
O O2 0.930598 0.505972 0.082557
O O3 0.602579 0.521086 0.926117
O O4 0.000000 0.500000 0.000000
O O5 0.897933 0.250000 0.326048
O O6 0.757357 0.012088 0.234798
O O7 0.162231 0.075435 0.353143
O O8 0.988122 0.986530 0.391043
O O9 0.344016 0.750000 0.846872
O O10 0.206757 0.981740 0.858233
O O11 0.611597 0.250000 0.697032
O O12 0.363226 0.470488 0.656622
O O13 0.513637 0.478245 0.607299
O O14 0.789302 0.516953 0.761817
O O15 0.091157 0.250000 0.573085
O O16 0.000000 0.000000 0.500000
O O17 0.500000 0.500000 0.500000
O O18 0.495601 0.250000 0.440933
O O19 0.032980 0.750000 0.854840
#
# Coordination Sequence:
#
# PCOD9165726 Si02
#       7
#     4   4   4   4   4   4   4
#     4  11  24  42  65  97 131 165 203 251 305 366
#     4  10  21  40  63  89 121 162 206 254 303 362
#     4   9  20  41  66  92 124 162 206 251 307 368
#     4  11  24  41  61  91 127 162 206 258 309 366
#     4  11  25  42  60  88 123 164 209 257 310 369
#     4  11  22  38  62  91 124 160 204 255 306 365
#     4  11  22  42  68  94 124 164 208 253 308 369
#
# _framework density 20.056715000000001
#
# number of rings (size 3 to 8) (size 9 to 14) (size 15 to 20)
#    0.000    1.429    1.429    3.429    2.000    6.857 
#    0.000    2.857    0.000    0.000    0.000    0.000 
#    0.000    0.000    0.000    0.000    0.000    0.000 
#
# Total GULP energy -156528.328259 kJ/mol
# GULP energy per Si atom -5590.297438 kJ/mol
# Density = 2.001107 g / cm^3
# Si number density = 20.056715 Si / 1000 Ang^3
#
#
#
# Elastic Constant Matrix: (Units=GPa)
#
#
# Indices 1 2 3 4 5 6 
#
# 1 96.2216 25.2668 27.7151 0.0000 -0.5357 0.0000
# 2 25.2668 47.5775 24.7761 0.0000 8.0077 0.0000
# 3 27.7151 24.7761 105.1388 0.0000 -5.8198 0.0000
# 4 0.0000 0.0000 0.0000 31.6345 0.0000 -3.2481
# 5 -0.5357 8.0077 -5.8198 0.0000 36.3232 0.0000
# 6 0.0000 0.0000 0.0000 -3.2481 0.0000 31.6810
#
#
#
# Elastic Compliance Matrix: (Units=1/GPa)
#
#
# Indices 1 2 3 4 5 6 
#
# 1 0.012469 -0.005862 -0.001840 0.000000 0.001181 0.000000
# 2 -0.005862 0.028205 -0.005499 0.000000 -0.007185 0.000000
# 3 -0.001840 -0.005499 0.011459 0.000000 0.003021 0.000000
# 4 0.000000 0.000000 0.000000 0.031947 0.000000 0.003275
# 5 0.001181 -0.007185 0.003021 0.000000 0.029616 0.000000
# 6 0.000000 0.000000 0.000000 0.003275 0.000000 0.031900
#
#
# Mechanical properties :
#
#
# Convention : Reuss Voigt Hill
#
# Bulk Modulus (GPa) = 38.86479 44.93931 41.90205
# Shear Modulus (GPa) = 27.68928 31.33973 29.51450
#
# Velocity S-wave (km/s) = 3.71960 3.95721 3.84024
# Velocity P-wave (km/s) = 6.15360 6.58286 6.37185
#
# Compressibility (1/GPa) = 0.02573023
#
# Stress axis : x y z
#
# Youngs Moduli (GPa) = 80.20135 35.45531 87.26551
#
# Poissons Ratio (x) = 0.20785 0.16056
# Poissons Ratio (y) = 0.47017 0.47986
# Poissons Ratio (z) = 0.14756 0.19496
#
# Static dielectric constant tensor:
#      x y z
#    x 1.693300 0.000000 0.022050 
#    y 0.000000 1.680020 0.000000 
#    z 0.022050 0.000000 1.709150 
# 
# From -- ./inp_files/70922.got.cif
#   From: 2010.05.17/outbox.cif.g08.bks.cpg/sg11_36_cif.got.tgz:70922.got - 2010.06.03 12:22:45.
