data_PCOD9165289
_publ_section_title
;
Structure prediction by ZEFSAII (Michael W. Deem and Ramdas Pophale) SiO2 
 PCOD9165289
Probable space group: P 21/M
;
_chemical_formula_sum "Si O2"
_cell_formula_units_Z 28
_cell_length_a 5.195403
_cell_length_b 20.275959
_cell_length_c 13.114406
_cell_angle_alpha 90.000000
_cell_angle_beta 77.786453
_cell_angle_gamma 90.000000
_cell_volume 1350.225958
_symmetry_space_group_name_H-M "P 21/M"
_symmetry_group_IT_number 11
_symmetry_cell_setting 'monoclinic'
loop_
_space_group_symop_operation_xyz
x,y,z
-x,1/2+y,-z
-x,-y,-z
x,1/2-y,z
loop_
_atom_site_type_symbol
_atom_site_label
_atom_site_fract_x
_atom_site_fract_y
_atom_site_fract_z
Si Si1 0.041959 0.155256 0.154434
Si Si2 0.312087 0.750000 0.185720
Si Si3 0.497431 0.516137 0.225244
Si Si4 0.475820 0.140538 0.276374
Si Si5 0.244828 0.634927 0.357501
Si Si6 0.056618 0.499803 0.114110
Si Si7 0.109018 0.250000 0.961456
Si Si8 0.311620 0.327177 0.519153
O O1 0.763166 0.169538 0.229834
O O2 0.278323 0.171432 0.210490
O O3 0.071595 0.188768 0.042117
O O4 0.049373 0.076823 0.142610
O O5 0.272679 0.685968 0.260823
O O6 0.603562 0.750000 0.113257
O O7 0.103887 0.750000 0.110828
O O8 0.483229 0.439104 0.257970
O O9 0.350074 0.563623 0.315398
O O10 0.804338 0.534149 0.187684
O O11 0.334912 0.525282 0.132870
O O12 0.380277 0.154537 0.397874
O O13 0.436021 0.659870 0.431220
O O14 0.943875 0.634227 0.419205
O O15 0.000000 0.500000 0.000000
O O16 0.242523 0.250000 0.531015
#
# Coordination Sequence:
#
# PCOD9165289 Si02
#       8
#     4   2   4   4   4   4   2   4
#     4  10  23  40  61  96 126 157 210 253 299 382
#     4  12  26  42  59  88 131 162 212 258 296 372
#     4  10  23  40  63  90 124 161 201 263 307 357
#     4  10  23  43  65  95 127 156 206 262 313 365
#     4  12  25  44  65  91 128 161 217 254 303 374
#     4  10  21  38  61  90 122 163 208 247 306 363
#     4  12  26  40  65  90 125 176 204 246 318 358
#     4  12  24  42  66  92 122 170 203 255 318 364
#
# _framework density 20.737269999999999
#
# number of rings (size 3 to 8) (size 9 to 14) (size 15 to 20)
#    0.000    1.143    1.429    3.857    6.000    1.143 
#    0.000    0.000    0.000    0.000    0.000    0.000 
#    0.000    0.000    0.000    0.000    0.000    0.000 
#
# Total GULP energy -156574.558844 kJ/mol
# GULP energy per Si atom -5591.948530 kJ/mol
# Density = 2.069007 g / cm^3
# Si number density = 20.737270 Si / 1000 Ang^3
#
#
#
# Elastic Constant Matrix: (Units=GPa)
#
#
# Indices 1 2 3 4 5 6 
#
# 1 86.0825 -1.2871 10.7289 0.0000 -10.3794 0.0000
# 2 -1.2871 28.0180 -10.0679 0.0000 2.1092 0.0000
# 3 10.7289 -10.0679 77.8495 0.0000 -1.5342 0.0000
# 4 0.0000 0.0000 0.0000 90.7211 0.0000 23.5369
# 5 -10.3794 2.1092 -1.5342 0.0000 34.9606 0.0000
# 6 0.0000 0.0000 0.0000 23.5369 0.0000 -14.5579
#
#
#
# Elastic Compliance Matrix: (Units=1/GPa)
#
#
# Indices 1 2 3 4 5 6 
#
# 1 0.012251 -0.000302 -0.001657 0.000000 0.003583 0.000000
# 2 -0.000302 0.037585 0.004860 0.000000 -0.002144 0.000000
# 3 -0.001657 0.004860 0.013699 0.000000 -0.000184 0.000000
# 4 0.000000 0.000000 0.000000 0.007765 0.000000 0.012555
# 5 0.003583 -0.002144 -0.000184 0.000000 0.029789 0.000000
# 6 0.000000 0.000000 0.000000 0.012555 0.000000 -0.048392
#
#
# Mechanical properties :
#
#
# Convention : Reuss Voigt Hill
#
# Bulk Modulus (GPa) = 14.42241 21.18865 17.80553
# Shear Modulus (GPa) = 71.42224 35.06317 53.24271
#
# Velocity S-wave (km/s) = 5.87505 4.11643 5.07254
# Velocity P-wave (km/s) = 7.27953 5.73002 6.55075
#
# Compressibility (1/GPa) = 0.06933653
#
# Stress axis : x y z
#
# Youngs Moduli (GPa) = 81.62786 26.60619 73.00047
#
# Poissons Ratio (x) = 0.00804 0.12095
# Poissons Ratio (y) = 0.02467 -0.35479
# Poissons Ratio (z) = 0.13524 -0.12931
#
# Static dielectric constant tensor:
#      x y z
#    x 1.748870 0.000000 0.013250 
#    y 0.000000 1.718560 0.000000 
#    z 0.013250 0.000000 1.708340 
# 
# From -- ./inp_files/29997.got.cif
#   From: 2010.05.17/outbox.cif.g08.bks.cpg/sg11_15_cif.got.tgz:29997.got - 2010.06.03 12:22:45.
