data_PCOD9165877
_publ_section_title
;
Structure prediction by ZEFSAII (Michael W. Deem and Ramdas Pophale) SiO2 
 PCOD9165877
Probable space group: P 21/M
;
_chemical_formula_sum "Si O2"
_cell_formula_units_Z 32
_cell_length_a 29.354386
_cell_length_b 8.896469
_cell_length_c 12.261169
_cell_angle_alpha 90.000000
_cell_angle_beta 147.654661
_cell_angle_gamma 90.000000
_cell_volume 1713.142221
_symmetry_space_group_name_H-M "P 21/M"
_symmetry_group_IT_number 11
_symmetry_cell_setting 'monoclinic'
loop_
_space_group_symop_operation_xyz
x,y,z
-x,1/2+y,-z
-x,-y,-z
x,1/2-y,z
loop_
_atom_site_type_symbol
_atom_site_label
_atom_site_fract_x
_atom_site_fract_y
_atom_site_fract_z
Si Si1 0.845654 0.426313 0.958456
Si Si2 0.751110 0.567514 0.146352
Si Si3 0.746758 0.431176 0.379585
Si Si4 0.591214 0.574898 0.198499
Si Si5 0.088718 0.930810 0.143899
Si Si6 0.407576 0.071033 0.327978
Si Si7 0.671063 0.923654 0.595227
Si Si8 0.093336 0.429066 0.696718
O O1 0.860531 0.250000 0.009127
O O2 0.870705 0.521164 0.113985
O O3 0.894171 0.472341 0.946985
O O4 0.747397 0.460354 0.737050
O O5 0.750278 0.750000 0.152321
O O6 0.749765 0.496837 0.263576
O O7 0.836960 0.524190 0.253570
O O8 0.667557 0.521085 0.906912
O O9 0.743541 0.250000 0.369505
O O10 0.664477 0.493215 0.277023
O O11 0.831537 0.476967 0.618903
O O12 0.588956 0.750000 0.161557
O O13 0.614414 0.567374 0.373208
O O14 0.500000 0.500000 0.000000
O O15 0.084428 0.750000 0.140536
O O16 0.000000 0.000000 0.000000
O O17 0.415416 0.250000 0.329454
O O18 0.376830 0.043777 0.389281
O O19 0.500000 0.000000 0.500000
O O20 0.703487 0.750000 0.668273
O O21 0.086059 0.250000 0.675333
O O22 0.000000 0.500000 0.500000
#
# Coordination Sequence:
#
# PCOD9165877 Si02
#       8
#     4   4   4   4   4   4   4   4
#     4  11  22  40  65  93 123 158 205 257 309 365
#     4  10  23  43  63  87 124 165 202 251 308 366
#     4  11  24  43  63  90 127 164 207 257 306 368
#     4  11  24  41  65  94 125 165 209 255 313 370
#     4  10  24  42  62  91 124 162 206 254 307 364
#     4  10  22  41  62  90 123 158 202 249 305 361
#     4  10  21  41  65  89 120 161 205 254 307 365
#     4  11  24  43  65  92 126 163 207 256 309 369
#
# _framework density 18.679127000000001
#
# number of rings (size 3 to 8) (size 9 to 14) (size 15 to 20)
#    0.000    1.500    2.500    1.500    3.500    4.500 
#    0.000    0.000    0.000    0.000    0.000    0.000 
#    0.000    0.000    0.000    0.000    0.000    0.000 
#
# Total GULP energy -178757.948359 kJ/mol
# GULP energy per Si atom -5586.185886 kJ/mol
# Density = 1.863661 g / cm^3
# Si number density = 18.679127 Si / 1000 Ang^3
#
#
#
# Elastic Constant Matrix: (Units=GPa)
#
#
# Indices 1 2 3 4 5 6 
#
# 1 122.3235 32.4159 50.4603 0.0000 -2.5487 0.0000
# 2 32.4159 30.5203 26.6793 0.0000 0.6462 0.0000
# 3 50.4603 26.6793 98.5109 0.0000 8.5869 0.0000
# 4 0.0000 0.0000 0.0000 37.0121 0.0000 3.4027
# 5 -2.5487 0.6462 8.5869 0.0000 36.9244 0.0000
# 6 0.0000 0.0000 0.0000 3.4027 0.0000 34.8319
#
#
#
# Elastic Compliance Matrix: (Units=1/GPa)
#
#
# Indices 1 2 3 4 5 6 
#
# 1 0.012420 -0.009858 -0.003860 0.000000 0.001927 0.000000
# 2 -0.009858 0.050896 -0.008775 0.000000 0.000470 0.000000
# 3 -0.003860 -0.008775 0.014815 0.000000 -0.003558 0.000000
# 4 0.000000 0.000000 0.000000 0.027263 0.000000 -0.002663
# 5 0.001927 0.000470 -0.003558 0.000000 0.028035 0.000000
# 6 0.000000 0.000000 0.000000 -0.002663 0.000000 0.028969
#
#
# Mechanical properties :
#
#
# Convention : Reuss Voigt Hill
#
# Bulk Modulus (GPa) = 30.17088 52.27394 41.22241
# Shear Modulus (GPa) = 22.89028 31.20697 27.04863
#
# Velocity S-wave (km/s) = 3.50444 4.09184 3.80948
# Velocity P-wave (km/s) = 5.70631 7.09719 6.43942
#
# Compressibility (1/GPa) = 0.03314454
#
# Stress axis : x y z
#
# Youngs Moduli (GPa) = 80.51605 19.64786 67.49814
#
# Poissons Ratio (x) = 0.19368 0.26055
# Poissons Ratio (y) = 0.79371 0.59233
# Poissons Ratio (z) = 0.31080 0.17242
#
# Static dielectric constant tensor:
#      x y z
#    x 1.616020 0.000000 0.023380 
#    y 0.000000 1.637610 0.000000 
#    z 0.023380 0.000000 1.617790 
# 
# From -- ./inp_files/45243.got.cif
#   From: 2010.05.17/outbox.cif.g08.bks.cpg/sg11_23_cif.got.tgz:45243.got - 2010.06.03 12:22:45.
