data_PCOD9165732
_publ_section_title
;
Structure prediction by ZEFSAII (Michael W. Deem and Ramdas Pophale) SiO2 
 PCOD9165732
Probable space group: P 21/M
;
_chemical_formula_sum "Si O2"
_cell_formula_units_Z 28
_cell_length_a 14.621995
_cell_length_b 17.568126
_cell_length_c 5.349062
_cell_angle_alpha 90.000000
_cell_angle_beta 123.126177
_cell_angle_gamma 90.000000
_cell_volume 1150.743439
_symmetry_space_group_name_H-M "P 21/M"
_symmetry_group_IT_number 11
_symmetry_cell_setting 'monoclinic'
loop_
_space_group_symop_operation_xyz
x,y,z
-x,1/2+y,-z
-x,-y,-z
x,1/2-y,z
loop_
_atom_site_type_symbol
_atom_site_label
_atom_site_fract_x
_atom_site_fract_y
_atom_site_fract_z
Si Si1 0.260402 0.550035 0.359526
Si Si2 0.421299 0.065371 0.488424
Si Si3 0.114486 0.161404 0.236776
Si Si4 0.742920 0.662335 0.051292
Si Si5 0.392551 0.666271 0.243305
Si Si6 0.947649 0.063972 0.248477
Si Si7 0.172782 0.666863 0.595845
O O1 0.332031 0.476666 0.526415
O O2 0.346193 0.613581 0.394174
O O3 0.188221 0.592885 0.451996
O O4 0.171356 0.533885 0.012740
O O5 0.355126 0.105950 0.166487
O O6 0.502795 0.127091 0.725622
O O7 0.500000 0.000000 0.500000
O O8 0.075314 0.250000 0.193884
O O9 0.172811 0.154431 0.055743
O O10 0.025967 0.094532 0.145237
O O11 0.197320 0.150959 0.595029
O O12 0.703647 0.750000 0.988142
O O13 0.420549 0.750000 0.376310
O O14 0.288896 0.671565 0.907950
O O15 0.921965 0.143134 0.356264
O O16 0.000000 0.000000 0.500000
O O17 0.152933 0.750000 0.448132
#
# Coordination Sequence:
#
# PCOD9165732 Si02
#       7
#     4   4   4   4   4   4   4
#     4  10  22  38  60  90 123 161 205 262 320 381
#     4  10  21  40  63  91 124 166 212 261 330 383
#     4  10  23  42  66  94 129 172 219 269 323 388
#     4  10  22  43  66  95 132 170 217 272 325 389
#     4   9  19  39  61  87 120 158 208 259 317 383
#     4  11  24  39  62  89 125 166 210 263 323 389
#     4  10  22  39  60  88 121 159 208 263 318 382
#
# _framework density 24.332096
#
# number of rings (size 3 to 8) (size 9 to 14) (size 15 to 20)
#    0.000    2.000    0.000    2.143    4.000    2.857 
#    5.143    0.000    0.000    0.000    0.000    0.000 
#    0.000    0.000    0.000    0.000    0.000    0.000 
#
# Total GULP energy -156505.380371 kJ/mol
# GULP energy per Si atom -5589.477870 kJ/mol
# Density = 2.427672 g / cm^3
# Si number density = 24.332096 Si / 1000 Ang^3
#
#
#
# Elastic Constant Matrix: (Units=GPa)
#
#
# Indices 1 2 3 4 5 6 
#
# 1 73.6494 54.0208 35.6601 0.0000 12.7822 0.0000
# 2 54.0208 123.2561 28.4033 0.0000 22.3190 0.0000
# 3 35.6601 28.4033 57.7904 0.0000 5.4554 0.0000
# 4 0.0000 0.0000 0.0000 29.4538 0.0000 1.1931
# 5 12.7822 22.3190 5.4554 0.0000 32.0726 0.0000
# 6 0.0000 0.0000 0.0000 1.1931 0.0000 27.2822
#
#
#
# Elastic Compliance Matrix: (Units=1/GPa)
#
#
# Indices 1 2 3 4 5 6 
#
# 1 0.025531 -0.008057 -0.011548 0.000000 -0.002604 0.000000
# 2 -0.008057 0.012844 -0.000813 0.000000 -0.005588 0.000000
# 3 -0.011548 -0.000813 0.024739 0.000000 0.000961 0.000000
# 4 0.000000 0.000000 0.000000 0.034012 0.000000 -0.001487
# 5 -0.002604 -0.005588 0.000961 0.000000 0.035943 0.000000
# 6 0.000000 0.000000 0.000000 -0.001487 0.000000 0.036719
#
#
# Mechanical properties :
#
#
# Convention : Reuss Voigt Hill
#
# Bulk Modulus (GPa) = 44.89077 54.54047 49.71562
# Shear Modulus (GPa) = 22.93048 26.86917 24.89983
#
# Velocity S-wave (km/s) = 3.07318 3.32666 3.20243
# Velocity P-wave (km/s) = 5.57511 6.10076 5.84385
#
# Compressibility (1/GPa) = 0.02227630
#
# Stress axis : x y z
#
# Youngs Moduli (GPa) = 39.16794 77.85855 40.42191
#
# Poissons Ratio (x) = 0.62731 0.46681
# Poissons Ratio (y) = 0.31558 0.03288
# Poissons Ratio (z) = 0.45233 0.06333
#
# Static dielectric constant tensor:
#      x y z
#    x 1.963560 0.000000 -0.050240 
#    y 0.000000 1.961750 0.000000 
#    z -0.050240 0.000000 1.973910 
# 
# From -- ./inp_files/6891.got.cif
#   From: 2010.05.17/outbox.cif.g08.bks.cpg/sg11_4_cif.got.tgz:6891.got - 2010.06.03 12:22:45.
