data_PCOD9165853
_publ_section_title
;
Structure prediction by ZEFSAII (Michael W. Deem and Ramdas Pophale) SiO2 
 PCOD9165853
Probable space group: P 21/M
;
_chemical_formula_sum "Si O2"
_cell_formula_units_Z 20
_cell_length_a 5.432883
_cell_length_b 25.368414
_cell_length_c 9.194275
_cell_angle_alpha 90.000000
_cell_angle_beta 127.309189
_cell_angle_gamma 90.000000
_cell_volume 1007.891529
_symmetry_space_group_name_H-M "P 21/M"
_symmetry_group_IT_number 11
_symmetry_cell_setting 'monoclinic'
loop_
_space_group_symop_operation_xyz
x,y,z
-x,1/2+y,-z
-x,-y,-z
x,1/2-y,z
loop_
_atom_site_type_symbol
_atom_site_label
_atom_site_fract_x
_atom_site_fract_y
_atom_site_fract_z
Si Si1 0.392181 0.250000 0.246366
Si Si2 0.451009 0.148317 0.756031
Si Si3 0.345027 0.750000 0.985392
Si Si4 0.708514 0.345987 0.522675
Si Si5 0.347669 0.468482 0.813102
Si Si6 0.694628 0.459076 0.482439
O O1 0.487905 0.250000 0.111355
O O2 0.546069 0.299832 0.378311
O O3 0.027222 0.250000 0.147703
O O4 0.619705 0.157127 0.661490
O O5 0.512192 0.087117 0.828965
O O6 0.075403 0.154081 0.615869
O O7 0.557972 0.195831 0.898454
O O8 0.565245 0.401131 0.416967
O O9 0.293039 0.512491 0.668355
O O10 0.991340 0.450408 0.693988
O O11 0.500000 0.500000 0.000000
O O12 0.500000 0.500000 0.500000
#
# Coordination Sequence:
#
# PCOD9165853 Si02
#       6
#     2   4   2   4   4   4
#     4  12  26  42  66  98 122 168 210 274 320 370
#     4  11  23  44  65  92 127 173 208 261 321 386
#     4  12  26  42  64  98 130 154 222 268 316 386
#     4  11  23  43  68  88 128 172 213 255 327 379
#     4  10  23  39  64  94 130 170 212 261 324 375
#     4  10  21  41  62  94 128 167 216 261 310 392
#
# _framework density 19.843405000000001
#
# number of rings (size 3 to 8) (size 9 to 14) (size 15 to 20)
#    0.000    1.200    2.000    3.600    2.800    2.400 
#    0.000    0.000    0.000    0.000    0.000    0.000 
#    0.000    0.000    0.000    0.000    0.000    0.000 
#
# Total GULP energy -111372.144363 kJ/mol
# GULP energy per Si atom -5568.607218 kJ/mol
# Density = 1.979824 g / cm^3
# Si number density = 19.843405 Si / 1000 Ang^3
#
#
#
# Elastic Constant Matrix: (Units=GPa)
#
#
# Indices 1 2 3 4 5 6 
#
# 1 58.4898 -8.5225 1.1945 0.0000 -6.2921 0.0000
# 2 -8.5225 165.1205 39.0072 0.0000 -0.7783 0.0000
# 3 1.1945 39.0072 79.4679 0.0000 -6.9624 0.0000
# 4 0.0000 0.0000 0.0000 37.1545 0.0000 -0.9272
# 5 -6.2921 -0.7783 -6.9624 0.0000 29.1604 0.0000
# 6 0.0000 0.0000 0.0000 -0.9272 0.0000 31.3174
#
#
#
# Elastic Compliance Matrix: (Units=1/GPa)
#
#
# Indices 1 2 3 4 5 6 
#
# 1 0.017658 0.001034 -0.000446 0.000000 0.003731 0.000000
# 2 0.001034 0.006923 -0.003450 0.000000 -0.000416 0.000000
# 3 -0.000446 -0.003450 0.014572 0.000000 0.003291 0.000000
# 4 0.000000 0.000000 0.000000 0.026935 0.000000 0.000797
# 5 0.003731 -0.000416 0.003291 0.000000 0.035873 0.000000
# 6 0.000000 0.000000 0.000000 0.000797 0.000000 0.031955
#
#
# Mechanical properties :
#
#
# Convention : Reuss Voigt Hill
#
# Bulk Modulus (GPa) = 29.91380 40.71517 35.31449
# Shear Modulus (GPa) = 33.16046 37.61972 35.39009
#
# Velocity S-wave (km/s) = 4.09235 4.35884 4.22769
# Velocity P-wave (km/s) = 6.11862 6.77461 6.45495
#
# Compressibility (1/GPa) = 0.03342939
#
# Stress axis : x y z
#
# Youngs Moduli (GPa) = 56.63079 144.45393 68.62394
#
# Poissons Ratio (x) = -0.14943 0.03062
# Poissons Ratio (y) = -0.05858 0.23675
# Poissons Ratio (z) = 0.02527 0.49836
#
# Static dielectric constant tensor:
#      x y z
#    x 1.909870 0.000000 -0.009510 
#    y 0.000000 1.765580 0.000000 
#    z -0.009510 0.000000 1.697080 
# 
# From -- ./inp_files/815.got.cif
#   From: 2010.05.17/outbox.cif.g08.bks.cpg/sg11_1_cif.got.tgz:815.got - 2010.06.03 12:22:45.
