data_PCOD9165694
_publ_section_title
;
Structure prediction by ZEFSAII (Michael W. Deem and Ramdas Pophale) SiO2 
 PCOD9165694
Probable space group: P 21/M
;
_chemical_formula_sum "Si O2"
_cell_formula_units_Z 32
_cell_length_a 13.945803
_cell_length_b 18.329798
_cell_length_c 14.006559
_cell_angle_alpha 90.000000
_cell_angle_beta 150.037447
_cell_angle_gamma 90.000000
_cell_volume 1788.177648
_symmetry_space_group_name_H-M "P 21/M"
_symmetry_group_IT_number 11
_symmetry_cell_setting 'monoclinic'
loop_
_space_group_symop_operation_xyz
x,y,z
-x,1/2+y,-z
-x,-y,-z
x,1/2-y,z
loop_
_atom_site_type_symbol
_atom_site_label
_atom_site_fract_x
_atom_site_fract_y
_atom_site_fract_z
Si Si1 0.364597 0.087801 0.131002
Si Si2 0.998116 0.421473 0.946657
Si Si3 0.328123 0.336226 0.744054
Si Si4 0.133261 0.164539 0.777039
Si Si5 0.358414 0.579000 0.082275
Si Si6 0.267290 0.098887 0.497287
Si Si7 0.981562 0.335221 0.121024
Si Si8 0.207169 0.929231 0.428101
O O1 0.205613 0.090095 0.077054
O O2 0.578921 0.094069 0.356624
O O3 0.341891 0.007773 0.062323
O O4 0.301394 0.146319 0.997801
O O5 0.000000 0.500000 0.000000
O O6 0.959084 0.362203 0.993901
O O7 0.845419 0.419208 0.728708
O O8 0.371618 0.250000 0.778178
O O9 0.211464 0.351970 0.738891
O O10 0.522686 0.383986 0.901173
O O11 0.214549 0.359288 0.549911
O O12 0.083669 0.250000 0.739181
O O13 0.952197 0.115386 0.650683
O O14 0.501958 0.593671 0.295991
O O15 0.162485 0.618965 0.936298
O O16 0.193417 0.016031 0.435176
O O17 0.189699 0.141721 0.340013
O O18 0.947336 0.250000 0.101163
#
# Coordination Sequence:
#
# PCOD9165694 Si02
#       8
#     4   4   4   4   4   4   4   4
#     4  10  21  40  62  86 112 155 199 243 289 347
#     4  11  21  37  58  85 121 151 191 242 295 347
#     4   9  19  38  58  84 123 154 182 243 302 345
#     4  10  22  40  59  83 121 157 193 245 300 345
#     4   9  20  37  57  85 116 147 188 238 289 345
#     4   9  20  37  57  85 116 147 188 238 289 345
#     4  12  22  35  58  85 115 156 191 233 297 357
#     4  10  21  40  62  86 112 155 199 243 289 347
#
# _framework density 17.895315
#
# number of rings (size 3 to 8) (size 9 to 14) (size 15 to 20)
#    0.750    1.250    2.500    1.500    0.000    5.000 
#    2.250    0.000    0.000    0.000    0.000    0.000 
#    0.000    0.000    0.000    0.000    0.000    0.000 
#
# Total GULP energy -178312.289584 kJ/mol
# GULP energy per Si atom -5572.259050 kJ/mol
# Density = 1.785458 g / cm^3
# Si number density = 17.895315 Si / 1000 Ang^3
#
#
#
# Elastic Constant Matrix: (Units=GPa)
#
#
# Indices 1 2 3 4 5 6 
#
# 1 54.1516 8.0985 9.0492 0.0000 -8.3633 0.0000
# 2 8.0985 34.7042 5.9845 0.0000 5.0578 0.0000
# 3 9.0492 5.9845 64.3985 0.0000 6.2738 0.0000
# 4 0.0000 0.0000 0.0000 16.7489 0.0000 -9.8447
# 5 -8.3633 5.0578 6.2738 0.0000 17.8306 0.0000
# 6 0.0000 0.0000 0.0000 -9.8447 0.0000 26.0010
#
#
#
# Elastic Compliance Matrix: (Units=1/GPa)
#
#
# Indices 1 2 3 4 5 6 
#
# 1 0.022179 -0.006495 -0.003837 0.000000 0.013596 0.000000
# 2 -0.006495 0.032219 -0.000926 0.000000 -0.011860 0.000000
# 3 -0.003837 -0.000926 0.016882 0.000000 -0.007477 0.000000
# 4 0.000000 0.000000 0.000000 0.076796 0.000000 0.029077
# 5 0.013596 -0.011860 -0.007477 0.000000 0.068455 0.000000
# 6 0.000000 0.000000 0.000000 0.029077 0.000000 0.049469
#
#
# Mechanical properties :
#
#
# Convention : Reuss Voigt Hill
#
# Bulk Modulus (GPa) = 20.50760 22.16876 21.33818
# Shear Modulus (GPa) = 16.40568 20.79092 18.59830
#
# Velocity S-wave (km/s) = 3.03109 3.41223 3.22729
# Velocity P-wave (km/s) = 4.87182 5.28577 5.08301
#
# Compressibility (1/GPa) = 0.04876240
#
# Stress axis : x y z
#
# Youngs Moduli (GPa) = 45.08759 31.03775 59.23458
#
# Poissons Ratio (x) = 0.20160 0.22731
# Poissons Ratio (y) = 0.29286 0.05485
# Poissons Ratio (z) = 0.17302 0.02874
#
# Static dielectric constant tensor:
#      x y z
#    x 1.588470 0.000000 -0.001710 
#    y 0.000000 1.601940 0.000000 
#    z -0.001710 0.000000 1.629610 
# 
# From -- ./inp_files/52588.got.cif
#   From: 2010.05.17/outbox.cif.g08.bks.cpg/sg11_27_cif.got.tgz:52588.got - 2010.06.03 12:22:45.
