data_PCOD9165806
_publ_section_title
;
Structure prediction by ZEFSAII (Michael W. Deem and Ramdas Pophale) SiO2 
 PCOD9165806
Probable space group: P 21/M
;
_chemical_formula_sum "Si O2"
_cell_formula_units_Z 32
_cell_length_a 31.103350
_cell_length_b 8.131044
_cell_length_c 13.101258
_cell_angle_alpha 90.000000
_cell_angle_beta 156.373084
_cell_angle_gamma 90.000000
_cell_volume 1327.920102
_symmetry_space_group_name_H-M "P 21/M"
_symmetry_group_IT_number 11
_symmetry_cell_setting 'monoclinic'
loop_
_space_group_symop_operation_xyz
x,y,z
-x,1/2+y,-z
-x,-y,-z
x,1/2-y,z
loop_
_atom_site_type_symbol
_atom_site_label
_atom_site_fract_x
_atom_site_fract_y
_atom_site_fract_z
Si Si1 0.960747 0.942193 0.772887
Si Si2 0.210402 0.438646 0.007957
Si Si3 0.280428 0.448992 0.370237
Si Si4 0.148985 0.938576 0.655044
Si Si5 0.337774 0.060187 0.925991
Si Si6 0.826287 0.560109 0.664083
Si Si7 0.558249 0.062115 0.526583
Si Si8 0.514427 0.552986 0.915192
O O1 0.981047 0.750000 0.840124
O O2 0.858339 0.996975 0.619903
O O3 0.933351 0.962408 0.595088
O O4 0.059532 0.047661 0.027897
O O5 0.174697 0.250000 0.933758
O O6 0.206924 0.509921 0.115863
O O7 0.338585 0.449887 0.266987
O O8 0.157296 0.516541 0.792165
O O9 0.270139 0.250000 0.349089
O O10 0.248764 0.517619 0.412551
O O11 0.404503 0.491380 0.624341
O O12 0.119162 0.750000 0.581059
O O13 0.262405 0.968336 0.842710
O O14 0.298038 0.250000 0.835991
O O15 0.458420 0.064456 0.232929
O O16 0.372613 0.994930 0.889608
O O17 0.792607 0.750000 0.579927
O O18 0.599217 0.250000 0.624708
O O19 0.500000 0.000000 0.500000
O O20 0.518079 0.750000 0.918212
O O21 0.500000 0.500000 0.000000
#
# Coordination Sequence:
#
# PCOD9165806 Si02
#       8
#     4   4   4   4   4   4   4   4
#     4  10  21  40  66  93 122 150 187 241 301 359
#     4  11  22  37  57  83 119 158 201 246 295 354
#     4  10  22  40  63  89 119 159 201 245 296 355
#     4  12  25  38  59  88 121 157 202 250 298 355
#     4  10  22  38  55  78 115 158 199 244 294 342
#     4   9  20  41  67  93 119 150 190 239 297 356
#     4  11  20  33  53  77 108 149 195 239 286 336
#     4  11  24  40  57  83 121 161 203 249 293 350
#
# _framework density 24.097835
#
# number of rings (size 3 to 8) (size 9 to 14) (size 15 to 20)
#    0.000    1.500    2.500    2.625    1.750    3.000 
#    0.000    0.625    0.000    0.000    0.000    0.000 
#    0.000    0.000    0.000    0.000    0.000    0.000 
#
# Total GULP energy -178674.966053 kJ/mol
# GULP energy per Si atom -5583.592689 kJ/mol
# Density = 2.404299 g / cm^3
# Si number density = 24.097835 Si / 1000 Ang^3
#
#
#
# Elastic Constant Matrix: (Units=GPa)
#
#
# Indices 1 2 3 4 5 6 
#
# 1 73.3828 4.6290 12.1667 0.0000 -22.8940 0.0000
# 2 4.6290 42.9960 -0.1906 0.0000 -11.3521 0.0000
# 3 12.1667 -0.1906 63.8289 0.0000 -26.2570 0.0000
# 4 0.0000 0.0000 0.0000 28.8269 0.0000 -4.4320
# 5 -22.8940 -11.3521 -26.2570 0.0000 49.6738 0.0000
# 6 0.0000 0.0000 0.0000 -4.4320 0.0000 12.9975
#
#
#
# Elastic Compliance Matrix: (Units=1/GPa)
#
#
# Indices 1 2 3 4 5 6 
#
# 1 0.015918 0.000239 0.000009 0.000000 0.007396 0.000000
# 2 0.000239 0.025234 0.003127 0.000000 0.007530 0.000000
# 3 0.000009 0.003127 0.020408 0.000000 0.011506 0.000000
# 4 0.000000 0.000000 0.000000 0.036609 0.000000 0.012483
# 5 0.007396 0.007530 0.011506 0.000000 0.031343 0.000000
# 6 0.000000 0.000000 0.000000 0.012483 0.000000 0.081194
#
#
# Mechanical properties :
#
#
# Convention : Reuss Voigt Hill
#
# Bulk Modulus (GPa) = 14.63905 23.71308 19.17607
# Shear Modulus (GPa) = 22.05309 29.20650 25.62980
#
# Velocity S-wave (km/s) = 3.02842 3.48515 3.26478
# Velocity P-wave (km/s) = 4.27978 5.10458 4.71027
#
# Compressibility (1/GPa) = 0.06831044
#
# Stress axis : x y z
#
# Youngs Moduli (GPa) = 62.82221 39.62862 49.00098
#
# Poissons Ratio (x) = -0.00947 -0.00043
# Poissons Ratio (y) = -0.01501 -0.15325
# Poissons Ratio (z) = -0.00056 -0.12394
#
# Static dielectric constant tensor:
#      x y z
#    x 2.031420 0.000000 -0.051130 
#    y 0.000000 1.830230 0.000000 
#    z -0.051130 0.000000 2.003120 
# 
# From -- ./inp_files/45305.got.cif
#   From: 2010.05.17/outbox.cif.g08.bks.cpg/sg11_23_cif.got.tgz:45305.got - 2010.06.03 12:22:45.
