data_PCOD9165769
_publ_section_title
;
Structure prediction by ZEFSAII (Michael W. Deem and Ramdas Pophale) SiO2 
 PCOD9165769
Probable space group: P 21/M
;
_chemical_formula_sum "Si O2"
_cell_formula_units_Z 20
_cell_length_a 8.911748
_cell_length_b 14.978173
_cell_length_c 12.474772
_cell_angle_alpha 90.000000
_cell_angle_beta 31.573547
_cell_angle_gamma 90.000000
_cell_volume 871.862240
_symmetry_space_group_name_H-M "P 21/M"
_symmetry_group_IT_number 11
_symmetry_cell_setting 'monoclinic'
loop_
_space_group_symop_operation_xyz
x,y,z
-x,1/2+y,-z
-x,-y,-z
x,1/2-y,z
loop_
_atom_site_type_symbol
_atom_site_label
_atom_site_fract_x
_atom_site_fract_y
_atom_site_fract_z
Si Si1 0.917074 0.154303 0.852009
Si Si2 0.750398 0.072046 0.166681
Si Si3 0.005239 0.145558 0.218415
Si Si4 0.882835 0.517150 0.430275
Si Si5 0.647644 0.149245 0.800546
O O1 0.067064 0.250000 0.747816
O O2 0.098887 0.072691 0.694646
O O3 0.809421 0.141767 0.036180
O O4 0.655867 0.153927 0.926029
O O5 0.441330 0.028581 0.337075
O O6 0.780764 0.117758 0.263669
O O7 0.000000 0.000000 0.000000
O O8 0.986244 0.250000 0.255475
O O9 0.320347 0.128722 0.974099
O O10 0.966173 0.081984 0.344527
O O11 0.112898 0.572759 0.362553
O O12 0.723284 0.250000 0.716189
#
# Coordination Sequence:
#
# PCOD9165769 Si02
#       5
#     4   4   4   4   4
#     4   9  20  38  64  87 115 156 204 246 293 362
#     4  12  23  39  60  91 123 158 203 251 300 358
#     4  11  22  38  63  91 122 157 200 258 306 345
#     4  10  21  40  65  83 121 167 202 234 304 371
#     4   8  18  39  64  88 118 158 203 249 298 357
#
# _framework density 22.939405000000001
#
# number of rings (size 3 to 8) (size 9 to 14) (size 15 to 20)
#    1.200    0.800    2.000    1.800    0.000    3.200 
#    0.000    5.000    0.000    4.800    0.000    0.000 
#    0.000    0.000    0.000    0.000    0.000    0.000 
#
# Total GULP energy -111559.701851 kJ/mol
# GULP energy per Si atom -5577.985093 kJ/mol
# Density = 2.288719 g / cm^3
# Si number density = 22.939405 Si / 1000 Ang^3
#
#
#
# Elastic Constant Matrix: (Units=GPa)
#
#
# Indices 1 2 3 4 5 6 
#
# 1 66.5468 32.5750 23.6207 0.0000 -14.0340 0.0000
# 2 32.5750 146.7582 42.9027 0.0000 -15.4096 0.0000
# 3 23.6207 42.9027 61.2383 0.0000 -26.6504 0.0000
# 4 0.0000 0.0000 0.0000 15.9500 0.0000 -3.6006
# 5 -14.0340 -15.4096 -26.6504 0.0000 41.1673 0.0000
# 6 0.0000 0.0000 0.0000 -3.6006 0.0000 17.7535
#
#
#
# Elastic Compliance Matrix: (Units=1/GPa)
#
#
# Indices 1 2 3 4 5 6 
#
# 1 0.018303 -0.002586 -0.004112 0.000000 0.002609 0.000000
# 2 -0.002586 0.008961 -0.005853 0.000000 -0.001317 0.000000
# 3 -0.004112 -0.005853 0.028475 0.000000 0.014841 0.000000
# 4 0.000000 0.000000 0.000000 0.065704 0.000000 0.013326
# 5 0.002609 -0.001317 0.014841 0.000000 0.034295 0.000000
# 6 0.000000 0.000000 0.000000 0.013326 0.000000 0.059030
#
#
# Mechanical properties :
#
#
# Convention : Reuss Voigt Hill
#
# Bulk Modulus (GPa) = 32.64214 52.52667 42.58440
# Shear Modulus (GPa) = 19.99327 26.67047 23.33187
#
# Velocity S-wave (km/s) = 2.95544 3.41346 3.19267
# Velocity P-wave (km/s) = 5.08987 6.20350 5.67407
#
# Compressibility (1/GPa) = 0.03063525
#
# Stress axis : x y z
#
# Youngs Moduli (GPa) = 54.63583 111.59595 35.11822
#
# Poissons Ratio (x) = 0.28864 0.14441
# Poissons Ratio (y) = 0.14132 0.20556
# Poissons Ratio (z) = 0.22467 0.65320
#
# Static dielectric constant tensor:
#      x y z
#    x 1.881450 0.000000 0.023210 
#    y 0.000000 1.895180 0.000000 
#    z 0.023210 0.000000 1.825800 
# 
# From -- ./inp_files/50573.got.cif
#   From: 2010.05.17/outbox.cif.g08.bks.cpg/sg11_26_cif.got.tgz:50573.got - 2010.06.03 12:22:45.
