data_PCOD9165962
_publ_section_title
;
Structure prediction by ZEFSAII (Michael W. Deem and Ramdas Pophale) SiO2 
 PCOD9165962
Probable space group: P 21/M
;
_chemical_formula_sum "Si O2"
_cell_formula_units_Z 24
_cell_length_a 4.978242
_cell_length_b 12.796802
_cell_length_c 17.742195
_cell_angle_alpha 90.000000
_cell_angle_beta 77.771736
_cell_angle_gamma 90.000000
_cell_volume 1104.632521
_symmetry_space_group_name_H-M "P 21/M"
_symmetry_group_IT_number 11
_symmetry_cell_setting 'monoclinic'
loop_
_space_group_symop_operation_xyz
x,y,z
-x,1/2+y,-z
-x,-y,-z
x,1/2-y,z
loop_
_atom_site_type_symbol
_atom_site_label
_atom_site_fract_x
_atom_site_fract_y
_atom_site_fract_z
Si Si1 0.468317 0.539576 0.161058
Si Si2 0.112423 0.875601 0.476323
Si Si3 0.829499 0.503079 0.665105
Si Si4 0.369594 0.869369 0.615130
Si Si5 0.988262 0.250000 0.036087
Si Si6 0.023701 0.465928 0.085860
Si Si7 0.421262 0.750000 0.076772
O O1 0.319585 0.515170 0.247327
O O2 0.795917 0.528459 0.145600
O O3 0.408296 0.652236 0.131642
O O4 0.324945 0.470672 0.103548
O O5 0.002799 0.750000 0.488573
O O6 0.176005 0.898197 0.385368
O O7 0.352752 0.872881 0.524854
O O8 0.000000 0.000000 0.500000
O O9 0.656737 0.591679 0.630332
O O10 0.133170 0.551176 0.656636
O O11 0.313783 0.750000 0.641397
O O12 0.926143 0.348404 0.090129
O O13 0.302076 0.250000 0.989259
O O14 0.819488 0.250000 0.969317
O O15 0.000000 0.500000 0.000000
#
# Coordination Sequence:
#
# PCOD9165962 Si02
#       7
#     4   4   4   4   2   4   2
#     4  12  25  41  64  92 131 159 207 267 330 371
#     4   9  20  40  70 101 134 177 228 273 321 389
#     4  11  23  41  63  96 131 169 212 265 329 388
#     4  10  21  42  66  91 129 174 219 265 317 383
#     4  12  24  40  70  88 116 161 220 255 318 382
#     4  12  23  45  64  91 122 164 210 262 310 393
#     4  12  22  40  66  92 118 163 202 269 328 376
#
# _framework density 21.726680999999999
#
# number of rings (size 3 to 8) (size 9 to 14) (size 15 to 20)
#    0.000    1.000    3.333    3.500    1.167    0.667 
#    9.000    6.667    0.000    0.000    0.000    0.000 
#    0.000    0.000    0.000    0.000    0.000    0.000 
#
# Total GULP energy -133703.026925 kJ/mol
# GULP energy per Si atom -5570.959455 kJ/mol
# Density = 2.167723 g / cm^3
# Si number density = 21.726681 Si / 1000 Ang^3
#
#
#
# Elastic Constant Matrix: (Units=GPa)
#
#
# Indices 1 2 3 4 5 6 
#
# 1 51.6904 7.9928 0.2342 0.0000 -1.8675 0.0000
# 2 7.9928 118.9827 8.0611 0.0000 10.9027 0.0000
# 3 0.2342 8.0611 65.4178 0.0000 -7.4046 0.0000
# 4 0.0000 0.0000 0.0000 29.3016 0.0000 4.6936
# 5 -1.8675 10.9027 -7.4046 0.0000 28.5060 0.0000
# 6 0.0000 0.0000 0.0000 4.6936 0.0000 29.7228
#
#
#
# Elastic Compliance Matrix: (Units=1/GPa)
#
#
# Indices 1 2 3 4 5 6 
#
# 1 0.019651 -0.001522 0.000339 0.000000 0.001958 0.000000
# 2 -0.001522 0.008972 -0.001545 0.000000 -0.003933 0.000000
# 3 0.000339 -0.001545 0.016016 0.000000 0.004773 0.000000
# 4 0.000000 0.000000 0.000000 0.035014 0.000000 -0.005529
# 5 0.001958 -0.003933 0.004773 0.000000 0.037953 0.000000
# 6 0.000000 0.000000 0.000000 -0.005529 0.000000 0.034517
#
#
# Mechanical properties :
#
#
# Convention : Reuss Voigt Hill
#
# Bulk Modulus (GPa) = 25.52276 29.85190 27.68733
# Shear Modulus (GPa) = 29.30150 32.15958 30.73054
#
# Velocity S-wave (km/s) = 3.67637 3.85150 3.76495
# Velocity P-wave (km/s) = 5.45835 5.79209 5.62769
#
# Compressibility (1/GPa) = 0.03918072
#
# Stress axis : x y z
#
# Youngs Moduli (GPa) = 50.88911 111.45908 62.43807
#
# Poissons Ratio (x) = 0.16968 -0.02116
# Poissons Ratio (y) = 0.07747 0.09648
# Poissons Ratio (z) = -0.01724 0.17223
#
# Static dielectric constant tensor:
#      x y z
#    x 1.758480 0.000000 -0.008000 
#    y 0.000000 1.874230 0.000000 
#    z -0.008000 0.000000 1.791580 
# 
# From -- ./inp_files/56801.got.cif
#   From: 2010.05.17/outbox.cif.g08.bks.cpg/sg11_29_cif.got.tgz:56801.got - 2010.06.03 12:22:45.
