data_PCOD9165198
_publ_section_title
;
Structure prediction by ZEFSAII (Michael W. Deem and Ramdas Pophale) SiO2 
 PCOD9165198
Probable space group: P 21/M
;
_chemical_formula_sum "Si O2"
_cell_formula_units_Z 28
_cell_length_a 14.536468
_cell_length_b 19.185918
_cell_length_c 8.844010
_cell_angle_alpha 90.000000
_cell_angle_beta 36.313318
_cell_angle_gamma 90.000000
_cell_volume 1460.694761
_symmetry_space_group_name_H-M "P 21/M"
_symmetry_group_IT_number 11
_symmetry_cell_setting 'monoclinic'
loop_
_space_group_symop_operation_xyz
x,y,z
-x,1/2+y,-z
-x,-y,-z
x,1/2-y,z
loop_
_atom_site_type_symbol
_atom_site_label
_atom_site_fract_x
_atom_site_fract_y
_atom_site_fract_z
Si Si1 0.076353 0.667766 0.499484
Si Si2 0.963707 0.556509 0.863500
Si Si3 0.851249 0.119749 0.125718
Si Si4 0.360059 0.672390 0.337222
Si Si5 0.665576 0.490288 0.207887
Si Si6 0.602731 0.948617 0.967694
Si Si7 0.066139 0.409207 0.596579
O O1 0.046662 0.750000 0.522418
O O2 0.976281 0.629428 0.760367
O O3 0.251003 0.659708 0.334148
O O4 0.028741 0.625316 0.414610
O O5 0.082172 0.562863 0.844293
O O6 0.015098 0.489595 0.695741
O O7 0.784521 0.543158 0.131536
O O8 0.754354 0.169185 0.364820
O O9 0.732847 0.085108 0.163770
O O10 0.005660 0.135019 0.822593
O O11 0.426545 0.750000 0.238881
O O12 0.488719 0.612848 0.174830
O O13 0.500000 0.500000 0.500000
O O14 0.661935 0.508836 0.035975
O O15 0.751909 0.915552 0.684511
O O16 0.500000 0.000000 0.000000
#
# Coordination Sequence:
#
# PCOD9165198 Si02
#       7
#     4   4   4   4   4   4   4
#     4  10  21  38  60  84 116 160 207 248 301 365
#     4  10  21  39  60  89 120 158 198 253 309 357
#     4  10  22  38  64  87 117 156 204 257 299 362
#     4  10  23  44  61  83 123 172 205 244 314 382
#     4  11  21  35  57  91 118 154 196 244 303 357
#     4  12  25  37  60  96 130 160 200 258 314 366
#     4  11  22  37  61  94 119 152 205 263 301 353
#
# _framework density 19.168959999999998
#
# number of rings (size 3 to 8) (size 9 to 14) (size 15 to 20)
#    0.000    1.429    2.857    3.857    8.000    1.143 
#    0.000    0.000    0.000    0.000    0.000    0.000 
#    0.000    0.000    0.000    0.000    0.000    0.000 
#
# Total GULP energy -155964.290581 kJ/mol
# GULP energy per Si atom -5570.153235 kJ/mol
# Density = 1.912533 g / cm^3
# Si number density = 19.168960 Si / 1000 Ang^3
#
#
#
# Elastic Constant Matrix: (Units=GPa)
#
#
# Indices 1 2 3 4 5 6 
#
# 1 109.2815 47.3326 28.6933 0.0000 7.1921 0.0000
# 2 47.3326 69.8712 25.9084 0.0000 -1.0237 0.0000
# 3 28.6933 25.9084 114.2728 0.0000 -7.6775 0.0000
# 4 0.0000 0.0000 0.0000 16.2253 0.0000 -1.8486
# 5 7.1921 -1.0237 -7.6775 0.0000 26.5927 0.0000
# 6 0.0000 0.0000 0.0000 -1.8486 0.0000 16.7172
#
#
#
# Elastic Compliance Matrix: (Units=1/GPa)
#
#
# Indices 1 2 3 4 5 6 
#
# 1 0.013670 -0.008670 -0.001772 0.000000 -0.004542 0.000000
# 2 -0.008670 0.021129 -0.002449 0.000000 0.002451 0.000000
# 3 -0.001772 -0.002449 0.009970 0.000000 0.003263 0.000000
# 4 0.000000 0.000000 0.000000 0.062419 0.000000 0.006902
# 5 -0.004542 0.002451 0.003263 0.000000 0.039869 0.000000
# 6 0.000000 0.000000 0.000000 0.006902 0.000000 0.060582
#
#
# Mechanical properties :
#
#
# Convention : Reuss Voigt Hill
#
# Bulk Modulus (GPa) = 52.66443 55.25490 53.95966
# Shear Modulus (GPa) = 20.85501 24.67313 22.76407
#
# Velocity S-wave (km/s) = 3.30200 3.59156 3.44982
# Velocity P-wave (km/s) = 6.48622 6.78873 6.63920
#
# Compressibility (1/GPa) = 0.01898815
#
# Stress axis : x y z
#
# Youngs Moduli (GPa) = 73.15258 47.32777 100.29695
#
# Poissons Ratio (x) = 0.41033 0.17772
# Poissons Ratio (y) = 0.63423 0.24561
# Poissons Ratio (z) = 0.12963 0.11590
#
# Static dielectric constant tensor:
#      x y z
#    x 1.713760 0.000000 0.027520 
#    y 0.000000 1.671650 0.000000 
#    z 0.027520 0.000000 1.728080 
# 
# From -- ./inp_files/22914.got.cif
#   From: 2010.05.17/outbox.cif.g08.bks.cpg/sg11_12_cif.got.tgz:22914.got - 2010.06.03 12:22:45.
