data_PCOD9165799
_publ_section_title
;
Structure prediction by ZEFSAII (Michael W. Deem and Ramdas Pophale) SiO2 
 PCOD9165799
Probable space group: P 21/M
;
_chemical_formula_sum "Si O2"
_cell_formula_units_Z 20
_cell_length_a 8.409614
_cell_length_b 19.467235
_cell_length_c 5.580498
_cell_angle_alpha 90.000000
_cell_angle_beta 61.192925
_cell_angle_gamma 90.000000
_cell_volume 800.534267
_symmetry_space_group_name_H-M "P 21/M"
_symmetry_group_IT_number 11
_symmetry_cell_setting 'monoclinic'
loop_
_space_group_symop_operation_xyz
x,y,z
-x,1/2+y,-z
-x,-y,-z
x,1/2-y,z
loop_
_atom_site_type_symbol
_atom_site_label
_atom_site_fract_x
_atom_site_fract_y
_atom_site_fract_z
Si Si1 0.981722 0.327229 0.119395
Si Si2 0.967969 0.898588 0.437421
Si Si3 0.670693 0.550519 0.346290
Si Si4 0.671208 0.045057 0.954833
Si Si5 0.439648 0.669930 0.631439
O O1 0.046412 0.250000 0.056258
O O2 0.072272 0.360060 0.287164
O O3 0.764025 0.327460 0.324983
O O4 0.009048 0.358644 0.835089
O O5 0.165226 0.931189 0.330489
O O6 0.796814 0.943378 0.484703
O O7 0.500000 0.500000 0.500000
O O8 0.583392 0.626229 0.367929
O O9 0.772073 0.506807 0.069433
O O10 0.589595 0.116459 0.125376
O O11 0.500000 0.000000 0.000000
O O12 0.491618 0.750000 0.642460
#
# Coordination Sequence:
#
# PCOD9165799 Si02
#       5
#     4   4   4   4   4
#     4  10  22  42  67  98 136 177 226 286 349 411
#     4  11  23  41  68 100 134 182 232 284 341 409
#     4  10  22  41  63  95 135 178 228 278 336 407
#     4  10  21  40  65  99 136 178 229 287 347 412
#     4   9  20  40  65  94 133 179 227 283 347 413
#
# _framework density 24.983317
#
# number of rings (size 3 to 8) (size 9 to 14) (size 15 to 20)
#    0.000    2.000    0.000    2.400    0.000    7.200 
#    0.000   15.000    0.000    0.000    0.000    0.000 
#    0.000    0.000    0.000    0.000    0.000    0.000 
#
# Total GULP energy -111536.738218 kJ/mol
# GULP energy per Si atom -5576.836911 kJ/mol
# Density = 2.492645 g / cm^3
# Si number density = 24.983317 Si / 1000 Ang^3
#
#
#
# Elastic Constant Matrix: (Units=GPa)
#
#
# Indices 1 2 3 4 5 6 
#
# 1 67.9198 64.1732 30.3057 0.0000 10.5566 0.0000
# 2 64.1732 231.6875 71.8132 0.0000 19.0357 0.0000
# 3 30.3057 71.8132 92.8707 0.0000 16.2954 0.0000
# 4 0.0000 0.0000 0.0000 3.8525 0.0000 -2.7533
# 5 10.5566 19.0357 16.2954 0.0000 48.8277 0.0000
# 6 0.0000 0.0000 0.0000 -2.7533 0.0000 39.7270
#
#
#
# Elastic Compliance Matrix: (Units=1/GPa)
#
#
# Indices 1 2 3 4 5 6 
#
# 1 0.020703 -0.004726 -0.002804 0.000000 -0.001698 0.000000
# 2 -0.004726 0.006785 -0.003632 0.000000 -0.000411 0.000000
# 3 -0.002804 -0.003632 0.015016 0.000000 -0.002989 0.000000
# 4 0.000000 0.000000 0.000000 0.273102 0.000000 0.018928
# 5 -0.001698 -0.000411 -0.002989 0.000000 0.022005 0.000000
# 6 0.000000 0.000000 0.000000 0.018928 0.000000 0.026484
#
#
# Mechanical properties :
#
#
# Convention : Reuss Voigt Hill
#
# Bulk Modulus (GPa) = 49.55304 80.56246 65.05775
# Shear Modulus (GPa) = 12.71797 33.56049 23.13923
#
# Velocity S-wave (km/s) = 2.25868 3.66910 3.04663
# Velocity P-wave (km/s) = 5.16524 7.08987 6.20266
#
# Compressibility (1/GPa) = 0.02018040
#
# Stress axis : x y z
#
# Youngs Moduli (GPa) = 48.30133 147.39026 66.59777
#
# Poissons Ratio (x) = 0.69656 0.18672
# Poissons Ratio (y) = 0.22827 0.24188
# Poissons Ratio (z) = 0.13542 0.53532
#
# Static dielectric constant tensor:
#      x y z
#    x 1.985270 0.000000 0.023930 
#    y 0.000000 2.012170 0.000000 
#    z 0.023930 0.000000 2.269760 
# 
# From -- ./inp_files/2307.got.cif
#   From: 2010.05.17/outbox.cif.g08.bks.cpg/sg11_2_cif.got.tgz:2307.got - 2010.06.03 12:22:45.
