data_PCOD9165719
_publ_section_title
;
Structure prediction by ZEFSAII (Michael W. Deem and Ramdas Pophale) SiO2 
 PCOD9165719
Probable space group: P 21/M
;
_chemical_formula_sum "Si O2"
_cell_formula_units_Z 28
_cell_length_a 5.719006
_cell_length_b 24.146023
_cell_length_c 9.269148
_cell_angle_alpha 90.000000
_cell_angle_beta 125.360497
_cell_angle_gamma 90.000000
_cell_volume 1043.864957
_symmetry_space_group_name_H-M "P 21/M"
_symmetry_group_IT_number 11
_symmetry_cell_setting 'monoclinic'
loop_
_space_group_symop_operation_xyz
x,y,z
-x,1/2+y,-z
-x,-y,-z
x,1/2-y,z
loop_
_atom_site_type_symbol
_atom_site_label
_atom_site_fract_x
_atom_site_fract_y
_atom_site_fract_z
Si Si1 0.139510 0.345284 0.381212
Si Si2 0.203638 0.549337 0.194836
Si Si3 0.039134 0.336609 0.820039
Si Si4 0.189827 0.945721 0.878040
Si Si5 0.327894 0.661611 0.581974
Si Si6 0.687898 0.028262 0.378515
Si Si7 0.495453 0.686912 0.216362
O O1 0.349117 0.320408 0.335447
O O2 0.344294 0.349120 0.598915
O O3 0.026461 0.401995 0.270710
O O4 0.843690 0.320586 0.337338
O O5 0.018086 0.598263 0.194880
O O6 0.484828 0.521121 0.360309
O O7 0.993964 0.497821 0.139702
O O8 0.301035 0.572970 0.073023
O O9 0.859945 0.316350 0.617473
O O10 0.849181 0.315919 0.886710
O O11 0.363631 0.324316 0.890222
O O12 0.394895 0.962979 0.821015
O O13 0.323911 0.592869 0.574719
O O14 0.000000 0.000000 0.500000
O O15 0.574371 0.750000 0.282024
#
# Coordination Sequence:
#
# PCOD9165719 Si02
#       7
#     4   4   4   4   4   4   4
#     4   9  18  35  56  83 111 153 197 244 297 352
#     4  11  23  36  55  84 130 175 204 239 301 368
#     4  10  22  35  58  91 118 153 201 247 310 371
#     4  10  22  38  53  83 130 174 203 243 289 371
#     4   9  18  32  50  80 114 146 191 241 283 335
#     4  11  22  32  55  81 121 168 208 247 284 341
#     4  10  21  40  63  88 116 146 199 272 326 362
#
# _framework density 26.823391999999998
#
# number of rings (size 3 to 8) (size 9 to 14) (size 15 to 20)
#    0.000    2.000    1.429    1.714   12.000    1.143 
#    0.000    0.000    0.000    1.714    0.000    0.000 
#    0.000    0.000    0.000    0.000    0.000    0.000 
#
# Total GULP energy -156143.964345 kJ/mol
# GULP energy per Si atom -5576.570155 kJ/mol
# Density = 2.676234 g / cm^3
# Si number density = 26.823392 Si / 1000 Ang^3
#
#
#
# Elastic Constant Matrix: (Units=GPa)
#
#
# Indices 1 2 3 4 5 6 
#
# 1 228.0582 16.5806 11.5090 0.0000 -20.8670 0.0000
# 2 16.5806 77.2581 -7.2495 0.0000 -3.1951 0.0000
# 3 11.5090 -7.2495 72.9349 0.0000 -10.0862 0.0000
# 4 0.0000 0.0000 0.0000 -0.9926 0.0000 0.4431
# 5 -20.8670 -3.1951 -10.0862 0.0000 34.8963 0.0000
# 6 0.0000 0.0000 0.0000 0.4431 0.0000 14.2460
#
#
#
# Elastic Compliance Matrix: (Units=1/GPa)
#
#
# Indices 1 2 3 4 5 6 
#
# 1 0.004715 -0.000950 -0.000480 0.000000 0.002594 0.000000
# 2 -0.000950 0.013347 0.001632 0.000000 0.001126 0.000000
# 3 -0.000480 0.001632 0.014510 0.000000 0.004056 0.000000
# 4 0.000000 0.000000 0.000000 -0.993684 0.000000 0.030910
# 5 0.002594 0.001126 0.004056 0.000000 0.031483 0.000000
# 6 0.000000 0.000000 0.000000 0.030910 0.000000 0.069234
#
#
# Mechanical properties :
#
#
# Convention : Reuss Voigt Hill
#
# Bulk Modulus (GPa) = 30.32336 46.65905 38.49120
# Shear Modulus (GPa) = -5.88368 33.45735 13.78683
#
# Velocity S-wave (km/s) = -1.48265 3.53557 2.26958
# Velocity P-wave (km/s) = 2.89799 5.83950 4.60967
#
# Compressibility (1/GPa) = 0.03297788
#
# Stress axis : x y z
#
# Youngs Moduli (GPa) = 212.06831 74.92223 68.91914
#
# Poissons Ratio (x) = 0.07116 0.03306
# Poissons Ratio (y) = 0.20141 -0.11249
# Poissons Ratio (z) = 0.10174 -0.12229
#
# Static dielectric constant tensor:
#      x y z
#    x 2.180450 0.000000 -0.056480 
#    y 0.000000 2.211180 0.000000 
#    z -0.056480 0.000000 2.253260 
# 
# From -- ./inp_files/10741.got.cif
#   From: 2010.05.17/outbox.cif.g08.bks.cpg/sg11_6_cif.got.tgz:10741.got - 2010.06.03 12:22:45.
