data_PCOD9165071
_publ_section_title
;
Structure prediction by ZEFSAII (Michael W. Deem and Ramdas Pophale) SiO2 
 PCOD9165071
Probable space group: P 21/M
;
_chemical_formula_sum "Si O2"
_cell_formula_units_Z 32
_cell_length_a 9.054942
_cell_length_b 22.024509
_cell_length_c 9.428793
_cell_angle_alpha 90.000000
_cell_angle_beta 135.345691
_cell_angle_gamma 90.000000
_cell_volume 1321.590311
_symmetry_space_group_name_H-M "P 21/M"
_symmetry_group_IT_number 11
_symmetry_cell_setting 'monoclinic'
loop_
_space_group_symop_operation_xyz
x,y,z
-x,1/2+y,-z
-x,-y,-z
x,1/2-y,z
loop_
_atom_site_type_symbol
_atom_site_label
_atom_site_fract_x
_atom_site_fract_y
_atom_site_fract_z
Si Si1 0.199416 0.573708 0.247441
Si Si2 0.397328 0.402275 0.616144
Si Si3 0.978044 0.816849 0.714404
Si Si4 0.431504 0.391615 0.157183
Si Si5 0.240768 0.519517 0.668824
Si Si6 0.923775 0.683028 0.006719
Si Si7 0.147493 0.991918 0.919327
Si Si8 0.456138 0.678955 0.034610
O O1 0.449974 0.581727 0.411616
O O2 0.090051 0.518741 0.258935
O O3 0.147891 0.555322 0.047527
O O4 0.072934 0.635522 0.189925
O O5 0.175334 0.371990 0.426155
O O6 0.362620 0.462092 0.686803
O O7 0.510533 0.351519 0.790234
O O8 0.896291 0.750000 0.612147
O O9 0.002545 0.813836 0.900123
O O10 0.213458 0.824440 0.820053
O O11 0.662534 0.419907 0.336200
O O12 0.315553 0.341266 0.170608
O O13 0.417708 0.360953 0.992578
O O14 0.280718 0.449923 0.060434
O O15 0.258404 0.528900 0.851137
O O16 0.000000 0.500000 0.500000
O O17 0.928037 0.750000 0.073423
O O18 0.514598 0.750000 0.075226
#
# Coordination Sequence:
#
# PCOD9165071 Si02
#       8
#     4   4   4   4   4   4   4   4
#     4  10  21  37  65  87 121 160 205 254 308 371
#     4  12  22  39  62  94 123 166 211 256 312 375
#     4  10  23  40  60  90 125 160 208 265 310 370
#     4  11  21  40  62  88 123 162 205 256 316 372
#     4  12  25  38  59  90 130 166 206 258 312 374
#     4  10  22  40  63  90 121 160 205 255 314 374
#     4  10  21  40  59  90 122 160 203 254 309 367
#     4  11  22  39  65  90 121 166 210 259 315 372
#
# _framework density 24.213251
#
# number of rings (size 3 to 8) (size 9 to 14) (size 15 to 20)
#    0.000    1.250    3.750    2.625    1.750    1.500 
#    0.000    1.250    0.000    0.000    0.000    0.000 
#    0.000    0.000    0.000    0.000    0.000    0.000 
#
# Total GULP energy -178908.574793 kJ/mol
# GULP energy per Si atom -5590.892962 kJ/mol
# Density = 2.415814 g / cm^3
# Si number density = 24.213251 Si / 1000 Ang^3
#
#
#
# Elastic Constant Matrix: (Units=GPa)
#
#
# Indices 1 2 3 4 5 6 
#
# 1 96.1835 34.8114 3.4717 0.0000 16.7888 0.0000
# 2 34.8114 139.0824 5.0866 0.0000 9.5368 0.0000
# 3 3.4717 5.0866 42.5982 0.0000 15.4729 0.0000
# 4 0.0000 0.0000 0.0000 32.1958 0.0000 -2.2351
# 5 16.7888 9.5368 15.4729 0.0000 28.7344 0.0000
# 6 0.0000 0.0000 0.0000 -2.2351 0.0000 17.1515
#
#
#
# Elastic Compliance Matrix: (Units=1/GPa)
#
#
# Indices 1 2 3 4 5 6 
#
# 1 0.012629 -0.002716 0.002049 0.000000 -0.007580 0.000000
# 2 -0.002716 0.007942 -0.000430 0.000000 -0.000817 0.000000
# 3 0.002049 -0.000430 0.029515 0.000000 -0.016948 0.000000
# 4 0.000000 0.000000 0.000000 0.031343 0.000000 0.004085
# 5 -0.007580 -0.000817 -0.016948 0.000000 0.048628 0.000000
# 6 0.000000 0.000000 0.000000 0.004085 0.000000 0.058836
#
#
# Mechanical properties :
#
#
# Convention : Reuss Voigt Hill
#
# Bulk Modulus (GPa) = 20.88090 40.51152 30.69621
# Shear Modulus (GPa) = 24.14850 31.24931 27.69890
#
# Velocity S-wave (km/s) = 3.16147 3.59637 3.38591
# Velocity P-wave (km/s) = 4.68711 5.83204 5.29064
#
# Compressibility (1/GPa) = 0.04789065
#
# Stress axis : x y z
#
# Youngs Moduli (GPa) = 79.18250 125.91962 33.88060
#
# Poissons Ratio (x) = 0.34201 -0.06940
# Poissons Ratio (y) = 0.21507 0.01457
# Poissons Ratio (z) = -0.16221 0.05416
#
# Static dielectric constant tensor:
#      x y z
#    x 1.948210 0.000000 0.033050 
#    y 0.000000 1.918360 0.000000 
#    z 0.033050 0.000000 2.021010 
# 
# From -- ./inp_files/33008.got.cif
#   From: 2010.05.17/outbox.cif.g08.bks.cpg/sg11_17_cif.got.tgz:33008.got - 2010.06.03 12:22:45.
