data_PCOD9165404
_publ_section_title
;
Structure prediction by ZEFSAII (Michael W. Deem and Ramdas Pophale) SiO2 
 PCOD9165404
Probable space group: P 21/M
;
_chemical_formula_sum "Si O2"
_cell_formula_units_Z 32
_cell_length_a 9.754215
_cell_length_b 21.393323
_cell_length_c 16.511322
_cell_angle_alpha 90.000000
_cell_angle_beta 153.009868
_cell_angle_gamma 90.000000
_cell_volume 1563.696101
_symmetry_space_group_name_H-M "P 21/M"
_symmetry_group_IT_number 11
_symmetry_cell_setting 'monoclinic'
loop_
_space_group_symop_operation_xyz
x,y,z
-x,1/2+y,-z
-x,-y,-z
x,1/2-y,z
loop_
_atom_site_type_symbol
_atom_site_label
_atom_site_fract_x
_atom_site_fract_y
_atom_site_fract_z
Si Si1 0.002434 0.174908 0.319220
Si Si2 0.304250 0.676243 0.323199
Si Si3 0.598095 0.424910 0.149416
Si Si4 0.884109 0.886789 0.232747
Si Si5 0.707078 0.543597 0.842956
Si Si6 0.893081 0.009683 0.536469
Si Si7 0.019020 0.324425 0.018298
Si Si8 0.333214 0.677216 0.013850
O O1 0.985866 0.250000 0.317019
O O2 0.351273 0.157255 0.515910
O O3 0.736132 0.144813 0.233331
O O4 0.903664 0.151886 0.177201
O O5 0.314399 0.750000 0.350031
O O6 0.099522 0.669650 0.135509
O O7 0.143279 0.639204 0.310714
O O8 0.432276 0.451977 0.140311
O O9 0.913032 0.462210 0.307075
O O10 0.357100 0.424969 0.950080
O O11 0.666340 0.835659 0.157967
O O12 0.014802 0.924884 0.376201
O O13 0.466923 0.509907 0.657820
O O14 0.000000 0.500000 0.000000
O O15 0.758796 0.617046 0.848471
O O16 0.000000 0.000000 0.500000
O O17 0.109094 0.250000 0.077080
O O18 0.745986 0.340347 0.936669
O O19 0.281936 0.750000 0.984064
#
# Coordination Sequence:
#
# PCOD9165404 Si02
#       8
#     4   4   4   4   4   4   4   4
#     4   9  20  38  64  93 129 165 208 269 332 394
#     4  10  21  38  65  99 130 164 211 272 330 394
#     4  10  22  42  64  92 124 170 219 270 325 398
#     4  11  21  40  67  93 127 165 218 269 327 384
#     4  11  25  43  66  93 128 174 217 276 333 386
#     4  10  25  42  60  88 126 170 217 269 321 387
#     4  10  22  40  64  93 128 167 213 262 326 397
#     4   9  20  37  62  93 127 167 203 255 324 391
#
# _framework density 20.464334000000001
#
# number of rings (size 3 to 8) (size 9 to 14) (size 15 to 20)
#    0.000    2.000    1.250    0.750    7.000    2.000 
#    0.000    1.875    0.000    0.750    0.000    0.000 
#    0.000    0.000    0.000    0.000    0.000    0.000 
#
# Total GULP energy -178161.608945 kJ/mol
# GULP energy per Si atom -5567.550280 kJ/mol
# Density = 2.041776 g / cm^3
# Si number density = 20.464334 Si / 1000 Ang^3
#
#
#
# Elastic Constant Matrix: (Units=GPa)
#
#
# Indices 1 2 3 4 5 6 
#
# 1 68.0369 22.3190 20.8916 0.0000 -0.0213 0.0000
# 2 22.3190 53.4100 33.1127 0.0000 6.7119 0.0000
# 3 20.8916 33.1127 101.6115 0.0000 21.8531 0.0000
# 4 0.0000 0.0000 0.0000 36.8832 0.0000 5.1714
# 5 -0.0213 6.7119 21.8531 0.0000 22.9924 0.0000
# 6 0.0000 0.0000 0.0000 5.1714 0.0000 35.8387
#
#
#
# Elastic Compliance Matrix: (Units=1/GPa)
#
#
# Indices 1 2 3 4 5 6 
#
# 1 0.017527 -0.006339 -0.002438 0.000000 0.004184 0.000000
# 2 -0.006339 0.025761 -0.006879 0.000000 -0.000988 0.000000
# 3 -0.002438 -0.006879 0.015275 0.000000 -0.012513 0.000000
# 4 0.000000 0.000000 0.000000 0.027672 0.000000 -0.003993
# 5 0.004184 -0.000988 -0.012513 0.000000 0.055677 0.000000
# 6 0.000000 0.000000 0.000000 -0.003993 0.000000 0.028479
#
#
# Mechanical properties :
#
#
# Convention : Reuss Voigt Hill
#
# Bulk Modulus (GPa) = 36.69426 41.74500 39.21963
# Shear Modulus (GPa) = 23.72060 28.92522 26.32291
#
# Velocity S-wave (km/s) = 3.40828 3.76366 3.59037
# Velocity P-wave (km/s) = 5.78431 6.27137 6.03276
#
# Compressibility (1/GPa) = 0.02725222
#
# Stress axis : x y z
#
# Youngs Moduli (GPa) = 57.05449 38.81854 65.46484
#
# Poissons Ratio (x) = 0.24606 0.15959
# Poissons Ratio (y) = 0.36165 0.45035
# Poissons Ratio (z) = 0.13908 0.26704
#
# Static dielectric constant tensor:
#      x y z
#    x 1.752660 0.000000 -0.015650 
#    y 0.000000 1.798980 0.000000 
#    z -0.015650 0.000000 1.762680 
# 
# From -- ./inp_files/48475.got.cif
#   From: 2010.05.17/outbox.cif.g08.bks.cpg/sg11_25_cif.got.tgz:48475.got - 2010.06.03 12:22:45.
