data_PCOD9165216
_publ_section_title
;
Structure prediction by ZEFSAII (Michael W. Deem and Ramdas Pophale) SiO2 
 PCOD9165216
Probable space group: P 21/M
;
_chemical_formula_sum "Si O2"
_cell_formula_units_Z 32
_cell_length_a 12.587311
_cell_length_b 8.741802
_cell_length_c 14.811573
_cell_angle_alpha 90.000000
_cell_angle_beta 90.264198
_cell_angle_gamma 90.000000
_cell_volume 1629.785668
_symmetry_space_group_name_H-M "P 21/M"
_symmetry_group_IT_number 11
_symmetry_cell_setting 'monoclinic'
loop_
_space_group_symop_operation_xyz
x,y,z
-x,1/2+y,-z
-x,-y,-z
x,1/2-y,z
loop_
_atom_site_type_symbol
_atom_site_label
_atom_site_fract_x
_atom_site_fract_y
_atom_site_fract_z
Si Si1 0.114464 0.934413 0.317610
Si Si2 0.710413 0.069510 0.145461
Si Si3 0.123011 0.431860 0.712011
Si Si4 0.542553 0.570668 0.269062
Si Si5 0.163829 0.570826 0.515381
Si Si6 0.325701 0.067233 0.231038
Si Si7 0.615885 0.567641 0.975473
Si Si8 0.598871 0.429290 0.448964
O O1 0.129748 0.750000 0.319505
O O2 0.109652 0.985306 0.423079
O O3 0.001252 0.966662 0.271611
O O4 0.213119 0.010326 0.267413
O O5 0.719689 0.250000 0.136837
O O6 0.800478 0.008562 0.213942
O O7 0.597967 0.025519 0.190885
O O8 0.702139 0.992277 0.047789
O O9 0.139270 0.250000 0.716435
O O10 0.143348 0.486208 0.609270
O O11 0.547713 0.750000 0.249648
O O12 0.422328 0.516213 0.282504
O O13 0.607828 0.526959 0.358121
O O14 0.137231 0.750000 0.528813
O O15 0.290514 0.560812 0.498202
O O16 0.334560 0.250000 0.242196
O O17 0.346780 0.028778 0.125761
O O18 0.607568 0.750000 0.982161
O O19 0.500000 0.500000 0.000000
O O20 0.500000 0.500000 0.500000
O O21 0.580950 0.250000 0.427342
#
# Coordination Sequence:
#
# PCOD9165216 Si02
#       8
#     4   4   4   4   4   4   4   4
#     4  10  23  42  63  91 126 165 211 258 310 369
#     4  12  24  40  63  92 124 159 206 257 309 372
#     4  11  23  40  64  92 124 165 213 261 310 368
#     4  12  23  37  60  87 123 163 202 252 312 371
#     4  10  21  38  60  87 122 163 209 259 306 364
#     4  11  24  41  64  94 127 161 205 253 309 379
#     4  11  23  40  65  96 128 162 202 252 310 376
#     4  11  22  35  54  84 124 165 207 252 307 373
#
# _framework density 19.634482999999999
#
# number of rings (size 3 to 8) (size 9 to 14) (size 15 to 20)
#    0.000    1.000    2.500    4.875    0.000    4.500 
#    0.000    0.625    0.000    0.000    0.000    0.000 
#    0.000    0.000    0.000    0.000    0.000    0.000 
#
# Total GULP energy -178878.896317 kJ/mol
# GULP energy per Si atom -5589.965510 kJ/mol
# Density = 1.958979 g / cm^3
# Si number density = 19.634483 Si / 1000 Ang^3
#
#
#
# Elastic Constant Matrix: (Units=GPa)
#
#
# Indices 1 2 3 4 5 6 
#
# 1 102.5106 33.5025 31.8154 0.0000 11.5382 0.0000
# 2 33.5025 63.3038 27.0366 0.0000 5.0918 0.0000
# 3 31.8154 27.0366 89.3324 0.0000 17.4849 0.0000
# 4 0.0000 0.0000 0.0000 30.0106 0.0000 -5.0582
# 5 11.5382 5.0918 17.4849 0.0000 24.4145 0.0000
# 6 0.0000 0.0000 0.0000 -5.0582 0.0000 24.0061
#
#
#
# Elastic Compliance Matrix: (Units=1/GPa)
#
#
# Indices 1 2 3 4 5 6 
#
# 1 0.012586 -0.005463 -0.002196 0.000000 -0.003236 0.000000
# 2 -0.005463 0.020514 -0.004572 0.000000 0.001578 0.000000
# 3 -0.002196 -0.004572 0.015085 0.000000 -0.008812 0.000000
# 4 0.000000 0.000000 0.000000 0.034549 0.000000 0.007280
# 5 -0.003236 0.001578 -0.008812 0.000000 0.048471 0.000000
# 6 0.000000 0.000000 0.000000 0.007280 0.000000 0.043190
#
#
# Mechanical properties :
#
#
# Convention : Reuss Voigt Hill
#
# Bulk Modulus (GPa) = 42.15190 48.87286 45.51238
# Shear Modulus (GPa) = 24.18238 26.53905 25.36071
#
# Velocity S-wave (km/s) = 3.51326 3.68047 3.59784
# Velocity P-wave (km/s) = 6.16216 6.55794 6.36313
#
# Compressibility (1/GPa) = 0.02372372
#
# Stress axis : x y z
#
# Youngs Moduli (GPa) = 79.45189 48.74801 66.29318
#
# Poissons Ratio (x) = 0.26631 0.14556
# Poissons Ratio (y) = 0.43404 0.30307
# Poissons Ratio (z) = 0.17445 0.22286
#
# Static dielectric constant tensor:
#      x y z
#    x 1.680930 0.000000 0.014010 
#    y 0.000000 1.661880 0.000000 
#    z 0.014010 0.000000 1.694210 
# 
# From -- ./inp_files/49411.got.cif
#   From: 2010.05.17/outbox.cif.g08.bks.cpg/sg11_25_cif.got.tgz:49411.got - 2010.06.03 12:22:45.
