data_PCOD9165016
_publ_section_title
;
Structure prediction by ZEFSAII (Michael W. Deem and Ramdas Pophale) SiO2 
 PCOD9165016
Probable space group: P 21/M
;
_chemical_formula_sum "Si O2"
_cell_formula_units_Z 24
_cell_length_a 5.247373
_cell_length_b 14.485011
_cell_length_c 14.636493
_cell_angle_alpha 90.000000
_cell_angle_beta 111.877564
_cell_angle_gamma 90.000000
_cell_volume 1032.374952
_symmetry_space_group_name_H-M "P 21/M"
_symmetry_group_IT_number 11
_symmetry_cell_setting 'monoclinic'
loop_
_space_group_symop_operation_xyz
x,y,z
-x,1/2+y,-z
-x,-y,-z
x,1/2-y,z
loop_
_atom_site_type_symbol
_atom_site_label
_atom_site_fract_x
_atom_site_fract_y
_atom_site_fract_z
Si Si1 0.710385 0.052497 0.460725
Si Si2 0.092773 0.847469 0.357639
Si Si3 0.888680 0.361769 0.104254
Si Si4 0.301706 0.009494 0.257760
Si Si5 0.269544 0.360536 0.990504
Si Si6 0.437717 0.145047 0.812918
O O1 0.790369 0.145140 0.525167
O O2 0.566091 0.055497 0.342910
O O3 0.500000 0.000000 0.500000
O O4 0.000000 0.000000 0.500000
O O5 0.182341 0.750000 0.326998
O O6 0.764991 0.849558 0.301401
O O7 0.188763 0.935613 0.314931
O O8 0.899693 0.250000 0.116498
O O9 0.079289 0.414199 0.201788
O O10 0.023551 0.387818 0.024205
O O11 0.571453 0.392173 0.064030
O O12 0.376901 0.942705 0.183509
O O13 0.276422 0.250000 0.999949
O O14 0.262605 0.376581 0.880984
O O15 0.555911 0.250000 0.842528
#
# Coordination Sequence:
#
# PCOD9165016 Si02
#       6
#     4   4   4   4   4   4
#     4  10  21  40  60  85 119 156 192 245 302 356
#     4  10  22  40  62  92 125 162 203 252 309 368
#     4  10  23  41  61  86 123 165 209 256 303 360
#     4  11  23  37  65  89 126 157 211 250 311 361
#     4   9  21  40  59  85 123 165 205 253 304 358
#     4  10  21  37  61  89 124 162 202 251 308 364
#
# _framework density 23.247368000000002
#
# number of rings (size 3 to 8) (size 9 to 14) (size 15 to 20)
#    0.000    2.000    1.667    0.500    4.667    2.000 
#    0.000    0.000    0.000    1.000    0.000    0.000 
#    0.000    0.000    0.000    0.000    0.000    0.000 
#
# Total GULP energy -133979.698071 kJ/mol
# GULP energy per Si atom -5582.487420 kJ/mol
# Density = 2.319446 g / cm^3
# Si number density = 23.247368 Si / 1000 Ang^3
#
#
#
# Elastic Constant Matrix: (Units=GPa)
#
#
# Indices 1 2 3 4 5 6 
#
# 1 69.8697 13.2141 0.6238 0.0000 5.9395 0.0000
# 2 13.2141 104.3350 42.1968 0.0000 7.7878 0.0000
# 3 0.6238 42.1968 113.2468 0.0000 28.9574 0.0000
# 4 0.0000 0.0000 0.0000 36.7118 0.0000 2.1492
# 5 5.9395 7.7878 28.9574 0.0000 38.3045 0.0000
# 6 0.0000 0.0000 0.0000 2.1492 0.0000 21.5716
#
#
#
# Elastic Compliance Matrix: (Units=1/GPa)
#
#
# Indices 1 2 3 4 5 6 
#
# 1 0.014991 -0.002299 0.001548 0.000000 -0.003027 0.000000
# 2 -0.002299 0.011675 -0.004737 0.000000 0.001564 0.000000
# 3 0.001548 -0.004737 0.012895 0.000000 -0.009025 0.000000
# 4 0.000000 0.000000 0.000000 0.027399 0.000000 -0.002730
# 5 -0.003027 0.001564 -0.009025 0.000000 0.033081 0.000000
# 6 0.000000 0.000000 0.000000 -0.002730 0.000000 0.046629
#
#
# Mechanical properties :
#
#
# Convention : Reuss Voigt Hill
#
# Bulk Modulus (GPa) = 34.98468 44.39120 39.68794
# Shear Modulus (GPa) = 29.90908 34.74536 32.32722
#
# Velocity S-wave (km/s) = 3.59075 3.87019 3.73309
# Velocity P-wave (km/s) = 5.68092 6.25362 5.97414
#
# Compressibility (1/GPa) = 0.02858394
#
# Stress axis : x y z
#
# Youngs Moduli (GPa) = 66.70836 85.65389 77.55145
#
# Poissons Ratio (x) = 0.19689 -0.12005
# Poissons Ratio (y) = 0.15334 0.36740
# Poissons Ratio (z) = -0.10327 0.40578
#
# Static dielectric constant tensor:
#      x y z
#    x 1.923260 0.000000 0.009940 
#    y 0.000000 1.901010 0.000000 
#    z 0.009940 0.000000 1.945300 
# 
# From -- ./inp_files/6392.got.cif
#   From: 2010.05.17/outbox.cif.g08.bks.cpg/sg11_4_cif.got.tgz:6392.got - 2010.06.03 12:22:45.
