data_PCOD9165284
_publ_section_title
;
Structure prediction by ZEFSAII (Michael W. Deem and Ramdas Pophale) SiO2 
 PCOD9165284
Probable space group: P 21/M
;
_chemical_formula_sum "Si O2"
_cell_formula_units_Z 32
_cell_length_a 13.871853
_cell_length_b 13.532922
_cell_length_c 8.858812
_cell_angle_alpha 90.000000
_cell_angle_beta 115.949470
_cell_angle_gamma 90.000000
_cell_volume 1495.368840
_symmetry_space_group_name_H-M "P 21/M"
_symmetry_group_IT_number 11
_symmetry_cell_setting 'monoclinic'
loop_
_space_group_symop_operation_xyz
x,y,z
-x,1/2+y,-z
-x,-y,-z
x,1/2-y,z
loop_
_atom_site_type_symbol
_atom_site_label
_atom_site_fract_x
_atom_site_fract_y
_atom_site_fract_z
Si Si1 0.878750 0.928777 0.069644
Si Si2 0.948439 0.142033 0.035879
Si Si3 0.247973 0.641453 0.668484
Si Si4 0.658794 0.554906 0.744129
Si Si5 0.698671 0.635975 0.448443
Si Si6 0.883464 0.544820 0.390699
Si Si7 0.454520 0.970034 0.806591
Si Si8 0.741162 0.356801 0.677932
O O1 0.886400 0.888018 0.243767
O O2 0.946010 0.868581 0.993333
O O3 0.757438 0.935332 0.928147
O O4 0.934355 0.038240 0.111887
O O5 0.949004 0.250000 0.113983
O O6 0.847048 0.140876 0.852516
O O7 0.217344 0.750000 0.701016
O O8 0.188663 0.550368 0.702357
O O9 0.373198 0.620738 0.771657
O O10 0.225691 0.633504 0.473740
O O11 0.679141 0.624375 0.614091
O O12 0.548076 0.561464 0.756673
O O13 0.666710 0.445378 0.677628
O O14 0.685288 0.750000 0.394638
O O15 0.817769 0.598022 0.479960
O O16 0.615229 0.561195 0.309617
O O17 0.000000 0.500000 0.500000
O O18 0.500000 0.000000 0.000000
O O19 0.688064 0.250000 0.659912
#
# Coordination Sequence:
#
# PCOD9165284 Si02
#       8
#     4   4   4   4   4   4   4   4
#     4  10  22  36  61  88 123 166 210 261 313 378
#     4   9  19  35  57  88 123 160 204 255 311 369
#     4  10  21  38  61  90 121 157 208 258 309 375
#     4  11  21  41  64  92 126 168 215 264 324 380
#     4  11  26  44  64  96 132 169 217 271 328 393
#     4  11  23  41  64  93 132 174 211 262 323 382
#     4  11  24  44  67  93 127 170 212 267 329 387
#     4   9  17  33  60  89 117 154 204 255 305 369
#
# _framework density 21.399404000000001
#
# number of rings (size 3 to 8) (size 9 to 14) (size 15 to 20)
#    0.000    1.750    2.500    2.625    3.500    3.500 
#    0.000    3.750    0.000    0.000    0.000    0.000 
#    0.000    0.000    0.000    0.000    0.000    0.000 
#
# Total GULP energy -178686.957931 kJ/mol
# GULP energy per Si atom -5583.967435 kJ/mol
# Density = 2.135070 g / cm^3
# Si number density = 21.399404 Si / 1000 Ang^3
#
#
#
# Elastic Constant Matrix: (Units=GPa)
#
#
# Indices 1 2 3 4 5 6 
#
# 1 134.8954 8.3747 26.2834 0.0000 -5.0839 0.0000
# 2 8.3747 69.7155 -4.0946 0.0000 1.0022 0.0000
# 3 26.2834 -4.0946 65.6235 0.0000 -10.1608 0.0000
# 4 0.0000 0.0000 0.0000 10.8282 0.0000 3.3833
# 5 -5.0839 1.0022 -10.1608 0.0000 25.0253 0.0000
# 6 0.0000 0.0000 0.0000 3.3833 0.0000 5.2908
#
#
#
# Elastic Compliance Matrix: (Units=1/GPa)
#
#
# Indices 1 2 3 4 5 6 
#
# 1 0.008138 -0.001175 -0.003276 0.000000 0.000370 0.000000
# 2 -0.001175 0.014568 0.001336 0.000000 -0.000280 0.000000
# 3 -0.003276 0.001336 0.017631 0.000000 0.006440 0.000000
# 4 0.000000 0.000000 0.000000 0.115411 0.000000 -0.073803
# 5 0.000370 -0.000280 0.006440 0.000000 0.042661 0.000000
# 6 0.000000 0.000000 0.000000 -0.073803 0.000000 0.236204
#
#
# Mechanical properties :
#
#
# Convention : Reuss Voigt Hill
#
# Bulk Modulus (GPa) = 29.31869 36.81794 33.06831
# Shear Modulus (GPa) = 11.05678 24.20691 17.63185
#
# Velocity S-wave (km/s) = 2.27554 3.36697 2.87355
# Velocity P-wave (km/s) = 4.54253 5.68839 5.14744
#
# Compressibility (1/GPa) = 0.03410794
#
# Stress axis : x y z
#
# Youngs Moduli (GPa) = 122.87594 68.64493 56.71891
#
# Poissons Ratio (x) = 0.08068 0.18578
# Poissons Ratio (y) = 0.14442 -0.07580
# Poissons Ratio (z) = 0.40248 -0.09174
#
# Static dielectric constant tensor:
#      x y z
#    x 1.731310 0.000000 0.021620 
#    y 0.000000 1.782590 0.000000 
#    z 0.021620 0.000000 1.732900 
# 
# From -- ./inp_files/22219.got.cif
#   From: 2010.05.17/outbox.cif.g08.bks.cpg/sg11_12_cif.got.tgz:22219.got - 2010.06.03 12:22:45.
