data_PCOD9165440
_publ_section_title
;
Structure prediction by ZEFSAII (Michael W. Deem and Ramdas Pophale) SiO2 
 PCOD9165440
Probable space group: P 21/M
;
_chemical_formula_sum "Si O2"
_cell_formula_units_Z 28
_cell_length_a 9.576357
_cell_length_b 8.478368
_cell_length_c 25.835105
_cell_angle_alpha 90.000000
_cell_angle_beta 139.461634
_cell_angle_gamma 90.000000
_cell_volume 1363.350435
_symmetry_space_group_name_H-M "P 21/M"
_symmetry_group_IT_number 11
_symmetry_cell_setting 'monoclinic'
loop_
_space_group_symop_operation_xyz
x,y,z
-x,1/2+y,-z
-x,-y,-z
x,1/2-y,z
loop_
_atom_site_type_symbol
_atom_site_label
_atom_site_fract_x
_atom_site_fract_y
_atom_site_fract_z
Si Si1 0.727063 0.438908 0.083104
Si Si2 0.815625 0.939696 0.819158
Si Si3 0.078758 0.564933 0.577345
Si Si4 0.658314 0.434888 0.500909
Si Si5 0.110547 0.937798 0.757000
Si Si6 0.598415 0.564071 0.252674
Si Si7 0.326378 0.564239 0.332916
O O1 0.720947 0.250000 0.080187
O O2 0.779447 0.483798 0.157277
O O3 0.934012 0.488051 0.107084
O O4 0.500000 0.500000 0.000000
O O5 0.803846 0.750000 0.815164
O O6 0.646486 0.005772 0.812502
O O7 0.738905 0.005741 0.742101
O O8 0.121968 0.750000 0.585937
O O9 0.878780 0.530280 0.559227
O O10 0.000000 0.500000 0.500000
O O11 0.281728 0.478365 0.659716
O O12 0.500000 0.500000 0.500000
O O13 0.701559 0.250000 0.519921
O O14 0.526130 0.466788 0.411031
O O15 0.066484 0.750000 0.745732
O O16 0.267840 0.979123 0.754636
O O17 0.883593 0.028070 0.691190
O O18 0.606218 0.750000 0.246841
O O19 0.375275 0.750000 0.347332
#
# Coordination Sequence:
#
# PCOD9165440 Si02
#       7
#     4   4   4   4   4   4   4
#     4   9  20  38  64  92 120 150 188 231 281 340
#     4  10  21  39  60  85 115 153 190 229 280 340
#     4  12  25  42  60  82 114 155 197 245 297 349
#     4  12  24  39  56  79 110 147 191 243 294 344
#     4  10  21  39  60  86 118 157 194 235 289 346
#     4  12  24  39  59  87 117 152 196 244 291 344
#     4  11  21  36  57  83 111 146 192 241 286 341
#
# _framework density 20.53764
#
# number of rings (size 3 to 8) (size 9 to 14) (size 15 to 20)
#    0.000    1.143    0.000    8.571    0.000    3.429 
#    0.000    0.714    0.000    0.000    0.000    0.000 
#    0.000    0.000    0.000    0.000    0.000    0.000 
#
# Total GULP energy -156673.894979 kJ/mol
# GULP energy per Si atom -5595.496249 kJ/mol
# Density = 2.049090 g / cm^3
# Si number density = 20.537640 Si / 1000 Ang^3
#
#
#
# Elastic Constant Matrix: (Units=GPa)
#
#
# Indices 1 2 3 4 5 6 
#
# 1 75.2676 -10.3490 12.5012 0.0000 21.0528 0.0000
# 2 -10.3490 68.4713 -0.0736 0.0000 -1.7018 0.0000
# 3 12.5012 -0.0736 85.0368 0.0000 25.7447 0.0000
# 4 0.0000 0.0000 0.0000 32.8775 0.0000 3.8815
# 5 21.0528 -1.7018 25.7447 0.0000 30.4151 0.0000
# 6 0.0000 0.0000 0.0000 3.8815 0.0000 35.4552
#
#
#
# Elastic Compliance Matrix: (Units=1/GPa)
#
#
# Indices 1 2 3 4 5 6 
#
# 1 0.016935 0.002244 0.001376 0.000000 -0.012761 0.000000
# 2 0.002244 0.014929 -0.000134 0.000000 -0.000605 0.000000
# 3 0.001376 -0.000134 0.015930 0.000000 -0.014444 0.000000
# 4 0.000000 0.000000 0.000000 0.030814 0.000000 -0.003373
# 5 -0.012761 -0.000605 -0.014444 0.000000 0.053904 0.000000
# 6 0.000000 0.000000 0.000000 -0.003373 0.000000 0.028574
#
#
# Mechanical properties :
#
#
# Convention : Reuss Voigt Hill
#
# Bulk Modulus (GPa) = 18.25961 25.88144 22.07053
# Shear Modulus (GPa) = 29.00746 34.86269 31.93507
#
# Velocity S-wave (km/s) = 3.76227 4.12455 3.94757
# Velocity P-wave (km/s) = 5.27096 5.94237 5.61671
#
# Compressibility (1/GPa) = 0.05476567
#
# Stress axis : x y z
#
# Youngs Moduli (GPa) = 59.04788 66.98526 62.77452
#
# Poissons Ratio (x) = -0.15031 -0.08636
# Poissons Ratio (y) = -0.13250 0.00841
# Poissons Ratio (z) = -0.08123 0.00897
#
# Static dielectric constant tensor:
#      x y z
#    x 1.804120 0.000000 -0.021120 
#    y 0.000000 1.685450 0.000000 
#    z -0.021120 0.000000 1.750640 
# 
# From -- ./inp_files/70855.got.cif
#   From: 2010.05.17/outbox.cif.g08.bks.cpg/sg11_36_cif.got.tgz:70855.got - 2010.06.03 12:22:45.
