data_PCOD9165827
_publ_section_title
;
Structure prediction by ZEFSAII (Michael W. Deem and Ramdas Pophale) SiO2 
 PCOD9165827
Probable space group: P 21/M
;
_chemical_formula_sum "Si O2"
_cell_formula_units_Z 32
_cell_length_a 21.211004
_cell_length_b 16.686883
_cell_length_c 7.942416
_cell_angle_alpha 90.000000
_cell_angle_beta 147.117300
_cell_angle_gamma 90.000000
_cell_volume 1526.249886
_symmetry_space_group_name_H-M "P 21/M"
_symmetry_group_IT_number 11
_symmetry_cell_setting 'monoclinic'
loop_
_space_group_symop_operation_xyz
x,y,z
-x,1/2+y,-z
-x,-y,-z
x,1/2-y,z
loop_
_atom_site_type_symbol
_atom_site_label
_atom_site_fract_x
_atom_site_fract_y
_atom_site_fract_z
Si Si1 0.661886 0.343324 0.785773
Si Si2 0.677683 0.978383 0.274570
Si Si3 0.429337 0.501987 0.602777
Si Si4 0.776418 0.659438 0.299503
Si Si5 0.896677 0.341172 0.477131
Si Si6 0.987202 0.585771 0.567708
Si Si7 0.581962 0.663917 0.593374
Si Si8 0.910044 0.429532 0.840574
O O1 0.679652 0.250000 0.761835
O O2 0.623106 0.412331 0.568628
O O3 0.554306 0.337355 0.671955
O O4 0.776701 0.377135 0.134973
O O5 0.614449 0.981744 0.310003
O O6 0.743774 0.895289 0.384680
O O7 0.778917 0.043726 0.508943
O O8 0.569926 0.992218 0.906253
O O9 0.389038 0.422685 0.415219
O O10 0.820763 0.750000 0.433043
O O11 0.865544 0.609301 0.382115
O O12 0.656948 0.667997 0.930457
O O13 0.866279 0.250000 0.428324
O O14 0.986099 0.354361 0.525352
O O15 0.937541 0.368550 0.751660
O O16 0.000000 0.500000 0.500000
O O17 0.072241 0.591074 0.922300
O O18 0.606779 0.750000 0.557970
O O19 0.000000 0.500000 0.000000
#
# Coordination Sequence:
#
# PCOD9165827 Si02
#       8
#     4   4   4   4   4   4   4   4
#     4  10  21  40  67  98 131 175 224 279 340 406
#     4  11  24  41  60  99 127 171 223 267 343 399
#     4  11  23  38  68  93 133 175 221 275 334 421
#     4  11  24  42  65  94 132 171 219 278 340 404
#     4  11  25  43  67  99 132 171 225 280 337 404
#     4  12  25  44  71  96 131 179 229 282 334 416
#     4  10  22  38  63  97 127 167 219 272 333 406
#     4  12  24  43  66  95 133 174 224 278 336 402
#
# _framework density 20.966424
#
# number of rings (size 3 to 8) (size 9 to 14) (size 15 to 20)
#    0.000    1.000    3.750    2.250    5.250    1.500 
#    0.000    2.500    0.000    0.000    0.000    0.000 
#    0.000    0.000    0.000    0.000    0.000    0.000 
#
# Total GULP energy -178272.034120 kJ/mol
# GULP energy per Si atom -5571.001066 kJ/mol
# Density = 2.091870 g / cm^3
# Si number density = 20.966424 Si / 1000 Ang^3
#
#
#
# Elastic Constant Matrix: (Units=GPa)
#
#
# Indices 1 2 3 4 5 6 
#
# 1 84.3605 38.7417 19.1305 0.0000 -9.7360 0.0000
# 2 38.7417 94.8057 17.7760 0.0000 -17.6341 0.0000
# 3 19.1305 17.7760 55.6039 0.0000 -8.7889 0.0000
# 4 0.0000 0.0000 0.0000 26.1581 0.0000 -3.6997
# 5 -9.7360 -17.6341 -8.7889 0.0000 36.8426 0.0000
# 6 0.0000 0.0000 0.0000 -3.6997 0.0000 13.1433
#
#
#
# Elastic Compliance Matrix: (Units=1/GPa)
#
#
# Indices 1 2 3 4 5 6 
#
# 1 0.015201 -0.005466 -0.003389 0.000000 0.000592 0.000000
# 2 -0.005466 0.014025 -0.001840 0.000000 0.004829 0.000000
# 3 -0.003389 -0.001840 0.020220 0.000000 0.003048 0.000000
# 4 0.000000 0.000000 0.000000 0.039814 0.000000 0.011207
# 5 0.000592 0.004829 0.003048 0.000000 0.030338 0.000000
# 6 0.000000 0.000000 0.000000 0.011207 0.000000 0.079239
#
#
# Mechanical properties :
#
#
# Convention : Reuss Voigt Hill
#
# Bulk Modulus (GPa) = 35.64210 42.89626 39.26918
# Shear Modulus (GPa) = 21.77905 25.83693 23.80799
#
# Velocity S-wave (km/s) = 3.22647 3.51422 3.37342
# Velocity P-wave (km/s) = 5.56028 6.08032 5.82610
#
# Compressibility (1/GPa) = 0.02805671
#
# Stress axis : x y z
#
# Youngs Moduli (GPa) = 65.78498 71.30205 49.45585
#
# Poissons Ratio (x) = 0.38975 0.16760
# Poissons Ratio (y) = 0.35960 0.09098
# Poissons Ratio (z) = 0.22293 0.13117
#
# Static dielectric constant tensor:
#      x y z
#    x -0.678930 0.000000 2.346480 
#    y 0.000000 1.810110 0.000000 
#    z 2.346480 0.000000 -0.424540 
# 
# From -- ./inp_files/27803.got.cif
#   From: 2010.05.17/outbox.cif.g08.bks.cpg/sg11_14_cif.got.tgz:27803.got - 2010.06.03 12:22:45.
