data_PCOD9165105
_publ_section_title
;
Structure prediction by ZEFSAII (Michael W. Deem and Ramdas Pophale) SiO2 
 PCOD9165105
Probable space group: P 21/M
;
_chemical_formula_sum "Si O2"
_cell_formula_units_Z 32
_cell_length_a 12.842527
_cell_length_b 14.107841
_cell_length_c 15.694872
_cell_angle_alpha 90.000000
_cell_angle_beta 151.843362
_cell_angle_gamma 90.000000
_cell_volume 1341.849327
_symmetry_space_group_name_H-M "P 21/M"
_symmetry_group_IT_number 11
_symmetry_cell_setting 'monoclinic'
loop_
_space_group_symop_operation_xyz
x,y,z
-x,1/2+y,-z
-x,-y,-z
x,1/2-y,z
loop_
_atom_site_type_symbol
_atom_site_label
_atom_site_fract_x
_atom_site_fract_y
_atom_site_fract_z
Si Si1 0.294440 0.641542 0.411163
Si Si2 0.295389 0.139939 0.157519
Si Si3 0.136500 0.991129 0.423135
Si Si4 0.541644 0.143890 0.853102
Si Si5 0.374364 0.362851 0.491546
Si Si6 0.223366 0.645354 0.795331
Si Si7 0.983494 0.363483 0.072427
Si Si8 0.400075 0.940564 0.757025
O O1 0.221293 0.750000 0.352018
O O2 0.503537 0.638215 0.627882
O O3 0.115246 0.573387 0.323676
O O4 0.404172 0.613205 0.400745
O O5 0.260668 0.250000 0.110535
O O6 0.084641 0.100457 0.056374
O O7 0.380267 0.087413 0.135447
O O8 0.203039 0.921537 0.547912
O O9 0.330616 0.066042 0.536936
O O10 0.942912 0.058925 0.311697
O O11 0.455753 0.250000 0.769710
O O12 0.385446 0.054069 0.754766
O O13 0.654104 0.152130 0.026756
O O14 0.739016 0.117416 0.929624
O O15 0.379159 0.250000 0.514099
O O16 0.163558 0.379545 0.277218
O O17 0.122569 0.750000 0.706829
O O18 0.374980 0.615884 0.825529
O O19 0.985719 0.250000 0.062593
#
# Coordination Sequence:
#
# PCOD9165105 Si02
#       8
#     4   4   4   4   4   4   4   4
#     4   8  16  29  49  79 115 148 177 217 266 317
#     4   8  15  30  53  79 110 144 179 218 263 318
#     4  11  20  33  55  85 109 137 182 228 271 315
#     4  10  21  38  58  79 105 140 180 222 267 322
#     4   9  15  28  52  81 110 143 183 220 257 314
#     4  11  23  41  61  77 101 144 191 224 259 322
#     4   8  14  29  54  81 104 138 184 218 253 315
#     4  11  23  36  53  84 114 137 175 227 281 314
#
# _framework density 23.847684000000001
#
# number of rings (size 3 to 8) (size 9 to 14) (size 15 to 20)
#    0.000    2.500    1.250    3.375    0.000    2.000 
#    0.000    0.625    0.000    1.500    0.000    0.000 
#    0.000    0.000    0.000    0.000    0.000    0.000 
#
# Total GULP energy -178698.355797 kJ/mol
# GULP energy per Si atom -5584.323619 kJ/mol
# Density = 2.379341 g / cm^3
# Si number density = 23.847684 Si / 1000 Ang^3
#
#
#
# Elastic Constant Matrix: (Units=GPa)
#
#
# Indices 1 2 3 4 5 6 
#
# 1 126.5373 24.3965 8.2240 0.0000 -13.5931 0.0000
# 2 24.3965 81.2536 -10.6114 0.0000 11.6690 0.0000
# 3 8.2240 -10.6114 33.5709 0.0000 2.0900 0.0000
# 4 0.0000 0.0000 0.0000 21.1977 0.0000 2.4478
# 5 -13.5931 11.6690 2.0900 0.0000 -16.4809 0.0000
# 6 0.0000 0.0000 0.0000 2.4478 0.0000 40.0494
#
#
#
# Elastic Compliance Matrix: (Units=1/GPa)
#
#
# Indices 1 2 3 4 5 6 
#
# 1 0.007498 -0.001424 -0.001825 0.000000 -0.007424 0.000000
# 2 -0.001424 0.011758 0.003447 0.000000 0.009936 0.000000
# 3 -0.001825 0.003447 0.030835 0.000000 0.007856 0.000000
# 4 0.000000 0.000000 0.000000 0.047510 0.000000 -0.002904
# 5 -0.007424 0.009936 0.007856 0.000000 -0.046522 0.000000
# 6 0.000000 0.000000 0.000000 -0.002904 0.000000 0.025147
#
#
# Mechanical properties :
#
#
# Convention : Reuss Voigt Hill
#
# Bulk Modulus (GPa) = 19.80668 31.70889 25.75778
# Shear Modulus (GPa) = 53.96157 23.57675 38.76916
#
# Velocity S-wave (km/s) = 4.76201 3.14767 4.03637
# Velocity P-wave (km/s) = 6.20960 5.15129 5.70504
#
# Compressibility (1/GPa) = 0.05048801
#
# Stress axis : x y z
#
# Youngs Moduli (GPa) = 133.36237 85.05026 32.43062
#
# Poissons Ratio (x) = 0.12107 0.05918
# Poissons Ratio (y) = 0.18985 -0.11178
# Poissons Ratio (z) = 0.24334 -0.29314
#
# Static dielectric constant tensor:
#      x y z
#    x 1.908130 0.000000 -0.009650 
#    y 0.000000 1.927280 0.000000 
#    z -0.009650 0.000000 1.941610 
# 
# From -- ./inp_files/39638.got.cif
#   From: 2010.05.17/outbox.cif.g08.bks.cpg/sg11_20_cif.got.tgz:39638.got - 2010.06.03 12:22:45.
