data_PCOD9165209
_publ_section_title
;
Structure prediction by ZEFSAII (Michael W. Deem and Ramdas Pophale) SiO2 
 PCOD9165209
Probable space group: P 21/M
;
_chemical_formula_sum "Si O2"
_cell_formula_units_Z 28
_cell_length_a 18.553366
_cell_length_b 13.592739
_cell_length_c 7.268941
_cell_angle_alpha 90.000000
_cell_angle_beta 129.860751
_cell_angle_gamma 90.000000
_cell_volume 1407.143141
_symmetry_space_group_name_H-M "P 21/M"
_symmetry_group_IT_number 11
_symmetry_cell_setting 'monoclinic'
loop_
_space_group_symop_operation_xyz
x,y,z
-x,1/2+y,-z
-x,-y,-z
x,1/2-y,z
loop_
_atom_site_type_symbol
_atom_site_label
_atom_site_fract_x
_atom_site_fract_y
_atom_site_fract_z
Si Si1 0.864406 0.859762 0.103374
Si Si2 0.584476 0.136722 0.121100
Si Si3 0.934161 0.364845 0.376025
Si Si4 0.294355 0.137341 0.846277
Si Si5 0.513674 0.974071 0.736140
Si Si6 0.785422 0.441478 0.412605
Si Si7 0.093346 0.960567 0.054962
O O1 0.873101 0.750000 0.036994
O O2 0.778791 0.859419 0.104832
O O3 0.962526 0.881300 0.370028
O O4 0.853455 0.944582 0.938014
O O5 0.556979 0.250000 0.078710
O O6 0.567650 0.087206 0.293458
O O7 0.692549 0.123146 0.241952
O O8 0.526247 0.073270 0.877269
O O9 0.912397 0.250000 0.363964
O O10 0.856294 0.426204 0.359127
O O11 0.932189 0.393263 0.159509
O O12 0.304916 0.250000 0.795052
O O13 0.249860 0.054929 0.639208
O O14 0.392669 0.091459 0.076217
O O15 0.500000 0.000000 0.500000
O O16 0.842190 0.411703 0.686397
O O17 0.000000 0.000000 0.000000
#
# Coordination Sequence:
#
# PCOD9165209 Si02
#       7
#     4   4   4   4   4   4   4
#     4  10  21  38  60  86 120 161 204 251 304 359
#     4  10  23  42  63  94 129 163 205 256 309 372
#     4  11  23  40  59  87 128 168 208 255 303 356
#     4  10  21  40  64  88 122 162 200 249 309 364
#     4  10  23  42  68  95 123 161 203 257 315 373
#     4  11  23  39  64  90 126 165 208 251 305 363
#     4  12  23  37  63  88 122 166 209 256 303 356
#
# _framework density 19.898474
#
# number of rings (size 3 to 8) (size 9 to 14) (size 15 to 20)
#    0.000    1.429    2.857    2.143    2.000    3.429 
#    0.000    0.000    0.000    0.000    0.000    0.000 
#    0.000    0.000    0.000    0.000    0.000    0.000 
#
# Total GULP energy -156392.612363 kJ/mol
# GULP energy per Si atom -5585.450442 kJ/mol
# Density = 1.985318 g / cm^3
# Si number density = 19.898474 Si / 1000 Ang^3
#
#
#
# Elastic Constant Matrix: (Units=GPa)
#
#
# Indices 1 2 3 4 5 6 
#
# 1 74.3612 13.1002 4.7608 0.0000 1.0179 0.0000
# 2 13.1002 112.9896 14.4381 0.0000 -5.8791 0.0000
# 3 4.7608 14.4381 63.4236 0.0000 -19.4540 0.0000
# 4 0.0000 0.0000 0.0000 11.8134 0.0000 0.2657
# 5 1.0179 -5.8791 -19.4540 0.0000 27.6844 0.0000
# 6 0.0000 0.0000 0.0000 0.2657 0.0000 24.7698
#
#
#
# Elastic Compliance Matrix: (Units=1/GPa)
#
#
# Indices 1 2 3 4 5 6 
#
# 1 0.013818 -0.001536 -0.001203 0.000000 -0.001679 0.000000
# 2 -0.001536 0.009294 -0.001756 0.000000 0.000796 0.000000
# 3 -0.001203 -0.001756 0.020595 0.000000 0.014144 0.000000
# 4 0.000000 0.000000 0.000000 0.084670 0.000000 -0.000908
# 5 -0.001679 0.000796 0.014144 0.000000 0.046291 0.000000
# 6 0.000000 0.000000 0.000000 -0.000908 0.000000 0.040382
#
#
# Mechanical properties :
#
#
# Convention : Reuss Voigt Hill
#
# Bulk Modulus (GPa) = 28.80327 35.04141 31.92234
# Shear Modulus (GPa) = 21.22116 27.41853 24.31985
#
# Velocity S-wave (km/s) = 3.26923 3.71606 3.49979
# Velocity P-wave (km/s) = 5.36256 6.00504 5.69287
#
# Compressibility (1/GPa) = 0.03471828
#
# Stress axis : x y z
#
# Youngs Moduli (GPa) = 72.36715 107.59297 48.55434
#
# Poissons Ratio (x) = 0.16524 0.05840
# Poissons Ratio (y) = 0.11114 0.08528
# Poissons Ratio (z) = 0.08704 0.18897
#
# Static dielectric constant tensor:
#      x y z
#    x 1.693850 0.000000 0.012250 
#    y 0.000000 1.735680 0.000000 
#    z 0.012250 0.000000 1.627300 
# 
# From -- ./inp_files/8151.got.cif
#   From: 2010.05.17/outbox.cif.g08.bks.cpg/sg11_5_cif.got.tgz:8151.got - 2010.06.03 12:22:45.
