data_PCOD9165396
_publ_section_title
;
Structure prediction by ZEFSAII (Michael W. Deem and Ramdas Pophale) SiO2 
 PCOD9165396
Probable space group: P 21/M
;
_chemical_formula_sum "Si O2"
_cell_formula_units_Z 24
_cell_length_a 9.082629
_cell_length_b 14.850299
_cell_length_c 14.576233
_cell_angle_alpha 90.000000
_cell_angle_beta 141.058579
_cell_angle_gamma 90.000000
_cell_volume 1235.705514
_symmetry_space_group_name_H-M "P 21/M"
_symmetry_group_IT_number 11
_symmetry_cell_setting 'monoclinic'
loop_
_space_group_symop_operation_xyz
x,y,z
-x,1/2+y,-z
-x,-y,-z
x,1/2-y,z
loop_
_atom_site_type_symbol
_atom_site_label
_atom_site_fract_x
_atom_site_fract_y
_atom_site_fract_z
Si Si1 0.525866 0.487148 0.905774
Si Si2 0.208330 0.358738 0.359509
Si Si3 0.847505 0.847965 0.037253
Si Si4 0.019586 0.911416 0.942778
Si Si5 0.240919 0.643109 0.379215
Si Si6 0.000193 0.007216 0.608518
O O1 0.267141 0.464245 0.752309
O O2 0.500000 0.500000 0.000000
O O3 0.634118 0.582569 0.926365
O O4 0.717512 0.414661 0.968032
O O5 0.164403 0.250000 0.340058
O O6 0.486447 0.373382 0.512342
O O7 0.140203 0.397935 0.225223
O O8 0.064470 0.416251 0.365629
O O9 0.767094 0.750000 0.030541
O O10 0.052442 0.879619 0.207169
O O11 0.958292 0.840505 0.990405
O O12 0.000000 0.000000 0.000000
O O13 0.219071 0.750000 0.386391
O O14 0.169371 0.582668 0.430906
O O15 0.000000 0.000000 0.500000
#
# Coordination Sequence:
#
# PCOD9165396 Si02
#       6
#     4   4   4   4   4   4
#     4  11  21  41  59  89 123 158 206 254 313 380
#     4  11  24  43  65  94 129 169 218 264 313 381
#     4  10  21  39  64  90 119 162 208 259 312 370
#     4  10  21  38  65  90 121 159 206 256 308 376
#     4  10  23  43  64  90 126 168 216 263 315 379
#     4  12  26  40  63  91 126 170 208 259 327 376
#
# _framework density 19.422104000000001
#
# number of rings (size 3 to 8) (size 9 to 14) (size 15 to 20)
#    0.000    1.333    3.333    2.000    7.000    1.333 
#    0.000    1.667    0.000    0.000    0.000    0.000 
#    0.000    0.000    0.000    0.000    0.000    0.000 
#
# Total GULP energy -133647.884473 kJ/mol
# GULP energy per Si atom -5568.661853 kJ/mol
# Density = 1.937790 g / cm^3
# Si number density = 19.422104 Si / 1000 Ang^3
#
#
#
# Elastic Constant Matrix: (Units=GPa)
#
#
# Indices 1 2 3 4 5 6 
#
# 1 112.8261 12.5757 1.0906 0.0000 -11.1537 0.0000
# 2 12.5757 75.6822 -22.8084 0.0000 0.2974 0.0000
# 3 1.0906 -22.8084 21.6972 0.0000 -7.6459 0.0000
# 4 0.0000 0.0000 0.0000 18.3508 0.0000 6.4982
# 5 -11.1537 0.2974 -7.6459 0.0000 50.9471 0.0000
# 6 0.0000 0.0000 0.0000 6.4982 0.0000 18.4670
#
#
#
# Elastic Compliance Matrix: (Units=1/GPa)
#
#
# Indices 1 2 3 4 5 6 
#
# 1 0.009301 -0.002211 -0.002185 0.000000 0.001721 0.000000
# 2 -0.002211 0.020342 0.022470 0.000000 0.002770 0.000000
# 3 -0.002185 0.022470 0.073492 0.000000 0.010420 0.000000
# 4 0.000000 0.000000 0.000000 0.062250 0.000000 -0.021904
# 5 0.001721 0.002770 0.010420 0.000000 0.021553 0.000000
# 6 0.000000 0.000000 0.000000 -0.021904 0.000000 0.061858
#
#
# Mechanical properties :
#
#
# Convention : Reuss Voigt Hill
#
# Bulk Modulus (GPa) = 7.17957 21.32458 14.25208
# Shear Modulus (GPa) = 19.29953 32.17616 25.73784
#
# Velocity S-wave (km/s) = 3.15570 4.07465 3.64426
# Velocity P-wave (km/s) = 4.12099 5.75677 5.00614
#
# Compressibility (1/GPa) = 0.13928413
#
# Stress axis : x y z
#
# Youngs Moduli (GPa) = 107.51671 49.16047 13.60693
#
# Poissons Ratio (x) = 0.10868 0.02973
# Poissons Ratio (y) = 0.23769 -0.30575
# Poissons Ratio (z) = 0.23491 -1.10466
#
# Static dielectric constant tensor:
#      x y z
#    x 1.714180 0.000000 -0.016860 
#    y 0.000000 2.414600 0.000000 
#    z -0.016860 0.000000 1.646450 
# 
# From -- ./inp_files/47696.got.cif
#   From: 2010.05.17/outbox.cif.g08.bks.cpg/sg11_24_cif.got.tgz:47696.got - 2010.06.03 12:22:45.
