data_PCOD9165429
_publ_section_title
;
Structure prediction by ZEFSAII (Michael W. Deem and Ramdas Pophale) SiO2 
 PCOD9165429
Probable space group: P 21/M
;
_chemical_formula_sum "Si O2"
_cell_formula_units_Z 32
_cell_length_a 12.646245
_cell_length_b 21.655381
_cell_length_c 6.574934
_cell_angle_alpha 90.000000
_cell_angle_beta 56.874166
_cell_angle_gamma 90.000000
_cell_volume 1507.958263
_symmetry_space_group_name_H-M "P 21/M"
_symmetry_group_IT_number 11
_symmetry_cell_setting 'monoclinic'
loop_
_space_group_symop_operation_xyz
x,y,z
-x,1/2+y,-z
-x,-y,-z
x,1/2-y,z
loop_
_atom_site_type_symbol
_atom_site_label
_atom_site_fract_x
_atom_site_fract_y
_atom_site_fract_z
Si Si1 0.971028 0.406349 0.451062
Si Si2 0.587292 0.998614 0.210024
Si Si3 0.484934 0.603972 0.010360
Si Si4 0.134643 0.984570 0.094081
Si Si5 0.091648 0.179373 0.654907
Si Si6 0.871113 0.134068 0.154532
Si Si7 0.632124 0.823804 0.526277
Si Si8 0.401851 0.823995 0.472406
O O1 0.045684 0.459470 0.251992
O O2 0.063899 0.367909 0.500565
O O3 0.869510 0.441254 0.699775
O O4 0.905333 0.363214 0.355321
O O5 0.544314 0.946084 0.099974
O O6 0.500000 0.000000 0.500000
O O7 0.581135 0.063043 0.093652
O O8 0.731883 0.988266 0.110763
O O9 0.405366 0.647618 0.242621
O O10 0.585740 0.644598 0.782394
O O11 0.101941 0.935405 0.954222
O O12 0.107826 0.250000 0.565437
O O13 0.218612 0.161905 0.646747
O O14 0.968025 0.175344 0.925995
O O15 0.724004 0.150790 0.284826
O O16 0.620926 0.750000 0.554597
O O17 0.532279 0.841476 0.453751
O O18 0.395182 0.750000 0.472159
#
# Coordination Sequence:
#
# PCOD9165429 Si02
#       8
#     4   4   4   4   4   4   4   4
#     4  10  22  39  63  89 120 164 206 253 310 371
#     4  11  23  37  59  88 124 163 202 255 310 367
#     4  11  22  38  60  89 122 162 209 253 307 372
#     4  10  21  39  59  89 124 159 205 251 306 370
#     4  10  23  41  61  89 122 160 210 262 312 370
#     4  11  22  39  64  93 126 162 204 256 313 371
#     4  10  22  41  63  88 122 162 207 258 309 368
#     4  11  24  42  65  93 127 168 210 255 311 372
#
# _framework density 21.220746999999999
#
# number of rings (size 3 to 8) (size 9 to 14) (size 15 to 20)
#    0.000    1.500    0.000    4.875    0.000    6.000 
#    0.000    2.500    0.000    0.000    0.000    0.000 
#    0.000    0.000    0.000    0.000    0.000    0.000 
#
# Total GULP energy -178653.504827 kJ/mol
# GULP energy per Si atom -5582.922026 kJ/mol
# Density = 2.117245 g / cm^3
# Si number density = 21.220747 Si / 1000 Ang^3
#
#
#
# Elastic Constant Matrix: (Units=GPa)
#
#
# Indices 1 2 3 4 5 6 
#
# 1 97.2717 37.1215 51.9021 0.0000 -9.7073 0.0000
# 2 37.1215 79.2510 28.2977 0.0000 4.5025 0.0000
# 3 51.9021 28.2977 108.7357 0.0000 -10.6970 0.0000
# 4 0.0000 0.0000 0.0000 28.2022 0.0000 15.3052
# 5 -9.7073 4.5025 -10.6970 0.0000 34.6136 0.0000
# 6 0.0000 0.0000 0.0000 15.3052 0.0000 -24.9630
#
#
#
# Elastic Compliance Matrix: (Units=1/GPa)
#
#
# Indices 1 2 3 4 5 6 
#
# 1 0.015810 -0.005535 -0.005775 0.000000 0.003369 0.000000
# 2 -0.005535 0.016162 -0.001984 0.000000 -0.004268 0.000000
# 3 -0.005775 -0.001984 0.012722 0.000000 0.002570 0.000000
# 4 0.000000 0.000000 0.000000 0.026606 0.000000 0.016312
# 5 0.003369 -0.004268 0.002570 0.000000 0.031185 0.000000
# 6 0.000000 0.000000 0.000000 0.016312 0.000000 -0.030058
#
#
# Mechanical properties :
#
#
# Convention : Reuss Voigt Hill
#
# Bulk Modulus (GPa) = 55.22747 57.76678 56.49713
# Shear Modulus (GPa) = 47.59673 18.76635 33.18154
#
# Velocity S-wave (km/s) = 4.74110 2.97701 3.95857
# Velocity P-wave (km/s) = 7.48682 6.25282 6.89747
#
# Compressibility (1/GPa) = 0.01810693
#
# Stress axis : x y z
#
# Youngs Moduli (GPa) = 63.24970 61.87512 78.60328
#
# Poissons Ratio (x) = 0.34249 0.45391
# Poissons Ratio (y) = 0.35009 0.15593
# Poissons Ratio (z) = 0.36525 0.12274
#
# Static dielectric constant tensor:
#      x y z
#    x 1.778720 0.000000 0.007260 
#    y 0.000000 1.794470 0.000000 
#    z 0.007260 0.000000 1.758330 
# 
# From -- ./inp_files/5471.got.cif
#   From: 2010.05.17/outbox.cif.g08.bks.cpg/sg11_3_cif.got.tgz:5471.got - 2010.06.03 12:22:45.
