data_PCOD9165251
_publ_section_title
;
Structure prediction by ZEFSAII (Michael W. Deem and Ramdas Pophale) SiO2 
 PCOD9165251
Probable space group: P 21/M
;
_chemical_formula_sum "Si O2"
_cell_formula_units_Z 32
_cell_length_a 12.787504
_cell_length_b 7.810966
_cell_length_c 29.064145
_cell_angle_alpha 90.000000
_cell_angle_beta 30.082348
_cell_angle_gamma 90.000000
_cell_volume 1455.115337
_symmetry_space_group_name_H-M "P 21/M"
_symmetry_group_IT_number 11
_symmetry_cell_setting 'monoclinic'
loop_
_space_group_symop_operation_xyz
x,y,z
-x,1/2+y,-z
-x,-y,-z
x,1/2-y,z
loop_
_atom_site_type_symbol
_atom_site_label
_atom_site_fract_x
_atom_site_fract_y
_atom_site_fract_z
Si Si1 0.555439 0.451991 0.281859
Si Si2 0.471607 0.945674 0.957423
Si Si3 0.520060 0.546912 0.545204
Si Si4 0.920454 0.948646 0.262985
Si Si5 0.985902 0.554467 0.871221
Si Si6 0.813691 0.957312 0.511163
Si Si7 0.261829 0.541530 0.316643
Si Si8 0.813487 0.446540 0.757511
O O1 0.573907 0.250000 0.286455
O O2 0.790026 0.521540 0.198763
O O3 0.368638 0.522046 0.385569
O O4 0.464400 0.474666 0.265657
O O5 0.538389 0.750000 0.928464
O O6 0.616469 0.048100 0.866903
O O7 0.500000 0.000000 0.000000
O O8 0.230019 0.963122 0.035034
O O9 0.500000 0.500000 0.500000
O O10 0.493668 0.750000 0.560277
O O11 0.327243 0.458735 0.643732
O O12 0.732447 0.502736 0.490532
O O13 0.987318 0.750000 0.233015
O O14 0.002518 0.019177 0.280449
O O15 0.006184 0.050078 0.187238
O O16 0.971166 0.750000 0.893286
O O17 0.820284 0.750000 0.513566
O O18 0.051896 0.016907 0.423674
O O19 0.269937 0.750000 0.314456
O O20 0.240001 0.481837 0.272138
O O21 0.877208 0.250000 0.723939
#
# Coordination Sequence:
#
# PCOD9165251 Si02
#       8
#     4   4   4   4   4   4   4   4
#     4  10  21  39  61  86 120 159 200 246 298 353
#     4  12  24  39  63  93 122 155 197 245 298 362
#     4  11  21  35  53  79 119 161 201 244 300 359
#     4  11  21  35  58  86 118 156 196 240 297 360
#     4  11  22  39  62  89 120 155 194 243 299 352
#     4   9  18  36  58  82 116 158 199 245 299 349
#     4  10  21  38  61  86 117 158 203 250 299 351
#     4  10  22  40  60  87 123 160 198 246 304 360
#
# _framework density 21.991384
#
# number of rings (size 3 to 8) (size 9 to 14) (size 15 to 20)
#    0.000    1.500    2.500    3.375    0.000    4.000 
#    0.000    3.125    0.000    0.000    0.000    0.000 
#    0.000    0.000    0.000    0.000    0.000    0.000 
#
# Total GULP energy -178730.553033 kJ/mol
# GULP energy per Si atom -5585.329782 kJ/mol
# Density = 2.194133 g / cm^3
# Si number density = 21.991384 Si / 1000 Ang^3
#
#
#
# Elastic Constant Matrix: (Units=GPa)
#
#
# Indices 1 2 3 4 5 6 
#
# 1 118.7031 -2.2639 26.1187 0.0000 -24.6462 0.0000
# 2 -2.2639 42.2847 -3.9775 0.0000 -6.2737 0.0000
# 3 26.1187 -3.9775 81.2965 0.0000 -24.1160 0.0000
# 4 0.0000 0.0000 0.0000 16.5078 0.0000 -0.0838
# 5 -24.6462 -6.2737 -24.1160 0.0000 37.6685 0.0000
# 6 0.0000 0.0000 0.0000 -0.0838 0.0000 24.1307
#
#
#
# Elastic Compliance Matrix: (Units=1/GPa)
#
#
# Indices 1 2 3 4 5 6 
#
# 1 0.009970 0.001266 -0.001412 0.000000 0.005830 0.000000
# 2 0.001266 0.024993 0.002835 0.000000 0.006806 0.000000
# 3 -0.001412 0.002835 0.015750 0.000000 0.009632 0.000000
# 4 0.000000 0.000000 0.000000 0.060579 0.000000 0.000210
# 5 0.005830 0.006806 0.009632 0.000000 0.037662 0.000000
# 6 0.000000 0.000000 0.000000 0.000210 0.000000 0.041442
#
#
# Mechanical properties :
#
#
# Convention : Reuss Voigt Hill
#
# Bulk Modulus (GPa) = 17.82779 31.33767 24.58273
# Shear Modulus (GPa) = 24.54420 30.48854 27.51637
#
# Velocity S-wave (km/s) = 3.34441 3.72746 3.54112
# Velocity P-wave (km/s) = 4.79976 5.72767 5.28412
#
# Compressibility (1/GPa) = 0.05609221
#
# Stress axis : x y z
#
# Youngs Moduli (GPa) = 100.30460 40.01045 63.49134
#
# Poissons Ratio (x) = -0.05065 0.08962
# Poissons Ratio (y) = -0.12699 -0.18000
# Poissons Ratio (z) = 0.14159 -0.11343
#
# Static dielectric constant tensor:
#      x y z
#    x 1.820620 0.000000 -0.003490 
#    y 0.000000 1.859280 0.000000 
#    z -0.003490 0.000000 1.814290 
# 
# From -- ./inp_files/73120.got.cif
#   From: 2010.05.17/outbox.cif.g08.bks.cpg/sg11_37_cif.got.tgz:73120.got - 2010.06.03 12:22:45.
