data_PCOD9165854
_publ_section_title
;
Structure prediction by ZEFSAII (Michael W. Deem and Ramdas Pophale) SiO2 
 PCOD9165854
Probable space group: P 21/M
;
_chemical_formula_sum "Si O2"
_cell_formula_units_Z 28
_cell_length_a 11.809870
_cell_length_b 15.358240
_cell_length_c 8.518353
_cell_angle_alpha 90.000000
_cell_angle_beta 64.893616
_cell_angle_gamma 90.000000
_cell_volume 1399.074948
_symmetry_space_group_name_H-M "P 21/M"
_symmetry_group_IT_number 11
_symmetry_cell_setting 'monoclinic'
loop_
_space_group_symop_operation_xyz
x,y,z
-x,1/2+y,-z
-x,-y,-z
x,1/2-y,z
loop_
_atom_site_type_symbol
_atom_site_label
_atom_site_fract_x
_atom_site_fract_y
_atom_site_fract_z
Si Si1 0.533939 0.572347 0.855509
Si Si2 0.909633 0.645465 0.714823
Si Si3 0.326173 0.151120 0.964352
Si Si4 0.328003 0.855338 0.752663
Si Si5 0.751488 0.910981 0.508296
Si Si6 0.456727 0.150685 0.592419
Si Si7 0.907089 0.464414 0.192099
O O1 0.412151 0.609457 0.844416
O O2 0.645990 0.539983 0.675849
O O3 0.500000 0.500000 0.000000
O O4 0.593480 0.649158 0.925258
O O5 0.929357 0.750000 0.715642
O O6 0.849859 0.626862 0.578216
O O7 0.026419 0.589762 0.705406
O O8 0.805365 0.614817 0.903356
O O9 0.300240 0.250000 0.929789
O O10 0.399441 0.106036 0.779715
O O11 0.321100 0.750000 0.758749
O O12 0.415548 0.885402 0.554152
O O13 0.194000 0.899491 0.825187
O O14 0.654333 0.849157 0.470932
O O15 0.829324 0.961053 0.329532
O O16 0.488854 0.250000 0.615050
O O17 0.000000 0.500000 0.000000
#
# Coordination Sequence:
#
# PCOD9165854 Si02
#       7
#     4   4   4   4   4   4   4
#     4  10  22  35  64  90 124 149 193 247 323 366
#     4  10  21  41  63  84 121 168 208 251 303 364
#     4   9  18  34  60  89 118 151 200 251 302 366
#     4  10  23  42  61  86 124 163 200 250 313 373
#     4  10  22  38  61  89 121 153 203 255 306 360
#     4   9  18  35  62  91 117 151 197 250 313 370
#     4  12  26  40  62  86 127 166 215 255 300 354
#
# _framework density 20.013224000000001
#
# number of rings (size 3 to 8) (size 9 to 14) (size 15 to 20)
#    0.000    2.000    0.000    2.571    8.000    4.571 
#    0.000    2.143    0.000    0.000    0.000    0.000 
#    0.000    0.000    0.000    0.000    0.000    0.000 
#
# Total GULP energy -155926.776544 kJ/mol
# GULP energy per Si atom -5568.813448 kJ/mol
# Density = 1.996767 g / cm^3
# Si number density = 20.013224 Si / 1000 Ang^3
#
#
#
# Elastic Constant Matrix: (Units=GPa)
#
#
# Indices 1 2 3 4 5 6 
#
# 1 109.3484 26.5879 21.0561 0.0000 -6.9684 0.0000
# 2 26.5879 64.6523 35.0359 0.0000 -11.8498 0.0000
# 3 21.0561 35.0359 118.8363 0.0000 -10.8042 0.0000
# 4 0.0000 0.0000 0.0000 22.5227 0.0000 2.2535
# 5 -6.9684 -11.8498 -10.8042 0.0000 27.3842 0.0000
# 6 0.0000 0.0000 0.0000 2.2535 0.0000 30.5806
#
#
#
# Elastic Compliance Matrix: (Units=1/GPa)
#
#
# Indices 1 2 3 4 5 6 
#
# 1 0.010221 -0.003717 -0.000648 0.000000 0.000737 0.000000
# 2 -0.003717 0.020777 -0.004912 0.000000 0.006107 0.000000
# 3 -0.000648 -0.004912 0.010133 0.000000 0.001708 0.000000
# 4 0.000000 0.000000 0.000000 0.044729 0.000000 -0.003296
# 5 0.000737 0.006107 0.001708 0.000000 0.040021 0.000000
# 6 0.000000 0.000000 0.000000 -0.003296 0.000000 0.032943
#
#
# Mechanical properties :
#
#
# Convention : Reuss Voigt Hill
#
# Bulk Modulus (GPa) = 44.29265 50.91075 47.60170
# Shear Modulus (GPa) = 27.04107 30.10798 28.57452
#
# Velocity S-wave (km/s) = 3.67980 3.88287 3.78270
# Velocity P-wave (km/s) = 6.34305 6.75248 6.55097
#
# Compressibility (1/GPa) = 0.02257711
#
# Stress axis : x y z
#
# Youngs Moduli (GPa) = 97.84161 48.13018 98.68615
#
# Poissons Ratio (x) = 0.17890 0.06396
# Poissons Ratio (y) = 0.36367 0.48472
# Poissons Ratio (z) = 0.06341 0.23640
#
# Static dielectric constant tensor:
#      x y z
#    x 1.709220 0.000000 0.010140 
#    y 0.000000 1.735240 0.000000 
#    z 0.010140 0.000000 1.763850 
# 
# From -- ./inp_files/17943.got.cif
#   From: 2010.05.17/outbox.cif.g08.bks.cpg/sg11_9_cif.got.tgz:17943.got - 2010.06.03 12:22:45.
