data_PCOD9165762
_publ_section_title
;
Structure prediction by ZEFSAII (Michael W. Deem and Ramdas Pophale) SiO2 
 PCOD9165762
Probable space group: P 21/M
;
_chemical_formula_sum "Si O2"
_cell_formula_units_Z 32
_cell_length_a 5.691034
_cell_length_b 22.531977
_cell_length_c 11.585763
_cell_angle_alpha 90.000000
_cell_angle_beta 73.141589
_cell_angle_gamma 90.000000
_cell_volume 1421.798672
_symmetry_space_group_name_H-M "P 21/M"
_symmetry_group_IT_number 11
_symmetry_cell_setting 'monoclinic'
loop_
_space_group_symop_operation_xyz
x,y,z
-x,1/2+y,-z
-x,-y,-z
x,1/2-y,z
loop_
_atom_site_type_symbol
_atom_site_label
_atom_site_fract_x
_atom_site_fract_y
_atom_site_fract_z
Si Si1 0.197915 0.178635 0.820053
Si Si2 0.696774 0.498560 0.630702
Si Si3 0.831441 0.681303 0.532092
Si Si4 0.546418 0.096729 0.485949
Si Si5 0.641289 0.491072 0.098609
Si Si6 0.028763 0.406823 0.295996
Si Si7 0.959329 0.903666 0.970553
Si Si8 0.234748 0.820438 0.289372
O O1 0.200942 0.250000 0.806678
O O2 0.483111 0.157834 0.762949
O O3 0.976056 0.155101 0.768278
O O4 0.110041 0.157057 0.958443
O O5 0.629414 0.545441 0.540503
O O6 0.680660 0.434474 0.575130
O O7 0.506810 0.502026 0.762928
O O8 0.936879 0.526862 0.655850
O O9 0.782760 0.750000 0.560851
O O10 0.625697 0.653838 0.476511
O O11 0.828994 0.641080 0.646424
O O12 0.097071 0.676330 0.432698
O O13 0.746758 0.108983 0.358609
O O14 0.761569 0.426090 0.075417
O O15 0.500000 0.500000 0.000000
O O16 0.836305 0.544820 0.066072
O O17 0.116230 0.405920 0.152628
O O18 0.252839 0.750000 0.261390
#
# Coordination Sequence:
#
# PCOD9165762 Si02
#       8
#     4   4   4   4   4   4   4   4
#     4  10  23  44  70 100 136 178 226 284 344 409
#     4  10  21  40  64  92 128 172 224 271 341 392
#     4  10  24  42  65  97 131 175 222 275 342 402
#     4  10  22  40  65  94 130 172 217 277 328 406
#     4  11  23  42  64  93 132 178 217 281 333 401
#     4  11  22  41  63  93 136 170 219 281 332 410
#     4  11  25  40  65  96 133 176 225 272 336 410
#     4   9  21  42  67  98 135 172 225 288 338 401
#
# _framework density 22.506703000000002
#
# number of rings (size 3 to 8) (size 9 to 14) (size 15 to 20)
#    0.000    1.750    2.500    0.375    5.250    1.000 
#    0.000    0.000    0.000    0.000    0.000    0.000 
#    0.000    0.000    0.000    0.000    0.000    0.000 
#
# Total GULP energy -178550.709419 kJ/mol
# GULP energy per Si atom -5579.709669 kJ/mol
# Density = 2.245548 g / cm^3
# Si number density = 22.506703 Si / 1000 Ang^3
#
#
#
# Elastic Constant Matrix: (Units=GPa)
#
#
# Indices 1 2 3 4 5 6 
#
# 1 99.4029 31.3201 44.1438 0.0000 -4.2431 0.0000
# 2 31.3201 87.1817 20.2284 0.0000 0.6146 0.0000
# 3 44.1438 20.2284 111.2960 0.0000 -3.4301 0.0000
# 4 0.0000 0.0000 0.0000 30.7187 0.0000 -3.4084
# 5 -4.2431 0.6146 -3.4301 0.0000 38.1907 0.0000
# 6 0.0000 0.0000 0.0000 -3.4084 0.0000 30.8114
#
#
#
# Elastic Compliance Matrix: (Units=1/GPa)
#
#
# Indices 1 2 3 4 5 6 
#
# 1 0.013312 -0.003731 -0.004567 0.000000 0.001129 0.000000
# 2 -0.003731 0.013027 -0.000910 0.000000 -0.000706 0.000000
# 3 -0.004567 -0.000910 0.010977 0.000000 0.000493 0.000000
# 4 0.000000 0.000000 0.000000 0.032958 0.000000 0.003646
# 5 0.001129 -0.000706 0.000493 0.000000 0.026365 0.000000
# 6 0.000000 0.000000 0.000000 0.003646 0.000000 0.032859
#
#
# Mechanical properties :
#
#
# Convention : Reuss Voigt Hill
#
# Bulk Modulus (GPa) = 52.90799 54.36278 53.63538
# Shear Modulus (GPa) = 32.42272 33.42337 32.92305
#
# Velocity S-wave (km/s) = 3.79962 3.85780 3.82882
# Velocity P-wave (km/s) = 6.54279 6.63702 6.59007
#
# Compressibility (1/GPa) = 0.01890074
#
# Stress axis : x y z
#
# Youngs Moduli (GPa) = 75.12069 76.76627 91.09902
#
# Poissons Ratio (x) = 0.28638 0.41606
# Poissons Ratio (y) = 0.28024 0.08287
# Poissons Ratio (z) = 0.34309 0.06983
#
# Static dielectric constant tensor:
#      x y z
#    x 1.950440 0.000000 0.053430 
#    y 0.000000 1.838770 0.000000 
#    z 0.053430 0.000000 1.871610 
# 
# From -- ./inp_files/30233.got.cif
#   From: 2010.05.17/outbox.cif.g08.bks.cpg/sg11_16_cif.got.tgz:30233.got - 2010.06.03 12:22:45.
