data_PCOD9165480
_publ_section_title
;
Structure prediction by ZEFSAII (Michael W. Deem and Ramdas Pophale) SiO2 
 PCOD9165480
Probable space group: P 21/M
;
_chemical_formula_sum "Si O2"
_cell_formula_units_Z 28
_cell_length_a 16.331951
_cell_length_b 15.457846
_cell_length_c 5.854278
_cell_angle_alpha 90.000000
_cell_angle_beta 59.078505
_cell_angle_gamma 90.000000
_cell_volume 1267.894079
_symmetry_space_group_name_H-M "P 21/M"
_symmetry_group_IT_number 11
_symmetry_cell_setting 'monoclinic'
loop_
_space_group_symop_operation_xyz
x,y,z
-x,1/2+y,-z
-x,-y,-z
x,1/2-y,z
loop_
_atom_site_type_symbol
_atom_site_label
_atom_site_fract_x
_atom_site_fract_y
_atom_site_fract_z
Si Si1 0.794625 0.989154 0.842920
Si Si2 0.506223 0.849998 0.758318
Si Si3 0.285398 0.100012 0.653061
Si Si4 0.447490 0.848313 0.343030
Si Si5 0.117994 0.343241 0.595523
Si Si6 0.255771 0.588792 0.477727
Si Si7 0.067141 0.577405 0.991178
O O1 0.855240 0.926434 0.592935
O O2 0.740620 0.067035 0.794277
O O3 0.868619 0.034740 0.904857
O O4 0.722271 0.923717 0.070838
O O5 0.471506 0.750000 0.817694
O O6 0.620113 0.853245 0.562018
O O7 0.468602 0.887212 0.566204
O O8 0.483811 0.887211 0.045845
O O9 0.189446 0.147420 0.708401
O O10 0.282740 0.004883 0.544142
O O11 0.486352 0.750000 0.297651
O O12 0.333751 0.848287 0.466735
O O13 0.135944 0.250000 0.458901
O O14 0.007968 0.351653 0.821873
O O15 0.146429 0.608694 0.697424
O O16 0.000000 0.500000 0.000000
#
# Coordination Sequence:
#
# PCOD9165480 Si02
#       7
#     4   4   4   4   4   4   4
#     4  10  21  39  61  87 122 165 203 254 317 373
#     4  10  23  42  64  90 129 171 206 261 329 380
#     4  10  22  39  61  92 124 161 204 259 316 383
#     4  10  24  44  64  91 128 169 214 266 321 376
#     4  11  23  37  60  94 125 158 208 260 311 380
#     4  10  23  38  65  90 118 165 211 261 311 381
#     4  11  20  41  62  85 124 167 203 250 320 379
#
# _framework density 22.083864999999999
#
# number of rings (size 3 to 8) (size 9 to 14) (size 15 to 20)
#    0.000    1.714    4.286    0.857    8.000    2.857 
#    0.000    0.714    0.000    0.000    0.000    0.000 
#    0.000    0.000    0.000    0.000    0.000    0.000 
#
# Total GULP energy -155999.684718 kJ/mol
# GULP energy per Si atom -5571.417311 kJ/mol
# Density = 2.203360 g / cm^3
# Si number density = 22.083865 Si / 1000 Ang^3
#
#
#
# Elastic Constant Matrix: (Units=GPa)
#
#
# Indices 1 2 3 4 5 6 
#
# 1 52.6238 -1.7983 18.2380 0.0000 7.0294 0.0000
# 2 -1.7983 48.1530 -11.0893 0.0000 5.3461 0.0000
# 3 18.2380 -11.0893 97.6878 0.0000 4.8037 0.0000
# 4 0.0000 0.0000 0.0000 17.9102 0.0000 -3.2622
# 5 7.0294 5.3461 4.8037 0.0000 38.4753 0.0000
# 6 0.0000 0.0000 0.0000 -3.2622 0.0000 29.3859
#
#
#
# Elastic Compliance Matrix: (Units=1/GPa)
#
#
# Indices 1 2 3 4 5 6 
#
# 1 0.020736 0.000303 -0.003671 0.000000 -0.003372 0.000000
# 2 0.000303 0.021750 0.002580 0.000000 -0.003400 0.000000
# 3 -0.003671 0.002580 0.011269 0.000000 -0.001095 0.000000
# 4 0.000000 0.000000 0.000000 0.056986 0.000000 0.006326
# 5 -0.003372 -0.003400 -0.001095 0.000000 0.027216 0.000000
# 6 0.000000 0.000000 0.000000 0.006326 0.000000 0.034732
#
#
# Mechanical properties :
#
#
# Convention : Reuss Voigt Hill
#
# Bulk Modulus (GPa) = 19.16505 23.24060 21.20283
# Shear Modulus (GPa) = 26.08810 30.02855 28.05833
#
# Velocity S-wave (km/s) = 3.44076 3.69148 3.56832
# Velocity P-wave (km/s) = 4.94796 5.35873 5.15744
#
# Compressibility (1/GPa) = 0.05217830
#
# Stress axis : x y z
#
# Youngs Moduli (GPa) = 48.22542 45.97706 88.74117
#
# Poissons Ratio (x) = -0.01395 0.32578
# Poissons Ratio (y) = -0.01463 -0.22891
# Poissons Ratio (z) = 0.17704 -0.11860
#
# Static dielectric constant tensor:
#      x y z
#    x 1.830760 0.000000 0.055400 
#    y 0.000000 1.818150 0.000000 
#    z 0.055400 0.000000 1.956000 
# 
# From -- ./inp_files/4899.got.cif
#   From: 2010.05.17/outbox.cif.g08.bks.cpg/sg11_3_cif.got.tgz:4899.got - 2010.06.03 12:22:45.
