data_PCOD9165293
_publ_section_title
;
Structure prediction by ZEFSAII (Michael W. Deem and Ramdas Pophale) SiO2 
 PCOD9165293
Probable space group: P 21/M
;
_chemical_formula_sum "Si O2"
_cell_formula_units_Z 30
_cell_length_a 21.638953
_cell_length_b 9.228957
_cell_length_c 14.761398
_cell_angle_alpha 90.000000
_cell_angle_beta 147.658968
_cell_angle_gamma 90.000000
_cell_volume 1577.014440
_symmetry_space_group_name_H-M "P 21/M"
_symmetry_group_IT_number 11
_symmetry_cell_setting 'monoclinic'
loop_
_space_group_symop_operation_xyz
x,y,z
-x,1/2+y,-z
-x,-y,-z
x,1/2-y,z
loop_
_atom_site_type_symbol
_atom_site_label
_atom_site_fract_x
_atom_site_fract_y
_atom_site_fract_z
Si Si1 0.210124 0.082802 0.530509
Si Si2 0.972408 0.493331 0.323468
Si Si3 0.379827 0.923105 0.877304
Si Si4 0.751592 0.581948 0.934614
Si Si5 0.592854 0.582825 0.912125
Si Si6 0.330651 0.579374 0.527492
Si Si7 0.380517 0.577003 0.380144
Si Si8 0.054161 0.750000 0.559510
O O1 0.247893 0.250000 0.583365
O O2 0.282669 0.987029 0.691709
O O3 0.240397 0.017682 0.470090
O O4 0.077643 0.070601 0.395102
O O5 0.022500 0.624933 0.444488
O O6 0.928042 0.375789 0.340271
O O7 0.870506 0.544082 0.131295
O O8 0.386012 0.750000 0.877493
O O9 0.500000 0.000000 0.000000
O O10 0.357213 0.973845 0.951961
O O11 0.751431 0.750000 0.905407
O O12 0.653593 0.566466 0.890880
O O13 0.716799 0.480155 0.808733
O O14 0.612192 0.750000 0.966559
O O15 0.456189 0.560488 0.730186
O O16 0.301065 0.750000 0.498517
O O17 0.347288 0.543153 0.442754
O O18 0.500000 0.500000 0.500000
O O19 0.395414 0.750000 0.392098
#
# Coordination Sequence:
#
# PCOD9165293 Si02
#       8
#     4   4   4   4   4   4   4   2
#     4  12  26  42  64  91 132 175 220 268 325 396
#     4  11  25  43  67 100 132 177 225 274 326 388
#     4  12  25  38  57  88 126 168 213 259 318 388
#     4  11  24  42  67  98 133 167 215 276 332 390
#     4  10  21  38  61  90 129 165 210 265 321 381
#     4  10  22  42  64  92 127 170 214 265 326 386
#     4  11  23  42  69  99 131 170 218 276 335 393
#     4  10  24  44  66  92 132 176 228 268 320 384
#
# _framework density 19.023287
#
# number of rings (size 3 to 8) (size 9 to 14) (size 15 to 20)
#    0.000    1.067    4.000    2.000    6.533    1.600 
#    0.000    0.667    0.000    0.000    0.000    0.000 
#    0.000    0.000    0.000    0.000    0.000    0.000 
#
# Total GULP energy -167190.031440 kJ/mol
# GULP energy per Si atom -5573.001048 kJ/mol
# Density = 1.897999 g / cm^3
# Si number density = 19.023287 Si / 1000 Ang^3
#
#
#
# Elastic Constant Matrix: (Units=GPa)
#
#
# Indices 1 2 3 4 5 6 
#
# 1 57.8577 46.9224 48.5893 0.0000 -22.4803 0.0000
# 2 46.9224 119.8306 21.9864 0.0000 -21.7555 0.0000
# 3 48.5893 21.9864 63.3576 0.0000 -11.3563 0.0000
# 4 0.0000 0.0000 0.0000 20.5134 0.0000 -8.2268
# 5 -22.4803 -21.7555 -11.3563 0.0000 31.3848 0.0000
# 6 0.0000 0.0000 0.0000 -8.2268 0.0000 22.4557
#
#
#
# Elastic Compliance Matrix: (Units=1/GPa)
#
#
# Indices 1 2 3 4 5 6 
#
# 1 0.105404 -0.022562 -0.066595 0.000000 0.035762 0.000000
# 2 -0.022562 0.014693 0.011905 0.000000 -0.001668 0.000000
# 3 -0.066595 0.011905 0.059514 0.000000 -0.017914 0.000000
# 4 0.000000 0.000000 0.000000 0.057145 0.000000 0.020935
# 5 0.035762 -0.001668 -0.017914 0.000000 0.049840 0.000000
# 6 0.000000 0.000000 0.000000 0.020935 0.000000 0.052202
#
#
# Mechanical properties :
#
#
# Convention : Reuss Voigt Hill
#
# Bulk Modulus (GPa) = 39.83126 52.89358 46.36242
# Shear Modulus (GPa) = 9.96673 23.10729 16.53701
#
# Velocity S-wave (km/s) = 2.29142 3.48901 2.95159
# Velocity P-wave (km/s) = 5.29003 6.64048 6.00335
#
# Compressibility (1/GPa) = 0.02510591
#
# Stress axis : x y z
#
# Youngs Moduli (GPa) = 9.48732 68.06193 16.80287
#
# Poissons Ratio (x) = 1.53560 1.11899
# Poissons Ratio (y) = 0.21405 -0.20004
# Poissons Ratio (z) = 0.63181 -0.81029
#
# Static dielectric constant tensor:
#      x y z
#    x 1.680410 0.000000 0.017580 
#    y 0.000000 1.028000 0.000000 
#    z 0.017580 0.000000 1.643140 
# 
# From -- ./inp_files/38044.got.cif
#   From: 2010.05.17/outbox.cif.g08.bks.cpg/sg11_20_cif.got.tgz:38044.got - 2010.06.03 12:22:45.
