data_PCOD9165739
_publ_section_title
;
Structure prediction by ZEFSAII (Michael W. Deem and Ramdas Pophale) SiO2 
 PCOD9165739
Probable space group: P 21/M
;
_chemical_formula_sum "Si O2"
_cell_formula_units_Z 22
_cell_length_a 16.245632
_cell_length_b 13.983109
_cell_length_c 5.103333
_cell_angle_alpha 90.000000
_cell_angle_beta 63.177380
_cell_angle_gamma 90.000000
_cell_volume 1034.564550
_symmetry_space_group_name_H-M "P 21/M"
_symmetry_group_IT_number 11
_symmetry_cell_setting 'monoclinic'
loop_
_space_group_symop_operation_xyz
x,y,z
-x,1/2+y,-z
-x,-y,-z
x,1/2-y,z
loop_
_atom_site_type_symbol
_atom_site_label
_atom_site_fract_x
_atom_site_fract_y
_atom_site_fract_z
Si Si1 0.465843 0.865681 0.454688
Si Si2 0.113926 0.750000 0.093649
Si Si3 0.420721 0.365026 0.210834
Si Si4 0.977111 0.566808 0.283198
Si Si5 0.744695 0.422178 0.198620
Si Si6 0.771820 0.539299 0.655193
O O1 0.461580 0.750000 0.468831
O O2 0.539259 0.896635 0.568039
O O3 0.363767 0.901733 0.657220
O O4 0.505136 0.893133 0.116030
O O5 0.195051 0.832676 0.973568
O O6 0.035719 0.663761 0.199518
O O7 0.415221 0.250000 0.219346
O O8 0.320525 0.404559 0.286567
O O9 0.868315 0.589759 0.455409
O O10 0.000000 0.500000 0.500000
O O11 0.000000 0.500000 0.000000
O O12 0.770271 0.448357 0.460660
O O13 0.767556 0.506859 0.962612
#
# Coordination Sequence:
#
# PCOD9165739 Si02
#       6
#     4   2   4   4   4   4
#     4  10  21  40  63  97 130 174 218 265 322 398
#     4  12  26  48  74  98 136 182 220 290 346 388
#     4  10  23  41  64  93 138 175 215 266 329 395
#     4  12  26  48  70 102 136 175 227 284 337 406
#     4  12  25  42  72  97 132 172 220 274 335 392
#     4  12  25  44  65 101 131 170 224 273 326 405
#
# _framework density 21.264987000000001
#
# number of rings (size 3 to 8) (size 9 to 14) (size 15 to 20)
#    0.000    0.727    4.545    2.182    1.273    7.273 
#    0.000    0.000    0.000    0.000    0.000    0.000 
#    0.000    0.000    0.000    0.000    0.000    0.000 
#
# Total GULP energy -122591.228641 kJ/mol
# GULP energy per Si atom -5572.328575 kJ/mol
# Density = 2.121659 g / cm^3
# Si number density = 21.264987 Si / 1000 Ang^3
#
#
#
# Elastic Constant Matrix: (Units=GPa)
#
#
# Indices 1 2 3 4 5 6 
#
# 1 100.4952 35.3900 45.3849 0.0000 -42.7199 0.0000
# 2 35.3900 109.0261 28.9144 0.0000 -13.9535 0.0000
# 3 45.3849 28.9144 100.3055 0.0000 -9.8465 0.0000
# 4 0.0000 0.0000 0.0000 27.7696 0.0000 -19.0439
# 5 -42.7199 -13.9535 -9.8465 0.0000 61.5546 0.0000
# 6 0.0000 0.0000 0.0000 -19.0439 0.0000 47.4462
#
#
#
# Elastic Compliance Matrix: (Units=1/GPa)
#
#
# Indices 1 2 3 4 5 6 
#
# 1 0.018718 -0.002901 -0.006525 0.000000 0.011289 0.000000
# 2 -0.002901 0.010586 -0.001728 0.000000 0.000110 0.000000
# 3 -0.006525 -0.001728 0.013143 0.000000 -0.002818 0.000000
# 4 0.000000 0.000000 0.000000 0.049688 0.000000 0.019944
# 5 0.011289 0.000110 -0.002818 0.000000 0.023655 0.000000
# 6 0.000000 0.000000 0.000000 0.019944 0.000000 0.029081
#
#
# Mechanical properties :
#
#
# Convention : Reuss Voigt Hill
#
# Bulk Modulus (GPa) = 49.65284 58.80059 54.22671
# Shear Modulus (GPa) = 28.75343 40.69659 34.72501
#
# Velocity S-wave (km/s) = 3.68115 4.37943 4.04538
# Velocity P-wave (km/s) = 6.43957 7.29958 6.88302
#
# Compressibility (1/GPa) = 0.02013984
#
# Stress axis : x y z
#
# Youngs Moduli (GPa) = 53.42479 94.46326 76.08352
#
# Poissons Ratio (x) = 0.27400 0.49644
# Poissons Ratio (y) = 0.15496 0.13150
# Poissons Ratio (z) = 0.34859 0.16327
#
# Static dielectric constant tensor:
#      x y z
#    x 1.758470 0.000000 0.019750 
#    y 0.000000 1.747570 0.000000 
#    z 0.019750 0.000000 1.762320 
# 
# From -- ./inp_files/6355.got.cif
#   From: 2010.05.17/outbox.cif.g08.bks.cpg/sg11_4_cif.got.tgz:6355.got - 2010.06.03 12:22:45.
