data_PCOD9165346
_publ_section_title
;
Structure prediction by ZEFSAII (Michael W. Deem and Ramdas Pophale) SiO2 
 PCOD9165346
Probable space group: P 21/M
;
_chemical_formula_sum "Si O2"
_cell_formula_units_Z 26
_cell_length_a 8.473018
_cell_length_b 23.950151
_cell_length_c 8.412776
_cell_angle_alpha 90.000000
_cell_angle_beta 129.972865
_cell_angle_gamma 90.000000
_cell_volume 1308.314575
_symmetry_space_group_name_H-M "P 21/M"
_symmetry_group_IT_number 11
_symmetry_cell_setting 'monoclinic'
loop_
_space_group_symop_operation_xyz
x,y,z
-x,1/2+y,-z
-x,-y,-z
x,1/2-y,z
loop_
_atom_site_type_symbol
_atom_site_label
_atom_site_fract_x
_atom_site_fract_y
_atom_site_fract_z
Si Si1 0.028229 0.449738 0.394897
Si Si2 0.412878 0.250000 0.355280
Si Si3 0.386451 0.533985 0.063572
Si Si4 0.814183 0.960608 0.824210
Si Si5 0.690291 0.629955 0.253118
Si Si6 0.769118 0.750000 0.409649
Si Si7 0.189237 0.155627 0.014855
Si Si8 0.911966 0.250000 0.675297
O O1 0.000000 0.500000 0.500000
O O2 0.200030 0.463172 0.373614
O O3 0.100142 0.395013 0.535434
O O4 0.824184 0.445603 0.156575
O O5 0.271749 0.250000 0.425703
O O6 0.663241 0.250000 0.528391
O O7 0.342025 0.196010 0.209227
O O8 0.364760 0.489888 0.192274
O O9 0.512326 0.588561 0.191570
O O10 0.500000 0.500000 0.000000
O O11 0.861885 0.897382 0.908898
O O12 0.000000 0.000000 0.000000
O O13 0.661207 0.693277 0.284793
O O14 0.707703 0.629339 0.074946
O O15 0.982893 0.750000 0.437282
O O16 0.007565 0.195655 0.828273
#
# Coordination Sequence:
#
# PCOD9165346 Si02
#       8
#     4   2   4   4   4   2   4   2
#     4  11  22  38  61  91 126 166 207 256 316 382
#     4  11  23  43  70  94 126 171 221 265 330 383
#     4  11  21  40  62  93 124 164 204 254 321 378
#     4  10  21  38  62  91 129 165 204 258 323 379
#     4  11  22  42  64  88 131 164 207 267 315 376
#     4  10  24  44  64  98 130 164 222 274 314 392
#     4  10  21  42  63  92 131 161 210 274 311 389
#     4   9  23  43  68  92 124 169 209 265 334 379
#
# _framework density 19.872896000000001
#
# number of rings (size 3 to 8) (size 9 to 14) (size 15 to 20)
#    0.000    1.538    3.077    2.308    0.000    5.538 
#    0.000    6.923    0.000    0.000    0.000    0.000 
#    0.000    0.000    0.000    0.000    0.000    0.000 
#
# Total GULP energy -144867.788950 kJ/mol
# GULP energy per Si atom -5571.838037 kJ/mol
# Density = 1.982766 g / cm^3
# Si number density = 19.872896 Si / 1000 Ang^3
#
#
#
# Elastic Constant Matrix: (Units=GPa)
#
#
# Indices 1 2 3 4 5 6 
#
# 1 108.3775 46.5204 50.5178 0.0000 -24.6374 0.0000
# 2 46.5204 158.6331 47.8003 0.0000 0.3825 0.0000
# 3 50.5178 47.8003 99.6078 0.0000 2.0229 0.0000
# 4 0.0000 0.0000 0.0000 38.8276 0.0000 -10.9802
# 5 -24.6374 0.3825 2.0229 0.0000 46.2404 0.0000
# 6 0.0000 0.0000 0.0000 -10.9802 0.0000 24.8070
#
#
#
# Elastic Compliance Matrix: (Units=1/GPa)
#
#
# Indices 1 2 3 4 5 6 
#
# 1 0.015397 -0.002491 -0.006786 0.000000 0.008521 0.000000
# 2 -0.002491 0.007773 -0.002441 0.000000 -0.001285 0.000000
# 3 -0.006786 -0.002441 0.014739 0.000000 -0.004240 0.000000
# 4 0.000000 0.000000 0.000000 0.029440 0.000000 0.013031
# 5 0.008521 -0.001285 -0.004240 0.000000 0.026362 0.000000
# 6 0.000000 0.000000 0.000000 0.013031 0.000000 0.046079
#
#
# Mechanical properties :
#
#
# Convention : Reuss Voigt Hill
#
# Bulk Modulus (GPa) = 69.09810 72.92172 71.00991
# Shear Modulus (GPa) = 29.75319 36.76032 33.25676
#
# Velocity S-wave (km/s) = 3.87353 4.30556 4.09525
# Velocity P-wave (km/s) = 7.40616 7.84161 7.62699
#
# Compressibility (1/GPa) = 0.01447218
#
# Stress axis : x y z
#
# Youngs Moduli (GPa) = 64.94959 128.65283 67.84903
#
# Poissons Ratio (x) = 0.32045 0.46045
# Poissons Ratio (y) = 0.16178 0.16560
# Poissons Ratio (z) = 0.44077 0.31401
#
# Static dielectric constant tensor:
#      x y z
#    x 1.983530 0.000000 0.276760 
#    y 0.000000 1.742730 0.000000 
#    z 0.276760 0.000000 2.153400 
# 
# From -- ./inp_files/14581.got.cif
#   From: 2010.05.17/outbox.cif.g08.bks.cpg/sg11_8_cif.got.tgz:14581.got - 2010.06.03 12:22:45.
