data_PCOD9165243
_publ_section_title
;
Structure prediction by ZEFSAII (Michael W. Deem and Ramdas Pophale) SiO2 
 PCOD9165243
Probable space group: P 21/M
;
_chemical_formula_sum "Si O2"
_cell_formula_units_Z 30
_cell_length_a 14.826585
_cell_length_b 17.148051
_cell_length_c 12.404753
_cell_angle_alpha 90.000000
_cell_angle_beta 30.178560
_cell_angle_gamma 90.000000
_cell_volume 1585.440258
_symmetry_space_group_name_H-M "P 21/M"
_symmetry_group_IT_number 11
_symmetry_cell_setting 'monoclinic'
loop_
_space_group_symop_operation_xyz
x,y,z
-x,1/2+y,-z
-x,-y,-z
x,1/2-y,z
loop_
_atom_site_type_symbol
_atom_site_label
_atom_site_fract_x
_atom_site_fract_y
_atom_site_fract_z
Si Si1 0.274716 0.568944 0.534631
Si Si2 0.663353 0.842501 0.882817
Si Si3 0.315258 0.099019 0.899001
Si Si4 0.983265 0.918474 0.454352
Si Si5 0.885558 0.164783 0.105682
Si Si6 0.754316 0.159722 0.654785
Si Si7 0.212855 0.250000 0.873343
Si Si8 0.958499 0.460653 0.850056
O O1 0.488009 0.560619 0.310583
O O2 0.215133 0.606818 0.481965
O O3 0.158518 0.491302 0.670101
O O4 0.223716 0.627850 0.682856
O O5 0.698945 0.750000 0.843524
O O6 0.780778 0.886847 0.673196
O O7 0.720606 0.877014 0.939581
O O8 0.449706 0.853770 0.095322
O O9 0.313559 0.179924 0.835955
O O10 0.168753 0.036454 0.013439
O O11 0.108897 0.860114 0.391951
O O12 0.041776 0.929120 0.271438
O O13 0.000000 0.000000 0.500000
O O14 0.808706 0.250000 0.154204
O O15 0.084051 0.183878 0.945516
O O16 0.895769 0.104683 0.997860
O O17 0.771374 0.250000 0.604114
#
# Coordination Sequence:
#
# PCOD9165243 Si02
#       8
#     4   4   4   4   4   4   2   4
#     4  11  22  39  67  95 120 156 202 260 319 360
#     4  10  21  38  60  93 121 153 202 262 307 353
#     4  11  22  37  67  97 122 152 204 262 311 363
#     4  12  23  36  61  88 122 170 200 239 304 365
#     4  10  24  42  63  85 125 165 203 255 303 371
#     4  10  22  38  62  92 121 151 205 263 306 357
#     4  10  22  40  66  90 124 156 202 258 306 372
#     4  12  24  44  58  90 131 167 205 252 306 364
#
# _framework density 18.922188999999999
#
# number of rings (size 3 to 8) (size 9 to 14) (size 15 to 20)
#    0.400    0.800    4.667    1.200    1.867    3.200 
#    0.000    0.000    0.000    0.000    0.000    0.000 
#    0.000    0.000    0.000    0.000    0.000    0.000 
#
# Total GULP energy -167008.001144 kJ/mol
# GULP energy per Si atom -5566.933371 kJ/mol
# Density = 1.887912 g / cm^3
# Si number density = 18.922189 Si / 1000 Ang^3
#
#
#
# Elastic Constant Matrix: (Units=GPa)
#
#
# Indices 1 2 3 4 5 6 
#
# 1 40.1797 8.7197 30.4485 0.0000 9.0090 0.0000
# 2 8.7197 56.1008 45.3723 0.0000 18.7294 0.0000
# 3 30.4485 45.3723 71.3373 0.0000 13.6218 0.0000
# 4 0.0000 0.0000 0.0000 19.8981 0.0000 3.7112
# 5 9.0090 18.7294 13.6218 0.0000 17.5340 0.0000
# 6 0.0000 0.0000 0.0000 3.7112 0.0000 22.0371
#
#
#
# Elastic Compliance Matrix: (Units=1/GPa)
#
#
# Indices 1 2 3 4 5 6 
#
# 1 0.054078 0.033834 -0.038037 0.000000 -0.034376 0.000000
# 2 0.033834 0.070049 -0.048596 0.000000 -0.054455 0.000000
# 3 -0.038037 -0.048596 0.055794 0.000000 0.028107 0.000000
# 4 0.000000 0.000000 0.000000 0.051886 0.000000 -0.008738
# 5 -0.034376 -0.054455 0.028107 0.000000 0.111026 0.000000
# 6 0.000000 0.000000 0.000000 -0.008738 0.000000 0.046849
#
#
# Mechanical properties :
#
#
# Convention : Reuss Voigt Hill
#
# Bulk Modulus (GPa) = 13.45469 37.41100 25.43284
# Shear Modulus (GPa) = 9.61437 17.43234 13.52335
#
# Velocity S-wave (km/s) = 2.25655 3.03853 2.67625
# Velocity P-wave (km/s) = 3.73033 5.66781 4.79789
#
# Compressibility (1/GPa) = 0.07432354
#
# Stress axis : x y z
#
# Youngs Moduli (GPa) = 18.49177 14.27576 17.92299
#
# Poissons Ratio (x) = -0.48301 0.68174
# Poissons Ratio (y) = -0.62566 0.87098
# Poissons Ratio (z) = 0.70338 0.69374
#
# Static dielectric constant tensor:
#      x y z
#    x 1.643500 0.000000 -0.017240 
#    y 0.000000 1.650460 0.000000 
#    z -0.017240 0.000000 1.653160 
# 
# From -- ./inp_files/39891.got.cif
#   From: 2010.05.17/outbox.cif.g08.bks.cpg/sg11_20_cif.got.tgz:39891.got - 2010.06.03 12:22:45.
