data_PCOD9165647
_publ_section_title
;
Structure prediction by ZEFSAII (Michael W. Deem and Ramdas Pophale) SiO2 
 PCOD9165647
Probable space group: P 21/M
;
_chemical_formula_sum "Si O2"
_cell_formula_units_Z 18
_cell_length_a 7.704744
_cell_length_b 13.262555
_cell_length_c 12.532640
_cell_angle_alpha 90.000000
_cell_angle_beta 138.072524
_cell_angle_gamma 90.000000
_cell_volume 855.711887
_symmetry_space_group_name_H-M "P 21/M"
_symmetry_group_IT_number 11
_symmetry_cell_setting 'monoclinic'
loop_
_space_group_symop_operation_xyz
x,y,z
-x,1/2+y,-z
-x,-y,-z
x,1/2-y,z
loop_
_atom_site_type_symbol
_atom_site_label
_atom_site_fract_x
_atom_site_fract_y
_atom_site_fract_z
Si Si1 0.569093 0.750000 0.678315
Si Si2 0.414288 0.250000 0.560760
Si Si3 0.991060 0.577282 0.897486
Si Si4 0.745837 0.031840 0.182577
Si Si5 0.204994 0.750000 0.703047
Si Si6 0.450167 0.358942 0.777394
O O1 0.504701 0.750000 0.523700
O O2 0.315480 0.750000 0.634759
O O3 0.750357 0.653326 0.788892
O O4 0.495111 0.345590 0.670881
O O5 0.102843 0.250000 0.422876
O O6 0.013976 0.528676 0.789831
O O7 0.266770 0.633835 0.039663
O O8 0.000000 0.500000 0.000000
O O9 0.705806 0.145543 0.203495
O O10 0.731275 0.951330 0.271822
O O11 0.500000 0.000000 0.000000
O O12 0.334495 0.250000 0.756855
#
# Coordination Sequence:
#
# PCOD9165647 Si02
#       6
#     2   2   4   4   2   4
#     4  12  21  41  65  93 129 166 222 262 326 378
#     4  10  23  44  65  89 141 174 204 278 308 405
#     4  11  21  41  65  98 126 163 219 282 312 379
#     4  10  21  39  66  91 127 167 218 268 320 374
#     4  12  24  41  66  96 128 176 222 260 330 385
#     4   9  21  43  64  91 133 172 212 261 332 378
#
# _framework density 21.035119000000002
#
# number of rings (size 3 to 8) (size 9 to 14) (size 15 to 20)
#    0.667    0.889    3.333    2.667    4.667    0.889 
#    6.000    2.222    0.000    0.000    0.000    0.000 
#    0.000    0.000    0.000    0.000    0.000    0.000 
#
# Total GULP energy -100309.390337 kJ/mol
# GULP energy per Si atom -5572.743908 kJ/mol
# Density = 2.098724 g / cm^3
# Si number density = 21.035119 Si / 1000 Ang^3
#
#
#
# Elastic Constant Matrix: (Units=GPa)
#
#
# Indices 1 2 3 4 5 6 
#
# 1 98.4284 29.1233 11.6897 0.0000 -43.5849 0.0000
# 2 29.1233 130.8967 18.7651 0.0000 -30.2833 0.0000
# 3 11.6897 18.7651 61.7708 0.0000 -31.0767 0.0000
# 4 0.0000 0.0000 0.0000 16.0280 0.0000 -21.9149
# 5 -43.5849 -30.2833 -31.0767 0.0000 45.3810 0.0000
# 6 0.0000 0.0000 0.0000 -21.9149 0.0000 26.3921
#
#
#
# Elastic Compliance Matrix: (Units=1/GPa)
#
#
# Indices 1 2 3 4 5 6 
#
# 1 0.020653 0.000158 0.009269 0.000000 0.026288 0.000000
# 2 0.000158 0.009043 0.000511 0.000000 0.006537 0.000000
# 3 0.009269 0.000511 0.028879 0.000000 0.029020 0.000000
# 4 0.000000 0.000000 0.000000 -0.460972 0.000000 -0.382773
# 5 0.026288 0.006537 0.029020 0.000000 0.071518 0.000000
# 6 0.000000 0.000000 0.000000 -0.382773 0.000000 -0.279949
#
#
# Mechanical properties :
#
#
# Convention : Reuss Voigt Hill
#
# Bulk Modulus (GPa) = 12.74655 45.58357 29.16506
# Shear Modulus (GPa) = -8.27056 32.99474 12.36209
#
# Velocity S-wave (km/s) = -1.98502 3.96480 2.42686
# Velocity P-wave (km/s) = 0.90501 6.53274 4.66346
#
# Compressibility (1/GPa) = 0.07845258
#
# Stress axis : x y z
#
# Youngs Moduli (GPa) = 48.41973 110.57739 34.62703
#
# Poissons Ratio (x) = -0.01747 -0.32096
# Poissons Ratio (y) = -0.00765 -0.01771
# Poissons Ratio (z) = -0.44881 -0.05656
#
# Static dielectric constant tensor:
#      x y z
#    x 1.783350 0.000000 -0.053640 
#    y 0.000000 1.816600 0.000000 
#    z -0.053640 0.000000 1.804520 
# 
# From -- ./inp_files/31244.got.cif
#   From: 2010.05.17/outbox.cif.g08.bks.cpg/sg11_16_cif.got.tgz:31244.got - 2010.06.03 12:22:45.
