data_PCOD9165092
_publ_section_title
;
Structure prediction by ZEFSAII (Michael W. Deem and Ramdas Pophale) SiO2 
 PCOD9165092
Probable space group: P 21/M
;
_chemical_formula_sum "Si O2"
_cell_formula_units_Z 32
_cell_length_a 22.731733
_cell_length_b 8.828327
_cell_length_c 28.810832
_cell_angle_alpha 90.000000
_cell_angle_beta 18.547156
_cell_angle_gamma 90.000000
_cell_volume 1839.119752
_symmetry_space_group_name_H-M "P 21/M"
_symmetry_group_IT_number 11
_symmetry_cell_setting 'monoclinic'
loop_
_space_group_symop_operation_xyz
x,y,z
-x,1/2+y,-z
-x,-y,-z
x,1/2-y,z
loop_
_atom_site_type_symbol
_atom_site_label
_atom_site_fract_x
_atom_site_fract_y
_atom_site_fract_z
Si Si1 0.001670 0.069720 0.199775
Si Si2 0.008966 0.069261 0.942171
Si Si3 0.296271 0.431995 0.150520
Si Si4 0.282669 0.431848 0.908883
Si Si5 0.286028 0.932601 0.415118
Si Si6 0.994923 0.069999 0.701694
Si Si7 0.296718 0.568526 0.655833
Si Si8 0.999946 0.568557 0.550882
O O1 0.002190 0.250000 0.209090
O O2 0.824662 0.036504 0.299570
O O3 0.001131 0.980812 0.248002
O O4 0.179407 0.034775 0.034634
O O5 0.019850 0.250000 0.935999
O O6 0.183224 0.003177 0.783339
O O7 0.000000 0.000000 0.000000
O O8 0.829754 0.016714 0.047040
O O9 0.302911 0.250000 0.142713
O O10 0.178245 0.495302 0.195666
O O11 0.178359 0.473899 0.284727
O O12 0.500000 0.500000 0.000000
O O13 0.263558 0.250000 0.915739
O O14 0.498311 0.470532 0.748062
O O15 0.268620 0.750000 0.433119
O O16 0.177365 0.975786 0.449340
O O17 0.176634 0.009370 0.539077
O O18 0.983853 0.250000 0.705981
O O19 0.500000 0.500000 0.500000
O O20 0.303620 0.750000 0.656178
O O21 0.001368 0.750000 0.545849
O O22 0.000000 0.500000 0.500000
#
# Coordination Sequence:
#
# PCOD9165092 Si02
#       8
#     4   4   4   4   4   4   4   4
#     4   9  19  36  56  79 109 144 178 218 269 322
#     4  11  22  37  57  81 111 145 182 226 273 323
#     4  10  21  38  57  79 108 141 179 221 267 319
#     4   9  19  37  59  81 106 139 181 226 275 327
#     4   9  19  37  57  77 106 142 178 219 268 320
#     4  11  22  35  54  81 110 142 181 222 264 314
#     4  10  21  38  59  83 111 144 183 225 274 329
#     4   9  19  34  53  79 108 139 175 215 260 312
#
# _framework density 17.399628
#
# number of rings (size 3 to 8) (size 9 to 14) (size 15 to 20)
#    0.000    2.250    0.000    4.500    0.000    7.500 
#    0.000    2.500    0.000    0.000    0.000    0.000 
#    0.000    0.000    0.000    0.000    0.000    0.000 
#
# Total GULP energy -178640.904768 kJ/mol
# GULP energy per Si atom -5582.528274 kJ/mol
# Density = 1.736003 g / cm^3
# Si number density = 17.399628 Si / 1000 Ang^3
#
#
#
# Elastic Constant Matrix: (Units=GPa)
#
#
# Indices 1 2 3 4 5 6 
#
# 1 149.9416 77.8444 105.3973 0.0000 19.0057 0.0000
# 2 77.8444 83.7753 79.2821 0.0000 1.8530 0.0000
# 3 105.3973 79.2821 177.2319 0.0000 -15.7923 0.0000
# 4 0.0000 0.0000 0.0000 30.5030 0.0000 0.4183
# 5 19.0057 1.8530 -15.7923 0.0000 17.2570 0.0000
# 6 0.0000 0.0000 0.0000 0.4183 0.0000 35.4175
#
#
#
# Elastic Compliance Matrix: (Units=1/GPa)
#
#
# Indices 1 2 3 4 5 6 
#
# 1 0.031866 -0.010835 -0.018648 0.000000 -0.050997 0.000000
# 2 -0.010835 0.026782 -0.005151 0.000000 0.004343 0.000000
# 3 -0.018648 -0.005151 0.022772 0.000000 0.041930 0.000000
# 4 0.000000 0.000000 0.000000 0.032789 0.000000 -0.000387
# 5 -0.050997 0.004343 0.041930 0.000000 0.152018 0.000000
# 6 0.000000 0.000000 0.000000 -0.000387 0.000000 0.028239
#
#
# Mechanical properties :
#
#
# Convention : Reuss Voigt Hill
#
# Bulk Modulus (GPa) = 82.27138 103.99960 93.13549
# Shear Modulus (GPa) = 13.59489 26.53050 20.06269
#
# Velocity S-wave (km/s) = 2.79826 3.90907 3.39935
# Velocity P-wave (km/s) = 7.60437 8.95965 8.30969
#
# Compressibility (1/GPa) = 0.01215490
#
# Stress axis : x y z
#
# Youngs Moduli (GPa) = 31.38100 37.33783 43.91313
#
# Poissons Ratio (x) = 0.40454 0.81889
# Poissons Ratio (y) = 0.34000 0.22618
# Poissons Ratio (z) = 0.58519 0.19231
#
# Static dielectric constant tensor:
#      x y z
#    x 1.563820 0.000000 -0.003410 
#    y 0.000000 1.584510 0.000000 
#    z -0.003410 0.000000 1.573850 
# 
# From -- ./inp_files/72110.got.cif
#   From: 2010.05.17/outbox.cif.g08.bks.cpg/sg11_37_cif.got.tgz:72110.got - 2010.06.03 12:22:45.
