data_PCOD9165983
_publ_section_title
;
Structure prediction by ZEFSAII (Michael W. Deem and Ramdas Pophale) SiO2 
 PCOD9165983
Probable space group: P 21/M
;
_chemical_formula_sum "Si O2"
_cell_formula_units_Z 28
_cell_length_a 5.652214
_cell_length_b 14.623308
_cell_length_c 17.248122
_cell_angle_alpha 90.000000
_cell_angle_beta 111.195609
_cell_angle_gamma 90.000000
_cell_volume 1329.185879
_symmetry_space_group_name_H-M "P 21/M"
_symmetry_group_IT_number 11
_symmetry_cell_setting 'monoclinic'
loop_
_space_group_symop_operation_xyz
x,y,z
-x,1/2+y,-z
-x,-y,-z
x,1/2-y,z
loop_
_atom_site_type_symbol
_atom_site_label
_atom_site_fract_x
_atom_site_fract_y
_atom_site_fract_z
Si Si1 0.933774 0.750000 0.434685
Si Si2 0.804161 0.992518 0.048658
Si Si3 0.455742 0.250000 0.466398
Si Si4 0.520635 0.513571 0.785154
Si Si5 0.771993 0.911253 0.660882
Si Si6 0.981904 0.589138 0.322917
Si Si7 0.205211 0.644934 0.828003
Si Si8 0.103593 0.854227 0.168048
O O1 0.237439 0.750000 0.490273
O O2 0.722136 0.750000 0.477336
O O3 0.900915 0.660586 0.377588
O O4 0.852526 0.896522 0.099334
O O5 0.883301 0.075886 0.115548
O O6 0.500000 0.000000 0.000000
O O7 0.000000 0.000000 0.000000
O O8 0.371664 0.339275 0.408526
O O9 0.610877 0.553545 0.714468
O O10 0.255531 0.463708 0.740532
O O11 0.472182 0.600090 0.834111
O O12 0.695703 0.431017 0.833735
O O13 0.016076 0.864254 0.731539
O O14 0.846388 0.005413 0.626297
O O15 0.100797 0.638731 0.261672
O O16 0.221599 0.750000 0.853073
O O17 0.152839 0.750000 0.151456
#
# Coordination Sequence:
#
# PCOD9165983 Si02
#       8
#     2   4   2   4   4   4   4   4
#     4  12  30  46  68 110 150 178 234 312 372 426
#     4  12  27  48  68 109 158 180 234 310 369 420
#     4  12  30  46  68 110 150 178 234 312 372 426
#     4  10  21  42  72 105 136 184 260 308 335 436
#     4  10  23  43  72 100 135 192 246 292 357 441
#     4  10  23  43  72 100 135 192 246 292 357 441
#     4  11  23  43  74 104 140 198 254 297 361 444
#     4  11  23  43  74 104 140 198 254 297 361 444
#
# _framework density 21.065525999999998
#
# number of rings (size 3 to 8) (size 9 to 14) (size 15 to 20)
#    0.000    1.143    5.714    0.857   10.000    2.286 
#    0.000    0.000    0.000    0.000    0.000    0.000 
#    0.000    0.000    0.000    0.000    0.000    0.000 
#
# Total GULP energy -156201.716838 kJ/mol
# GULP energy per Si atom -5578.632744 kJ/mol
# Density = 2.101758 g / cm^3
# Si number density = 21.065526 Si / 1000 Ang^3
#
#
#
# Elastic Constant Matrix: (Units=GPa)
#
#
# Indices 1 2 3 4 5 6 
#
# 1 61.1769 6.1444 -2.0529 0.0000 -11.4679 0.0000
# 2 6.1444 144.4011 14.9673 0.0000 -22.4941 0.0000
# 3 -2.0529 14.9673 40.4766 0.0000 -7.8117 0.0000
# 4 0.0000 0.0000 0.0000 25.7442 0.0000 1.3954
# 5 -11.4679 -22.4941 -7.8117 0.0000 28.7623 0.0000
# 6 0.0000 0.0000 0.0000 1.3954 0.0000 17.0821
#
#
#
# Elastic Compliance Matrix: (Units=1/GPa)
#
#
# Indices 1 2 3 4 5 6 
#
# 1 0.017893 0.000234 0.002357 0.000000 0.007957 0.000000
# 2 0.000234 0.008018 -0.001820 0.000000 0.005870 0.000000
# 3 0.002357 -0.001820 0.026810 0.000000 0.006798 0.000000
# 4 0.000000 0.000000 0.000000 0.039016 0.000000 -0.003187
# 5 0.007957 0.005870 0.006798 0.000000 0.044377 0.000000
# 6 0.000000 0.000000 0.000000 -0.003187 0.000000 0.058801
#
#
# Mechanical properties :
#
#
# Convention : Reuss Voigt Hill
#
# Bulk Modulus (GPa) = 18.42902 31.57470 25.00186
# Shear Modulus (GPa) = 23.64478 29.45076 26.54777
#
# Velocity S-wave (km/s) = 3.35392 3.74311 3.55385
# Velocity P-wave (km/s) = 4.87501 5.80539 5.36042
#
# Compressibility (1/GPa) = 0.05426224
#
# Stress axis : x y z
#
# Youngs Moduli (GPa) = 55.88696 124.71579 37.29935
#
# Poissons Ratio (x) = -0.02917 -0.08790
# Poissons Ratio (y) = -0.01307 0.06790
# Poissons Ratio (z) = -0.13171 0.22702
#
# Static dielectric constant tensor:
#      x y z
#    x 1.845350 0.000000 0.035520 
#    y 0.000000 1.729270 0.000000 
#    z 0.035520 0.000000 1.792420 
# 
# From -- ./inp_files/56971.got.cif
#   From: 2010.05.17/outbox.cif.g08.bks.cpg/sg11_29_cif.got.tgz:56971.got - 2010.06.03 12:22:45.
