data_PCOD9165789
_publ_section_title
;
Structure prediction by ZEFSAII (Michael W. Deem and Ramdas Pophale) SiO2 
 PCOD9165789
Probable space group: P 21/M
;
_chemical_formula_sum "Si O2"
_cell_formula_units_Z 32
_cell_length_a 12.395110
_cell_length_b 17.062908
_cell_length_c 16.765414
_cell_angle_alpha 90.000000
_cell_angle_beta 154.555779
_cell_angle_gamma 90.000000
_cell_volume 1523.402071
_symmetry_space_group_name_H-M "P 21/M"
_symmetry_group_IT_number 11
_symmetry_cell_setting 'monoclinic'
loop_
_space_group_symop_operation_xyz
x,y,z
-x,1/2+y,-z
-x,-y,-z
x,1/2-y,z
loop_
_atom_site_type_symbol
_atom_site_label
_atom_site_fract_x
_atom_site_fract_y
_atom_site_fract_z
Si Si1 0.064063 0.342117 0.691973
Si Si2 0.228596 0.838780 0.924897
Si Si3 0.362031 0.159898 0.430188
Si Si4 0.470785 0.340514 0.328653
Si Si5 0.189657 0.468207 0.059960
Si Si6 0.650894 0.939749 0.433301
Si Si7 0.117325 0.010164 0.825760
Si Si8 0.743178 0.838763 0.353331
O O1 0.139637 0.250000 0.755560
O O2 0.762370 0.344308 0.499365
O O3 0.191902 0.407244 0.834467
O O4 0.134471 0.363932 0.648251
O O5 0.255590 0.750000 0.904741
O O6 0.941906 0.841278 0.764787
O O7 0.255880 0.925575 0.902306
O O8 0.443412 0.839154 0.135834
O O9 0.445900 0.250000 0.490300
O O10 0.436837 0.124835 0.395081
O O11 0.465876 0.114212 0.575729
O O12 0.400717 0.250000 0.288758
O O13 0.277835 0.380996 0.140106
O O14 0.445506 0.515227 0.246479
O O15 0.108256 0.479100 0.914860
O O16 0.000000 0.500000 0.000000
O O17 0.801652 0.888463 0.469844
O O18 0.842550 0.995061 0.606657
O O19 0.822650 0.750000 0.421498
#
# Coordination Sequence:
#
# PCOD9165789 Si02
#       8
#     4   4   4   4   4   4   4   4
#     4  10  23  43  66  92 129 177 228 273 318 388
#     4   9  18  36  59  92 129 158 205 269 326 384
#     4   9  19  36  63  93 122 164 211 264 330 390
#     4  10  22  43  65  90 131 174 217 268 320 390
#     4  12  25  40  63  99 131 171 216 266 330 400
#     4  11  22  39  63  94 128 165 209 272 328 392
#     4  11  23  41  65  95 126 172 216 265 325 389
#     4  10  21  40  65  94 130 172 221 275 329 387
#
# _framework density 21.005616
#
# number of rings (size 3 to 8) (size 9 to 14) (size 15 to 20)
#    0.000    1.750    2.500    1.875    1.750    3.000 
#    0.000    1.875    0.000    9.000    0.000    0.000 
#    0.000    0.000    0.000    0.000    0.000    0.000 
#
# Total GULP energy -178386.729870 kJ/mol
# GULP energy per Si atom -5574.585308 kJ/mol
# Density = 2.095781 g / cm^3
# Si number density = 21.005616 Si / 1000 Ang^3
#
#
#
# Elastic Constant Matrix: (Units=GPa)
#
#
# Indices 1 2 3 4 5 6 
#
# 1 94.2426 39.1050 48.5183 0.0000 -28.5276 0.0000
# 2 39.1050 123.3686 29.5174 0.0000 -26.4119 0.0000
# 3 48.5183 29.5174 59.5689 0.0000 -25.1793 0.0000
# 4 0.0000 0.0000 0.0000 20.5050 0.0000 -14.3242
# 5 -28.5276 -26.4119 -25.1793 0.0000 31.7333 0.0000
# 6 0.0000 0.0000 0.0000 -14.3242 0.0000 19.9799
#
#
#
# Elastic Compliance Matrix: (Units=1/GPa)
#
#
# Indices 1 2 3 4 5 6 
#
# 1 0.019717 -0.001934 -0.012472 0.000000 0.006219 0.000000
# 2 -0.001934 0.010237 -0.000949 0.000000 0.006028 0.000000
# 3 -0.012472 -0.000949 0.033618 0.000000 0.014673 0.000000
# 4 0.000000 0.000000 0.000000 0.097699 0.000000 0.070044
# 5 0.006219 0.006028 0.014673 0.000000 0.053763 0.000000
# 6 0.000000 0.000000 0.000000 0.070044 0.000000 0.100267
#
#
# Mechanical properties :
#
#
# Convention : Reuss Voigt Hill
#
# Bulk Modulus (GPa) = 30.43123 56.82905 43.63014
# Shear Modulus (GPa) = 14.00701 25.11294 19.55997
#
# Velocity S-wave (km/s) = 2.58509 3.46140 3.05483
# Velocity P-wave (km/s) = 4.84034 6.56415 5.76701
#
# Compressibility (1/GPa) = 0.03286098
#
# Stress axis : x y z
#
# Youngs Moduli (GPa) = 50.71783 97.68962 29.74614
#
# Poissons Ratio (x) = 0.18896 0.37099
# Poissons Ratio (y) = 0.09810 0.02822
# Poissons Ratio (z) = 0.63255 0.09269
#
# Static dielectric constant tensor:
#      x y z
#    x 1.778220 0.000000 0.014060 
#    y 0.000000 1.900560 0.000000 
#    z 0.014060 0.000000 1.724590 
# 
# From -- ./inp_files/50733.got.cif
#   From: 2010.05.17/outbox.cif.g08.bks.cpg/sg11_26_cif.got.tgz:50733.got - 2010.06.03 12:22:45.
