data_PCOD9165138
_publ_section_title
;
Structure prediction by ZEFSAII (Michael W. Deem and Ramdas Pophale) SiO2 
 PCOD9165138
Probable space group: P 21/M
;
_chemical_formula_sum "Si O2"
_cell_formula_units_Z 28
_cell_length_a 8.060202
_cell_length_b 9.192890
_cell_length_c 26.305019
_cell_angle_alpha 90.000000
_cell_angle_beta 140.761603
_cell_angle_gamma 90.000000
_cell_volume 1232.907330
_symmetry_space_group_name_H-M "P 21/M"
_symmetry_group_IT_number 11
_symmetry_cell_setting 'monoclinic'
loop_
_space_group_symop_operation_xyz
x,y,z
-x,1/2+y,-z
-x,-y,-z
x,1/2-y,z
loop_
_atom_site_type_symbol
_atom_site_label
_atom_site_fract_x
_atom_site_fract_y
_atom_site_fract_z
Si Si1 0.163677 0.923236 0.302494
Si Si2 0.206033 0.416073 0.976743
Si Si3 0.520585 0.580947 0.254050
Si Si4 0.995867 0.922405 0.832471
Si Si5 0.114488 0.921140 0.408429
Si Si6 0.376937 0.913914 0.109819
Si Si7 0.745465 0.577841 0.461413
O O1 0.116142 0.750000 0.286641
O O2 0.134044 0.963979 0.354303
O O3 0.474645 0.950802 0.367625
O O4 0.992263 0.006614 0.220472
O O5 0.270366 0.250000 0.979857
O O6 0.183946 0.510184 0.920402
O O7 0.914292 0.418903 0.933433
O O8 0.383908 0.478797 0.064115
O O9 0.429815 0.750000 0.239746
O O10 0.296139 0.471858 0.218424
O O11 0.556036 0.561345 0.201508
O O12 0.803409 0.566496 0.346327
O O13 0.021633 0.750000 0.836903
O O14 0.186079 0.750000 0.430014
O O15 0.272192 0.018615 0.485196
O O16 0.418287 0.750000 0.100624
O O17 0.784079 0.750000 0.470751
O O18 0.000000 0.500000 0.500000
#
# Coordination Sequence:
#
# PCOD9165138 Si02
#       7
#     4   4   4   4   4   4   4
#     4  10  22  39  56  76 106 142 176 213 261 314
#     4   9  16  27  45  70 102 137 172 214 263 310
#     4   9  18  33  53  77 105 137 173 216 265 314
#     4  11  21  32  51  78 106 138 177 220 262 307
#     4  10  21  38  59  80 105 139 176 214 261 314
#     4   8  14  25  43  70 102 132 166 211 262 312
#     4  11  23  38  58  83 110 139 173 215 260 307
#
# _framework density 22.710546999999998
#
# number of rings (size 3 to 8) (size 9 to 14) (size 15 to 20)
#    0.000    2.286    0.000    4.286    0.000    9.143 
#    0.000    0.000    0.000    0.857    0.000    0.000 
#    0.000    0.000    0.000    0.000    0.000    0.000 
#
# Total GULP energy -156607.233632 kJ/mol
# GULP energy per Si atom -5593.115487 kJ/mol
# Density = 2.265886 g / cm^3
# Si number density = 22.710547 Si / 1000 Ang^3
#
#
#
# Elastic Constant Matrix: (Units=GPa)
#
#
# Indices 1 2 3 4 5 6 
#
# 1 79.1762 23.9141 18.6533 0.0000 -14.6632 0.0000
# 2 23.9141 100.9338 67.1664 0.0000 -24.3418 0.0000
# 3 18.6533 67.1664 138.2210 0.0000 -21.7581 0.0000
# 4 0.0000 0.0000 0.0000 31.7836 0.0000 -17.5001
# 5 -14.6632 -24.3418 -21.7581 0.0000 41.7127 0.0000
# 6 0.0000 0.0000 0.0000 -17.5001 0.0000 24.0509
#
#
#
# Elastic Compliance Matrix: (Units=1/GPa)
#
#
# Indices 1 2 3 4 5 6 
#
# 1 0.014029 -0.002355 -0.000206 0.000000 0.003450 0.000000
# 2 -0.002355 0.016182 -0.006743 0.000000 0.005098 0.000000
# 3 -0.000206 -0.006743 0.010795 0.000000 0.001623 0.000000
# 4 0.000000 0.000000 0.000000 0.052493 0.000000 0.038196
# 5 0.003450 0.005098 0.001623 0.000000 0.029008 0.000000
# 6 0.000000 0.000000 0.000000 0.038196 0.000000 0.069371
#
#
# Mechanical properties :
#
#
# Convention : Reuss Voigt Hill
#
# Bulk Modulus (GPa) = 44.64675 59.75541 52.20108
# Shear Modulus (GPa) = 22.94088 33.41592 28.17840
#
# Velocity S-wave (km/s) = 3.18172 3.84002 3.52627
# Velocity P-wave (km/s) = 5.76190 6.78453 6.29402
#
# Compressibility (1/GPa) = 0.02239805
#
# Stress axis : x y z
#
# Youngs Moduli (GPa) = 71.28237 61.79652 92.63669
#
# Poissons Ratio (x) = 0.14552 0.01907
# Poissons Ratio (y) = 0.16786 0.62466
# Poissons Ratio (z) = 0.01467 0.41670
#
# Static dielectric constant tensor:
#      x y z
#    x 1.945950 0.000000 0.018530 
#    y 0.000000 1.738800 0.000000 
#    z 0.018530 0.000000 1.862220 
# 
# From -- ./inp_files/70797.got.cif
#   From: 2010.05.17/outbox.cif.g08.bks.cpg/sg11_36_cif.got.tgz:70797.got - 2010.06.03 12:22:45.
