data_PCOD9165783
_publ_section_title
;
Structure prediction by ZEFSAII (Michael W. Deem and Ramdas Pophale) SiO2 
 PCOD9165783
Probable space group: P 21/M
;
_chemical_formula_sum "Si O2"
_cell_formula_units_Z 24
_cell_length_a 15.296868
_cell_length_b 8.779913
_cell_length_c 15.026216
_cell_angle_alpha 90.000000
_cell_angle_beta 39.922750
_cell_angle_gamma 90.000000
_cell_volume 1295.123174
_symmetry_space_group_name_H-M "P 21/M"
_symmetry_group_IT_number 11
_symmetry_cell_setting 'monoclinic'
loop_
_space_group_symop_operation_xyz
x,y,z
-x,1/2+y,-z
-x,-y,-z
x,1/2-y,z
loop_
_atom_site_type_symbol
_atom_site_label
_atom_site_fract_x
_atom_site_fract_y
_atom_site_fract_z
Si Si1 0.638533 0.067188 0.350673
Si Si2 0.142967 0.932312 0.669590
Si Si3 0.136897 0.431254 0.349801
Si Si4 0.679649 0.068031 0.645251
Si Si5 0.632417 0.567405 0.160005
Si Si6 0.854088 0.431325 0.853909
O O1 0.627221 0.250000 0.356072
O O2 0.762959 0.029321 0.319589
O O3 0.500000 0.000000 0.500000
O O4 0.658626 0.000511 0.237061
O O5 0.117250 0.750000 0.690542
O O6 0.228972 0.965982 0.513025
O O7 0.001041 0.019299 0.777170
O O8 0.123558 0.250000 0.354705
O O9 0.259706 0.478998 0.318645
O O10 0.155857 0.499467 0.237141
O O11 0.000000 0.500000 0.500000
O O12 0.690166 0.250000 0.653483
O O13 0.523185 0.031700 0.746158
O O14 0.645590 0.750000 0.152853
O O15 0.736997 0.498865 0.007831
O O16 0.844011 0.250000 0.857610
#
# Coordination Sequence:
#
# PCOD9165783 Si02
#       6
#     4   4   4   4   4   4
#     4  11  22  39  65  96 128 166 212 260 311 373
#     4  10  21  40  65  93 126 166 210 258 309 370
#     4  12  24  40  65  95 126 165 209 259 312 371
#     4  10  21  40  66  94 125 164 211 257 308 372
#     4  11  24  44  66  93 130 169 206 261 320 370
#     4  12  26  43  64  94 128 167 210 260 315 375
#
# _framework density 18.531056
#
# number of rings (size 3 to 8) (size 9 to 14) (size 15 to 20)
#    0.000    1.000    3.333    4.000    0.000    4.000 
#    0.000    0.000    0.000    0.000    0.000    0.000 
#    0.000    0.000    0.000    0.000    0.000    0.000 
#
# Total GULP energy -134266.814909 kJ/mol
# GULP energy per Si atom -5594.450621 kJ/mol
# Density = 1.848888 g / cm^3
# Si number density = 18.531056 Si / 1000 Ang^3
#
#
#
# Elastic Constant Matrix: (Units=GPa)
#
#
# Indices 1 2 3 4 5 6 
#
# 1 130.9739 63.7824 42.7068 0.0000 12.2113 0.0000
# 2 63.7824 87.8588 46.0765 0.0000 -0.7492 0.0000
# 3 42.7068 46.0765 120.0728 0.0000 10.4519 0.0000
# 4 0.0000 0.0000 0.0000 30.9781 0.0000 4.3346
# 5 12.2113 -0.7492 10.4519 0.0000 33.6684 0.0000
# 6 0.0000 0.0000 0.0000 4.3346 0.0000 35.4031
#
#
#
# Elastic Compliance Matrix: (Units=1/GPa)
#
#
# Indices 1 2 3 4 5 6 
#
# 1 0.012571 -0.008797 -0.000700 0.000000 -0.004538 0.000000
# 2 -0.008797 0.020548 -0.005215 0.000000 0.005267 0.000000
# 3 -0.000700 -0.005215 0.010860 0.000000 -0.003233 0.000000
# 4 0.000000 0.000000 0.000000 0.032844 0.000000 -0.004021
# 5 -0.004538 0.005267 -0.003233 0.000000 0.032468 0.000000
# 6 0.000000 0.000000 0.000000 -0.004021 0.000000 0.028738
#
#
# Mechanical properties :
#
#
# Convention : Reuss Voigt Hill
#
# Bulk Modulus (GPa) = 68.70788 71.55966 70.13377
# Shear Modulus (GPa) = 29.01840 32.43255 30.72547
#
# Velocity S-wave (km/s) = 3.96148 4.18805 4.07634
# Velocity P-wave (km/s) = 7.62116 7.87948 7.75140
#
# Compressibility (1/GPa) = 0.01455437
#
# Stress axis : x y z
#
# Youngs Moduli (GPa) = 79.55014 48.66633 92.08279
#
# Poissons Ratio (x) = 0.42814 0.06448
# Poissons Ratio (y) = 0.69983 0.48017
# Poissons Ratio (z) = 0.05570 0.25377
#
# Static dielectric constant tensor:
#      x y z
#    x 1.622570 0.000000 -0.005320 
#    y 0.000000 1.615850 0.000000 
#    z -0.005320 0.000000 1.599920 
# 
# From -- ./inp_files/28211.got.cif
#   From: 2010.05.17/outbox.cif.g08.bks.cpg/sg11_15_cif.got.tgz:28211.got - 2010.06.03 12:22:45.
