data_PCOD9165980
_publ_section_title
;
Structure prediction by ZEFSAII (Michael W. Deem and Ramdas Pophale) SiO2 
 PCOD9165980
Probable space group: P 21/M
;
_chemical_formula_sum "Si O2"
_cell_formula_units_Z 20
_cell_length_a 6.763365
_cell_length_b 23.112986
_cell_length_c 5.495355
_cell_angle_alpha 90.000000
_cell_angle_beta 105.984602
_cell_angle_gamma 90.000000
_cell_volume 825.828226
_symmetry_space_group_name_H-M "P 21/M"
_symmetry_group_IT_number 11
_symmetry_cell_setting 'monoclinic'
loop_
_space_group_symop_operation_xyz
x,y,z
-x,1/2+y,-z
-x,-y,-z
x,1/2-y,z
loop_
_atom_site_type_symbol
_atom_site_label
_atom_site_fract_x
_atom_site_fract_y
_atom_site_fract_z
Si Si1 0.439479 0.097242 0.045072
Si Si2 0.063843 0.031983 0.772674
Si Si3 0.459283 0.810762 0.288006
Si Si4 0.810029 0.372123 0.454409
Si Si5 0.849096 0.683981 0.753748
O O1 0.620498 0.087464 0.300321
O O2 0.276395 0.142882 0.105474
O O3 0.304763 0.046004 0.889662
O O4 0.553689 0.132627 0.875557
O O5 0.946918 0.092498 0.690460
O O6 0.000000 0.000000 0.500000
O O7 0.000000 0.000000 0.000000
O O8 0.425483 0.750000 0.143523
O O9 0.298562 0.818332 0.451238
O O10 0.687241 0.810753 0.476673
O O11 0.953666 0.348772 0.286805
O O12 0.889242 0.750000 0.855116
#
# Coordination Sequence:
#
# PCOD9165980 Si02
#       5
#     4   4   4   4   4
#     4  11  25  45  72 105 149 185 249 305 360 445
#     4  12  29  51  76 105 144 199 259 315 371 424
#     4  10  22  41  70 109 146 185 234 293 368 453
#     4  11  25  45  73 103 148 191 243 303 370 438
#     4  10  21  42  70 106 151 195 232 291 369 449
#
# _framework density 24.218112999999999
#
# number of rings (size 3 to 8) (size 9 to 14) (size 15 to 20)
#    0.000    1.200    2.000    2.400    8.400    4.000 
#    0.000    0.000    0.000    0.000    0.000    0.000 
#    0.000    0.000    0.000    0.000    0.000    0.000 
#
# Total GULP energy -111808.034247 kJ/mol
# GULP energy per Si atom -5590.401712 kJ/mol
# Density = 2.416299 g / cm^3
# Si number density = 24.218113 Si / 1000 Ang^3
#
#
#
# Elastic Constant Matrix: (Units=GPa)
#
#
# Indices 1 2 3 4 5 6 
#
# 1 137.4928 30.2942 31.3707 0.0000 6.4512 0.0000
# 2 30.2942 61.0248 18.3372 0.0000 10.5511 0.0000
# 3 31.3707 18.3372 92.9840 0.0000 16.1273 0.0000
# 4 0.0000 0.0000 0.0000 18.8660 0.0000 20.4027
# 5 6.4512 10.5511 16.1273 0.0000 55.4399 0.0000
# 6 0.0000 0.0000 0.0000 20.4027 0.0000 -38.8348
#
#
#
# Elastic Compliance Matrix: (Units=1/GPa)
#
#
# Indices 1 2 3 4 5 6 
#
# 1 0.008569 -0.003643 -0.002233 0.000000 0.000346 0.000000
# 2 -0.003643 0.019286 -0.002118 0.000000 -0.002630 0.000000
# 3 -0.002233 -0.002118 0.012438 0.000000 -0.002955 0.000000
# 4 0.000000 0.000000 0.000000 0.033801 0.000000 0.017758
# 5 0.000346 -0.002630 -0.002955 0.000000 0.019358 0.000000
# 6 0.000000 0.000000 0.000000 0.017758 0.000000 -0.016421
#
#
# Mechanical properties :
#
#
# Convention : Reuss Voigt Hill
#
# Bulk Modulus (GPa) = 41.14144 50.16732 45.65438
# Shear Modulus (GPa) = 49.44600 21.19419 35.32010
#
# Velocity S-wave (km/s) = 4.52341 2.96148 3.82306
# Velocity P-wave (km/s) = 6.65631 5.69681 6.19516
#
# Compressibility (1/GPa) = 0.02430639
#
# Stress axis : x y z
#
# Youngs Moduli (GPa) = 116.70142 51.85002 80.39850
#
# Poissons Ratio (x) = 0.18887 0.17949
# Poissons Ratio (y) = 0.42511 0.17030
# Poissons Ratio (z) = 0.26054 0.10983
#
# Static dielectric constant tensor:
#      x y z
#    x 1.888510 0.000000 -0.025890 
#    y 0.000000 1.970630 0.000000 
#    z -0.025890 0.000000 2.240220 
# 
# From -- ./inp_files/852.got.cif
#   From: 2010.05.17/outbox.cif.g08.bks.cpg/sg11_1_cif.got.tgz:852.got - 2010.06.03 12:22:45.
