data_PCOD9165123
_publ_section_title
;
Structure prediction by ZEFSAII (Michael W. Deem and Ramdas Pophale) SiO2 
 PCOD9165123
Probable space group: P 21/M
;
_chemical_formula_sum "Si O2"
_cell_formula_units_Z 28
_cell_length_a 26.412646
_cell_length_b 8.626761
_cell_length_c 9.676808
_cell_angle_alpha 90.000000
_cell_angle_beta 40.378459
_cell_angle_gamma 90.000000
_cell_volume 1428.417737
_symmetry_space_group_name_H-M "P 21/M"
_symmetry_group_IT_number 11
_symmetry_cell_setting 'monoclinic'
loop_
_space_group_symop_operation_xyz
x,y,z
-x,1/2+y,-z
-x,-y,-z
x,1/2-y,z
loop_
_atom_site_type_symbol
_atom_site_label
_atom_site_fract_x
_atom_site_fract_y
_atom_site_fract_z
Si Si1 0.318151 0.933211 0.709059
Si Si2 0.483670 0.065564 0.383399
Si Si3 0.747743 0.064027 0.592501
Si Si4 0.081873 0.063952 0.278504
Si Si5 0.426518 0.565831 0.069944
Si Si6 0.822420 0.565626 0.176983
Si Si7 0.235568 0.435888 0.135132
O O1 0.308282 0.750000 0.709740
O O2 0.405270 0.984567 0.491742
O O3 0.255248 0.024455 0.748831
O O4 0.299880 0.980408 0.905484
O O5 0.471209 0.250000 0.415533
O O6 0.500000 0.000000 0.500000
O O7 0.553862 0.035214 0.131578
O O8 0.745991 0.250000 0.608388
O O9 0.661488 0.010439 0.719136
O O10 0.811509 0.014263 0.347065
O O11 0.761820 0.991090 0.713110
O O12 0.078102 0.250000 0.283081
O O13 0.152453 0.023179 0.236401
O O14 0.108023 0.012442 0.070049
O O15 0.000000 0.000000 0.500000
O O16 0.426960 0.750000 0.091889
O O17 0.500000 0.500000 0.000000
O O18 0.827867 0.750000 0.184102
O O19 0.246079 0.250000 0.104294
#
# Coordination Sequence:
#
# PCOD9165123 Si02
#       7
#     4   4   4   4   4   4   4
#     4  11  21  35  55  80 108 143 190 240 282 335
#     4  11  22  36  53  76 106 143 186 237 292 343
#     4  11  22  37  57  85 115 147 191 240 283 335
#     4   9  20  38  62  89 116 144 182 226 274 335
#     4  10  23  38  53  76 108 144 188 235 282 332
#     4  10  21  38  58  83 113 148 185 225 275 336
#     4  10  21  38  59  85 115 151 188 229 283 342
#
# _framework density 19.602108000000001
#
# number of rings (size 3 to 8) (size 9 to 14) (size 15 to 20)
#    0.000    1.714    0.000    5.571    0.000    9.143 
#    0.000    0.714    0.000    0.000    0.000    0.000 
#    0.000    0.000    0.000    0.000    0.000    0.000 
#
# Total GULP energy -156448.847538 kJ/mol
# GULP energy per Si atom -5587.458841 kJ/mol
# Density = 1.955749 g / cm^3
# Si number density = 19.602108 Si / 1000 Ang^3
#
#
#
# Elastic Constant Matrix: (Units=GPa)
#
#
# Indices 1 2 3 4 5 6 
#
# 1 38.7428 8.2979 24.9520 0.0000 9.3303 0.0000
# 2 8.2979 36.6174 22.8454 0.0000 -0.8681 0.0000
# 3 24.9520 22.8454 118.5238 0.0000 -1.5954 0.0000
# 4 0.0000 0.0000 0.0000 33.1347 0.0000 2.4859
# 5 9.3303 -0.8681 -1.5954 0.0000 35.4155 0.0000
# 6 0.0000 0.0000 0.0000 2.4859 0.0000 31.2205
#
#
#
# Elastic Compliance Matrix: (Units=1/GPa)
#
#
# Indices 1 2 3 4 5 6 
#
# 1 0.032853 -0.003715 -0.006322 0.000000 -0.009031 0.000000
# 2 -0.003715 0.031471 -0.005264 0.000000 0.001513 0.000000
# 3 -0.006322 -0.005264 0.010810 0.000000 0.002023 0.000000
# 4 0.000000 0.000000 0.000000 0.030361 0.000000 -0.002417
# 5 -0.009031 0.001513 0.002023 0.000000 0.030744 0.000000
# 6 0.000000 0.000000 0.000000 -0.002417 0.000000 0.032223
#
#
# Mechanical properties :
#
#
# Convention : Reuss Voigt Hill
#
# Bulk Modulus (GPa) = 22.45495 34.00830 28.23163
# Shear Modulus (GPa) = 23.37459 29.14003 26.25731
#
# Velocity S-wave (km/s) = 3.45694 3.85980 3.66391
# Velocity P-wave (km/s) = 5.23585 6.10336 5.68617
#
# Compressibility (1/GPa) = 0.04453360
#
# Stress axis : x y z
#
# Youngs Moduli (GPa) = 30.43817 31.77520 92.50834
#
# Poissons Ratio (x) = 0.11804 0.58483
# Poissons Ratio (y) = 0.11307 0.48693
# Poissons Ratio (z) = 0.19243 0.16725
#
# Static dielectric constant tensor:
#      x y z
#    x 1.675880 0.000000 0.020030 
#    y 0.000000 1.670770 0.000000 
#    z 0.020030 0.000000 1.706410 
# 
# From -- ./inp_files/28160.got.cif
#   From: 2010.05.17/outbox.cif.g08.bks.cpg/sg11_15_cif.got.tgz:28160.got - 2010.06.03 12:22:45.
