data_PCOD9165583
_publ_section_title
;
Structure prediction by ZEFSAII (Michael W. Deem and Ramdas Pophale) SiO2 
 PCOD9165583
Probable space group: P 21/M
;
_chemical_formula_sum "Si O2"
_cell_formula_units_Z 28
_cell_length_a 9.219197
_cell_length_b 25.053725
_cell_length_c 8.560507
_cell_angle_alpha 90.000000
_cell_angle_beta 43.885335
_cell_angle_gamma 90.000000
_cell_volume 1370.674489
_symmetry_space_group_name_H-M "P 21/M"
_symmetry_group_IT_number 11
_symmetry_cell_setting 'monoclinic'
loop_
_space_group_symop_operation_xyz
x,y,z
-x,1/2+y,-z
-x,-y,-z
x,1/2-y,z
loop_
_atom_site_type_symbol
_atom_site_label
_atom_site_fract_x
_atom_site_fract_y
_atom_site_fract_z
Si Si1 0.704993 0.983916 0.941360
Si Si2 0.067429 0.590004 0.574445
Si Si3 0.188497 0.897844 0.130756
Si Si4 0.479088 0.553461 0.418307
Si Si5 0.450864 0.651018 0.667226
Si Si6 0.871679 0.691508 0.266561
Si Si7 0.967339 0.189990 0.183946
O O1 0.814170 0.039395 0.909428
O O2 0.867154 0.948453 0.716890
O O3 0.500000 0.000000 0.000000
O O4 0.628823 0.951481 0.152063
O O5 0.178991 0.602472 0.324541
O O6 0.241453 0.560607 0.543827
O O7 0.006033 0.644629 0.708408
O O8 0.000180 0.859725 0.223400
O O9 0.383992 0.872734 0.886195
O O10 0.500000 0.500000 0.500000
O O11 0.520597 0.602771 0.500023
O O12 0.646673 0.689512 0.520059
O O13 0.248997 0.677613 0.741710
O O14 0.971846 0.750000 0.220564
O O15 0.860295 0.687445 0.087111
O O16 0.961184 0.250000 0.252566
#
# Coordination Sequence:
#
# PCOD9165583 Si02
#       7
#     4   4   4   4   4   4   4
#     4  12  25  41  62  88 128 171 205 254 308 374
#     4  11  25  40  62  91 126 167 203 256 307 369
#     4  11  24  38  63  89 127 162 201 250 310 367
#     4  11  23  38  60  92 124 159 212 249 308 367
#     4  10  21  39  63  94 121 161 202 255 306 372
#     4  10  22  40  65  90 119 158 204 254 305 363
#     4   9  20  42  64  89 120 157 203 254 307 362
#
# _framework density 20.427897999999999
#
# number of rings (size 3 to 8) (size 9 to 14) (size 15 to 20)
#    0.000    1.429    2.857    1.714    4.000    1.714 
#    0.000    0.000    0.000    0.000    0.000    0.000 
#    0.000    0.000    0.000    0.000    0.000    0.000 
#
# Total GULP energy -156348.431008 kJ/mol
# GULP energy per Si atom -5583.872536 kJ/mol
# Density = 2.038140 g / cm^3
# Si number density = 20.427898 Si / 1000 Ang^3
#
#
#
# Elastic Constant Matrix: (Units=GPa)
#
#
# Indices 1 2 3 4 5 6 
#
# 1 48.1128 40.2351 28.5320 0.0000 6.6301 0.0000
# 2 40.2351 135.5523 58.5706 0.0000 -2.6061 0.0000
# 3 28.5320 58.5706 118.8715 0.0000 16.5804 0.0000
# 4 0.0000 0.0000 0.0000 32.6314 0.0000 -0.8907
# 5 6.6301 -2.6061 16.5804 0.0000 24.2845 0.0000
# 6 0.0000 0.0000 0.0000 -0.8907 0.0000 19.8879
#
#
#
# Elastic Compliance Matrix: (Units=1/GPa)
#
#
# Indices 1 2 3 4 5 6 
#
# 1 0.029851 -0.008088 -0.002124 0.000000 -0.007567 0.000000
# 2 -0.008088 0.012053 -0.004958 0.000000 0.006887 0.000000
# 3 -0.002124 -0.004958 0.012554 0.000000 -0.008523 0.000000
# 4 0.000000 0.000000 0.000000 0.030683 0.000000 0.001374
# 5 -0.007567 0.006887 -0.008523 0.000000 0.049803 0.000000
# 6 0.000000 0.000000 0.000000 0.001374 0.000000 0.050343
#
#
# Mechanical properties :
#
#
# Convention : Reuss Voigt Hill
#
# Bulk Modulus (GPa) = 41.46414 61.91243 51.68828
# Shear Modulus (GPa) = 22.35475 27.04066 24.69771
#
# Velocity S-wave (km/s) = 3.31165 3.64223 3.48087
# Velocity P-wave (km/s) = 5.91308 6.93263 6.44306
#
# Compressibility (1/GPa) = 0.02411723
#
# Stress axis : x y z
#
# Youngs Moduli (GPa) = 33.49991 82.96986 79.65594
#
# Poissons Ratio (x) = 0.67107 0.16921
# Poissons Ratio (y) = 0.27095 0.39492
# Poissons Ratio (z) = 0.07116 0.41135
#
# Static dielectric constant tensor:
#      x y z
#    x 1.726960 0.000000 -0.015350 
#    y 0.000000 1.733770 0.000000 
#    z -0.015350 0.000000 1.749420 
# 
# From -- ./inp_files/15258.got.cif
#   From: 2010.05.17/outbox.cif.g08.bks.cpg/sg11_8_cif.got.tgz:15258.got - 2010.06.03 12:22:45.
