data_PCOD9165274
_publ_section_title
;
Structure prediction by ZEFSAII (Michael W. Deem and Ramdas Pophale) SiO2 
 PCOD9165274
Probable space group: P 21/M
;
_chemical_formula_sum "Si O2"
_cell_formula_units_Z 20
_cell_length_a 4.868023
_cell_length_b 16.957027
_cell_length_c 9.853498
_cell_angle_alpha 90.000000
_cell_angle_beta 102.667820
_cell_angle_gamma 90.000000
_cell_volume 793.579273
_symmetry_space_group_name_H-M "P 21/M"
_symmetry_group_IT_number 11
_symmetry_cell_setting 'monoclinic'
loop_
_space_group_symop_operation_xyz
x,y,z
-x,1/2+y,-z
-x,-y,-z
x,1/2-y,z
loop_
_atom_site_type_symbol
_atom_site_label
_atom_site_fract_x
_atom_site_fract_y
_atom_site_fract_z
Si Si1 0.724430 0.660465 0.284497
Si Si2 0.308035 0.660556 0.477240
Si Si3 0.932942 0.064093 0.875937
Si Si4 0.341808 0.081786 0.257225
Si Si5 0.229814 0.842121 0.894241
O O1 0.753541 0.750000 0.233204
O O2 0.976814 0.649127 0.421937
O O3 0.802531 0.597690 0.178119
O O4 0.443525 0.657187 0.342237
O O5 0.355622 0.750000 0.534344
O O6 0.466693 0.602323 0.594065
O O7 0.748201 0.009019 0.757666
O O8 0.806596 0.134787 0.952149
O O9 0.000000 0.000000 0.000000
O O10 0.527162 0.105981 0.147140
O O11 0.058555 0.134108 0.214847
O O12 0.288697 0.750000 0.885358
#
# Coordination Sequence:
#
# PCOD9165274 Si02
#       5
#     4   4   4   4   4
#     4  10  22  40  63  89 120 159 201 245 296 358
#     4  10  21  38  61  89 119 155 202 250 297 355
#     4  10  24  42  61  89 125 160 201 249 300 355
#     4  11  23  39  62  92 123 155 199 252 305 354
#     4  11  22  39  63  88 120 162 204 247 297 357
#
# _framework density 25.202272000000001
#
# number of rings (size 3 to 8) (size 9 to 14) (size 15 to 20)
#    0.000    1.600    0.000    4.200    0.000    9.600 
#    0.000    6.000    0.000    0.000    0.000    0.000 
#    0.000    0.000    0.000    0.000    0.000    0.000 
#
# Total GULP energy -112089.245617 kJ/mol
# GULP energy per Si atom -5604.462281 kJ/mol
# Density = 2.514491 g / cm^3
# Si number density = 25.202272 Si / 1000 Ang^3
#
#
#
# Elastic Constant Matrix: (Units=GPa)
#
#
# Indices 1 2 3 4 5 6 
#
# 1 63.3345 -18.5591 -21.2100 0.0000 1.2330 0.0000
# 2 -18.5591 90.1907 16.3335 0.0000 11.4534 0.0000
# 3 -21.2100 16.3335 82.5582 0.0000 3.4383 0.0000
# 4 0.0000 0.0000 0.0000 48.1673 0.0000 1.5059
# 5 1.2330 11.4534 3.4383 0.0000 39.1768 0.0000
# 6 0.0000 0.0000 0.0000 1.5059 0.0000 30.6426
#
#
#
# Elastic Compliance Matrix: (Units=1/GPa)
#
#
# Indices 1 2 3 4 5 6 
#
# 1 0.018145 0.003229 0.004101 0.000000 -0.001875 0.000000
# 2 0.003229 0.012481 -0.001489 0.000000 -0.003620 0.000000
# 3 0.004101 -0.001489 0.013497 0.000000 -0.000878 0.000000
# 4 0.000000 0.000000 0.000000 0.020793 0.000000 -0.001022
# 5 -0.001875 -0.003620 -0.000878 0.000000 0.026720 0.000000
# 6 0.000000 0.000000 0.000000 -0.001022 0.000000 0.032685
#
#
# Mechanical properties :
#
#
# Convention : Reuss Voigt Hill
#
# Bulk Modulus (GPa) = 17.91896 21.02357 19.47127
# Shear Modulus (GPa) = 38.09782 40.89860 39.49821
#
# Velocity S-wave (km/s) = 3.89225 4.03279 3.96314
# Velocity P-wave (km/s) = 5.22733 5.48129 5.35582
#
# Compressibility (1/GPa) = 0.05580679
#
# Stress axis : x y z
#
# Youngs Moduli (GPa) = 55.11055 80.11865 74.08842
#
# Poissons Ratio (x) = -0.25873 -0.30383
# Poissons Ratio (y) = -0.17797 0.11031
# Poissons Ratio (z) = -0.22600 0.11929
#
# Static dielectric constant tensor:
#      x y z
#    x 2.012090 0.000000 0.088680 
#    y 0.000000 1.964540 0.000000 
#    z 0.088680 0.000000 2.062950 
# 
# From -- ./inp_files/1891.got.cif
#   From: 2010.05.17/outbox.cif.g08.bks.cpg/sg11_1_cif.got.tgz:1891.got - 2010.06.03 12:22:45.
