data_PCOD9165121
_publ_section_title
;
Structure prediction by ZEFSAII (Michael W. Deem and Ramdas Pophale) SiO2 
 PCOD9165121
Probable space group: P 21/M
;
_chemical_formula_sum "Si O2"
_cell_formula_units_Z 32
_cell_length_a 15.759557
_cell_length_b 7.778909
_cell_length_c 12.213930
_cell_angle_alpha 90.000000
_cell_angle_beta 88.913688
_cell_angle_gamma 90.000000
_cell_volume 1497.062942
_symmetry_space_group_name_H-M "P 21/M"
_symmetry_group_IT_number 11
_symmetry_cell_setting 'monoclinic'
loop_
_space_group_symop_operation_xyz
x,y,z
-x,1/2+y,-z
-x,-y,-z
x,1/2-y,z
loop_
_atom_site_type_symbol
_atom_site_label
_atom_site_fract_x
_atom_site_fract_y
_atom_site_fract_z
Si Si1 0.173004 0.046713 0.512374
Si Si2 0.636241 0.051336 0.512226
Si Si3 0.246679 0.951382 0.139580
Si Si4 0.602371 0.038702 0.266644
Si Si5 0.903941 0.957678 0.254624
Si Si6 0.907349 0.458539 0.708031
Si Si7 0.583592 0.552556 0.747539
Si Si8 0.247288 0.954836 0.894493
O O1 0.189763 0.250000 0.520609
O O2 0.137602 0.984126 0.629461
O O3 0.261858 0.958611 0.480931
O O4 0.107479 0.016081 0.416046
O O5 0.609463 0.250000 0.520110
O O6 0.613968 0.983181 0.392280
O O7 0.595983 0.956491 0.616181
O O8 0.226067 0.750000 0.127437
O O9 0.171436 0.023613 0.217164
O O10 0.336635 0.964001 0.197935
O O11 0.251320 0.025937 0.017307
O O12 0.603163 0.250000 0.269140
O O13 0.510265 0.983554 0.225888
O O14 0.679618 0.978309 0.188987
O O15 0.904019 0.750000 0.255769
O O16 0.001477 0.014975 0.249008
O O17 0.843754 0.015741 0.158245
O O18 0.906231 0.250000 0.706952
O O19 0.586759 0.750000 0.782772
O O20 0.262010 0.750000 0.900319
#
# Coordination Sequence:
#
# PCOD9165121 Si02
#       8
#     4   4   4   4   4   4   4   4
#     4  11  21  34  56  87 116 146 187 234 280 334
#     4  11  20  35  59  84 114 151 184 223 284 347
#     4  10  22  39  59  82 111 151 196 234 278 335
#     4   9  20  37  58  84 114 149 186 231 286 335
#     4  10  22  38  57  85 118 148 186 237 286 331
#     4  10  21  38  58  82 117 155 186 228 285 338
#     4  11  22  37  58  85 116 147 186 236 283 334
#     4  10  21  40  61  81 110 151 196 236 277 336
#
# _framework density 21.375187
#
# number of rings (size 3 to 8) (size 9 to 14) (size 15 to 20)
#    0.000    1.750    2.500    1.875    0.000    2.500 
#    0.000    3.125    0.000    0.000    0.000    0.000 
#    0.000    0.000    0.000    0.000    0.000    0.000 
#
# Total GULP energy -178841.787551 kJ/mol
# GULP energy per Si atom -5588.805861 kJ/mol
# Density = 2.132654 g / cm^3
# Si number density = 21.375187 Si / 1000 Ang^3
#
#
#
# Elastic Constant Matrix: (Units=GPa)
#
#
# Indices 1 2 3 4 5 6 
#
# 1 80.1710 -3.1000 11.2641 0.0000 3.2208 0.0000
# 2 -3.1000 27.0727 1.0200 0.0000 0.1802 0.0000
# 3 11.2641 1.0200 102.3209 0.0000 9.6653 0.0000
# 4 0.0000 0.0000 0.0000 -6.4489 0.0000 0.3932
# 5 3.2208 0.1802 9.6653 0.0000 1.8892 0.0000
# 6 0.0000 0.0000 0.0000 0.3932 0.0000 14.7732
#
#
#
# Elastic Compliance Matrix: (Units=1/GPa)
#
#
# Indices 1 2 3 4 5 6 
#
# 1 0.013561 0.001703 0.001334 0.000000 -0.030108 0.000000
# 2 0.001703 0.037175 0.000099 0.000000 -0.006954 0.000000
# 3 0.001334 0.000099 0.019045 0.000000 -0.099720 0.000000
# 4 0.000000 0.000000 0.000000 -0.154814 0.000000 0.004121
# 5 -0.030108 -0.006954 -0.099720 0.000000 1.091496 0.000000
# 6 0.000000 0.000000 0.000000 0.004121 0.000000 0.067581
#
#
# Mechanical properties :
#
#
# Convention : Reuss Voigt Hill
#
# Bulk Modulus (GPa) = 13.14867 25.32588 19.23728
# Shear Modulus (GPa) = 4.57405 15.40139 9.98772
#
# Velocity S-wave (km/s) = 1.46442 2.68717 2.16396
# Velocity P-wave (km/s) = 3.00401 4.63701 3.90679
#
# Compressibility (1/GPa) = 0.07605331
#
# Stress axis : x y z
#
# Youngs Moduli (GPa) = 73.73913 26.89971 52.50729
#
# Poissons Ratio (x) = -0.04581 -0.07005
# Poissons Ratio (y) = -0.12557 -0.00519
# Poissons Ratio (z) = -0.09838 -0.00266
#
# Static dielectric constant tensor:
#      x y z
#    x 1.759230 0.000000 -0.014160 
#    y 0.000000 1.786800 0.000000 
#    z -0.014160 0.000000 1.748010 
# 
# From -- ./inp_files/38083.got.cif
#   From: 2010.05.17/outbox.cif.g08.bks.cpg/sg11_20_cif.got.tgz:38083.got - 2010.06.03 12:22:45.
