data_PCOD9165738
_publ_section_title
;
Structure prediction by ZEFSAII (Michael W. Deem and Ramdas Pophale) SiO2 
 PCOD9165738
Probable space group: P 21/M
;
_chemical_formula_sum "Si O2"
_cell_formula_units_Z 30
_cell_length_a 11.606093
_cell_length_b 20.306236
_cell_length_c 10.578933
_cell_angle_alpha 90.000000
_cell_angle_beta 34.985776
_cell_angle_gamma 90.000000
_cell_volume 1429.534449
_symmetry_space_group_name_H-M "P 21/M"
_symmetry_group_IT_number 11
_symmetry_cell_setting 'monoclinic'
loop_
_space_group_symop_operation_xyz
x,y,z
-x,1/2+y,-z
-x,-y,-z
x,1/2-y,z
loop_
_atom_site_type_symbol
_atom_site_label
_atom_site_fract_x
_atom_site_fract_y
_atom_site_fract_z
Si Si1 0.031523 0.250000 0.238985
Si Si2 0.332751 0.133254 0.899525
Si Si3 0.711577 0.348460 0.418871
Si Si4 0.434301 0.575255 0.081141
Si Si5 0.289980 0.678626 0.867806
Si Si6 0.333137 0.173257 0.317609
Si Si7 0.050919 0.911137 0.271597
Si Si8 0.020131 0.531128 0.842175
O O1 0.853079 0.307229 0.385436
O O2 0.206095 0.191889 0.075960
O O3 0.476869 0.159370 0.659104
O O4 0.493504 0.098837 0.847684
O O5 0.172002 0.078864 0.001413
O O6 0.757054 0.323432 0.236663
O O7 0.782855 0.423945 0.349164
O O8 0.547354 0.627512 0.888317
O O9 0.500000 0.500000 0.000000
O O10 0.200456 0.578484 0.254741
O O11 0.227485 0.750000 0.976979
O O12 0.526489 0.672507 0.683946
O O13 0.177043 0.623026 0.046199
O O14 0.310415 0.250000 0.298388
O O15 0.124412 0.137978 0.531075
O O16 0.977325 0.978192 0.273245
O O17 0.000000 0.500000 0.000000
#
# Coordination Sequence:
#
# PCOD9165738 Si02
#       8
#     2   4   4   4   4   4   4   4
#     4  10  24  44  62  96 128 170 228 272 330 404
#     4  11  26  45  67  95 138 175 223 279 340 398
#     4  11  23  40  66  98 132 177 215 270 351 401
#     4  11  25  47  67  95 135 174 227 281 332 405
#     4  10  21  40  63  94 133 164 221 270 325 404
#     4  10  25  44  68  99 128 178 228 277 335 391
#     4  11  23  43  69  93 131 177 221 274 332 390
#     4  11  24  40  63 103 139 171 221 276 328 411
#
# _framework density 20.985855000000001
#
# number of rings (size 3 to 8) (size 9 to 14) (size 15 to 20)
#    0.000    1.333    3.333    0.800    4.667    3.733 
#    2.400    0.000    0.000    0.000    0.000    0.000 
#    0.000    0.000    0.000    0.000    0.000    0.000 
#
# Total GULP energy -167039.778698 kJ/mol
# GULP energy per Si atom -5567.992623 kJ/mol
# Density = 2.093809 g / cm^3
# Si number density = 20.985855 Si / 1000 Ang^3
#
#
#
# Elastic Constant Matrix: (Units=GPa)
#
#
# Indices 1 2 3 4 5 6 
#
# 1 50.2957 24.6839 0.9756 0.0000 -8.1645 0.0000
# 2 24.6839 142.3577 16.3982 0.0000 -17.8410 0.0000
# 3 0.9756 16.3982 51.2794 0.0000 -18.5460 0.0000
# 4 0.0000 0.0000 0.0000 23.4249 0.0000 -11.8762
# 5 -8.1645 -17.8410 -18.5460 0.0000 22.1152 0.0000
# 6 0.0000 0.0000 0.0000 -11.8762 0.0000 27.3679
#
#
#
# Elastic Compliance Matrix: (Units=1/GPa)
#
#
# Indices 1 2 3 4 5 6 
#
# 1 0.022889 -0.003281 0.003893 0.000000 0.009069 0.000000
# 2 -0.003281 0.008288 -0.000872 0.000000 0.004744 0.000000
# 3 0.003893 -0.000872 0.028665 0.000000 0.024772 0.000000
# 4 0.000000 0.000000 0.000000 0.054731 0.000000 0.023750
# 5 0.009069 0.004744 0.024772 0.000000 0.073167 0.000000
# 6 0.000000 0.000000 0.000000 0.023750 0.000000 0.046845
#
#
# Mechanical properties :
#
#
# Convention : Reuss Voigt Hill
#
# Bulk Modulus (GPa) = 16.85678 36.44980 26.65329
# Shear Modulus (GPa) = 19.61710 28.03996 23.82853
#
# Velocity S-wave (km/s) = 3.06073 3.65929 3.37331
# Velocity P-wave (km/s) = 4.53218 5.93804 5.28209
#
# Compressibility (1/GPa) = 0.05932330
#
# Stress axis : x y z
#
# Youngs Moduli (GPa) = 43.68884 120.65029 34.88541
#
# Poissons Ratio (x) = 0.39583 -0.13583
# Poissons Ratio (y) = 0.14333 0.03044
# Poissons Ratio (z) = -0.17010 0.10526
#
# Static dielectric constant tensor:
#      x y z
#    x 1.799540 0.000000 0.014620 
#    y 0.000000 1.747140 0.000000 
#    z 0.014620 0.000000 1.748380 
# 
# From -- ./inp_files/36449.got.cif
#   From: 2010.05.17/outbox.cif.g08.bks.cpg/sg11_19_cif.got.tgz:36449.got - 2010.06.03 12:22:45.
