data_PCOD9165831
_publ_section_title
;
Structure prediction by ZEFSAII (Michael W. Deem and Ramdas Pophale) SiO2 
 PCOD9165831
Probable space group: P 21/M
;
_chemical_formula_sum "Si O2"
_cell_formula_units_Z 16
_cell_length_a 11.134656
_cell_length_b 14.072418
_cell_length_c 9.566361
_cell_angle_alpha 90.000000
_cell_angle_beta 26.554530
_cell_angle_gamma 90.000000
_cell_volume 670.112562
_symmetry_space_group_name_H-M "P 21/M"
_symmetry_group_IT_number 11
_symmetry_cell_setting 'monoclinic'
loop_
_space_group_symop_operation_xyz
x,y,z
-x,1/2+y,-z
-x,-y,-z
x,1/2-y,z
loop_
_atom_site_type_symbol
_atom_site_label
_atom_site_fract_x
_atom_site_fract_y
_atom_site_fract_z
Si Si1 0.476443 0.642183 0.530502
Si Si2 0.375311 0.430258 0.335383
Si Si3 0.792825 0.921415 0.773991
Si Si4 0.012001 0.419940 0.148544
O O1 0.569335 0.750000 0.410665
O O2 0.472504 0.624179 0.700361
O O3 0.203012 0.627592 0.729867
O O4 0.705305 0.575672 0.224821
O O5 0.306768 0.372863 0.265041
O O6 0.111865 0.478213 0.678732
O O7 0.550017 0.519541 0.097481
O O8 0.932296 0.869851 0.759393
O O9 0.000000 0.000000 0.500000
#
# Coordination Sequence:
#
# PCOD9165831 Si02
#       4
#     4   4   4   4
#     4  12  26  40  60  93 132 167 203 257 321 376
#     4  10  21  40  68  96 121 162 216 263 308 367
#     4   9  20  37  68  95 118 154 215 264 307 357
#     4  11  22  42  65  93 121 164 212 259 305 375
#
# _framework density 23.876586
#
# number of rings (size 3 to 8) (size 9 to 14) (size 15 to 20)
#    0.000    1.500    2.500    2.250    7.000    0.000 
#    0.000    2.500    0.000    0.000    0.000    0.000 
#    0.000    0.000    0.000    0.000    0.000    0.000 
#
# Total GULP energy -89358.031930 kJ/mol
# GULP energy per Si atom -5584.876996 kJ/mol
# Density = 2.382224 g / cm^3
# Si number density = 23.876586 Si / 1000 Ang^3
#
#
#
# Elastic Constant Matrix: (Units=GPa)
#
#
# Indices 1 2 3 4 5 6 
#
# 1 294.0469 28.4409 54.8846 0.0000 45.1929 0.0000
# 2 28.4409 41.0138 9.7292 0.0000 6.8620 0.0000
# 3 54.8846 9.7292 117.5258 0.0000 -5.2369 0.0000
# 4 0.0000 0.0000 0.0000 3.2157 0.0000 -5.2104
# 5 45.1929 6.8620 -5.2369 0.0000 54.1157 0.0000
# 6 0.0000 0.0000 0.0000 -5.2104 0.0000 2.2302
#
#
#
# Elastic Compliance Matrix: (Units=1/GPa)
#
#
# Indices 1 2 3 4 5 6 
#
# 1 0.004576 -0.002036 -0.002136 0.000000 -0.003770 0.000000
# 2 -0.002036 0.026402 -0.001314 0.000000 -0.001775 0.000000
# 3 -0.002136 -0.001314 0.009744 0.000000 0.002894 0.000000
# 4 0.000000 0.000000 0.000000 -0.111645 0.000000 -0.260830
# 5 -0.003770 -0.001775 0.002894 0.000000 0.022132 0.000000
# 6 0.000000 0.000000 0.000000 -0.260830 0.000000 -0.160978
#
#
# Mechanical properties :
#
#
# Convention : Reuss Voigt Hill
#
# Bulk Modulus (GPa) = 33.61332 70.96622 52.28977
# Shear Modulus (GPa) = -26.47191 35.88111 4.70460
#
# Velocity S-wave (km/s) = -3.33332 3.88077 1.40523
# Velocity P-wave (km/s) = 0.84037 7.06166 4.95787
#
# Compressibility (1/GPa) = 0.02975011
#
# Stress axis : x y z
#
# Youngs Moduli (GPa) = 218.53621 37.87543 102.62492
#
# Poissons Ratio (x) = 0.07710 0.21925
# Poissons Ratio (y) = 0.44485 0.13487
# Poissons Ratio (z) = 0.46689 0.04977
#
# Static dielectric constant tensor:
#      x y z
#    x 2.059270 0.000000 0.011850 
#    y 0.000000 2.219920 0.000000 
#    z 0.011850 0.000000 1.946600 
# 
# From -- ./inp_files/1684.got.cif
#   From: 2010.05.17/outbox.cif.g08.bks.cpg/sg11_1_cif.got.tgz:1684.got - 2010.06.03 12:22:45.
