data_PCOD9165973
_publ_section_title
;
Structure prediction by ZEFSAII (Michael W. Deem and Ramdas Pophale) SiO2 
 PCOD9165973
Probable space group: P 21/M
;
_chemical_formula_sum "Si O2"
_cell_formula_units_Z 20
_cell_length_a 13.298861
_cell_length_b 11.418858
_cell_length_c 7.649253
_cell_angle_alpha 90.000000
_cell_angle_beta 131.634142
_cell_angle_gamma 90.000000
_cell_volume 868.181630
_symmetry_space_group_name_H-M "P 21/M"
_symmetry_group_IT_number 11
_symmetry_cell_setting 'monoclinic'
loop_
_space_group_symop_operation_xyz
x,y,z
-x,1/2+y,-z
-x,-y,-z
x,1/2-y,z
loop_
_atom_site_type_symbol
_atom_site_label
_atom_site_fract_x
_atom_site_fract_y
_atom_site_fract_z
Si Si1 0.820364 0.120469 0.734119
Si Si2 0.638588 0.943644 0.094565
Si Si3 0.147605 0.878639 0.809025
Si Si4 0.137059 0.121060 0.404606
Si Si5 0.510924 0.376710 0.410388
O O1 0.874495 0.250000 0.741569
O O2 0.661768 0.122004 0.508814
O O3 0.874193 0.998608 0.718936
O O4 0.832038 0.113734 0.957753
O O5 0.717141 0.876914 0.337385
O O6 0.752872 0.035145 0.170265
O O7 0.596438 0.878325 0.869123
O O8 0.500000 0.000000 0.000000
O O9 0.188559 0.750000 0.797756
O O10 0.986908 0.887855 0.601981
O O11 0.118511 0.250000 0.295506
O O12 0.500000 0.500000 0.500000
O O13 0.498051 0.250000 0.492302
#
# Coordination Sequence:
#
# PCOD9165973 Si02
#       5
#     4   4   4   4   4
#     4  10  21  42  68  97 128 171 219 265 323 387
#     4  12  24  42  64  96 132 173 218 269 325 387
#     4  10  23  43  68  94 132 176 219 268 326 385
#     4  11  24  43  66 101 135 169 217 269 324 390
#     4  11  23  42  65  95 128 168 218 272 324 387
#
# _framework density 23.036653000000001
#
# number of rings (size 3 to 8) (size 9 to 14) (size 15 to 20)
#    0.000    1.200    4.000    1.800    0.000    3.200 
#    0.000    2.000    0.000    0.000    0.000    0.000 
#    0.000    0.000    0.000    0.000    0.000    0.000 
#
# Total GULP energy -111583.680834 kJ/mol
# GULP energy per Si atom -5579.184042 kJ/mol
# Density = 2.298422 g / cm^3
# Si number density = 23.036653 Si / 1000 Ang^3
#
#
#
# Elastic Constant Matrix: (Units=GPa)
#
#
# Indices 1 2 3 4 5 6 
#
# 1 61.6415 63.7905 10.4915 0.0000 20.3465 0.0000
# 2 63.7905 246.4211 20.0366 0.0000 -6.2326 0.0000
# 3 10.4915 20.0366 101.1824 0.0000 24.6217 0.0000
# 4 0.0000 0.0000 0.0000 17.9193 0.0000 1.4335
# 5 20.3465 -6.2326 24.6217 0.0000 38.4111 0.0000
# 6 0.0000 0.0000 0.0000 1.4335 0.0000 18.6874
#
#
#
# Elastic Compliance Matrix: (Units=1/GPa)
#
#
# Indices 1 2 3 4 5 6 
#
# 1 0.031726 -0.009015 0.003484 0.000000 -0.020502 0.000000
# 2 -0.009015 0.006752 -0.002169 0.000000 0.007261 0.000000
# 3 0.003484 -0.002169 0.012424 0.000000 -0.010162 0.000000
# 4 0.000000 0.000000 0.000000 0.056150 0.000000 -0.004307
# 5 -0.020502 0.007261 -0.010162 0.000000 0.044586 0.000000
# 6 0.000000 0.000000 0.000000 -0.004307 0.000000 0.053843
#
#
# Mechanical properties :
#
#
# Convention : Reuss Voigt Hill
#
# Bulk Modulus (GPa) = 28.16689 66.43136 47.29913
# Shear Modulus (GPa) = 21.48563 35.99864 28.74214
#
# Velocity S-wave (km/s) = 3.05728 3.95735 3.53607
# Velocity P-wave (km/s) = 4.97153 7.05554 6.10315
#
# Compressibility (1/GPa) = 0.03550267
#
# Stress axis : x y z
#
# Youngs Moduli (GPa) = 31.52003 148.11017 80.48854
#
# Poissons Ratio (x) = 1.33516 -0.28045
# Poissons Ratio (y) = 0.28414 0.17460
# Poissons Ratio (z) = -0.10983 0.32128
#
# Static dielectric constant tensor:
#      x y z
#    x 1.818260 0.000000 -0.025100 
#    y 0.000000 1.959060 0.000000 
#    z -0.025100 0.000000 1.916000 
# 
# From -- ./inp_files/21053.got.cif
#   From: 2010.05.17/outbox.cif.g08.bks.cpg/sg11_11_cif.got.tgz:21053.got - 2010.06.03 12:22:45.
