data_PCOD9165725
_publ_section_title
;
Structure prediction by ZEFSAII (Michael W. Deem and Ramdas Pophale) SiO2 
 PCOD9165725
Probable space group: P 21/M
;
_chemical_formula_sum "Si O2"
_cell_formula_units_Z 30
_cell_length_a 5.180759
_cell_length_b 18.107888
_cell_length_c 16.678921
_cell_angle_alpha 90.000000
_cell_angle_beta 115.825031
_cell_angle_gamma 90.000000
_cell_volume 1408.424839
_symmetry_space_group_name_H-M "P 21/M"
_symmetry_group_IT_number 11
_symmetry_cell_setting 'monoclinic'
loop_
_space_group_symop_operation_xyz
x,y,z
-x,1/2+y,-z
-x,-y,-z
x,1/2-y,z
loop_
_atom_site_type_symbol
_atom_site_label
_atom_site_fract_x
_atom_site_fract_y
_atom_site_fract_z
Si Si1 0.294917 0.124618 0.790982
Si Si2 0.826576 0.041125 0.247321
Si Si3 0.012817 0.250000 0.848868
Si Si4 0.769012 0.166245 0.525558
Si Si5 0.150585 0.449285 0.134674
Si Si6 0.748567 0.036464 0.413629
Si Si7 0.564062 0.876744 0.363769
Si Si8 0.877031 0.109812 0.939843
O O1 0.085772 0.186755 0.790909
O O2 0.469483 0.146266 0.733632
O O3 0.530994 0.113763 0.892205
O O4 0.145093 0.047995 0.749561
O O5 0.493994 0.055797 0.180228
O O6 0.867013 0.064734 0.344516
O O7 0.030529 0.070983 0.205734
O O8 0.976828 0.184311 0.911665
O O9 0.722691 0.250000 0.492289
O O10 0.630327 0.103988 0.449530
O O11 0.639283 0.156320 0.596510
O O12 0.109240 0.148896 0.573357
O O13 0.063846 0.534559 0.102702
O O14 0.010080 0.402042 0.044959
O O15 0.544879 0.966385 0.367389
O O16 0.000000 0.000000 0.500000
#
# Coordination Sequence:
#
# PCOD9165725 Si02
#       8
#     4   4   2   4   4   4   4   4
#     4  10  23  34  56  87 124 154 193 240 308 366
#     4  10  21  40  63  89 114 156 201 254 296 354
#     4  12  22  36  56  88 124 160 194 246 310 360
#     4  11  23  38  58  86 120 161 198 247 299 361
#     4  10  22  40  64  86 115 156 210 241 289 352
#     4   9  21  40  65  91 121 156 206 252 302 359
#     4  10  23  38  59  87 123 160 196 238 302 375
#     4  10  23  37  59  86 120 159 196 245 293 358
#
# _framework density 21.30039
#
# number of rings (size 3 to 8) (size 9 to 14) (size 15 to 20)
#    0.000    1.867    1.333    1.200    5.600   10.133 
#    0.000    0.000    2.933    0.000    0.000    0.000 
#    0.000    0.000    0.000    0.000    0.000    0.000 
#
# Total GULP energy -167190.585714 kJ/mol
# GULP energy per Si atom -5573.019524 kJ/mol
# Density = 2.125191 g / cm^3
# Si number density = 21.300390 Si / 1000 Ang^3
#
#
#
# Elastic Constant Matrix: (Units=GPa)
#
#
# Indices 1 2 3 4 5 6 
#
# 1 89.0197 26.6989 23.7588 0.0000 -12.9918 0.0000
# 2 26.6989 92.3671 12.1270 0.0000 -11.6383 0.0000
# 3 23.7588 12.1270 80.1903 0.0000 -8.1465 0.0000
# 4 0.0000 0.0000 0.0000 12.7563 0.0000 -21.6243
# 5 -12.9918 -11.6383 -8.1465 0.0000 28.2780 0.0000
# 6 0.0000 0.0000 0.0000 -21.6243 0.0000 10.8946
#
#
#
# Elastic Compliance Matrix: (Units=1/GPa)
#
#
# Indices 1 2 3 4 5 6 
#
# 1 0.013570 -0.002993 -0.003152 0.000000 0.004095 0.000000
# 2 -0.002993 0.012209 -0.000607 0.000000 0.003475 0.000000
# 3 -0.003152 -0.000607 0.013725 0.000000 0.002256 0.000000
# 4 0.000000 0.000000 0.000000 -0.033151 0.000000 -0.065800
# 5 0.004095 0.003475 0.002256 0.000000 0.039325 0.000000
# 6 0.000000 0.000000 0.000000 -0.065800 0.000000 -0.038816
#
#
# Mechanical properties :
#
#
# Convention : Reuss Voigt Hill
#
# Bulk Modulus (GPa) = 38.45930 42.97182 40.71556
# Shear Modulus (GPa) = 172.23130 23.65195 97.94162
#
# Velocity S-wave (km/s) = 9.00188 3.33588 6.78830
# Velocity P-wave (km/s) = 11.23121 5.92077 8.97762
#
# Compressibility (1/GPa) = 0.02600151
#
# Stress axis : x y z
#
# Youngs Moduli (GPa) = 73.69282 81.90741 72.85898
#
# Poissons Ratio (x) = 0.24512 0.22965
# Poissons Ratio (y) = 0.22054 0.04420
# Poissons Ratio (z) = 0.23227 0.04969
#
# Static dielectric constant tensor:
#      x y z
#    x 1.836000 0.000000 0.014260 
#    y 0.000000 1.730510 0.000000 
#    z 0.014260 0.000000 1.801150 
# 
# From -- ./inp_files/46060.got.cif
#   From: 2010.05.17/outbox.cif.g08.bks.cpg/sg11_24_cif.got.tgz:46060.got - 2010.06.03 12:22:45.
