data_PCOD9165467
_publ_section_title
;
Structure prediction by ZEFSAII (Michael W. Deem and Ramdas Pophale) SiO2 
 PCOD9165467
Probable space group: P 21/M
;
_chemical_formula_sum "Si O2"
_cell_formula_units_Z 28
_cell_length_a 21.058521
_cell_length_b 8.732080
_cell_length_c 14.664776
_cell_angle_alpha 90.000000
_cell_angle_beta 149.363408
_cell_angle_gamma 90.000000
_cell_volume 1374.177321
_symmetry_space_group_name_H-M "P 21/M"
_symmetry_group_IT_number 11
_symmetry_cell_setting 'monoclinic'
loop_
_space_group_symop_operation_xyz
x,y,z
-x,1/2+y,-z
-x,-y,-z
x,1/2-y,z
loop_
_atom_site_type_symbol
_atom_site_label
_atom_site_fract_x
_atom_site_fract_y
_atom_site_fract_z
Si Si1 0.540952 0.931271 0.234005
Si Si2 0.729026 0.569029 0.129398
Si Si3 0.259272 0.564987 0.378931
Si Si4 0.945651 0.072027 0.738005
Si Si5 0.636297 0.434110 0.684153
Si Si6 0.819690 0.068434 0.064226
Si Si7 0.278852 0.572818 0.684729
O O1 0.522215 0.750000 0.218101
O O2 0.630346 0.990110 0.425426
O O3 0.613341 0.974180 0.230256
O O4 0.409138 0.015516 0.070900
O O5 0.733795 0.750000 0.146484
O O6 0.820071 0.515509 0.161301
O O7 0.753990 0.488126 0.256459
O O8 0.269433 0.750000 0.401787
O O9 0.127611 0.521291 0.261497
O O10 0.278473 0.524448 0.297551
O O11 0.984500 0.250000 0.795467
O O12 0.839882 0.065526 0.528763
O O13 0.060136 0.970787 0.847494
O O14 0.500000 0.500000 0.500000
O O15 0.628265 0.250000 0.676624
O O16 0.701083 0.484084 0.857652
O O17 0.810654 0.250000 0.068061
O O18 0.319767 0.750000 0.740275
#
# Coordination Sequence:
#
# PCOD9165467 Si02
#       7
#     4   4   4   4   4   4   4
#     4  11  21  35  57  88 121 150 188 236 288 343
#     4  12  24  38  57  82 114 154 196 237 288 342
#     4   9  19  38  61  84 115 154 194 236 283 336
#     4   9  20  39  61  84 112 149 191 233 283 341
#     4  10  22  39  60  87 117 150 188 234 285 339
#     4  11  24  40  58  84 117 150 190 239 287 339
#     4  10  21  39  61  85 115 151 192 237 284 338
#
# _framework density 20.375827000000001
#
# number of rings (size 3 to 8) (size 9 to 14) (size 15 to 20)
#    0.000    1.714    0.000    5.571    0.000    8.000 
#    0.000    0.000    0.000    0.000    0.000    0.000 
#    0.000    0.000    0.000    0.000    0.000    0.000 
#
# Total GULP energy -156560.727853 kJ/mol
# GULP energy per Si atom -5591.454566 kJ/mol
# Density = 2.032945 g / cm^3
# Si number density = 20.375827 Si / 1000 Ang^3
#
#
#
# Elastic Constant Matrix: (Units=GPa)
#
#
# Indices 1 2 3 4 5 6 
#
# 1 106.1007 3.1075 6.9171 0.0000 -12.5007 0.0000
# 2 3.1075 34.5258 -0.7846 0.0000 -4.5000 0.0000
# 3 6.9171 -0.7846 12.6684 0.0000 3.6468 0.0000
# 4 0.0000 0.0000 0.0000 25.7375 0.0000 6.0021
# 5 -12.5007 -4.5000 3.6468 0.0000 29.9132 0.0000
# 6 0.0000 0.0000 0.0000 6.0021 0.0000 28.7958
#
#
#
# Elastic Compliance Matrix: (Units=1/GPa)
#
#
# Indices 1 2 3 4 5 6 
#
# 1 0.010527 -0.000432 -0.007278 0.000000 0.005222 0.000000
# 2 -0.000432 0.029565 0.000869 0.000000 0.004161 0.000000
# 3 -0.007278 0.000869 0.086850 0.000000 -0.013499 0.000000
# 4 0.000000 0.000000 0.000000 0.040839 0.000000 -0.008512
# 5 0.005222 0.004161 -0.013499 0.000000 0.037884 0.000000
# 6 0.000000 0.000000 0.000000 -0.008512 0.000000 0.036502
#
#
# Mechanical properties :
#
#
# Convention : Reuss Voigt Hill
#
# Bulk Modulus (GPa) = 8.82921 19.08609 13.95765
# Shear Modulus (GPa) = 17.02984 26.49296 21.76140
#
# Velocity S-wave (km/s) = 2.89413 3.60976 3.27157
# Velocity P-wave (km/s) = 3.93835 5.17312 4.59738
#
# Compressibility (1/GPa) = 0.11326041
#
# Stress axis : x y z
#
# Youngs Moduli (GPa) = 94.99063 33.82397 11.51406
#
# Poissons Ratio (x) = 0.01462 0.08380
# Poissons Ratio (y) = 0.04107 -0.01001
# Poissons Ratio (z) = 0.69134 -0.02940
#
# Static dielectric constant tensor:
#      x y z
#    x 1.736410 0.000000 -0.000330 
#    y 0.000000 1.677500 0.000000 
#    z -0.000330 0.000000 1.705460 
# 
# From -- ./inp_files/54625.got.cif
#   From: 2010.05.17/outbox.cif.g08.bks.cpg/sg11_28_cif.got.tgz:54625.got - 2010.06.03 12:22:45.
