data_PCOD9165126
_publ_section_title
;
Structure prediction by ZEFSAII (Michael W. Deem and Ramdas Pophale) SiO2 
 PCOD9165126
Probable space group: P 21/M
;
_chemical_formula_sum "Si O2"
_cell_formula_units_Z 28
_cell_length_a 28.402811
_cell_length_b 7.599301
_cell_length_c 9.524077
_cell_angle_alpha 90.000000
_cell_angle_beta 143.309031
_cell_angle_gamma 90.000000
_cell_volume 1228.272926
_symmetry_space_group_name_H-M "P 21/M"
_symmetry_group_IT_number 11
_symmetry_cell_setting 'monoclinic'
loop_
_space_group_symop_operation_xyz
x,y,z
-x,1/2+y,-z
-x,-y,-z
x,1/2-y,z
loop_
_atom_site_type_symbol
_atom_site_label
_atom_site_fract_x
_atom_site_fract_y
_atom_site_fract_z
Si Si1 0.671860 0.544711 0.246878
Si Si2 0.387839 0.047539 0.600274
Si Si3 0.075662 0.539427 0.775606
Si Si4 0.242675 0.959387 0.063149
Si Si5 0.977168 0.539476 0.788471
Si Si6 0.522780 0.460799 0.715639
Si Si7 0.200812 0.037495 0.654238
O O1 0.687951 0.750000 0.316408
O O2 0.636837 0.467418 0.308055
O O3 0.751743 0.470754 0.368609
O O4 0.606106 0.532295 0.968435
O O5 0.411055 0.250000 0.684881
O O6 0.458241 0.970492 0.674189
O O7 0.312016 0.043384 0.318451
O O8 0.085369 0.750000 0.804087
O O9 0.000000 0.500000 0.500000
O O10 0.046888 0.470583 0.856556
O O11 0.157673 0.470939 0.912023
O O12 0.247734 0.750000 0.098571
O O13 0.246179 0.991840 0.905564
O O14 0.973788 0.750000 0.758342
O O15 0.889030 0.471198 0.547626
O O16 0.000000 0.500000 0.000000
O O17 0.500000 0.500000 0.500000
O O18 0.525863 0.250000 0.733357
O O19 0.198035 0.250000 0.638109
#
# Coordination Sequence:
#
# PCOD9165126 Si02
#       7
#     4   4   4   4   4   4   4
#     4  10  22  40  62  88 117 151 193 237 284 340
#     4  10  23  41  61  86 118 155 191 231 285 347
#     4  10  21  38  58  83 114 151 194 240 287 338
#     4  11  23  37  58  88 117 150 195 241 286 336
#     4  10  22  38  57  83 115 151 193 239 287 341
#     4  11  23  40  63  90 118 153 192 232 284 341
#     4  10  21  39  60  83 114 154 194 235 287 345
#
# _framework density 22.796237000000001
#
# number of rings (size 3 to 8) (size 9 to 14) (size 15 to 20)
#    0.000    1.714    1.429    2.143    2.000    7.429 
#    0.000    0.000    0.000    0.000    0.000    0.000 
#    0.000    0.000    0.000    0.000    0.000    0.000 
#
# Total GULP energy -156447.303555 kJ/mol
# GULP energy per Si atom -5587.403698 kJ/mol
# Density = 2.274435 g / cm^3
# Si number density = 22.796237 Si / 1000 Ang^3
#
#
#
# Elastic Constant Matrix: (Units=GPa)
#
#
# Indices 1 2 3 4 5 6 
#
# 1 154.1212 5.8675 3.8626 0.0000 -3.2385 0.0000
# 2 5.8675 58.3806 -19.1427 0.0000 3.4990 0.0000
# 3 3.8626 -19.1427 48.5884 0.0000 -4.1700 0.0000
# 4 0.0000 0.0000 0.0000 22.3507 0.0000 -3.8755
# 5 -3.2385 3.4990 -4.1700 0.0000 45.5809 0.0000
# 6 0.0000 0.0000 0.0000 -3.8755 0.0000 14.8336
#
#
#
# Elastic Compliance Matrix: (Units=1/GPa)
#
#
# Indices 1 2 3 4 5 6 
#
# 1 0.006557 -0.000970 -0.000864 0.000000 0.000461 0.000000
# 2 -0.000970 0.019843 0.007820 0.000000 -0.000877 0.000000
# 3 -0.000864 0.007820 0.023861 0.000000 0.001521 0.000000
# 4 0.000000 0.000000 0.000000 0.046864 0.000000 0.012244
# 5 0.000461 -0.000877 0.001521 0.000000 0.022178 0.000000
# 6 0.000000 0.000000 0.000000 0.012244 0.000000 0.070614
#
#
# Mechanical properties :
#
#
# Convention : Reuss Voigt Hill
#
# Bulk Modulus (GPa) = 16.06878 26.91835 21.49356
# Shear Modulus (GPa) = 25.16493 34.58654 29.87573
#
# Velocity S-wave (km/s) = 3.32611 3.89936 3.62409
# Velocity P-wave (km/s) = 4.67064 5.66632 5.19240
#
# Compressibility (1/GPa) = 0.06223248
#
# Stress axis : x y z
#
# Youngs Moduli (GPa) = 152.51663 50.39563 41.90947
#
# Poissons Ratio (x) = 0.04888 0.03620
# Poissons Ratio (y) = 0.14792 -0.32771
# Poissons Ratio (z) = 0.13173 -0.39407
#
# Static dielectric constant tensor:
#      x y z
#    x 0.976940 0.000000 -0.057180 
#    y 0.000000 1.937790 0.000000 
#    z -0.057180 0.000000 1.783820 
# 
# From -- ./inp_files/28458.got.cif
#   From: 2010.05.17/outbox.cif.g08.bks.cpg/sg11_15_cif.got.tgz:28458.got - 2010.06.03 12:22:45.
