data_PCOD9165095
_publ_section_title
;
Structure prediction by ZEFSAII (Michael W. Deem and Ramdas Pophale) SiO2 
 PCOD9165095
Probable space group: P 21/M
;
_chemical_formula_sum "Si O2"
_cell_formula_units_Z 32
_cell_length_a 21.000848
_cell_length_b 8.847869
_cell_length_c 26.632248
_cell_angle_alpha 90.000000
_cell_angle_beta 159.079889
_cell_angle_gamma 90.000000
_cell_volume 1766.980276
_symmetry_space_group_name_H-M "P 21/M"
_symmetry_group_IT_number 11
_symmetry_cell_setting 'monoclinic'
loop_
_space_group_symop_operation_xyz
x,y,z
-x,1/2+y,-z
-x,-y,-z
x,1/2-y,z
loop_
_atom_site_type_symbol
_atom_site_label
_atom_site_fract_x
_atom_site_fract_y
_atom_site_fract_z
Si Si1 0.271643 0.426234 0.066318
Si Si2 0.681469 0.567573 0.154693
Si Si3 0.303150 0.430660 0.355644
Si Si4 0.974004 0.433045 0.770194
Si Si5 0.035525 0.567750 0.354019
Si Si6 0.043515 0.572903 0.085191
Si Si7 0.650338 0.930191 0.348640
Si Si8 0.196561 0.067902 0.645880
O O1 0.320304 0.250000 0.095825
O O2 0.448242 0.518527 0.207852
O O3 0.159374 0.475647 0.934416
O O4 0.130330 0.437400 0.007396
O O5 0.672518 0.750000 0.145924
O O6 0.709674 0.521410 0.233344
O O7 0.855736 0.520390 0.250984
O O8 0.500000 0.500000 0.000000
O O9 0.500000 0.500000 0.500000
O O10 0.310277 0.250000 0.362749
O O11 0.186520 0.493467 0.316458
O O12 0.198990 0.486217 0.229267
O O13 0.958667 0.250000 0.763468
O O14 0.971693 0.474452 0.710020
O O15 0.044414 0.750000 0.363131
O O16 0.208204 0.501866 0.508914
O O17 0.089546 0.750000 0.114161
O O18 0.000000 0.500000 0.000000
O O19 0.664204 0.750000 0.362228
O O20 0.703117 0.978092 0.330887
O O21 0.184006 0.250000 0.637064
O O22 0.000000 0.000000 0.500000
#
# Coordination Sequence:
#
# PCOD9165095 Si02
#       8
#     4   4   4   4   4   4   4   4
#     4   9  20  38  59  82 112 150 187 226 277 339
#     4  10  22  38  57  83 112 145 187 233 284 339
#     4  11  22  38  61  88 118 155 194 236 288 341
#     4   9  20  39  60  84 113 147 191 238 283 338
#     4  10  21  39  60  81 111 150 189 232 283 340
#     4  10  21  39  62  89 120 153 193 238 285 339
#     4  11  23  36  55  84 114 147 188 235 282 332
#     4  10  21  38  57  80 111 146 187 234 283 334
#
# _framework density 18.109992999999999
#
# number of rings (size 3 to 8) (size 9 to 14) (size 15 to 20)
#    0.000    2.000    1.250    2.625    1.750    5.500 
#    0.000    1.250    0.000    0.000    0.000    0.000 
#    0.000    0.000    0.000    0.000    0.000    0.000 
#
# Total GULP energy -178686.093136 kJ/mol
# GULP energy per Si atom -5583.940411 kJ/mol
# Density = 1.806877 g / cm^3
# Si number density = 18.109993 Si / 1000 Ang^3
#
#
#
# Elastic Constant Matrix: (Units=GPa)
#
#
# Indices 1 2 3 4 5 6 
#
# 1 102.0188 38.8445 67.0174 0.0000 -35.1900 0.0000
# 2 38.8445 47.5413 45.7412 0.0000 -6.7428 0.0000
# 3 67.0174 45.7412 156.4791 0.0000 -15.8165 0.0000
# 4 0.0000 0.0000 0.0000 35.9113 0.0000 -0.3175
# 5 -35.1900 -6.7428 -15.8165 0.0000 30.5927 0.0000
# 6 0.0000 0.0000 0.0000 -0.3175 0.0000 25.7873
#
#
#
# Elastic Compliance Matrix: (Units=1/GPa)
#
#
# Indices 1 2 3 4 5 6 
#
# 1 0.027179 -0.013725 -0.005037 0.000000 0.025634 0.000000
# 2 -0.013725 0.036329 -0.005833 0.000000 -0.010796 0.000000
# 3 -0.005037 -0.005833 0.010063 0.000000 -0.001877 0.000000
# 4 0.000000 0.000000 0.000000 0.027849 0.000000 0.000343
# 5 0.025634 -0.010796 -0.001877 0.000000 0.058824 0.000000
# 6 0.000000 0.000000 0.000000 0.000343 0.000000 0.038783
#
#
# Mechanical properties :
#
#
# Convention : Reuss Voigt Hill
#
# Bulk Modulus (GPa) = 41.01412 67.69393 54.35403
# Shear Modulus (GPa) = 19.50491 28.75400 24.12946
#
# Velocity S-wave (km/s) = 3.28537 3.98897 3.65414
# Velocity P-wave (km/s) = 6.08998 7.66005 6.91969
#
# Compressibility (1/GPa) = 0.02438184
#
# Stress axis : x y z
#
# Youngs Moduli (GPa) = 36.79254 27.52610 99.37121
#
# Poissons Ratio (x) = 0.37780 0.50057
# Poissons Ratio (y) = 0.50498 0.57959
# Poissons Ratio (z) = 0.18534 0.16055
#
# Static dielectric constant tensor:
#      x y z
#    x 1.632130 0.000000 -0.008240 
#    y 0.000000 1.612170 0.000000 
#    z -0.008240 0.000000 1.583710 
# 
# From -- ./inp_files/72196.got.cif
#   From: 2010.05.17/outbox.cif.g08.bks.cpg/sg11_37_cif.got.tgz:72196.got - 2010.06.03 12:22:45.
