data_PCOD9165729
_publ_section_title
;
Structure prediction by ZEFSAII (Michael W. Deem and Ramdas Pophale) SiO2 
 PCOD9165729
Probable space group: P 21/M
;
_chemical_formula_sum "Si O2"
_cell_formula_units_Z 16
_cell_length_a 5.338178
_cell_length_b 22.223284
_cell_length_c 7.029564
_cell_angle_alpha 90.000000
_cell_angle_beta 72.244262
_cell_angle_gamma 90.000000
_cell_volume 794.206109
_symmetry_space_group_name_H-M "P 21/M"
_symmetry_group_IT_number 11
_symmetry_cell_setting 'monoclinic'
loop_
_space_group_symop_operation_xyz
x,y,z
-x,1/2+y,-z
-x,-y,-z
x,1/2-y,z
loop_
_atom_site_type_symbol
_atom_site_label
_atom_site_fract_x
_atom_site_fract_y
_atom_site_fract_z
Si Si1 0.798177 0.632062 0.415957
Si Si2 0.454642 0.469895 0.307321
Si Si3 0.204996 0.930973 0.090772
Si Si4 0.349984 0.817652 0.266334
O O1 0.710581 0.589825 0.607865
O O2 0.556024 0.667958 0.384300
O O3 0.050022 0.672632 0.406648
O O4 0.913580 0.589004 0.219133
O O5 0.500000 0.500000 0.500000
O O6 0.721915 0.451834 0.136090
O O7 0.298930 0.516608 0.211168
O O8 0.370218 0.870406 0.104241
O O9 0.386194 0.750000 0.186995
#
# Coordination Sequence:
#
# PCOD9165729 Si02
#       4
#     4   4   4   4
#     4  10  21  40  63  89 125 161 203 259 308 364
#     4  11  19  41  63  97 127 157 205 257 317 373
#     4   9  23  37  63  93 126 162 200 258 312 369
#     4  10  21  42  62  85 124 168 208 256 303 363
#
# _framework density 20.145900999999999
#
# number of rings (size 3 to 8) (size 9 to 14) (size 15 to 20)
#    1.500    0.500    2.500    1.500    0.000    1.000 
#    9.000    2.500    0.000    0.000    0.000    0.000 
#    0.000    0.000    0.000    0.000    0.000    0.000 
#
# Total GULP energy -89168.943166 kJ/mol
# GULP energy per Si atom -5573.058948 kJ/mol
# Density = 2.010005 g / cm^3
# Si number density = 20.145901 Si / 1000 Ang^3
#
#
#
# Elastic Constant Matrix: (Units=GPa)
#
#
# Indices 1 2 3 4 5 6 
#
# 1 100.0517 18.4071 21.4259 0.0000 5.1281 0.0000
# 2 18.4071 93.4159 28.2222 0.0000 6.5203 0.0000
# 3 21.4259 28.2222 99.8101 0.0000 -10.1393 0.0000
# 4 0.0000 0.0000 0.0000 6.2487 0.0000 -8.4353
# 5 5.1281 6.5203 -10.1393 0.0000 16.4310 0.0000
# 6 0.0000 0.0000 0.0000 -8.4353 0.0000 11.5327
#
#
#
# Elastic Compliance Matrix: (Units=1/GPa)
#
#
# Indices 1 2 3 4 5 6 
#
# 1 0.010964 -0.001086 -0.002508 0.000000 -0.004538 0.000000
# 2 -0.001086 0.012652 -0.004076 0.000000 -0.007197 0.000000
# 3 -0.002508 -0.004076 0.012753 0.000000 0.010270 0.000000
# 4 0.000000 0.000000 0.000000 12.666135 0.000000 9.264274
# 5 -0.004538 -0.007197 0.010270 0.000000 0.071470 0.000000
# 6 0.000000 0.000000 0.000000 9.264274 0.000000 6.862793
#
#
# Mechanical properties :
#
#
# Convention : Reuss Voigt Hill
#
# Bulk Modulus (GPa) = 47.54840 47.70978 47.62909
# Shear Modulus (GPa) = 0.25433 21.85730 11.05582
#
# Velocity S-wave (km/s) = 0.35570 3.29743 2.34516
# Velocity P-wave (km/s) = 4.88077 6.18312 5.57014
#
# Compressibility (1/GPa) = 0.02103120
#
# Stress axis : x y z
#
# Youngs Moduli (GPa) = 91.20541 79.03630 78.41325
#
# Poissons Ratio (x) = 0.08584 0.19663
# Poissons Ratio (y) = 0.09906 0.31957
# Poissons Ratio (z) = 0.22871 0.32211
#
# Static dielectric constant tensor:
#      x y z
#    x 1.739960 0.000000 -0.018220 
#    y 0.000000 1.759830 0.000000 
#    z -0.018220 0.000000 1.687350 
# 
# From -- ./inp_files/441.got.cif
#   From: 2010.05.17/outbox.cif.g08.bks.cpg/sg11_1_cif.got.tgz:441.got - 2010.06.03 12:22:45.
