data_PCOD9165822
_publ_section_title
;
Structure prediction by ZEFSAII (Michael W. Deem and Ramdas Pophale) SiO2 
 PCOD9165822
Probable space group: P 21/M
;
_chemical_formula_sum "Si O2"
_cell_formula_units_Z 28
_cell_length_a 19.431181
_cell_length_b 13.366932
_cell_length_c 8.706717
_cell_angle_alpha 90.000000
_cell_angle_beta 31.228937
_cell_angle_gamma 90.000000
_cell_volume 1172.464585
_symmetry_space_group_name_H-M "P 21/M"
_symmetry_group_IT_number 11
_symmetry_cell_setting 'monoclinic'
loop_
_space_group_symop_operation_xyz
x,y,z
-x,1/2+y,-z
-x,-y,-z
x,1/2-y,z
loop_
_atom_site_type_symbol
_atom_site_label
_atom_site_fract_x
_atom_site_fract_y
_atom_site_fract_z
Si Si1 0.975340 0.870422 0.998337
Si Si2 0.457159 0.868877 0.996022
Si Si3 0.718809 0.869563 0.667068
Si Si4 0.072047 0.633941 0.472389
Si Si5 0.194219 0.431532 0.164057
Si Si6 0.757851 0.369639 0.353885
Si Si7 0.596536 0.975418 0.455608
O O1 0.970118 0.750000 0.000721
O O2 0.022475 0.898841 0.737450
O O3 0.087558 0.893745 0.912098
O O4 0.831949 0.905396 0.331924
O O5 0.464446 0.750000 0.958869
O O6 0.571460 0.898773 0.899210
O O7 0.503337 0.920822 0.754501
O O8 0.315121 0.887903 0.342830
O O9 0.723165 0.750000 0.651526
O O10 0.749353 0.899224 0.781173
O O11 0.116137 0.750000 0.392006
O O12 0.174518 0.551609 0.215736
O O13 0.945634 0.620806 0.602380
O O14 0.289346 0.407856 0.839829
O O15 0.746556 0.250000 0.342641
O O16 0.676352 0.434324 0.386399
O O17 0.500000 0.000000 0.500000
#
# Coordination Sequence:
#
# PCOD9165822 Si02
#       7
#     4   4   4   4   4   4   4
#     4   9  20  38  65  93 120 162 211 268 322 365
#     4  10  23  44  69  93 125 175 224 266 317 380
#     4  10  21  40  67  95 128 169 218 270 315 380
#     4  10  23  42  62  91 133 168 211 265 322 391
#     4  11  25  39  62  99 128 176 211 254 335 386
#     4  10  23  43  68  95 124 168 221 272 322 378
#     4  12  27  42  63  96 133 172 212 267 326 391
#
# _framework density 23.881319000000001
#
# number of rings (size 3 to 8) (size 9 to 14) (size 15 to 20)
#    0.000    1.714    0.000    2.571    8.000    4.000 
#    0.000    0.000    0.000    0.000    0.000    0.000 
#    0.000    0.000    0.000    0.000    0.000    0.000 
#
# Total GULP energy -156818.383701 kJ/mol
# GULP energy per Si atom -5600.656561 kJ/mol
# Density = 2.382696 g / cm^3
# Si number density = 23.881319 Si / 1000 Ang^3
#
#
#
# Elastic Constant Matrix: (Units=GPa)
#
#
# Indices 1 2 3 4 5 6 
#
# 1 117.8595 -0.7625 23.8957 0.0000 4.6644 0.0000
# 2 -0.7625 75.6178 12.2019 0.0000 6.3428 0.0000
# 3 23.8957 12.2019 105.3825 0.0000 2.6658 0.0000
# 4 0.0000 0.0000 0.0000 20.3129 0.0000 7.5160
# 5 4.6644 6.3428 2.6658 0.0000 41.2197 0.0000
# 6 0.0000 0.0000 0.0000 7.5160 0.0000 23.5594
#
#
#
# Elastic Compliance Matrix: (Units=1/GPa)
#
#
# Indices 1 2 3 4 5 6 
#
# 1 0.008944 0.000503 -0.002062 0.000000 -0.000956 0.000000
# 2 0.000503 0.013667 -0.001645 0.000000 -0.002054 0.000000
# 3 -0.002062 -0.001645 0.010152 0.000000 -0.000170 0.000000
# 4 0.000000 0.000000 0.000000 0.055819 0.000000 -0.017808
# 5 -0.000956 -0.002054 -0.000170 0.000000 0.024695 0.000000
# 6 0.000000 0.000000 0.000000 -0.017808 0.000000 0.048127
#
#
# Mechanical properties :
#
#
# Convention : Reuss Voigt Hill
#
# Bulk Modulus (GPa) = 37.94297 41.05891 39.50094
# Shear Modulus (GPa) = 28.31321 34.58671 31.44996
#
# Velocity S-wave (km/s) = 3.44696 3.80975 3.63289
# Velocity P-wave (km/s) = 5.63602 6.04834 5.84582
#
# Compressibility (1/GPa) = 0.02635534
#
# Stress axis : x y z
#
# Youngs Moduli (GPa) = 111.80852 73.16840 98.50710
#
# Poissons Ratio (x) = -0.03681 0.20313
# Poissons Ratio (y) = -0.05625 0.16201
# Poissons Ratio (z) = 0.23056 0.12033
#
# Static dielectric constant tensor:
#      x y z
#    x 1.880130 0.000000 -0.024830 
#    y 0.000000 1.948260 0.000000 
#    z -0.024830 0.000000 1.902480 
# 
# From -- ./inp_files/26911.got.cif
#   From: 2010.05.17/outbox.cif.g08.bks.cpg/sg11_14_cif.got.tgz:26911.got - 2010.06.03 12:22:45.
