data_PCOD9165115
_publ_section_title
;
Structure prediction by ZEFSAII (Michael W. Deem and Ramdas Pophale) SiO2 
 PCOD9165115
Probable space group: P 21/M
;
_chemical_formula_sum "Si O2"
_cell_formula_units_Z 28
_cell_length_a 29.582301
_cell_length_b 8.992764
_cell_length_c 9.305802
_cell_angle_alpha 90.000000
_cell_angle_beta 141.535825
_cell_angle_gamma 90.000000
_cell_volume 1539.880148
_symmetry_space_group_name_H-M "P 21/M"
_symmetry_group_IT_number 11
_symmetry_cell_setting 'monoclinic'
loop_
_space_group_symop_operation_xyz
x,y,z
-x,1/2+y,-z
-x,-y,-z
x,1/2-y,z
loop_
_atom_site_type_symbol
_atom_site_label
_atom_site_fract_x
_atom_site_fract_y
_atom_site_fract_z
Si Si1 0.933667 0.423860 0.755289
Si Si2 0.501053 0.427510 0.345683
Si Si3 0.772587 0.429555 0.328043
Si Si4 0.221719 0.072324 0.970528
Si Si5 0.647606 0.428219 0.534535
Si Si6 0.931826 0.074606 0.406875
Si Si7 0.370321 0.572021 0.844317
O O1 0.936699 0.250000 0.797987
O O2 0.851541 0.476523 0.585341
O O3 0.940673 0.440960 0.600946
O O4 0.000000 0.500000 0.000000
O O5 0.500000 0.500000 0.500000
O O6 0.495343 0.250000 0.344938
O O7 0.576489 0.461662 0.452265
O O8 0.434733 0.489334 0.086520
O O9 0.775751 0.250000 0.311793
O O10 0.761934 0.507515 0.147988
O O11 0.706208 0.461154 0.268573
O O12 0.219048 0.250000 0.959669
O O13 0.143523 0.005670 0.819607
O O14 0.283938 0.014157 0.231112
O O15 0.661030 0.250000 0.576197
O O16 0.633246 0.466252 0.332637
O O17 0.927348 0.250000 0.362633
O O18 0.000000 0.000000 0.500000
O O19 0.382274 0.750000 0.885583
#
# Coordination Sequence:
#
# PCOD9165115 Si02
#       7
#     4   4   4   4   4   4   4
#     4   9  19  34  53  79 110 142 180 225 274 328
#     4  11  23  38  58  83 113 148 187 229 277 332
#     4   9  19  37  57  78 107 144 183 226 276 333
#     4  11  22  36  57  84 111 145 188 230 273 327
#     4  10  22  39  57  81 114 150 183 225 281 335
#     4  10  21  38  58  82 113 148 187 231 278 330
#     4  10  21  38  60  83 109 143 185 230 282 335
#
# _framework density 18.183233999999999
#
# number of rings (size 3 to 8) (size 9 to 14) (size 15 to 20)
#    0.000    2.000    0.000    4.286    0.000    9.714 
#    0.000    1.429    0.000    0.000    0.000    0.000 
#    0.000    0.000    0.000    0.000    0.000    0.000 
#
# Total GULP energy -156401.296944 kJ/mol
# GULP energy per Si atom -5585.760605 kJ/mol
# Density = 1.814185 g / cm^3
# Si number density = 18.183234 Si / 1000 Ang^3
#
#
#
# Elastic Constant Matrix: (Units=GPa)
#
#
# Indices 1 2 3 4 5 6 
#
# 1 146.5020 75.5201 87.0790 0.0000 15.9922 0.0000
# 2 75.5201 79.2809 86.6008 0.0000 10.4314 0.0000
# 3 87.0790 86.6008 181.5963 0.0000 12.2310 0.0000
# 4 0.0000 0.0000 0.0000 39.9247 0.0000 1.5121
# 5 15.9922 10.4314 12.2310 0.0000 22.8944 0.0000
# 6 0.0000 0.0000 0.0000 1.5121 0.0000 26.3649
#
#
#
# Elastic Compliance Matrix: (Units=1/GPa)
#
#
# Indices 1 2 3 4 5 6 
#
# 1 0.013766 -0.011855 -0.000689 0.000000 -0.003847 0.000000
# 2 -0.011855 0.037218 -0.011908 0.000000 -0.002315 0.000000
# 3 -0.000689 -0.011908 0.011533 0.000000 -0.000254 0.000000
# 4 0.000000 0.000000 0.000000 0.025102 0.000000 -0.001440
# 5 -0.003847 -0.002315 -0.000254 0.000000 0.047557 0.000000
# 6 0.000000 0.000000 0.000000 -0.001440 0.000000 0.038012
#
#
# Mechanical properties :
#
#
# Convention : Reuss Voigt Hill
#
# Bulk Modulus (GPa) = 73.45473 100.64212 87.04842
# Shear Modulus (GPa) = 22.06254 28.38208 25.22231
#
# Velocity S-wave (km/s) = 3.48709 3.95510 3.72844
# Velocity P-wave (km/s) = 7.52979 8.73648 8.15548
#
# Compressibility (1/GPa) = 0.01361383
#
# Stress axis : x y z
#
# Youngs Moduli (GPa) = 72.64271 26.86864 86.70743
#
# Poissons Ratio (x) = 0.31852 0.05971
# Poissons Ratio (y) = 0.86115 1.03254
# Poissons Ratio (z) = 0.05003 0.31996
#
# Static dielectric constant tensor:
#      x y z
#    x 1.613890 0.000000 0.008000 
#    y 0.000000 1.610840 0.000000 
#    z 0.008000 0.000000 1.596350 
# 
# From -- ./inp_files/28643.got.cif
#   From: 2010.05.17/outbox.cif.g08.bks.cpg/sg11_15_cif.got.tgz:28643.got - 2010.06.03 12:22:45.
