data_PCOD9165286
_publ_section_title
;
Structure prediction by ZEFSAII (Michael W. Deem and Ramdas Pophale) SiO2 
 PCOD9165286
Probable space group: P 21/M
;
_chemical_formula_sum "Si O2"
_cell_formula_units_Z 32
_cell_length_a 12.351301
_cell_length_b 8.415121
_cell_length_c 31.517189
_cell_angle_alpha 90.000000
_cell_angle_beta 152.250206
_cell_angle_gamma 90.000000
_cell_volume 1525.260749
_symmetry_space_group_name_H-M "P 21/M"
_symmetry_group_IT_number 11
_symmetry_cell_setting 'monoclinic'
loop_
_space_group_symop_operation_xyz
x,y,z
-x,1/2+y,-z
-x,-y,-z
x,1/2-y,z
loop_
_atom_site_type_symbol
_atom_site_label
_atom_site_fract_x
_atom_site_fract_y
_atom_site_fract_z
Si Si1 0.133886 0.063061 0.485932
Si Si2 0.547278 0.059465 0.107340
Si Si3 0.838822 0.436215 0.084666
Si Si4 0.648552 0.068211 0.354770
Si Si5 0.510269 0.441418 0.455350
Si Si6 0.758840 0.069553 0.828696
Si Si7 0.964850 0.556197 0.756443
Si Si8 0.265631 0.059446 0.091964
O O1 0.174885 0.250000 0.508454
O O2 0.857421 0.040676 0.394050
O O3 0.244565 0.959500 0.561983
O O4 0.260461 0.011539 0.487258
O O5 0.550331 0.250000 0.110726
O O6 0.813980 0.006813 0.195413
O O7 0.413040 0.001000 0.102752
O O8 0.398339 0.014661 0.014051
O O9 0.795667 0.250000 0.075137
O O10 0.962032 0.496281 0.170601
O O11 0.023589 0.467170 0.111225
O O12 0.564144 0.250000 0.321625
O O13 0.439006 0.949418 0.274886
O O14 0.500000 0.500000 0.500000
O O15 0.517160 0.250000 0.456734
O O16 0.281992 0.494231 0.348833
O O17 0.837758 0.250000 0.861588
O O18 0.645634 0.004593 0.832407
O O19 0.956020 0.750000 0.754580
O O20 0.267585 0.250000 0.092416
O O21 0.000000 0.000000 0.000000
#
# Coordination Sequence:
#
# PCOD9165286 Si02
#       8
#     4   4   4   4   4   4   4   4
#     4  10  21  39  63  90 121 156 197 247 306 369
#     4  10  21  39  61  85 117 157 199 243 297 356
#     4  11  21  36  61  89 120 156 197 246 301 359
#     4  10  21  38  61  90 122 156 197 249 307 363
#     4  11  23  41  64  88 121 162 205 255 308 365
#     4  12  24  37  57  86 121 160 204 249 294 353
#     4   9  21  40  61  87 117 154 197 243 299 362
#     4  11  22  37  58  82 116 157 196 239 292 352
#
# _framework density 20.98002
#
# number of rings (size 3 to 8) (size 9 to 14) (size 15 to 20)
#    0.000    1.500    1.250    4.125    0.000    4.000 
#    0.000    6.250    0.000    0.000    0.000    0.000 
#    0.000    0.000    0.000    0.000    0.000    0.000 
#
# Total GULP energy -178768.899324 kJ/mol
# GULP energy per Si atom -5586.528104 kJ/mol
# Density = 2.093227 g / cm^3
# Si number density = 20.980020 Si / 1000 Ang^3
#
#
#
# Elastic Constant Matrix: (Units=GPa)
#
#
# Indices 1 2 3 4 5 6 
#
# 1 98.7134 -3.7680 -10.0541 0.0000 9.1398 0.0000
# 2 -3.7680 22.1147 -1.4995 0.0000 10.5043 0.0000
# 3 -10.0541 -1.4995 31.3455 0.0000 2.2957 0.0000
# 4 0.0000 0.0000 0.0000 28.3342 0.0000 -5.8789
# 5 9.1398 10.5043 2.2957 0.0000 20.7749 0.0000
# 6 0.0000 0.0000 0.0000 -5.8789 0.0000 23.0551
#
#
#
# Elastic Compliance Matrix: (Units=1/GPa)
#
#
# Indices 1 2 3 4 5 6 
#
# 1 0.011696 0.006588 0.004726 0.000000 -0.008999 0.000000
# 2 0.006588 0.064039 0.007823 0.000000 -0.036142 0.000000
# 3 0.004726 0.007823 0.034514 0.000000 -0.009849 0.000000
# 4 0.000000 0.000000 0.000000 0.037265 0.000000 0.009502
# 5 -0.008999 -0.036142 -0.009849 0.000000 0.071457 0.000000
# 6 0.000000 0.000000 0.000000 0.009502 0.000000 0.045797
#
#
# Mechanical properties :
#
#
# Convention : Reuss Voigt Hill
#
# Bulk Modulus (GPa) = 6.73298 13.50339 10.11818
# Shear Modulus (GPa) = 18.11585 25.59919 21.85752
#
# Velocity S-wave (km/s) = 2.94169 3.49688 3.23123
# Velocity P-wave (km/s) = 3.84113 4.77017 4.33064
#
# Compressibility (1/GPa) = 0.14852269
#
# Stress axis : x y z
#
# Youngs Moduli (GPa) = 85.49695 15.61554 28.97387
#
# Poissons Ratio (x) = -0.10287 -0.13692
# Poissons Ratio (y) = -0.56322 -0.22667
# Poissons Ratio (z) = -0.40404 -0.12217
#
# Static dielectric constant tensor:
#      x y z
#    x 1.797370 0.000000 -0.052460 
#    y 0.000000 1.763950 0.000000 
#    z -0.052460 0.000000 1.839520 
# 
# From -- ./inp_files/73198.got.cif
#   From: 2010.05.17/outbox.cif.g08.bks.cpg/sg11_37_cif.got.tgz:73198.got - 2010.06.03 12:22:45.
