data_PCOD9165676
_publ_section_title
;
Structure prediction by ZEFSAII (Michael W. Deem and Ramdas Pophale) SiO2 
 PCOD9165676
Probable space group: P 21/M
;
_chemical_formula_sum "Si O2"
_cell_formula_units_Z 30
_cell_length_a 15.177285
_cell_length_b 7.607938
_cell_length_c 12.695656
_cell_angle_alpha 90.000000
_cell_angle_beta 61.603416
_cell_angle_gamma 90.000000
_cell_volume 1289.553612
_symmetry_space_group_name_H-M "P 21/M"
_symmetry_group_IT_number 11
_symmetry_cell_setting 'monoclinic'
loop_
_space_group_symop_operation_xyz
x,y,z
-x,1/2+y,-z
-x,-y,-z
x,1/2-y,z
loop_
_atom_site_type_symbol
_atom_site_label
_atom_site_fract_x
_atom_site_fract_y
_atom_site_fract_z
Si Si1 0.072916 0.036642 0.234847
Si Si2 0.242070 0.039547 0.985445
Si Si3 0.611708 0.957697 0.901256
Si Si4 0.220850 0.035984 0.340576
Si Si5 0.487710 0.050116 0.687345
Si Si6 0.848694 0.045530 0.385472
Si Si7 0.373011 0.750000 0.829636
Si Si8 0.360145 0.048220 0.558083
O O1 0.070920 0.250000 0.241613
O O2 0.132833 0.995234 0.093959
O O3 0.139537 0.983355 0.297835
O O4 0.959618 0.971313 0.305689
O O5 0.247083 0.250000 0.959530
O O6 0.315243 0.996644 0.042958
O O7 0.286314 0.906831 0.875782
O O8 0.616695 0.750000 0.889453
O O9 0.670555 0.028095 0.764616
O O10 0.500000 0.000000 0.000000
O O11 0.223378 0.250000 0.345650
O O12 0.183742 0.972360 0.474302
O O13 0.464006 0.250000 0.731754
O O14 0.416389 0.984092 0.630239
O O15 0.461735 0.904543 0.786475
O O16 0.595423 0.045346 0.570073
O O17 0.850959 0.250000 0.356293
O O18 0.758276 0.963448 0.371110
O O19 0.390633 0.250000 0.529645
#
# Coordination Sequence:
#
# PCOD9165676 Si02
#       8
#     4   4   4   4   4   4   2   4
#     4   8  17  37  58  78 115 163 200 245 297 341
#     4   9  20  39  57  83 117 152 203 251 286 344
#     4   9  19  34  53  72 110 162 195 239 294 336
#     4   9  18  35  52  75 116 157 200 243 289 346
#     4  10  22  40  64  90 121 154 186 243 298 361
#     4  11  21  32  56  90 116 154 196 249 297 353
#     4  12  22  36  64  94 110 150 200 238 290 358
#     4  10  21  40  60  87 122 154 191 232 302 367
#
# _framework density 23.263863000000001
#
# number of rings (size 3 to 8) (size 9 to 14) (size 15 to 20)
#    0.000    2.400    0.667    3.200    2.800    1.600 
#    8.400    1.333    0.000    0.800    0.000    0.000 
#    0.000    0.000    0.000    0.000    0.000    0.000 
#
# Total GULP energy -167049.694170 kJ/mol
# GULP energy per Si atom -5568.323139 kJ/mol
# Density = 2.321091 g / cm^3
# Si number density = 23.263863 Si / 1000 Ang^3
#
#
#
# Elastic Constant Matrix: (Units=GPa)
#
#
# Indices 1 2 3 4 5 6 
#
# 1 84.4167 2.4966 36.5257 0.0000 -40.6827 0.0000
# 2 2.4966 68.7087 23.9231 0.0000 -0.7191 0.0000
# 3 36.5257 23.9231 118.9871 0.0000 -42.3348 0.0000
# 4 0.0000 0.0000 0.0000 9.6736 0.0000 -15.5192
# 5 -40.6827 -0.7191 -42.3348 0.0000 46.5750 0.0000
# 6 0.0000 0.0000 0.0000 -15.5192 0.0000 12.8276
#
#
#
# Elastic Compliance Matrix: (Units=1/GPa)
#
#
# Indices 1 2 3 4 5 6 
#
# 1 0.020486 -0.000661 0.000306 0.000000 0.018163 0.000000
# 2 -0.000661 0.016158 -0.004674 0.000000 -0.004576 0.000000
# 3 0.000306 -0.004674 0.013774 0.000000 0.012716 0.000000
# 4 0.000000 0.000000 0.000000 -0.109868 0.000000 -0.132920
# 5 0.018163 -0.004576 0.012716 0.000000 0.048823 0.000000
# 6 0.000000 0.000000 0.000000 -0.132920 0.000000 -0.082853
#
#
# Mechanical properties :
#
#
# Convention : Reuss Voigt Hill
#
# Bulk Modulus (GPa) = 24.77654 44.22260 34.49957
# Shear Modulus (GPa) = -71.45923 27.75971 -21.84976
#
# Velocity S-wave (km/s) = -5.54829 3.45810 -3.06799
# Velocity P-wave (km/s) = 5.51102 5.91566 1.52047
#
# Compressibility (1/GPa) = 0.04036077
#
# Stress axis : x y z
#
# Youngs Moduli (GPa) = 48.81370 61.88998 72.60028
#
# Poissons Ratio (x) = 0.04091 -0.02224
# Poissons Ratio (y) = 0.03227 0.33933
# Poissons Ratio (z) = -0.01496 0.28927
#
# Static dielectric constant tensor:
#      x y z
#    x 1.864080 0.000000 0.019420 
#    y 0.000000 1.912060 0.000000 
#    z 0.019420 0.000000 2.009710 
# 
# From -- ./inp_files/53073.got.cif
#   From: 2010.05.17/outbox.cif.g08.bks.cpg/sg11_27_cif.got.tgz:53073.got - 2010.06.03 12:22:45.
