data_PCOD9165157
_publ_section_title
;
Structure prediction by ZEFSAII (Michael W. Deem and Ramdas Pophale) SiO2 
 PCOD9165157
Probable space group: P 21/M
;
_chemical_formula_sum "Si O2"
_cell_formula_units_Z 28
_cell_length_a 12.056146
_cell_length_b 8.610735
_cell_length_c 15.592643
_cell_angle_alpha 90.000000
_cell_angle_beta 64.548228
_cell_angle_gamma 90.000000
_cell_volume 1461.607901
_symmetry_space_group_name_H-M "P 21/M"
_symmetry_group_IT_number 11
_symmetry_cell_setting 'monoclinic'
loop_
_space_group_symop_operation_xyz
x,y,z
-x,1/2+y,-z
-x,-y,-z
x,1/2-y,z
loop_
_atom_site_type_symbol
_atom_site_label
_atom_site_fract_x
_atom_site_fract_y
_atom_site_fract_z
Si Si1 0.453100 0.064425 0.683684
Si Si2 0.307104 0.433774 0.468156
Si Si3 0.784885 0.066340 0.322562
Si Si4 0.947355 0.062943 0.769819
Si Si5 0.886068 0.063866 0.592730
Si Si6 0.484376 0.437106 0.869435
Si Si7 0.694368 0.062448 0.931279
O O1 0.469257 0.250000 0.672367
O O2 0.478966 0.013123 0.772777
O O3 0.552119 0.983488 0.589309
O O4 0.316744 0.018678 0.701130
O O5 0.295682 0.250000 0.483008
O O6 0.244124 0.516178 0.570048
O O7 0.235169 0.489048 0.407292
O O8 0.771237 0.250000 0.318628
O O9 0.922801 0.015023 0.254839
O O10 0.961543 0.250000 0.770531
O O11 0.908158 0.027291 0.684856
O O12 0.833947 0.014267 0.867454
O O13 0.878435 0.250000 0.586819
O O14 0.000000 0.000000 0.500000
O O15 0.482335 0.250000 0.870509
O O16 0.606547 0.486173 0.880809
O O17 0.369491 0.497778 0.962586
O O18 0.692000 0.250000 0.934893
#
# Coordination Sequence:
#
# PCOD9165157 Si02
#       7
#     4   4   4   4   4   4   4
#     4  11  23  41  62  83 113 152 196 241 290 345
#     4  12  24  39  59  85 117 154 196 240 291 344
#     4  12  25  40  58  82 115 153 197 243 289 344
#     4  10  21  38  59  84 118 157 194 234 288 345
#     4  11  21  35  57  85 118 153 192 235 285 339
#     4   9  19  37  61  89 117 147 183 233 290 343
#     4   9  18  35  61  90 118 148 183 230 286 344
#
# _framework density 19.156986
#
# number of rings (size 3 to 8) (size 9 to 14) (size 15 to 20)
#    0.000    1.429    1.429    4.714    0.000    4.571 
#    0.000    3.571    0.000    0.000    0.000    0.000 
#    0.000    0.000    0.000    0.000    0.000    0.000 
#
# Total GULP energy -156545.198831 kJ/mol
# GULP energy per Si atom -5590.899958 kJ/mol
# Density = 1.911338 g / cm^3
# Si number density = 19.156986 Si / 1000 Ang^3
#
#
#
# Elastic Constant Matrix: (Units=GPa)
#
#
# Indices 1 2 3 4 5 6 
#
# 1 70.7399 -7.5871 24.4424 0.0000 -19.3911 0.0000
# 2 -7.5871 18.2734 -0.1261 0.0000 -1.3448 0.0000
# 3 24.4424 -0.1261 54.3408 0.0000 -28.0806 0.0000
# 4 0.0000 0.0000 0.0000 25.6740 0.0000 -5.2355
# 5 -19.3911 -1.3448 -28.0806 0.0000 31.6003 0.0000
# 6 0.0000 0.0000 0.0000 -5.2355 0.0000 33.4357
#
#
#
# Elastic Compliance Matrix: (Units=1/GPa)
#
#
# Indices 1 2 3 4 5 6 
#
# 1 0.018703 0.008331 -0.004215 0.000000 0.008086 0.000000
# 2 0.008331 0.058787 0.000598 0.000000 0.008146 0.000000
# 3 -0.004215 0.000598 0.035089 0.000000 0.028620 0.000000
# 4 0.000000 0.000000 0.000000 0.040235 0.000000 0.006300
# 5 0.008086 0.008146 0.028620 0.000000 0.062386 0.000000
# 6 0.000000 0.000000 0.000000 0.006300 0.000000 0.030895
#
#
# Mechanical properties :
#
#
# Convention : Reuss Voigt Hill
#
# Bulk Modulus (GPa) = 8.19615 19.64585 13.92100
# Shear Modulus (GPa) = 18.02886 26.58365 22.30626
#
# Velocity S-wave (km/s) = 3.07108 3.72919 3.41602
# Velocity P-wave (km/s) = 4.10647 5.36842 4.77928
#
# Compressibility (1/GPa) = 0.12200856
#
# Stress axis : x y z
#
# Youngs Moduli (GPa) = 53.46846 17.01052 28.49912
#
# Poissons Ratio (x) = -0.14172 0.12011
# Poissons Ratio (y) = -0.44546 -0.01705
# Poissons Ratio (z) = 0.22535 -0.01018
#
# Static dielectric constant tensor:
#      x y z
#    x 1.656120 0.000000 0.004540 
#    y 0.000000 1.644340 0.000000 
#    z 0.004540 0.000000 1.647430 
# 
# From -- ./inp_files/37930.got.cif
#   From: 2010.05.17/outbox.cif.g08.bks.cpg/sg11_19_cif.got.tgz:37930.got - 2010.06.03 12:22:45.
