data_PCOD9165936
_publ_section_title
;
Structure prediction by ZEFSAII (Michael W. Deem and Ramdas Pophale) SiO2 
 PCOD9165936
Probable space group: P 21/M
;
_chemical_formula_sum "Si O2"
_cell_formula_units_Z 28
_cell_length_a 13.178301
_cell_length_b 20.211393
_cell_length_c 5.201768
_cell_angle_alpha 90.000000
_cell_angle_beta 102.693518
_cell_angle_gamma 90.000000
_cell_volume 1351.637930
_symmetry_space_group_name_H-M "P 21/M"
_symmetry_group_IT_number 11
_symmetry_cell_setting 'monoclinic'
loop_
_space_group_symop_operation_xyz
x,y,z
-x,1/2+y,-z
-x,-y,-z
x,1/2-y,z
loop_
_atom_site_type_symbol
_atom_site_label
_atom_site_fract_x
_atom_site_fract_y
_atom_site_fract_z
Si Si1 0.695988 0.671717 0.420367
Si Si2 0.022209 0.442089 0.716402
Si Si3 0.165660 0.888642 0.114165
Si Si4 0.349169 0.521880 0.010936
Si Si5 0.236047 0.103113 0.061424
Si Si6 0.094825 0.825900 0.562813
Si Si7 0.557182 0.948046 0.348904
O O1 0.681563 0.750000 0.434252
O O2 0.730003 0.651013 0.152361
O O3 0.594077 0.626369 0.419691
O O4 0.774603 0.644388 0.683147
O O5 0.069372 0.561799 0.121511
O O6 0.133916 0.435094 0.907669
O O7 0.000000 0.500000 0.500000
O O8 0.002135 0.373328 0.551793
O O9 0.263023 0.927515 0.056997
O O10 0.130740 0.838807 0.871928
O O11 0.178136 0.852120 0.395670
O O12 0.323536 0.453992 0.152663
O O13 0.347880 0.489877 0.725737
O O14 0.460898 0.557137 0.091590
O O15 0.071574 0.750000 0.504005
O O16 0.500000 0.000000 0.500000
#
# Coordination Sequence:
#
# PCOD9165936 Si02
#       7
#     4   4   4   4   4   4   4
#     4  11  25  44  64  96 135 175 224 279 341 417
#     4  10  25  41  67 102 134 176 230 281 330 391
#     4  10  24  40  67  93 133 171 224 280 328 405
#     4  10  22  39  67  98 126 167 223 277 344 399
#     4  11  24  40  66  96 132 175 219 274 341 401
#     4  10  23  42  60  87 133 181 220 270 333 400
#     4  10  21  41  70  95 127 171 221 284 347 403
#
# _framework density 20.715608
#
# number of rings (size 3 to 8) (size 9 to 14) (size 15 to 20)
#    0.857    0.857    1.429    1.714    6.000    2.286 
#    0.000    1.429    0.000    0.000    0.000    0.000 
#    0.000    0.000    0.000    0.000    0.000    0.000 
#
# Total GULP energy -155923.892025 kJ/mol
# GULP energy per Si atom -5568.710429 kJ/mol
# Density = 2.066846 g / cm^3
# Si number density = 20.715608 Si / 1000 Ang^3
#
#
#
# Elastic Constant Matrix: (Units=GPa)
#
#
# Indices 1 2 3 4 5 6 
#
# 1 87.3296 47.2091 16.9907 0.0000 -1.0894 0.0000
# 2 47.2091 166.5023 40.7703 0.0000 5.2825 0.0000
# 3 16.9907 40.7703 79.7361 0.0000 -12.0200 0.0000
# 4 0.0000 0.0000 0.0000 30.3727 0.0000 -1.9165
# 5 -1.0894 5.2825 -12.0200 0.0000 29.0174 0.0000
# 6 0.0000 0.0000 0.0000 -1.9165 0.0000 20.9621
#
#
#
# Elastic Compliance Matrix: (Units=1/GPa)
#
#
# Indices 1 2 3 4 5 6 
#
# 1 0.013618 -0.003665 -0.000907 0.000000 0.000803 0.000000
# 2 -0.003665 0.008086 -0.003836 0.000000 -0.003198 0.000000
# 3 -0.000907 -0.003836 0.015781 0.000000 0.007201 0.000000
# 4 0.000000 0.000000 0.000000 0.033115 0.000000 0.003028
# 5 0.000803 -0.003198 0.007201 0.000000 0.038058 0.000000
# 6 0.000000 0.000000 0.000000 0.003028 0.000000 0.047982
#
#
# Mechanical properties :
#
#
# Convention : Reuss Voigt Hill
#
# Bulk Modulus (GPa) = 48.37731 60.38980 54.38356
# Shear Modulus (GPa) = 27.72458 31.31029 29.51744
#
# Velocity S-wave (km/s) = 3.66231 3.89193 3.77886
# Velocity P-wave (km/s) = 6.42550 7.02932 6.73418
#
# Compressibility (1/GPa) = 0.02067085
#
# Stress axis : x y z
#
# Youngs Moduli (GPa) = 73.42998 123.67624 63.36555
#
# Poissons Ratio (x) = 0.45323 0.05748
# Poissons Ratio (y) = 0.26909 0.24304
# Poissons Ratio (z) = 0.06661 0.47437
#
# Static dielectric constant tensor:
#      x y z
#    x 1.784170 0.000000 0.020130 
#    y 0.000000 1.730890 0.000000 
#    z 0.020130 0.000000 1.895880 
# 
# From -- ./inp_files/6703.got.cif
#   From: 2010.05.17/outbox.cif.g08.bks.cpg/sg11_4_cif.got.tgz:6703.got - 2010.06.03 12:22:45.
