data_PCOD9165290
_publ_section_title
;
Structure prediction by ZEFSAII (Michael W. Deem and Ramdas Pophale) SiO2 
 PCOD9165290
Probable space group: P 21/M
;
_chemical_formula_sum "Si O2"
_cell_formula_units_Z 32
_cell_length_a 12.681566
_cell_length_b 18.504447
_cell_length_c 9.834832
_cell_angle_alpha 90.000000
_cell_angle_beta 130.463635
_cell_angle_gamma 90.000000
_cell_volume 1755.887663
_symmetry_space_group_name_H-M "P 21/M"
_symmetry_group_IT_number 11
_symmetry_cell_setting 'monoclinic'
loop_
_space_group_symop_operation_xyz
x,y,z
-x,1/2+y,-z
-x,-y,-z
x,1/2-y,z
loop_
_atom_site_type_symbol
_atom_site_label
_atom_site_fract_x
_atom_site_fract_y
_atom_site_fract_z
Si Si1 0.874928 0.669552 0.645767
Si Si2 0.114823 0.475491 0.490005
Si Si3 0.605785 0.558572 0.144140
Si Si4 0.855696 0.332699 0.937698
Si Si5 0.406634 0.164551 0.417876
Si Si6 0.987214 0.055122 0.862862
Si Si7 0.689533 0.580438 0.919245
Si Si8 0.411268 0.915691 0.216707
O O1 0.864383 0.750000 0.579564
O O2 0.894199 0.609395 0.549117
O O3 0.737239 0.655408 0.618926
O O4 0.006261 0.666247 0.855372
O O5 0.267295 0.483473 0.679203
O O6 0.085789 0.516087 0.324590
O O7 0.000000 0.500000 0.500000
O O8 0.521071 0.601409 0.188484
O O9 0.500000 0.500000 0.000000
O O10 0.657704 0.597177 0.050543
O O11 0.818889 0.250000 0.877422
O O12 0.895426 0.378217 0.837873
O O13 0.732127 0.372400 0.913240
O O14 0.443602 0.250000 0.453720
O O15 0.375832 0.137161 0.240316
O O16 0.517725 0.112936 0.585446
O O17 0.144240 0.077034 0.958237
O O18 0.000000 0.000000 0.000000
O O19 0.627949 0.500787 0.826652
#
# Coordination Sequence:
#
# PCOD9165290 Si02
#       8
#     4   4   4   4   4   4   4   4
#     4  10  21  38  61  90 123 160 208 257 310 371
#     4  12  22  39  65  95 124 164 212 263 309 372
#     4  10  24  40  58  93 127 162 207 257 312 370
#     4  11  23  39  63  93 127 163 207 263 316 373
#     4  11  22  38  62  92 125 160 208 264 316 370
#     4  12  21  37  66  97 123 158 216 264 315 366
#     4  11  21  39  62  93 124 162 209 264 316 369
#     4  11  22  39  63  90 127 165 212 256 312 385
#
# _framework density 18.224399999999999
#
# number of rings (size 3 to 8) (size 9 to 14) (size 15 to 20)
#    0.000    1.000    6.250    0.750    1.750    2.000 
#    0.000    2.500    0.000    0.000    0.000    0.000 
#    0.000    0.000    0.000    0.000    0.000    0.000 
#
# Total GULP energy -178618.774333 kJ/mol
# GULP energy per Si atom -5581.836698 kJ/mol
# Density = 1.818292 g / cm^3
# Si number density = 18.224400 Si / 1000 Ang^3
#
#
#
# Elastic Constant Matrix: (Units=GPa)
#
#
# Indices 1 2 3 4 5 6 
#
# 1 97.7452 25.9630 21.3022 0.0000 -2.8787 0.0000
# 2 25.9630 76.7518 22.3386 0.0000 -4.9936 0.0000
# 3 21.3022 22.3386 104.0928 0.0000 -1.2645 0.0000
# 4 0.0000 0.0000 0.0000 13.7267 0.0000 -5.6526
# 5 -2.8787 -4.9936 -1.2645 0.0000 33.1548 0.0000
# 6 0.0000 0.0000 0.0000 -5.6526 0.0000 19.0499
#
#
#
# Elastic Compliance Matrix: (Units=1/GPa)
#
#
# Indices 1 2 3 4 5 6 
#
# 1 0.011497 -0.003390 -0.001620 0.000000 0.000426 0.000000
# 2 -0.003390 0.015028 -0.002509 0.000000 0.001873 0.000000
# 3 -0.001620 -0.002509 0.010475 0.000000 -0.000119 0.000000
# 4 0.000000 0.000000 0.000000 0.082992 0.000000 0.024626
# 5 0.000426 0.001873 -0.000119 0.000000 0.030476 0.000000
# 6 0.000000 0.000000 0.000000 0.024626 0.000000 0.059801
#
#
# Mechanical properties :
#
#
# Convention : Reuss Voigt Hill
#
# Bulk Modulus (GPa) = 45.53156 46.42194 45.97675
# Shear Modulus (GPa) = 21.49370 27.11867 24.30619
#
# Velocity S-wave (km/s) = 3.43795 3.86170 3.65597
# Velocity P-wave (km/s) = 6.38729 6.73879 6.56539
#
# Compressibility (1/GPa) = 0.02196279
#
# Stress axis : x y z
#
# Youngs Moduli (GPa) = 86.98151 66.54394 95.46308
#
# Poissons Ratio (x) = 0.22557 0.15466
# Poissons Ratio (y) = 0.29485 0.23947
# Poissons Ratio (z) = 0.14092 0.16693
#
# Static dielectric constant tensor:
#      x y z
#    x 1.632540 0.000000 -0.010200 
#    y 0.000000 1.627820 0.000000 
#    z -0.010200 0.000000 1.625030 
# 
# From -- ./inp_files/19363.got.cif
#   From: 2010.05.17/outbox.cif.g08.bks.cpg/sg11_10_cif.got.tgz:19363.got - 2010.06.03 12:22:45.
