data_PCOD9165235
_publ_section_title
;
Structure prediction by ZEFSAII (Michael W. Deem and Ramdas Pophale) SiO2 
 PCOD9165235
Probable space group: P 21/M
;
_chemical_formula_sum "Si O2"
_cell_formula_units_Z 28
_cell_length_a 11.105192
_cell_length_b 8.833320
_cell_length_c 14.907708
_cell_angle_alpha 90.000000
_cell_angle_beta 67.552501
_cell_angle_gamma 90.000000
_cell_volume 1351.577277
_symmetry_space_group_name_H-M "P 21/M"
_symmetry_group_IT_number 11
_symmetry_cell_setting 'monoclinic'
loop_
_space_group_symop_operation_xyz
x,y,z
-x,1/2+y,-z
-x,-y,-z
x,1/2-y,z
loop_
_atom_site_type_symbol
_atom_site_label
_atom_site_fract_x
_atom_site_fract_y
_atom_site_fract_z
Si Si1 0.821742 0.575540 0.044345
Si Si2 0.076166 0.572807 0.166423
Si Si3 0.855566 0.570468 0.529887
Si Si4 0.183756 0.570477 0.758850
Si Si5 0.715159 0.071778 0.736739
Si Si6 0.356745 0.067644 0.561947
Si Si7 0.517964 0.578018 0.089271
O O1 0.868524 0.750000 0.036490
O O2 0.830938 0.489419 0.135552
O O3 0.668333 0.578501 0.068961
O O4 0.887574 0.491927 0.941647
O O5 0.042235 0.750000 0.170191
O O6 0.198284 0.558301 0.198012
O O7 0.954627 0.482651 0.242587
O O8 0.872860 0.750000 0.515114
O O9 0.778297 0.526124 0.641422
O O10 0.757144 0.521781 0.477189
O O11 0.000000 0.500000 0.500000
O O12 0.198025 0.750000 0.752086
O O13 0.301313 0.491117 0.672710
O O14 0.714379 0.250000 0.709511
O O15 0.571717 0.016231 0.805552
O O16 0.365898 0.250000 0.559165
O O17 0.500000 0.000000 0.500000
O O18 0.471088 0.750000 0.091614
O O19 0.500000 0.500000 0.000000
#
# Coordination Sequence:
#
# PCOD9165235 Si02
#       7
#     4   4   4   4   4   4   4
#     4  11  23  39  62  93 128 168 212 258 311 378
#     4  11  22  40  64  93 130 169 210 260 312 375
#     4  11  25  44  69 100 131 168 216 271 328 389
#     4  12  26  43  65  92 125 167 213 263 319 379
#     4  10  22  39  63  94 128 167 207 255 316 376
#     4  11  26  48  70  98 132 171 220 274 330 390
#     4  10  21  38  60  90 125 165 207 254 311 373
#
# _framework density 20.716538
#
# number of rings (size 3 to 8) (size 9 to 14) (size 15 to 20)
#    0.000    1.143    1.429    4.286    2.000    8.000 
#    0.000    0.000    0.000    0.000    0.000    0.000 
#    0.000    0.000    0.000    0.000    0.000    0.000 
#
# Total GULP energy -156498.550662 kJ/mol
# GULP energy per Si atom -5589.233952 kJ/mol
# Density = 2.066939 g / cm^3
# Si number density = 20.716538 Si / 1000 Ang^3
#
#
#
# Elastic Constant Matrix: (Units=GPa)
#
#
# Indices 1 2 3 4 5 6 
#
# 1 79.2755 29.6947 24.6357 0.0000 -9.3475 0.0000
# 2 29.6947 81.8433 25.1083 0.0000 -3.9857 0.0000
# 3 24.6357 25.1083 108.1484 0.0000 -18.8693 0.0000
# 4 0.0000 0.0000 0.0000 34.0144 0.0000 -6.0667
# 5 -9.3475 -3.9857 -18.8693 0.0000 38.5422 0.0000
# 6 0.0000 0.0000 0.0000 -6.0667 0.0000 30.7651
#
#
#
# Elastic Compliance Matrix: (Units=1/GPa)
#
#
# Indices 1 2 3 4 5 6 
#
# 1 0.015304 -0.004839 -0.001971 0.000000 0.002246 0.000000
# 2 -0.004839 0.014686 -0.002457 0.000000 -0.000858 0.000000
# 3 -0.001971 -0.002457 0.011085 0.000000 0.004695 0.000000
# 4 0.000000 0.000000 0.000000 0.030471 0.000000 0.006009
# 5 0.002246 -0.000858 0.004695 0.000000 0.028700 0.000000
# 6 0.000000 0.000000 0.000000 0.006009 0.000000 0.033689
#
#
# Mechanical properties :
#
#
# Convention : Reuss Voigt Hill
#
# Bulk Modulus (GPa) = 44.36142 47.57160 45.96651
# Shear Modulus (GPa) = 31.25336 33.31955 32.28646
#
# Velocity S-wave (km/s) = 3.88831 4.01478 3.95205
# Velocity P-wave (km/s) = 6.45125 6.67115 6.56212
#
# Compressibility (1/GPa) = 0.02254211
#
# Stress axis : x y z
#
# Youngs Moduli (GPa) = 65.34231 68.09180 90.21122
#
# Poissons Ratio (x) = 0.32947 0.17780
# Poissons Ratio (y) = 0.31617 0.22165
# Poissons Ratio (z) = 0.12878 0.16730
#
# Static dielectric constant tensor:
#      x y z
#    x 1.787460 0.000000 -0.003860 
#    y 0.000000 1.731190 0.000000 
#    z -0.003860 0.000000 1.728530 
# 
# From -- ./inp_files/49142.got.cif
#   From: 2010.05.17/outbox.cif.g08.bks.cpg/sg11_25_cif.got.tgz:49142.got - 2010.06.03 12:22:45.
