data_PCOD9165561
_publ_section_title
;
Structure prediction by ZEFSAII (Michael W. Deem and Ramdas Pophale) SiO2 
 PCOD9165561
Probable space group: P 21/M
;
_chemical_formula_sum "Si O2"
_cell_formula_units_Z 20
_cell_length_a 12.551942
_cell_length_b 8.920718
_cell_length_c 19.042459
_cell_angle_alpha 90.000000
_cell_angle_beta 151.240972
_cell_angle_gamma 90.000000
_cell_volume 1025.872551
_symmetry_space_group_name_H-M "P 21/M"
_symmetry_group_IT_number 11
_symmetry_cell_setting 'monoclinic'
loop_
_space_group_symop_operation_xyz
x,y,z
-x,1/2+y,-z
-x,-y,-z
x,1/2-y,z
loop_
_atom_site_type_symbol
_atom_site_label
_atom_site_fract_x
_atom_site_fract_y
_atom_site_fract_z
Si Si1 0.858214 0.926691 0.093205
Si Si2 0.086065 0.571102 0.726427
Si Si3 0.848367 0.571718 0.851454
Si Si4 0.633604 0.427781 0.249064
Si Si5 0.377495 0.427463 0.609679
O O1 0.907981 0.750000 0.119709
O O2 0.839934 0.982839 0.162176
O O3 0.624373 0.950099 0.918893
O O4 0.045547 0.017862 0.160250
O O5 0.117423 0.750000 0.755450
O O6 0.224482 0.529167 0.737064
O O7 0.828509 0.543304 0.560600
O O8 0.854910 0.750000 0.861604
O O9 0.599107 0.513627 0.716225
O O10 0.000000 0.500000 0.000000
O O11 0.668851 0.250000 0.282327
O O12 0.688627 0.519367 0.350452
O O13 0.421318 0.250000 0.635739
#
# Coordination Sequence:
#
# PCOD9165561 Si02
#       5
#     4   4   4   4   4
#     4  11  23  39  63  93 123 161 205 250 305 362
#     4  10  23  41  60  90 128 164 204 250 303 360
#     4  12  24  41  65  90 120 157 202 253 304 362
#     4  10  21  39  63  90 124 163 206 253 299 358
#     4  11  23  39  63  92 123 162 206 251 303 361
#
# _framework density 19.495598999999999
#
# number of rings (size 3 to 8) (size 9 to 14) (size 15 to 20)
#    0.000    1.200    2.000    4.200    0.000    4.000 
#    0.000    0.000    0.000    0.000    0.000    0.000 
#    0.000    0.000    0.000    0.000    0.000    0.000 
#
# Total GULP energy -111889.832555 kJ/mol
# GULP energy per Si atom -5594.491628 kJ/mol
# Density = 1.945123 g / cm^3
# Si number density = 19.495599 Si / 1000 Ang^3
#
#
#
# Elastic Constant Matrix: (Units=GPa)
#
#
# Indices 1 2 3 4 5 6 
#
# 1 45.6762 6.6112 -9.4453 0.0000 16.4273 0.0000
# 2 6.6112 69.1202 24.7758 0.0000 0.2416 0.0000
# 3 -9.4453 24.7758 21.5064 0.0000 -4.7840 0.0000
# 4 0.0000 0.0000 0.0000 22.3924 0.0000 -1.5277
# 5 16.4273 0.2416 -4.7840 0.0000 30.6348 0.0000
# 6 0.0000 0.0000 0.0000 -1.5277 0.0000 39.5283
#
#
#
# Elastic Compliance Matrix: (Units=1/GPa)
#
#
# Indices 1 2 3 4 5 6 
#
# 1 0.034356 -0.012803 0.026690 0.000000 -0.014154 0.000000
# 2 -0.012803 0.030114 -0.040239 0.000000 0.000344 0.000000
# 3 0.026690 -0.040239 0.105114 0.000000 0.002420 0.000000
# 4 0.000000 0.000000 0.000000 0.044776 0.000000 0.001731
# 5 -0.014154 0.000344 0.002420 0.000000 0.040607 0.000000
# 6 0.000000 0.000000 0.000000 0.001731 0.000000 0.025365
#
#
# Mechanical properties :
#
#
# Convention : Reuss Voigt Hill
#
# Bulk Modulus (GPa) = 8.55583 20.02070 14.28827
# Shear Modulus (GPa) = 13.44096 26.13518 19.78807
#
# Velocity S-wave (km/s) = 2.62856 3.66535 3.18937
# Velocity P-wave (km/s) = 3.68925 5.31081 4.57249
#
# Compressibility (1/GPa) = 0.11687933
#
# Stress axis : x y z
#
# Youngs Moduli (GPa) = 29.10713 33.20675 9.51350
#
# Poissons Ratio (x) = 0.42516 -0.25391
# Poissons Ratio (y) = 0.37267 0.38281
# Poissons Ratio (z) = -0.77687 1.33620
#
# Static dielectric constant tensor:
#      x y z
#    x 1.676310 0.000000 0.012030 
#    y 0.000000 1.649110 0.000000 
#    z 0.012030 0.000000 1.655270 
# 
# From -- ./inp_files/15913.got.cif
#   From: 2010.05.17/outbox.cif.g08.bks.cpg/sg11_8_cif.got.tgz:15913.got - 2010.06.03 12:22:45.
