data_PCOD9165796
_publ_section_title
;
Structure prediction by ZEFSAII (Michael W. Deem and Ramdas Pophale) SiO2 
 PCOD9165796
Probable space group: P 21/M
;
_chemical_formula_sum "Si O2"
_cell_formula_units_Z 24
_cell_length_a 6.334002
_cell_length_b 13.746907
_cell_length_c 12.035561
_cell_angle_alpha 90.000000
_cell_angle_beta 71.072828
_cell_angle_gamma 90.000000
_cell_volume 991.309528
_symmetry_space_group_name_H-M "P 21/M"
_symmetry_group_IT_number 11
_symmetry_cell_setting 'monoclinic'
loop_
_space_group_symop_operation_xyz
x,y,z
-x,1/2+y,-z
-x,-y,-z
x,1/2-y,z
loop_
_atom_site_type_symbol
_atom_site_label
_atom_site_fract_x
_atom_site_fract_y
_atom_site_fract_z
Si Si1 0.456599 0.856510 0.800265
Si Si2 0.606314 0.863201 0.186886
Si Si3 0.011392 0.134857 0.055009
Si Si4 0.229756 0.439179 0.609895
Si Si5 0.790271 0.485680 0.799494
Si Si6 0.376397 0.646995 0.561017
O O1 0.537284 0.750000 0.819865
O O2 0.658227 0.929337 0.758893
O O3 0.345366 0.850798 0.698395
O O4 0.252155 0.884892 0.915070
O O5 0.563417 0.750000 0.219074
O O6 0.636301 0.922217 0.296417
O O7 0.407058 0.908064 0.147315
O O8 0.836951 0.869374 0.079982
O O9 0.025594 0.250000 0.089659
O O10 0.100798 0.050140 0.121043
O O11 0.263532 0.545425 0.548849
O O12 0.359650 0.364807 0.508941
O O13 0.976102 0.433810 0.692265
O O14 0.295991 0.750000 0.527478
#
# Coordination Sequence:
#
# PCOD9165796 Si02
#       6
#     4   4   4   4   4   4
#     4  10  21  40  65  96 126 160 206 257 310 367
#     4  11  25  43  61  91 130 169 210 254 308 371
#     4  10  22  41  65  93 130 167 204 251 308 371
#     4  11  24  42  66  90 127 166 206 259 317 367
#     4  12  22  39  64  97 125 160 210 257 309 368
#     4  10  21  43  67  90 123 165 209 255 312 374
#
# _framework density 24.210398000000001
#
# number of rings (size 3 to 8) (size 9 to 14) (size 15 to 20)
#    0.000    1.333    3.333    1.500    0.000    6.667 
#    0.000    3.333    0.000    0.000    0.000    0.000 
#    0.000    0.000    0.000    0.000    0.000    0.000 
#
# Total GULP energy -134003.842121 kJ/mol
# GULP energy per Si atom -5583.493422 kJ/mol
# Density = 2.415529 g / cm^3
# Si number density = 24.210398 Si / 1000 Ang^3
#
#
#
# Elastic Constant Matrix: (Units=GPa)
#
#
# Indices 1 2 3 4 5 6 
#
# 1 50.2333 13.5275 19.6615 0.0000 -7.4432 0.0000
# 2 13.5275 110.6961 19.9033 0.0000 0.7345 0.0000
# 3 19.6615 19.9033 106.8519 0.0000 -22.4599 0.0000
# 4 0.0000 0.0000 0.0000 24.7246 0.0000 -5.3737
# 5 -7.4432 0.7345 -22.4599 0.0000 23.0332 0.0000
# 6 0.0000 0.0000 0.0000 -5.3737 0.0000 21.6279
#
#
#
# Elastic Compliance Matrix: (Units=1/GPa)
#
#
# Indices 1 2 3 4 5 6 
#
# 1 0.022261 -0.002266 -0.002700 0.000000 0.004633 0.000000
# 2 -0.002266 0.009694 -0.002022 0.000000 -0.003013 0.000000
# 3 -0.002700 -0.002022 0.012657 0.000000 0.011533 0.000000
# 4 0.000000 0.000000 0.000000 0.042754 0.000000 0.010623
# 5 0.004633 -0.003013 0.011533 0.000000 0.056255 0.000000
# 6 0.000000 0.000000 0.000000 0.010623 0.000000 0.048876
#
#
# Mechanical properties :
#
#
# Convention : Reuss Voigt Hill
#
# Bulk Modulus (GPa) = 32.64221 41.55176 37.09698
# Shear Modulus (GPa) = 23.07504 28.18975 25.63240
#
# Velocity S-wave (km/s) = 3.09059 3.41598 3.25735
# Velocity P-wave (km/s) = 5.12324 5.72351 5.43168
#
# Compressibility (1/GPa) = 0.03063518
#
# Stress axis : x y z
#
# Youngs Moduli (GPa) = 44.92245 103.15457 79.01030
#
# Poissons Ratio (x) = 0.23370 0.21335
# Poissons Ratio (y) = 0.10177 0.15977
# Poissons Ratio (z) = 0.12131 0.20860
#
# Static dielectric constant tensor:
#      x y z
#    x 1.935180 0.000000 0.016710 
#    y 0.000000 1.986380 0.000000 
#    z 0.016710 0.000000 1.919900 
# 
# From -- ./inp_files/6505.got.cif
#   From: 2010.05.17/outbox.cif.g08.bks.cpg/sg11_4_cif.got.tgz:6505.got - 2010.06.03 12:22:45.
