data_PCOD9165178
_publ_section_title
;
Structure prediction by ZEFSAII (Michael W. Deem and Ramdas Pophale) SiO2 
 PCOD9165178
Probable space group: P 21/M
;
_chemical_formula_sum "Si O2"
_cell_formula_units_Z 32
_cell_length_a 18.637235
_cell_length_b 10.909647
_cell_length_c 8.912446
_cell_angle_alpha 90.000000
_cell_angle_beta 52.594598
_cell_angle_gamma 90.000000
_cell_volume 1439.477930
_symmetry_space_group_name_H-M "P 21/M"
_symmetry_group_IT_number 11
_symmetry_cell_setting 'monoclinic'
loop_
_space_group_symop_operation_xyz
x,y,z
-x,1/2+y,-z
-x,-y,-z
x,1/2-y,z
loop_
_atom_site_type_symbol
_atom_site_label
_atom_site_fract_x
_atom_site_fract_y
_atom_site_fract_z
Si Si1 0.236253 0.883926 0.668490
Si Si2 0.938797 0.035208 0.938574
Si Si3 0.551375 0.615997 0.001591
Si Si4 0.498644 0.473504 0.327533
Si Si5 0.040126 0.117846 0.527615
Si Si6 0.687582 0.610985 0.589071
Si Si7 0.686881 0.117447 0.113412
Si Si8 0.189290 0.388959 0.119149
O O1 0.243075 0.750000 0.585404
O O2 0.309942 0.890248 0.708832
O O3 0.248238 0.000237 0.544644
O O4 0.144087 0.892410 0.880821
O O5 0.005008 0.106297 0.740839
O O6 0.889167 0.927905 0.903211
O O7 0.000000 0.000000 0.000000
O O8 0.519276 0.750000 0.994044
O O9 0.527896 0.598006 0.204553
O O10 0.500000 0.500000 0.000000
O O11 0.652154 0.606009 0.806116
O O12 0.500000 0.500000 0.500000
O O13 0.405750 0.415452 0.385417
O O14 0.584987 0.388089 0.186667
O O15 0.007003 0.250000 0.511135
O O16 0.143776 0.112629 0.342347
O O17 0.000000 0.000000 0.500000
O O18 0.719906 0.750000 0.517028
O O19 0.728291 0.250000 0.019942
O O20 0.740288 0.999034 0.987761
O O21 0.221421 0.250000 0.046190
#
# Coordination Sequence:
#
# PCOD9165178 Si02
#       8
#     4   4   4   4   4   4   4   4
#     4  10  21  38  60  88 122 162 203 249 308 367
#     4  10  21  38  62  91 123 156 203 256 312 366
#     4   9  21  39  61  87 120 162 205 251 305 361
#     4  11  21  38  62  95 121 158 209 257 300 358
#     4   9  18  36  62  88 118 157 199 245 303 366
#     4  10  21  40  61  87 123 164 206 250 303 362
#     4  10  21  38  59  89 125 161 204 255 307 361
#     4   9  20  38  60  89 121 160 204 251 308 369
#
# _framework density 22.230283
#
# number of rings (size 3 to 8) (size 9 to 14) (size 15 to 20)
#    0.000    2.250    1.250    0.750    0.000   10.000 
#    2.250    0.000    0.000    0.000    0.000    0.000 
#    0.000    0.000    0.000    0.000    0.000    0.000 
#
# Total GULP energy -178292.647689 kJ/mol
# GULP energy per Si atom -5571.645240 kJ/mol
# Density = 2.217969 g / cm^3
# Si number density = 22.230283 Si / 1000 Ang^3
#
#
#
# Elastic Constant Matrix: (Units=GPa)
#
#
# Indices 1 2 3 4 5 6 
#
# 1 57.3803 15.8257 12.7640 0.0000 -4.1104 0.0000
# 2 15.8257 219.8700 79.5941 0.0000 -4.8151 0.0000
# 3 12.7640 79.5941 116.8683 0.0000 8.6369 0.0000
# 4 0.0000 0.0000 0.0000 34.8580 0.0000 0.5600
# 5 -4.1104 -4.8151 8.6369 0.0000 24.7853 0.0000
# 6 0.0000 0.0000 0.0000 0.5600 0.0000 12.5650
#
#
#
# Elastic Compliance Matrix: (Units=1/GPa)
#
#
# Indices 1 2 3 4 5 6 
#
# 1 0.018255 -0.000555 -0.001880 0.000000 0.003575 0.000000
# 2 -0.000555 0.006231 -0.004378 0.000000 0.002644 0.000000
# 3 -0.001880 -0.004378 0.012143 0.000000 -0.005394 0.000000
# 4 0.000000 0.000000 0.000000 0.028708 0.000000 -0.001279
# 5 0.003575 0.002644 -0.005394 0.000000 0.043332 0.000000
# 6 0.000000 0.000000 0.000000 -0.001279 0.000000 0.079643
#
#
# Mechanical properties :
#
#
# Convention : Reuss Voigt Hill
#
# Bulk Modulus (GPa) = 43.47529 67.83182 55.65356
# Shear Modulus (GPa) = 23.85418 33.50397 28.67908
#
# Velocity S-wave (km/s) = 3.27930 3.88639 3.59568
# Velocity P-wave (km/s) = 5.82560 7.12167 6.50599
#
# Compressibility (1/GPa) = 0.02300157
#
# Stress axis : x y z
#
# Youngs Moduli (GPa) = 54.77979 160.48668 82.35492
#
# Poissons Ratio (x) = 0.08909 0.15481
# Poissons Ratio (y) = 0.03041 0.36059
# Poissons Ratio (z) = 0.10298 0.70269
#
# Static dielectric constant tensor:
#      x y z
#    x 1.913540 0.000000 -0.015900 
#    y 0.000000 1.823730 0.000000 
#    z -0.015900 0.000000 1.897300 
# 
# From -- ./inp_files/26582.got.cif
#   From: 2010.05.17/outbox.cif.g08.bks.cpg/sg11_14_cif.got.tgz:26582.got - 2010.06.03 12:22:45.
