data_PCOD9165421
_publ_section_title
;
Structure prediction by ZEFSAII (Michael W. Deem and Ramdas Pophale) SiO2 
 PCOD9165421
Probable space group: P 21/M
;
_chemical_formula_sum "Si O2"
_cell_formula_units_Z 26
_cell_length_a 10.228089
_cell_length_b 21.580903
_cell_length_c 9.099784
_cell_angle_alpha 90.000000
_cell_angle_beta 134.591134
_cell_angle_gamma 90.000000
_cell_volume 1430.399456
_symmetry_space_group_name_H-M "P 21/M"
_symmetry_group_IT_number 11
_symmetry_cell_setting 'monoclinic'
loop_
_space_group_symop_operation_xyz
x,y,z
-x,1/2+y,-z
-x,-y,-z
x,1/2-y,z
loop_
_atom_site_type_symbol
_atom_site_label
_atom_site_fract_x
_atom_site_fract_y
_atom_site_fract_z
Si Si1 0.172550 0.882219 0.941707
Si Si2 0.553463 0.939391 0.134381
Si Si3 0.736466 0.642765 0.027606
Si Si4 0.503609 0.250000 0.136101
Si Si5 0.133078 0.750000 0.759806
Si Si6 0.900731 0.980869 0.572832
Si Si7 0.146980 0.250000 0.710759
Si Si8 0.025514 0.564238 0.106822
O O1 0.149656 0.812171 0.868186
O O2 0.021955 0.926429 0.742456
O O3 0.371415 0.907457 0.052008
O O4 0.142083 0.892173 0.091528
O O5 0.654984 0.895607 0.097948
O O6 0.698395 0.957386 0.374029
O O7 0.500000 0.000000 0.000000
O O8 0.888540 0.689188 0.218647
O O9 0.833217 0.598140 0.989103
O O10 0.573877 0.688651 0.845041
O O11 0.707963 0.250000 0.240549
O O12 0.370605 0.250000 0.885029
O O13 0.946686 0.750000 0.518429
O O14 0.896147 0.040585 0.675917
O O15 0.000000 0.000000 0.500000
O O16 0.000000 0.500000 0.000000
#
# Coordination Sequence:
#
# PCOD9165421 Si02
#       8
#     4   4   4   2   2   4   2   4
#     4  11  24  37  59  91 124 153 200 253 303 367
#     4  12  20  34  61  90 114 158 203 247 301 352
#     4   9  18  38  57  82 120 150 196 246 292 341
#     4   8  20  35  58  85 110 150 200 252 272 343
#     4  12  20  36  62  90 112 156 204 247 303 348
#     4  11  21  37  64  88 117 162 201 250 295 356
#     4   8  20  33  60  85 106 152 206 249 277 347
#     4  10  21  39  58  89 127 154 191 246 312 361
#
# _framework density 18.176741
#
# number of rings (size 3 to 8) (size 9 to 14) (size 15 to 20)
#    0.923    0.615    4.615    1.846    0.000    1.846 
#    0.000    0.000    0.000    0.000    4.000    0.000 
#    0.000    0.000    0.000    0.000    0.000    0.000 
#
# Total GULP energy -144785.270350 kJ/mol
# GULP energy per Si atom -5568.664244 kJ/mol
# Density = 1.813537 g / cm^3
# Si number density = 18.176741 Si / 1000 Ang^3
#
#
#
# Elastic Constant Matrix: (Units=GPa)
#
#
# Indices 1 2 3 4 5 6 
#
# 1 105.8929 39.5284 25.9487 0.0000 -4.4025 0.0000
# 2 39.5284 107.7170 22.7553 0.0000 -0.9723 0.0000
# 3 25.9487 22.7553 68.7984 0.0000 9.0030 0.0000
# 4 0.0000 0.0000 0.0000 15.8406 0.0000 -6.9708
# 5 -4.4025 -0.9723 9.0030 0.0000 26.6490 0.0000
# 6 0.0000 0.0000 0.0000 -6.9708 0.0000 31.2479
#
#
#
# Elastic Compliance Matrix: (Units=1/GPa)
#
#
# Indices 1 2 3 4 5 6 
#
# 1 0.011787 -0.003520 -0.003682 0.000000 0.003063 0.000000
# 2 -0.003520 0.011094 -0.002426 0.000000 0.000643 0.000000
# 3 -0.003682 -0.002426 0.017595 0.000000 -0.006641 0.000000
# 4 0.000000 0.000000 0.000000 0.070001 0.000000 0.015616
# 5 0.003063 0.000643 -0.006641 0.000000 0.040298 0.000000
# 6 0.000000 0.000000 0.000000 0.015616 0.000000 0.035486
#
#
# Mechanical properties :
#
#
# Convention : Reuss Voigt Hill
#
# Bulk Modulus (GPa) = 47.12499 50.98590 49.05545
# Shear Modulus (GPa) = 23.51945 27.69256 25.60601
#
# Velocity S-wave (km/s) = 3.60103 3.90746 3.75737
# Velocity P-wave (km/s) = 6.57816 6.96194 6.77277
#
# Compressibility (1/GPa) = 0.02122017
#
# Stress axis : x y z
#
# Youngs Moduli (GPa) = 84.83826 90.14274 56.83276
#
# Poissons Ratio (x) = 0.31730 0.20928
# Poissons Ratio (y) = 0.29862 0.13786
# Poissons Ratio (z) = 0.31240 0.21866
#
# Static dielectric constant tensor:
#      x y z
#    x 1.618800 0.000000 -0.002620 
#    y 0.000000 1.671740 0.000000 
#    z -0.002620 0.000000 1.633310 
# 
# From -- ./inp_files/14577.got.cif
#   From: 2010.05.17/outbox.cif.g08.bks.cpg/sg11_8_cif.got.tgz:14577.got - 2010.06.03 12:22:45.
