data_PCOD9165681
_publ_section_title
;
Structure prediction by ZEFSAII (Michael W. Deem and Ramdas Pophale) SiO2 
 PCOD9165681
Probable space group: P 21/M
;
_chemical_formula_sum "Si O2"
_cell_formula_units_Z 28
_cell_length_a 7.190162
_cell_length_b 22.657122
_cell_length_c 9.284641
_cell_angle_alpha 90.000000
_cell_angle_beta 129.883459
_cell_angle_gamma 90.000000
_cell_volume 1160.652480
_symmetry_space_group_name_H-M "P 21/M"
_symmetry_group_IT_number 11
_symmetry_cell_setting 'monoclinic'
loop_
_space_group_symop_operation_xyz
x,y,z
-x,1/2+y,-z
-x,-y,-z
x,1/2-y,z
loop_
_atom_site_type_symbol
_atom_site_label
_atom_site_fract_x
_atom_site_fract_y
_atom_site_fract_z
Si Si1 0.423612 0.353570 0.024820
Si Si2 0.402193 0.184306 0.700603
Si Si3 0.756877 0.460938 0.089434
Si Si4 0.230259 0.098615 0.410412
Si Si5 0.087123 0.680359 0.183842
Si Si6 0.392496 0.504272 0.694872
Si Si7 0.641186 0.139291 0.413754
O O1 0.397293 0.315496 0.869326
O O2 0.154838 0.357502 0.958055
O O3 0.549624 0.413286 0.030702
O O4 0.592221 0.330565 0.236942
O O5 0.374867 0.250000 0.628530
O O6 0.200088 0.141691 0.532510
O O7 0.674611 0.163203 0.790448
O O8 0.772412 0.501545 0.241878
O O9 0.002863 0.424890 0.210117
O O10 0.659701 0.492841 0.897979
O O11 0.352399 0.042120 0.548261
O O12 0.398741 0.136633 0.390023
O O13 0.039041 0.750000 0.134352
O O14 0.164805 0.668944 0.387426
O O15 0.331428 0.569436 0.607270
#
# Coordination Sequence:
#
# PCOD9165681 Si02
#       7
#     4   4   4   4   4   4   4
#     4  11  23  41  65  96 129 168 215 263 324 385
#     4  10  23  44  68  94 126 172 216 267 333 385
#     4  10  23  37  64  97 131 174 216 266 327 389
#     4  11  22  41  68  95 136 174 214 276 322 389
#     4  10  24  46  67  92 132 169 215 275 325 386
#     4  10  21  40  60  98 136 171 219 265 326 389
#     4  10  25  39  68 100 129 172 222 267 327 393
#
# _framework density 24.124362999999999
#
# number of rings (size 3 to 8) (size 9 to 14) (size 15 to 20)
#    0.000    1.714    1.429    1.286    6.000    5.143 
#    0.000    1.429    0.000    0.000    0.000    0.000 
#    0.000    0.000    0.000    0.000    0.000    0.000 
#
# Total GULP energy -156320.184489 kJ/mol
# GULP energy per Si atom -5582.863732 kJ/mol
# Density = 2.406945 g / cm^3
# Si number density = 24.124363 Si / 1000 Ang^3
#
#
#
# Elastic Constant Matrix: (Units=GPa)
#
#
# Indices 1 2 3 4 5 6 
#
# 1 57.3478 -0.2661 24.4964 0.0000 -0.3851 0.0000
# 2 -0.2661 54.6972 17.2462 0.0000 0.0089 0.0000
# 3 24.4964 17.2462 96.4044 0.0000 9.3529 0.0000
# 4 0.0000 0.0000 0.0000 20.5575 0.0000 -2.5662
# 5 -0.3851 0.0089 9.3529 0.0000 29.8414 0.0000
# 6 0.0000 0.0000 0.0000 -2.5662 0.0000 23.7021
#
#
#
# Elastic Compliance Matrix: (Units=1/GPa)
#
#
# Indices 1 2 3 4 5 6 
#
# 1 0.019837 0.001851 -0.005566 0.000000 0.002000 0.000000
# 2 0.001851 0.019584 -0.004100 0.000000 0.001303 0.000000
# 3 -0.005566 -0.004100 0.012920 0.000000 -0.004120 0.000000
# 4 0.000000 0.000000 0.000000 0.049310 0.000000 0.005339
# 5 0.002000 0.001303 -0.004120 0.000000 0.034827 0.000000
# 6 0.000000 0.000000 0.000000 0.005339 0.000000 0.042768
#
#
# Mechanical properties :
#
#
# Convention : Reuss Voigt Hill
#
# Bulk Modulus (GPa) = 27.23933 32.37803 29.80868
# Shear Modulus (GPa) = 24.14123 25.95174 25.04649
#
# Velocity S-wave (km/s) = 3.16681 3.28342 3.22564
# Velocity P-wave (km/s) = 4.96864 5.27493 5.12407
#
# Compressibility (1/GPa) = 0.03671163
#
# Stress axis : x y z
#
# Youngs Moduli (GPa) = 50.41111 51.06181 77.39661
#
# Poissons Ratio (x) = -0.09452 0.43077
# Poissons Ratio (y) = -0.09331 0.31735
# Poissons Ratio (z) = 0.28057 0.20937
#
# Static dielectric constant tensor:
#      x y z
#    x 2.009830 0.000000 -0.012290 
#    y 0.000000 1.956080 0.000000 
#    z -0.012290 0.000000 1.947160 
# 
# From -- ./inp_files/15303.got.cif
#   From: 2010.05.17/outbox.cif.g08.bks.cpg/sg11_8_cif.got.tgz:15303.got - 2010.06.03 12:22:45.
