data_PCOD9165680
_publ_section_title
;
Structure prediction by ZEFSAII (Michael W. Deem and Ramdas Pophale) SiO2 
 PCOD9165680
Probable space group: P 21/M
;
_chemical_formula_sum "Si O2"
_cell_formula_units_Z 28
_cell_length_a 12.948363
_cell_length_b 12.637772
_cell_length_c 9.328652
_cell_angle_alpha 90.000000
_cell_angle_beta 121.173395
_cell_angle_gamma 90.000000
_cell_volume 1306.103044
_symmetry_space_group_name_H-M "P 21/M"
_symmetry_group_IT_number 11
_symmetry_cell_setting 'monoclinic'
loop_
_space_group_symop_operation_xyz
x,y,z
-x,1/2+y,-z
-x,-y,-z
x,1/2-y,z
loop_
_atom_site_type_symbol
_atom_site_label
_atom_site_fract_x
_atom_site_fract_y
_atom_site_fract_z
Si Si1 0.100549 0.366560 0.198195
Si Si2 0.521652 0.552141 0.861536
Si Si3 0.307684 0.631743 0.538483
Si Si4 0.876800 0.543374 0.482176
Si Si5 0.847316 0.045181 0.964028
Si Si6 0.215418 0.370514 0.872258
Si Si7 0.601990 0.369125 0.719717
O O1 0.146459 0.250000 0.194708
O O2 0.094226 0.381095 0.363461
O O3 0.173314 0.463793 0.181999
O O4 0.967216 0.386317 0.038048
O O5 0.412352 0.624892 0.732911
O O6 0.526671 0.459523 0.744847
O O7 0.500000 0.500000 0.000000
O O8 0.649774 0.611281 0.969287
O O9 0.256217 0.750000 0.492967
O O10 0.204348 0.551018 0.511724
O O11 0.370586 0.612608 0.428705
O O12 0.798756 0.603374 0.305262
O O13 0.000000 0.500000 0.500000
O O14 0.731873 0.119124 0.891231
O O15 0.860534 0.962624 0.103903
O O16 0.176735 0.250000 0.871329
O O17 0.553604 0.250000 0.701936
#
# Coordination Sequence:
#
# PCOD9165680 Si02
#       7
#     4   4   4   4   4   4   4
#     4  11  22  38  62  88 125 171 214 263 319 379
#     4  11  23  43  67  98 134 160 216 271 320 395
#     4  11  24  45  68  93 131 176 218 267 328 388
#     4  12  24  44  61  96 132 169 220 271 321 390
#     4  10  21  40  60  91 128 159 219 263 312 388
#     4  11  23  41  64  90 126 167 207 264 326 379
#     4  10  22  41  69  97 129 173 214 263 324 386
#
# _framework density 21.437818
#
# number of rings (size 3 to 8) (size 9 to 14) (size 15 to 20)
#    0.000    1.143    4.286    2.143    0.000    2.286 
#    0.000    0.000    0.000    0.000    0.000    0.000 
#    0.000    0.000    0.000    0.000    0.000    0.000 
#
# Total GULP energy -156363.731967 kJ/mol
# GULP energy per Si atom -5584.418999 kJ/mol
# Density = 2.138902 g / cm^3
# Si number density = 21.437818 Si / 1000 Ang^3
#
#
#
# Elastic Constant Matrix: (Units=GPa)
#
#
# Indices 1 2 3 4 5 6 
#
# 1 42.8444 16.3471 4.4659 0.0000 -6.3147 0.0000
# 2 16.3471 93.4403 38.5936 0.0000 -6.8220 0.0000
# 3 4.4659 38.5936 91.7938 0.0000 -20.9885 0.0000
# 4 0.0000 0.0000 0.0000 16.6930 0.0000 -6.7397
# 5 -6.3147 -6.8220 -20.9885 0.0000 35.1478 0.0000
# 6 0.0000 0.0000 0.0000 -6.7397 0.0000 13.2569
#
#
#
# Elastic Compliance Matrix: (Units=1/GPa)
#
#
# Indices 1 2 3 4 5 6 
#
# 1 0.025737 -0.004948 0.001929 0.000000 0.004816 0.000000
# 2 -0.004948 0.013924 -0.006021 0.000000 -0.001782 0.000000
# 3 0.001929 -0.006021 0.015222 0.000000 0.008268 0.000000
# 4 0.000000 0.000000 0.000000 0.075377 0.000000 0.038321
# 5 0.004816 -0.001782 0.008268 0.000000 0.033908 0.000000
# 6 0.000000 0.000000 0.000000 0.038321 0.000000 0.094915
#
#
# Mechanical properties :
#
#
# Convention : Reuss Voigt Hill
#
# Bulk Modulus (GPa) = 27.17106 38.54353 32.85730
# Shear Modulus (GPa) = 17.27532 24.26432 20.76982
#
# Velocity S-wave (km/s) = 2.84180 3.36794 3.11600
# Velocity P-wave (km/s) = 4.84455 5.75694 5.32034
#
# Compressibility (1/GPa) = 0.03680387
#
# Stress axis : x y z
#
# Youngs Moduli (GPa) = 38.85493 71.81640 65.69443
#
# Poissons Ratio (x) = 0.35533 -0.12674
# Poissons Ratio (y) = 0.19225 0.39555
# Poissons Ratio (z) = -0.07496 0.43241
#
# Static dielectric constant tensor:
#      x y z
#    x 1.775090 0.000000 -0.027520 
#    y 0.000000 1.743870 0.000000 
#    z -0.027520 0.000000 1.790850 
# 
# From -- ./inp_files/21396.got.cif
#   From: 2010.05.17/outbox.cif.g08.bks.cpg/sg11_11_cif.got.tgz:21396.got - 2010.06.03 12:22:45.
