data_PCOD9165245
_publ_section_title
;
Structure prediction by ZEFSAII (Michael W. Deem and Ramdas Pophale) SiO2 
 PCOD9165245
Probable space group: P 21/M
;
_chemical_formula_sum "Si O2"
_cell_formula_units_Z 32
_cell_length_a 13.398138
_cell_length_b 20.131730
_cell_length_c 5.693123
_cell_angle_alpha 90.000000
_cell_angle_beta 101.299776
_cell_angle_gamma 90.000000
_cell_volume 1505.826137
_symmetry_space_group_name_H-M "P 21/M"
_symmetry_group_IT_number 11
_symmetry_cell_setting 'monoclinic'
loop_
_space_group_symop_operation_xyz
x,y,z
-x,1/2+y,-z
-x,-y,-z
x,1/2-y,z
loop_
_atom_site_type_symbol
_atom_site_label
_atom_site_fract_x
_atom_site_fract_y
_atom_site_fract_z
Si Si1 0.085925 0.934070 0.778064
Si Si2 0.420263 0.825882 0.399823
Si Si3 0.978282 0.587655 0.233213
Si Si4 0.317617 0.056197 0.326039
Si Si5 0.790764 0.675947 0.011741
Si Si6 0.376137 0.139240 0.739068
Si Si7 0.477517 0.579016 0.807466
Si Si8 0.304165 0.567908 0.035875
O O1 0.036755 0.906425 0.512027
O O2 0.071725 0.014128 0.770529
O O3 0.204708 0.916728 0.842600
O O4 0.039464 0.911936 0.011225
O O5 0.387961 0.750000 0.394871
O O6 0.542317 0.828042 0.398925
O O7 0.413599 0.866150 0.637613
O O8 0.355220 0.868909 0.185319
O O9 0.893881 0.644434 0.159392
O O10 0.318358 0.077263 0.594723
O O11 0.438896 0.048233 0.326863
O O12 0.272933 0.987452 0.214634
O O13 0.260736 0.118694 0.176553
O O14 0.803453 0.750000 0.911927
O O15 0.710924 0.681909 0.187004
O O16 0.449859 0.115174 0.976538
O O17 0.394522 0.538362 0.913956
#
# Coordination Sequence:
#
# PCOD9165245 Si02
#       8
#     4   4   4   4   4   4   4   4
#     4  10  23  43  71  93 127 167 222 273 332 394
#     4  10  22  39  58  86 128 173 222 270 323 397
#     4  10  23  44  66  98 125 169 218 276 332 399
#     4  10  21  38  60  95 132 165 211 266 323 402
#     4  11  23  39  63  95 130 169 212 271 342 401
#     4   9  21  37  61  88 127 170 211 259 326 404
#     4   9  21  36  56  90 127 166 209 265 325 383
#     4  11  22  38  65  94 122 171 217 272 328 394
#
# _framework density 21.250793999999999
#
# number of rings (size 3 to 8) (size 9 to 14) (size 15 to 20)
#    0.000    2.000    1.250    0.750    3.500   14.500 
#    0.000    1.250    0.000    0.000    0.000    0.000 
#    0.000    0.000    0.000    0.000    0.000    0.000 
#
# Total GULP energy -178377.429748 kJ/mol
# GULP energy per Si atom -5574.294680 kJ/mol
# Density = 2.120243 g / cm^3
# Si number density = 21.250794 Si / 1000 Ang^3
#
#
#
# Elastic Constant Matrix: (Units=GPa)
#
#
# Indices 1 2 3 4 5 6 
#
# 1 86.2749 18.8766 35.6580 0.0000 26.6849 0.0000
# 2 18.8766 98.5929 37.0874 0.0000 22.3947 0.0000
# 3 35.6580 37.0874 115.9015 0.0000 27.0193 0.0000
# 4 0.0000 0.0000 0.0000 14.2295 0.0000 -0.6744
# 5 26.6849 22.3947 27.0193 0.0000 31.4604 0.0000
# 6 0.0000 0.0000 0.0000 -0.6744 0.0000 12.4697
#
#
#
# Elastic Compliance Matrix: (Units=1/GPa)
#
#
# Indices 1 2 3 4 5 6 
#
# 1 0.016180 0.000525 -0.002325 0.000000 -0.012101 0.000000
# 2 0.000525 0.012641 -0.002507 0.000000 -0.007291 0.000000
# 3 -0.002325 -0.002507 0.011590 0.000000 -0.006198 0.000000
# 4 0.000000 0.000000 0.000000 0.070457 0.000000 0.003811
# 5 -0.012101 -0.007291 -0.006198 0.000000 0.052563 0.000000
# 6 0.000000 0.000000 0.000000 0.003811 0.000000 0.080400
#
#
# Mechanical properties :
#
#
# Convention : Reuss Voigt Hill
#
# Bulk Modulus (GPa) = 31.44822 53.77928 42.61375
# Shear Modulus (GPa) = 19.00820 25.57507 22.29164
#
# Velocity S-wave (km/s) = 2.99401 3.47290 3.24231
# Velocity P-wave (km/s) = 5.17522 6.43764 5.84064
#
# Compressibility (1/GPa) = 0.03179830
#
# Stress axis : x y z
#
# Youngs Moduli (GPa) = 61.80611 79.10574 86.27899
#
# Poissons Ratio (x) = -0.04157 0.20059
# Poissons Ratio (y) = -0.03248 0.21630
# Poissons Ratio (z) = 0.14369 0.19832
#
# Static dielectric constant tensor:
#      x y z
#    x 1.804630 0.000000 -0.048250 
#    y 0.000000 2.126350 0.000000 
#    z -0.048250 0.000000 1.828120 
# 
# From -- ./inp_files/7075.got.cif
#   From: 2010.05.17/outbox.cif.g08.bks.cpg/sg11_4_cif.got.tgz:7075.got - 2010.06.03 12:22:45.
