data_PCOD9165068
_publ_section_title
;
Structure prediction by ZEFSAII (Michael W. Deem and Ramdas Pophale) SiO2 
 PCOD9165068
Probable space group: P 21/M
;
_chemical_formula_sum "Si O2"
_cell_formula_units_Z 16
_cell_length_a 8.544931
_cell_length_b 17.541390
_cell_length_c 9.907076
_cell_angle_alpha 90.000000
_cell_angle_beta 30.263515
_cell_angle_gamma 90.000000
_cell_volume 748.392457
_symmetry_space_group_name_H-M "P 21/M"
_symmetry_group_IT_number 11
_symmetry_cell_setting 'monoclinic'
loop_
_space_group_symop_operation_xyz
x,y,z
-x,1/2+y,-z
-x,-y,-z
x,1/2-y,z
loop_
_atom_site_type_symbol
_atom_site_label
_atom_site_fract_x
_atom_site_fract_y
_atom_site_fract_z
Si Si1 0.572199 0.163032 0.063773
Si Si2 0.332776 0.901750 0.721249
Si Si3 0.914399 0.411239 0.571902
Si Si4 0.630571 0.921238 0.227783
O O1 0.615314 0.250000 0.989316
O O2 0.634043 0.152913 0.176566
O O3 0.219167 0.135702 0.305049
O O4 0.802866 0.110691 0.804928
O O5 0.558765 0.886616 0.428362
O O6 0.395887 0.987172 0.731376
O O7 0.981981 0.903004 0.926775
O O8 0.624062 0.396347 0.690107
O O9 0.000000 0.500000 0.500000
#
# Coordination Sequence:
#
# PCOD9165068 Si02
#       4
#     4   4   4   4
#     4  12  26  44  64  95 137 177 214 268 342 397
#     4  10  21  38  63  94 127 163 208 271 317 388
#     4  12  24  42  69 100 128 173 222 277 321 389
#     4  10  21  37  64  97 123 156 220 270 313 367
#
# _framework density 21.379155000000001
#
# number of rings (size 3 to 8) (size 9 to 14) (size 15 to 20)
#    0.000    1.000    2.500    4.500    7.000    0.000 
#    0.000    7.500    0.000    0.000    0.000    0.000 
#    0.000    0.000    0.000    0.000    0.000    0.000 
#
# Total GULP energy -89561.521299 kJ/mol
# GULP energy per Si atom -5597.595081 kJ/mol
# Density = 2.133050 g / cm^3
# Si number density = 21.379155 Si / 1000 Ang^3
#
#
#
# Elastic Constant Matrix: (Units=GPa)
#
#
# Indices 1 2 3 4 5 6 
#
# 1 67.3010 18.1892 -11.3267 0.0000 -4.5296 0.0000
# 2 18.1892 62.2122 16.3473 0.0000 6.7947 0.0000
# 3 -11.3267 16.3473 82.5853 0.0000 8.3541 0.0000
# 4 0.0000 0.0000 0.0000 11.9232 0.0000 -2.7692
# 5 -4.5296 6.7947 8.3541 0.0000 33.5376 0.0000
# 6 0.0000 0.0000 0.0000 -2.7692 0.0000 19.0597
#
#
#
# Elastic Compliance Matrix: (Units=1/GPa)
#
#
# Indices 1 2 3 4 5 6 
#
# 1 0.017288 -0.006231 0.003324 0.000000 0.002769 0.000000
# 2 -0.006231 0.019437 -0.004328 0.000000 -0.003702 0.000000
# 3 0.003324 -0.004328 0.013631 0.000000 -0.002070 0.000000
# 4 0.000000 0.000000 0.000000 0.086799 0.000000 0.012611
# 5 0.002769 -0.003702 -0.002070 0.000000 0.031457 0.000000
# 6 0.000000 0.000000 0.000000 0.012611 0.000000 0.054299
#
#
# Mechanical properties :
#
#
# Convention : Reuss Voigt Hill
#
# Bulk Modulus (GPa) = 27.86422 28.72423 28.29423
# Shear Modulus (GPa) = 20.05278 25.49666 22.77472
#
# Velocity S-wave (km/s) = 3.06593 3.45714 3.26740
# Velocity P-wave (km/s) = 5.05914 5.42223 5.24383
#
# Compressibility (1/GPa) = 0.03588832
#
# Stress axis : x y z
#
# Youngs Moduli (GPa) = 57.84215 51.44797 73.36436
#
# Poissons Ratio (x) = 0.32055 -0.24389
# Poissons Ratio (y) = 0.36039 0.31749
# Poissons Ratio (z) = -0.19229 0.22265
#
# Static dielectric constant tensor:
#      x y z
#    x 1.772260 0.000000 0.005410 
#    y 0.000000 1.748890 0.000000 
#    z 0.005410 0.000000 1.743480 
# 
# From -- ./inp_files/1657.got.cif
#   From: 2010.05.17/outbox.cif.g08.bks.cpg/sg11_1_cif.got.tgz:1657.got - 2010.06.03 12:22:45.
