data_PCOD9165871
_publ_section_title
;
Structure prediction by ZEFSAII (Michael W. Deem and Ramdas Pophale) SiO2 
 PCOD9165871
Probable space group: P 21/M
;
_chemical_formula_sum "Si O2"
_cell_formula_units_Z 24
_cell_length_a 10.066808
_cell_length_b 22.216588
_cell_length_c 8.355370
_cell_angle_alpha 90.000000
_cell_angle_beta 147.656679
_cell_angle_gamma 90.000000
_cell_volume 999.727292
_symmetry_space_group_name_H-M "P 21/M"
_symmetry_group_IT_number 11
_symmetry_cell_setting 'monoclinic'
loop_
_space_group_symop_operation_xyz
x,y,z
-x,1/2+y,-z
-x,-y,-z
x,1/2-y,z
loop_
_atom_site_type_symbol
_atom_site_label
_atom_site_fract_x
_atom_site_fract_y
_atom_site_fract_z
Si Si1 0.081496 0.250000 0.162430
Si Si2 0.807793 0.027906 0.430300
Si Si3 0.377482 0.183643 0.696468
Si Si4 0.481593 0.435542 0.675306
Si Si5 0.487755 0.135629 0.135051
Si Si6 0.579784 0.250000 0.447344
Si Si7 0.802761 0.545739 0.924421
O O1 0.137225 0.194530 0.340145
O O2 0.317790 0.250000 0.279008
O O3 0.820999 0.250000 0.807582
O O4 0.697125 0.092364 0.271642
O O5 0.618488 0.973991 0.276048
O O6 0.000000 0.000000 0.500000
O O7 0.927108 0.042834 0.725446
O O8 0.497078 0.250000 0.825103
O O9 0.539587 0.132345 0.778787
O O10 0.328234 0.162384 0.826606
O O11 0.698366 0.477783 0.831461
O O12 0.268195 0.432706 0.322944
O O13 0.584983 0.190744 0.340838
O O14 0.340188 0.090298 0.099897
#
# Coordination Sequence:
#
# PCOD9165871 Si02
#       7
#     2   4   4   4   4   2   4
#     4  10  27  48  73 102 148 189 245 292 371 423
#     4  11  23  39  66 101 136 183 236 300 369 431
#     4  10  22  45  62 101 139 187 231 293 364 431
#     4  10  21  41  64  96 138 179 241 295 358 434
#     4  11  24  43  72 100 142 182 242 294 371 429
#     4  12  25  50  73 108 140 193 243 308 351 453
#     4  10  22  41  68  98 131 186 233 302 357 429
#
# _framework density 24.006547000000001
#
# number of rings (size 3 to 8) (size 9 to 14) (size 15 to 20)
#    0.500    1.000    0.833    3.500    4.667    2.667 
#    9.000    1.667    0.000    0.000    0.000    0.000 
#    0.000    0.000    0.000    0.000    0.000    0.000 
#
# Total GULP energy -134079.948244 kJ/mol
# GULP energy per Si atom -5586.664510 kJ/mol
# Density = 2.395191 g / cm^3
# Si number density = 24.006547 Si / 1000 Ang^3
#
#
#
# Elastic Constant Matrix: (Units=GPa)
#
#
# Indices 1 2 3 4 5 6 
#
# 1 91.2358 44.9609 28.3473 0.0000 -15.8844 0.0000
# 2 44.9609 194.3268 52.4558 0.0000 -14.6147 0.0000
# 3 28.3473 52.4558 137.9606 0.0000 -25.2269 0.0000
# 4 0.0000 0.0000 0.0000 29.1443 0.0000 -13.5738
# 5 -15.8844 -14.6147 -25.2269 0.0000 35.1776 0.0000
# 6 0.0000 0.0000 0.0000 -13.5738 0.0000 26.7228
#
#
#
# Elastic Compliance Matrix: (Units=1/GPa)
#
#
# Indices 1 2 3 4 5 6 
#
# 1 0.013226 -0.002471 -0.001006 0.000000 0.004225 0.000000
# 2 -0.002471 0.006223 -0.001830 0.000000 0.000158 0.000000
# 3 -0.001006 -0.001830 0.009125 0.000000 0.005330 0.000000
# 4 0.000000 0.000000 0.000000 0.044945 0.000000 0.022830
# 5 0.004225 0.000158 0.005330 0.000000 0.034222 0.000000
# 6 0.000000 0.000000 0.000000 0.022830 0.000000 0.049017
#
#
# Mechanical properties :
#
#
# Convention : Reuss Voigt Hill
#
# Bulk Modulus (GPa) = 55.67197 75.00568 65.33883
# Shear Modulus (GPa) = 28.84173 38.05956 33.45064
#
# Velocity S-wave (km/s) = 3.46990 3.98601 3.73687
# Velocity P-wave (km/s) = 6.26851 7.24541 6.77459
#
# Compressibility (1/GPa) = 0.01796236
#
# Stress axis : x y z
#
# Youngs Moduli (GPa) = 75.60718 160.68295 109.58444
#
# Poissons Ratio (x) = 0.39704 0.11020
# Poissons Ratio (y) = 0.18682 0.20051
# Poissons Ratio (z) = 0.07604 0.29401
#
# Static dielectric constant tensor:
#      x y z
#    x 1.953730 0.000000 -0.004280 
#    y 0.000000 1.887100 0.000000 
#    z -0.004280 0.000000 1.946440 
# 
# From -- ./inp_files/19756.got.cif
#   From: 2010.05.17/outbox.cif.g08.bks.cpg/sg11_10_cif.got.tgz:19756.got - 2010.06.03 12:22:45.
