data_PCOD9165593
_publ_section_title
;
Structure prediction by ZEFSAII (Michael W. Deem and Ramdas Pophale) SiO2 
 PCOD9165593
Probable space group: P 21/M
;
_chemical_formula_sum "Si O2"
_cell_formula_units_Z 20
_cell_length_a 9.001143
_cell_length_b 14.814745
_cell_length_c 6.370866
_cell_angle_alpha 90.000000
_cell_angle_beta 100.882649
_cell_angle_gamma 90.000000
_cell_volume 834.274263
_symmetry_space_group_name_H-M "P 21/M"
_symmetry_group_IT_number 11
_symmetry_cell_setting 'monoclinic'
loop_
_space_group_symop_operation_xyz
x,y,z
-x,1/2+y,-z
-x,-y,-z
x,1/2-y,z
loop_
_atom_site_type_symbol
_atom_site_label
_atom_site_fract_x
_atom_site_fract_y
_atom_site_fract_z
Si Si1 0.594509 0.149628 0.127601
Si Si2 0.927994 0.351984 0.289356
Si Si3 0.791737 0.486209 0.967815
Si Si4 0.377366 0.426453 0.403402
Si Si5 0.819440 0.647189 0.302134
O O1 0.583924 0.250000 0.031940
O O2 0.750343 0.147429 0.306730
O O3 0.452924 0.129201 0.234671
O O4 0.637699 0.071924 0.974585
O O5 0.967370 0.250000 0.231520
O O6 0.921248 0.417812 0.084928
O O7 0.033322 0.372041 0.514110
O O8 0.800583 0.571169 0.123906
O O9 0.768451 0.521078 0.728271
O O10 0.500000 0.500000 0.500000
O O11 0.321606 0.365027 0.577472
O O12 0.827873 0.750000 0.226531
#
# Coordination Sequence:
#
# PCOD9165593 Si02
#       5
#     4   4   4   4   4
#     4   9  19  38  61  83 116 154 191 239 290 347
#     4   8  18  38  62  87 116 153 193 240 295 348
#     4  10  21  39  64  82 117 160 195 237 291 354
#     4  12  23  38  58  88 120 154 199 240 295 345
#     4  11  23  38  60  89 121 152 194 248 293 343
#
# _framework density 23.972932
#
# number of rings (size 3 to 8) (size 9 to 14) (size 15 to 20)
#    1.200    0.800    2.000    1.800    0.000    2.400 
#    0.000    3.000    0.000    7.200    0.000    0.000 
#    0.000    0.000    0.000    0.000    0.000    0.000 
#
# Total GULP energy -111683.996826 kJ/mol
# GULP energy per Si atom -5584.199841 kJ/mol
# Density = 2.391837 g / cm^3
# Si number density = 23.972932 Si / 1000 Ang^3
#
#
#
# Elastic Constant Matrix: (Units=GPa)
#
#
# Indices 1 2 3 4 5 6 
#
# 1 68.3803 2.5597 4.2136 0.0000 8.2188 0.0000
# 2 2.5597 152.3647 59.1615 0.0000 -2.7170 0.0000
# 3 4.2136 59.1615 80.9102 0.0000 24.0982 0.0000
# 4 0.0000 0.0000 0.0000 3.2188 0.0000 15.3420
# 5 8.2188 -2.7170 24.0982 0.0000 36.7042 0.0000
# 6 0.0000 0.0000 0.0000 15.3420 0.0000 17.0620
#
#
#
# Elastic Compliance Matrix: (Units=1/GPa)
#
#
# Indices 1 2 3 4 5 6 
#
# 1 0.015077 -0.000678 0.000909 0.000000 -0.004023 0.000000
# 2 -0.000678 0.010546 -0.009887 0.000000 0.007424 0.000000
# 3 0.000909 -0.009887 0.024638 0.000000 -0.017111 0.000000
# 4 0.000000 0.000000 0.000000 -0.094548 0.000000 0.085017
# 5 -0.004023 0.007424 -0.017111 0.000000 0.039930 0.000000
# 6 0.000000 0.000000 0.000000 0.085017 0.000000 -0.017837
#
#
# Mechanical properties :
#
#
# Convention : Reuss Voigt Hill
#
# Bulk Modulus (GPa) = 32.31190 48.16941 40.24065
# Shear Modulus (GPa) = 672.56840 27.11171 349.84006
#
# Velocity S-wave (km/s) = 16.76790 3.36658 12.09331
# Velocity P-wave (km/s) = 19.70763 5.93706 14.55403
#
# Compressibility (1/GPa) = 0.03094835
#
# Stress axis : x y z
#
# Youngs Moduli (GPa) = 66.32625 94.82284 40.58793
#
# Poissons Ratio (x) = 0.06427 -0.03688
# Poissons Ratio (y) = 0.04496 0.40129
# Poissons Ratio (z) = -0.06026 0.93751
#
# Static dielectric constant tensor:
#      x y z
#    x 1.981110 0.000000 0.023980 
#    y 0.000000 1.944950 0.000000 
#    z 0.023980 0.000000 1.868490 
# 
# From -- ./inp_files/17285.got.cif
#   From: 2010.05.17/outbox.cif.g08.bks.cpg/sg11_9_cif.got.tgz:17285.got - 2010.06.03 12:22:45.
