data_PCOD9165031
_publ_section_title
;
Structure prediction by ZEFSAII (Michael W. Deem and Ramdas Pophale) SiO2 
 PCOD9165031
Probable space group: P 21/M
;
_chemical_formula_sum "Si O2"
_cell_formula_units_Z 32
_cell_length_a 15.545303
_cell_length_b 8.107337
_cell_length_c 12.068711
_cell_angle_alpha 90.000000
_cell_angle_beta 87.190325
_cell_angle_gamma 90.000000
_cell_volume 1519.203368
_symmetry_space_group_name_H-M "P 21/M"
_symmetry_group_IT_number 11
_symmetry_cell_setting 'monoclinic'
loop_
_space_group_symop_operation_xyz
x,y,z
-x,1/2+y,-z
-x,-y,-z
x,1/2-y,z
loop_
_atom_site_type_symbol
_atom_site_label
_atom_site_fract_x
_atom_site_fract_y
_atom_site_fract_z
Si Si1 0.815434 0.940594 0.916626
Si Si2 0.767686 0.447600 0.489780
Si Si3 0.369611 0.945388 0.062165
Si Si4 0.419086 0.949596 0.581058
Si Si5 0.073037 0.559637 0.911331
Si Si6 0.121358 0.050819 0.321468
Si Si7 0.068910 0.952529 0.661998
Si Si8 0.459356 0.949494 0.829148
O O1 0.837830 0.750000 0.933043
O O2 0.867757 0.002320 0.806621
O O3 0.715586 0.960418 0.897720
O O4 0.839321 0.035127 0.026613
O O5 0.764865 0.250000 0.477066
O O6 0.673067 0.509310 0.461427
O O7 0.799664 0.487236 0.611022
O O8 0.847689 0.510957 0.410229
O O9 0.352934 0.750000 0.063039
O O10 0.447989 0.983379 0.139537
O O11 0.397280 0.996671 0.935565
O O12 0.416873 0.750000 0.582270
O O13 0.431907 0.004164 0.708178
O O14 0.500000 0.000000 0.500000
O O15 0.055533 0.750000 0.894256
O O16 0.076128 0.487415 0.788559
O O17 0.000000 0.500000 0.000000
O O18 0.123831 0.250000 0.322304
O O19 0.027134 0.996930 0.370331
O O20 0.070603 0.750000 0.657834
O O21 0.463214 0.750000 0.828782
#
# Coordination Sequence:
#
# PCOD9165031 Si02
#       8
#     4   4   4   4   4   4   4   4
#     4  11  23  38  57  86 123 158 194 238 291 351
#     4  10  22  39  62  88 112 149 201 248 287 342
#     4  10  21  37  62  91 116 150 195 241 291 353
#     4  10  23  41  61  85 116 154 196 241 296 352
#     4  11  21  37  60  86 119 157 195 236 290 349
#     4  10  21  39  59  83 119 159 195 237 294 348
#     4   9  19  38  62  85 117 156 192 238 294 347
#     4   9  20  40  62  85 117 154 191 239 301 356
#
# _framework density 21.063669999999998
#
# number of rings (size 3 to 8) (size 9 to 14) (size 15 to 20)
#    0.000    2.000    1.250    1.500    3.500    2.500 
#    0.000    1.250    0.000    0.000    0.000    0.000 
#    0.000    0.000    0.000    0.000    0.000    0.000 
#
# Total GULP energy -178654.638062 kJ/mol
# GULP energy per Si atom -5582.957439 kJ/mol
# Density = 2.101573 g / cm^3
# Si number density = 21.063670 Si / 1000 Ang^3
#
#
#
# Elastic Constant Matrix: (Units=GPa)
#
#
# Indices 1 2 3 4 5 6 
#
# 1 131.3440 6.5537 42.4093 0.0000 10.4359 0.0000
# 2 6.5537 7.4019 1.5734 0.0000 -0.5251 0.0000
# 3 42.4093 1.5734 96.1944 0.0000 23.6350 0.0000
# 4 0.0000 0.0000 0.0000 21.9398 0.0000 1.0894
# 5 10.4359 -0.5251 23.6350 0.0000 26.2920 0.0000
# 6 0.0000 0.0000 0.0000 1.0894 0.0000 27.0939
#
#
#
# Elastic Compliance Matrix: (Units=1/GPa)
#
#
# Indices 1 2 3 4 5 6 
#
# 1 0.009262 -0.007400 -0.003880 0.000000 -0.000337 0.000000
# 2 -0.007400 0.142234 -0.000621 0.000000 0.006336 0.000000
# 3 -0.003880 -0.000621 0.015069 0.000000 -0.012019 0.000000
# 4 0.000000 0.000000 0.000000 0.045670 0.000000 -0.001836
# 5 -0.000337 0.006336 -0.012019 0.000000 0.049099 0.000000
# 6 0.000000 0.000000 0.000000 -0.001836 0.000000 0.036982
#
#
# Mechanical properties :
#
#
# Convention : Reuss Voigt Hill
#
# Bulk Modulus (GPa) = 7.00453 37.33477 22.16965
# Shear Modulus (GPa) = 13.52423 27.35875 20.44149
#
# Velocity S-wave (km/s) = 2.53665 3.60788 3.11860
# Velocity P-wave (km/s) = 3.45139 5.92612 4.84928
#
# Compressibility (1/GPa) = 0.14276473
#
# Stress axis : x y z
#
# Youngs Moduli (GPa) = 107.96461 7.03065 66.36013
#
# Poissons Ratio (x) = 0.05203 0.25746
# Poissons Ratio (y) = 0.79895 0.04119
# Poissons Ratio (z) = 0.41888 0.00436
#
# Static dielectric constant tensor:
#      x y z
#    x 1.764960 0.000000 0.004810 
#    y 0.000000 1.757280 0.000000 
#    z 0.004810 0.000000 1.774810 
# 
# From -- ./inp_files/38239.got.cif
#   From: 2010.05.17/outbox.cif.g08.bks.cpg/sg11_20_cif.got.tgz:38239.got - 2010.06.03 12:22:45.
