data_PCOD9165523
_publ_section_title
;
Structure prediction by ZEFSAII (Michael W. Deem and Ramdas Pophale) SiO2 
 PCOD9165523
Probable space group: P 21/M
;
_chemical_formula_sum "Si O2"
_cell_formula_units_Z 32
_cell_length_a 24.309776
_cell_length_b 8.821442
_cell_length_c 14.647240
_cell_angle_alpha 90.000000
_cell_angle_beta 31.757638
_cell_angle_gamma 90.000000
_cell_volume 1653.225961
_symmetry_space_group_name_H-M "P 21/M"
_symmetry_group_IT_number 11
_symmetry_cell_setting 'monoclinic'
loop_
_space_group_symop_operation_xyz
x,y,z
-x,1/2+y,-z
-x,-y,-z
x,1/2-y,z
loop_
_atom_site_type_symbol
_atom_site_label
_atom_site_fract_x
_atom_site_fract_y
_atom_site_fract_z
Si Si1 0.612821 0.931054 0.827130
Si Si2 0.786015 0.567821 0.445686
Si Si3 0.753755 0.070098 0.296904
Si Si4 0.469227 0.068998 0.444825
Si Si5 0.161246 0.070026 0.998710
Si Si6 0.934901 0.069329 0.390374
Si Si7 0.783249 0.567904 0.739987
Si Si8 0.671032 0.931542 0.084412
O O1 0.603483 0.750000 0.840490
O O2 0.673703 0.974737 0.648832
O O3 0.690421 0.972271 0.800346
O O4 0.500000 0.000000 0.000000
O O5 0.791960 0.750000 0.432295
O O6 0.794896 0.495176 0.334246
O O7 0.871241 0.508081 0.397410
O O8 0.743131 0.250000 0.316751
O O9 0.641232 0.996220 0.432724
O O10 0.829170 0.022496 0.107625
O O11 0.462765 0.250000 0.461101
O O12 0.500000 0.000000 0.500000
O O13 0.562116 0.018617 0.245853
O O14 0.160853 0.250000 0.978104
O O15 0.261727 0.039246 0.919660
O O16 0.056658 0.036356 0.202912
O O17 0.920062 0.250000 0.406957
O O18 0.886261 0.008436 0.553279
O O19 0.797485 0.750000 0.717629
O O20 0.742553 0.525394 0.897235
O O21 0.651216 0.750000 0.106536
#
# Coordination Sequence:
#
# PCOD9165523 Si02
#       8
#     4   4   4   4   4   4   4   4
#     4   9  19  34  53  80 112 149 191 238 293 348
#     4  10  22  41  61  85 118 157 197 247 303 356
#     4  12  25  40  62  91 120 158 202 246 300 363
#     4  12  24  40  61  88 123 161 200 247 298 353
#     4  10  22  40  62  87 120 158 201 253 302 352
#     4  10  21  39  62  89 119 157 201 249 303 357
#     4   9  20  38  58  84 118 157 199 245 299 353
#     4  10  21  39  62  88 120 161 204 248 298 354
#
# _framework density 19.356095
#
# number of rings (size 3 to 8) (size 9 to 14) (size 15 to 20)
#    0.000    1.750    1.250    3.750    1.750    5.000 
#    0.000    0.000    0.000    0.000    0.000    0.000 
#    0.000    0.000    0.000    0.000    0.000    0.000 
#
# Total GULP energy -178804.426225 kJ/mol
# GULP energy per Si atom -5587.638320 kJ/mol
# Density = 1.931204 g / cm^3
# Si number density = 19.356095 Si / 1000 Ang^3
#
#
#
# Elastic Constant Matrix: (Units=GPa)
#
#
# Indices 1 2 3 4 5 6 
#
# 1 26.1790 12.9376 4.4120 0.0000 23.3745 0.0000
# 2 12.9376 61.9009 37.4910 0.0000 9.5501 0.0000
# 3 4.4120 37.4910 99.7712 0.0000 9.6434 0.0000
# 4 0.0000 0.0000 0.0000 37.0001 0.0000 2.5461
# 5 23.3745 9.5501 9.6434 0.0000 36.5431 0.0000
# 6 0.0000 0.0000 0.0000 2.5461 0.0000 22.4234
#
#
#
# Elastic Compliance Matrix: (Units=1/GPa)
#
#
# Indices 1 2 3 4 5 6 
#
# 1 0.099927 -0.015921 0.007532 0.000000 -0.061744 0.000000
# 2 -0.015921 0.023892 -0.008881 0.000000 0.006283 0.000000
# 3 0.007532 -0.008881 0.013616 0.000000 -0.006090 0.000000
# 4 0.000000 0.000000 0.000000 0.027240 0.000000 -0.003093
# 5 -0.061744 0.006283 -0.006090 0.000000 0.066824 0.000000
# 6 0.000000 0.000000 0.000000 -0.003093 0.000000 0.044947
#
#
# Mechanical properties :
#
#
# Convention : Reuss Voigt Hill
#
# Bulk Modulus (GPa) = 9.71878 33.05914 21.38896
# Shear Modulus (GPa) = 14.48082 28.06068 21.27075
#
# Velocity S-wave (km/s) = 2.73816 3.81163 3.31859
# Velocity P-wave (km/s) = 3.87668 6.04052 5.07526
#
# Compressibility (1/GPa) = 0.10289358
#
# Stress axis : x y z
#
# Youngs Moduli (GPa) = 10.00733 41.85503 73.44438
#
# Poissons Ratio (x) = 0.66637 -0.55315
# Poissons Ratio (y) = 0.15933 0.65227
# Poissons Ratio (z) = -0.07537 0.37172
#
# Static dielectric constant tensor:
#      x y z
#    x 1.653730 0.000000 0.016750 
#    y 0.000000 1.638240 0.000000 
#    z 0.016750 0.000000 1.685430 
# 
# From -- ./inp_files/55574.got.cif
#   From: 2010.05.17/outbox.cif.g08.bks.cpg/sg11_28_cif.got.tgz:55574.got - 2010.06.03 12:22:45.
