data_PCOD9165524
_publ_section_title
;
Structure prediction by ZEFSAII (Michael W. Deem and Ramdas Pophale) SiO2 
 PCOD9165524
Probable space group: P 21/M
;
_chemical_formula_sum "Si O2"
_cell_formula_units_Z 26
_cell_length_a 8.707358
_cell_length_b 7.847623
_cell_length_c 21.092738
_cell_angle_alpha 90.000000
_cell_angle_beta 131.708280
_cell_angle_gamma 90.000000
_cell_volume 1075.998731
_symmetry_space_group_name_H-M "P 21/M"
_symmetry_group_IT_number 11
_symmetry_cell_setting 'monoclinic'
loop_
_space_group_symop_operation_xyz
x,y,z
-x,1/2+y,-z
-x,-y,-z
x,1/2-y,z
loop_
_atom_site_type_symbol
_atom_site_label
_atom_site_fract_x
_atom_site_fract_y
_atom_site_fract_z
Si Si1 0.780782 0.570953 0.239687
Si Si2 0.182623 0.444800 0.387062
Si Si3 0.723301 0.447782 0.085175
Si Si4 0.353456 0.750000 0.133122
Si Si5 0.882050 0.548224 0.889007
Si Si6 0.774403 0.954346 0.461772
Si Si7 0.349532 0.050648 0.300649
O O1 0.883662 0.750000 0.286184
O O2 0.786035 0.545747 0.165622
O O3 0.541408 0.602248 0.188460
O O4 0.933349 0.440860 0.314645
O O5 0.258189 0.250000 0.408203
O O6 0.250273 0.519959 0.472722
O O7 0.264414 0.522868 0.343693
O O8 0.719321 0.250000 0.102357
O O9 0.888158 0.466933 0.075176
O O10 0.500000 0.500000 0.000000
O O11 0.180563 0.596962 0.078984
O O12 0.835375 0.750000 0.888309
O O13 0.750640 0.481379 0.790640
O O14 0.754457 0.750000 0.455671
O O15 0.593279 0.028231 0.369121
O O16 0.000000 0.000000 0.500000
O O17 0.290989 0.250000 0.283893
#
# Coordination Sequence:
#
# PCOD9165524 Si02
#       7
#     4   4   4   2   4   4   4
#     4  10  23  40  62 101 126 171 219 264 333 389
#     4  10  21  40  62  86 124 165 219 277 329 386
#     4  11  23  43  75 102 131 170 223 283 328 393
#     4  10  26  40  68  98 146 176 216 274 322 434
#     4  10  23  42  68 101 131 178 222 274 342 394
#     4  11  25  38  56  86 122 168 214 270 332 396
#     4  10  21  39  62  88 121 163 218 274 329 388
#
# _framework density 24.163598
#
# number of rings (size 3 to 8) (size 9 to 14) (size 15 to 20)
#    0.462    1.231    1.538    1.846    5.385    3.077 
#    0.000    0.769    0.000    0.000    0.000    0.000 
#    0.000    0.000    0.000    0.000    0.000    0.000 
#
# Total GULP energy -144743.992313 kJ/mol
# GULP energy per Si atom -5567.076627 kJ/mol
# Density = 2.410860 g / cm^3
# Si number density = 24.163598 Si / 1000 Ang^3
#
#
#
# Elastic Constant Matrix: (Units=GPa)
#
#
# Indices 1 2 3 4 5 6 
#
# 1 80.3204 25.4634 12.6811 0.0000 8.4914 0.0000
# 2 25.4634 70.7687 3.5940 0.0000 8.9069 0.0000
# 3 12.6811 3.5940 88.5468 0.0000 -3.5208 0.0000
# 4 0.0000 0.0000 0.0000 16.4816 0.0000 15.0704
# 5 8.4914 8.9069 -3.5208 0.0000 40.7540 0.0000
# 6 0.0000 0.0000 0.0000 15.0704 0.0000 22.3942
#
#
#
# Elastic Compliance Matrix: (Units=1/GPa)
#
#
# Indices 1 2 3 4 5 6 
#
# 1 0.014527 -0.004858 -0.001968 0.000000 -0.002135 0.000000
# 2 -0.004858 0.016201 -0.000063 0.000000 -0.002534 0.000000
# 3 -0.001968 -0.000063 0.011635 0.000000 0.001429 0.000000
# 4 0.000000 0.000000 0.000000 0.157733 0.000000 -0.106148
# 5 -0.002135 -0.002534 0.001429 0.000000 0.025660 0.000000
# 6 0.000000 0.000000 0.000000 -0.106148 0.000000 0.116088
#
#
# Mechanical properties :
#
#
# Convention : Reuss Voigt Hill
#
# Bulk Modulus (GPa) = 34.98426 35.90143 35.44285
# Shear Modulus (GPa) = 13.69307 29.11910 21.40609
#
# Velocity S-wave (km/s) = 2.38309 3.47519 2.97961
# Velocity P-wave (km/s) = 4.69911 5.56709 5.15142
#
# Compressibility (1/GPa) = 0.02858428
#
# Stress axis : x y z
#
# Youngs Moduli (GPa) = 68.83849 61.72579 85.94990
#
# Poissons Ratio (x) = 0.29988 0.16916
# Poissons Ratio (y) = 0.33443 0.00538
# Poissons Ratio (z) = 0.13548 0.00386
#
# Static dielectric constant tensor:
#      x y z
#    x 1.973310 0.000000 -0.046500 
#    y 0.000000 1.443350 0.000000 
#    z -0.046500 0.000000 1.973040 
# 
# From -- ./inp_files/63400.got.cif
#   From: 2010.05.17/outbox.cif.g08.bks.cpg/sg11_32_cif.got.tgz:63400.got - 2010.06.03 12:22:45.
