data_PCOD9165237
_publ_section_title
;
Structure prediction by ZEFSAII (Michael W. Deem and Ramdas Pophale) SiO2 
 PCOD9165237
Probable space group: P 21/M
;
_chemical_formula_sum "Si O2"
_cell_formula_units_Z 28
_cell_length_a 9.282496
_cell_length_b 27.438024
_cell_length_c 7.647282
_cell_angle_alpha 90.000000
_cell_angle_beta 144.065441
_cell_angle_gamma 90.000000
_cell_volume 1143.035819
_symmetry_space_group_name_H-M "P 21/M"
_symmetry_group_IT_number 11
_symmetry_cell_setting 'monoclinic'
loop_
_space_group_symop_operation_xyz
x,y,z
-x,1/2+y,-z
-x,-y,-z
x,1/2-y,z
loop_
_atom_site_type_symbol
_atom_site_label
_atom_site_fract_x
_atom_site_fract_y
_atom_site_fract_z
Si Si1 0.209948 0.695955 0.040795
Si Si2 0.455622 0.481318 0.150666
Si Si3 0.055190 0.033737 0.280408
Si Si4 0.424962 0.194463 0.905821
Si Si5 0.418761 0.300944 0.280517
Si Si6 0.949978 0.615099 0.007481
Si Si7 0.868626 0.899179 0.296903
O O1 0.093720 0.750000 0.897861
O O2 0.367288 0.681785 0.027385
O O3 0.399602 0.702870 0.383793
O O4 0.068845 0.649977 0.976648
O O5 0.712361 0.496547 0.491937
O O6 0.500000 0.500000 0.000000
O O7 0.362748 0.426515 0.024457
O O8 0.213603 0.509164 0.985172
O O9 0.091334 0.066752 0.144293
O O10 0.061429 0.066209 0.468675
O O11 0.340053 0.250000 0.783016
O O12 0.214325 0.153440 0.709568
O O13 0.541221 0.196364 0.212428
O O14 0.264990 0.250000 0.124863
O O15 0.273849 0.349743 0.166225
O O16 0.049164 0.605851 0.304321
#
# Coordination Sequence:
#
# PCOD9165237 Si02
#       7
#     4   4   4   4   4   4   4
#     4  10  21  38  60  90 129 171 216 270 333 400
#     4  10  23  46  71  98 133 182 223 278 341 398
#     4  11  25  45  70  99 138 174 229 281 336 399
#     4   9  19  37  65  96 128 171 217 269 331 401
#     4   9  19  38  58  86 128 169 216 270 331 403
#     4  11  24  37  63  98 126 173 220 279 338 400
#     4  10  22  43  66  98 129 180 217 275 336 402
#
# _framework density 24.496171
#
# number of rings (size 3 to 8) (size 9 to 14) (size 15 to 20)
#    0.000    2.000    0.000    3.000    6.000    2.857 
#   10.286    0.714    0.000    6.857    0.000    0.000 
#    0.000    0.000    0.000    0.000    0.000    0.000 
#
# Total GULP energy -156119.883476 kJ/mol
# GULP energy per Si atom -5575.710124 kJ/mol
# Density = 2.444042 g / cm^3
# Si number density = 24.496171 Si / 1000 Ang^3
#
#
#
# Elastic Constant Matrix: (Units=GPa)
#
#
# Indices 1 2 3 4 5 6 
#
# 1 215.7658 70.0964 40.3941 0.0000 -13.4359 0.0000
# 2 70.0964 155.2802 24.3725 0.0000 18.3450 0.0000
# 3 40.3941 24.3725 70.1603 0.0000 -5.8628 0.0000
# 4 0.0000 0.0000 0.0000 29.6696 0.0000 -4.8696
# 5 -13.4359 18.3450 -5.8628 0.0000 33.7221 0.0000
# 6 0.0000 0.0000 0.0000 -4.8696 0.0000 55.7948
#
#
#
# Elastic Compliance Matrix: (Units=1/GPa)
#
#
# Indices 1 2 3 4 5 6 
#
# 1 0.006226 -0.002885 -0.002277 0.000000 0.003654 0.000000
# 2 -0.002885 0.008782 -0.001913 0.000000 -0.006259 0.000000
# 3 -0.002277 -0.001913 0.016479 0.000000 0.002998 0.000000
# 4 0.000000 0.000000 0.000000 0.034194 0.000000 0.002984
# 5 0.003654 -0.006259 0.002998 0.000000 0.035036 0.000000
# 6 0.000000 0.000000 0.000000 0.002984 0.000000 0.018183
#
#
# Mechanical properties :
#
#
# Convention : Reuss Voigt Hill
#
# Bulk Modulus (GPa) = 57.67818 78.99248 68.33533
# Shear Modulus (GPa) = 36.01561 44.26018 40.13790
#
# Velocity S-wave (km/s) = 3.83855 4.25528 4.05228
# Velocity P-wave (km/s) = 6.57593 7.51399 7.06056
#
# Compressibility (1/GPa) = 0.01733758
#
# Stress axis : x y z
#
# Youngs Moduli (GPa) = 160.62730 113.87093 60.68309
#
# Poissons Ratio (x) = 0.32848 0.13817
# Poissons Ratio (y) = 0.46335 0.11608
# Poissons Ratio (z) = 0.36574 0.21782
#
# Static dielectric constant tensor:
#      x y z
#    x 1.994520 0.000000 0.044900 
#    y 0.000000 2.142260 0.000000 
#    z 0.044900 0.000000 2.007240 
# 
# From -- ./inp_files/15408.got.cif
#   From: 2010.05.17/outbox.cif.g08.bks.cpg/sg11_8_cif.got.tgz:15408.got - 2010.06.03 12:22:45.
