data_PCOD9165626
_publ_section_title
;
Structure prediction by ZEFSAII (Michael W. Deem and Ramdas Pophale) SiO2 
 PCOD9165626
Probable space group: P 21/M
;
_chemical_formula_sum "Si O2"
_cell_formula_units_Z 24
_cell_length_a 10.411664
_cell_length_b 14.312828
_cell_length_c 11.628455
_cell_angle_alpha 90.000000
_cell_angle_beta 134.930183
_cell_angle_gamma 90.000000
_cell_volume 1226.820925
_symmetry_space_group_name_H-M "P 21/M"
_symmetry_group_IT_number 11
_symmetry_cell_setting 'monoclinic'
loop_
_space_group_symop_operation_xyz
x,y,z
-x,1/2+y,-z
-x,-y,-z
x,1/2-y,z
loop_
_atom_site_type_symbol
_atom_site_label
_atom_site_fract_x
_atom_site_fract_y
_atom_site_fract_z
Si Si1 0.335028 0.142329 0.407418
Si Si2 0.971184 0.005826 0.844771
Si Si3 0.711436 0.361020 0.550908
Si Si4 0.325489 0.555834 0.942952
Si Si5 0.197473 0.541676 0.626951
Si Si6 0.577916 0.853901 0.270529
O O1 0.293353 0.250000 0.351264
O O2 0.417845 0.142724 0.588658
O O3 0.503419 0.106516 0.437958
O O4 0.156609 0.079891 0.279501
O O5 0.850682 0.094061 0.729559
O O6 0.165731 0.004039 0.902868
O O7 0.000000 0.000000 0.000000
O O8 0.712349 0.250000 0.562233
O O9 0.768061 0.395183 0.461198
O O10 0.237375 0.595305 0.770633
O O11 0.500000 0.500000 0.000000
O O12 0.393807 0.628066 0.082715
O O13 0.310938 0.445774 0.691556
O O14 0.000000 0.500000 0.500000
O O15 0.647872 0.750000 0.283000
#
# Coordination Sequence:
#
# PCOD9165626 Si02
#       6
#     4   4   4   4   4   4
#     4  10  22  41  66  95 127 165 218 270 325 392
#     4  12  24  40  69  93 129 177 215 275 330 385
#     4  11  24  41  65  97 130 171 218 271 329 395
#     4  10  23  39  60  95 131 165 216 264 319 389
#     4  11  21  41  64  90 131 172 217 267 326 393
#     4  10  21  39  65  91 124 167 215 265 319 385
#
# _framework density 19.562756
#
# number of rings (size 3 to 8) (size 9 to 14) (size 15 to 20)
#    0.000    1.333    3.333    1.500    4.667    2.667 
#    0.000    0.000    0.000    0.000    0.000    0.000 
#    0.000    0.000    0.000    0.000    0.000    0.000 
#
# Total GULP energy -133725.426186 kJ/mol
# GULP energy per Si atom -5571.892758 kJ/mol
# Density = 1.951823 g / cm^3
# Si number density = 19.562756 Si / 1000 Ang^3
#
#
#
# Elastic Constant Matrix: (Units=GPa)
#
#
# Indices 1 2 3 4 5 6 
#
# 1 102.7317 14.1034 27.8807 0.0000 7.2080 0.0000
# 2 14.1034 77.6157 18.1553 0.0000 6.7008 0.0000
# 3 27.8807 18.1553 123.7334 0.0000 -16.2951 0.0000
# 4 0.0000 0.0000 0.0000 3.7156 0.0000 -26.3546
# 5 7.2080 6.7008 -16.2951 0.0000 30.1927 0.0000
# 6 0.0000 0.0000 0.0000 -26.3546 0.0000 -20.4671
#
#
#
# Elastic Compliance Matrix: (Units=1/GPa)
#
#
# Indices 1 2 3 4 5 6 
#
# 1 0.010912 -0.000983 -0.002830 0.000000 -0.003914 0.000000
# 2 -0.000983 0.013977 -0.002376 0.000000 -0.004149 0.000000
# 3 -0.002830 -0.002376 0.009933 0.000000 0.006564 0.000000
# 4 0.000000 0.000000 0.000000 0.026559 0.000000 -0.034200
# 5 -0.003914 -0.004149 0.006564 0.000000 0.038518 0.000000
# 6 0.000000 0.000000 0.000000 -0.034200 0.000000 -0.004822
#
#
# Mechanical properties :
#
#
# Convention : Reuss Voigt Hill
#
# Bulk Modulus (GPa) = 44.55616 47.15107 45.85362
# Shear Modulus (GPa) = 43.50272 18.95099 31.22686
#
# Velocity S-wave (km/s) = 4.72078 3.11582 3.99963
# Velocity P-wave (km/s) = 7.24844 6.09091 6.69474
#
# Compressibility (1/GPa) = 0.02244358
#
# Stress axis : x y z
#
# Youngs Moduli (GPa) = 91.64470 71.54846 100.67905
#
# Poissons Ratio (x) = 0.07032 0.28492
# Poissons Ratio (y) = 0.09007 0.23919
# Poissons Ratio (z) = 0.25935 0.16998
#
# Static dielectric constant tensor:
#      x y z
#    x 1.835490 0.000000 0.023750 
#    y 0.000000 1.656560 0.000000 
#    z 0.023750 0.000000 1.745450 
# 
# From -- ./inp_files/34920.got.cif
#   From: 2010.05.17/outbox.cif.g08.bks.cpg/sg11_18_cif.got.tgz:34920.got - 2010.06.03 12:22:45.
