data_PCOD9165252
_publ_section_title
;
Structure prediction by ZEFSAII (Michael W. Deem and Ramdas Pophale) SiO2 
 PCOD9165252
Probable space group: P 21/M
;
_chemical_formula_sum "Si O2"
_cell_formula_units_Z 32
_cell_length_a 16.978777
_cell_length_b 18.409221
_cell_length_c 12.815047
_cell_angle_alpha 90.000000
_cell_angle_beta 154.841660
_cell_angle_gamma 90.000000
_cell_volume 1702.843983
_symmetry_space_group_name_H-M "P 21/M"
_symmetry_group_IT_number 11
_symmetry_cell_setting 'monoclinic'
loop_
_space_group_symop_operation_xyz
x,y,z
-x,1/2+y,-z
-x,-y,-z
x,1/2-y,z
loop_
_atom_site_type_symbol
_atom_site_label
_atom_site_fract_x
_atom_site_fract_y
_atom_site_fract_z
Si Si1 0.376518 0.910875 0.117240
Si Si2 0.133753 0.333469 0.658804
Si Si3 0.638275 0.583347 0.895147
Si Si4 0.748598 0.836106 0.625731
Si Si5 0.694323 0.166421 0.178095
Si Si6 0.122233 0.164573 0.985296
Si Si7 0.007755 0.337145 0.281971
Si Si8 0.303806 0.836348 0.579622
O O1 0.557768 0.879592 0.390365
O O2 0.366952 0.997092 0.112053
O O3 0.385061 0.884265 0.007030
O O4 0.188550 0.876454 0.938982
O O5 0.199924 0.250000 0.751157
O O6 0.130390 0.352452 0.532370
O O7 0.918010 0.334940 0.434534
O O8 0.247889 0.386596 0.868538
O O9 0.435262 0.617444 0.663615
O O10 0.740824 0.615732 0.917763
O O11 0.708243 0.750000 0.565177
O O12 0.883569 0.857027 0.692299
O O13 0.845773 0.846161 0.853668
O O14 0.634907 0.250000 0.087635
O O15 0.650345 0.147132 0.244315
O O16 0.156808 0.250000 0.002443
O O17 0.911408 0.148929 0.700071
O O18 0.974781 0.250000 0.243062
O O19 0.333315 0.750000 0.599476
#
# Coordination Sequence:
#
# PCOD9165252 Si02
#       8
#     4   4   4   4   4   4   4   4
#     4  11  24  38  56  92 129 159 187 237 303 365
#     4   9  17  35  59  84 117 153 197 246 291 347
#     4  12  24  36  57  92 127 162 189 232 303 371
#     4  10  22  42  67  87 111 153 207 254 289 342
#     4   9  18  36  61  84 117 156 198 252 293 337
#     4  10  22  43  65  86 114 152 206 258 289 335
#     4   9  20  39  63  88 113 153 204 249 294 341
#     4  10  21  38  61  87 114 153 204 251 294 341
#
# _framework density 18.792092
#
# number of rings (size 3 to 8) (size 9 to 14) (size 15 to 20)
#    0.000    2.000    1.250    3.000    1.750    5.000 
#    0.000    3.750    0.000    0.000    0.000    0.000 
#    0.000    0.000    0.000    0.000    0.000    0.000 
#
# Total GULP energy -178812.676131 kJ/mol
# GULP energy per Si atom -5587.896129 kJ/mol
# Density = 1.874932 g / cm^3
# Si number density = 18.792092 Si / 1000 Ang^3
#
#
#
# Elastic Constant Matrix: (Units=GPa)
#
#
# Indices 1 2 3 4 5 6 
#
# 1 111.3247 47.6678 24.1116 0.0000 0.1192 0.0000
# 2 47.6678 50.6031 13.7967 0.0000 2.4983 0.0000
# 3 24.1116 13.7967 24.0352 0.0000 -4.7540 0.0000
# 4 0.0000 0.0000 0.0000 -64.9529 0.0000 8.9781
# 5 0.1192 2.4983 -4.7540 0.0000 18.2460 0.0000
# 6 0.0000 0.0000 0.0000 8.9781 0.0000 4.3456
#
#
#
# Elastic Compliance Matrix: (Units=1/GPa)
#
#
# Indices 1 2 3 4 5 6 
#
# 1 0.016585 -0.013053 -0.009292 0.000000 -0.000742 0.000000
# 2 -0.013053 0.034601 -0.008105 0.000000 -0.006764 0.000000
# 3 -0.009292 -0.008105 0.058844 0.000000 0.016502 0.000000
# 4 0.000000 0.000000 0.000000 -0.011976 0.000000 0.024742
# 5 -0.000742 -0.006764 0.016502 0.000000 0.060037 0.000000
# 6 0.000000 0.000000 0.000000 0.024742 0.000000 0.179000
#
#
# Mechanical properties :
#
#
# Convention : Reuss Voigt Hill
#
# Bulk Modulus (GPa) = 20.35430 39.67947 30.01689
# Shear Modulus (GPa) = 12.06655 -1.77981 5.14337
#
# Velocity S-wave (km/s) = 2.53673 -0.97425 1.65618
# Velocity P-wave (km/s) = 4.40850 4.46041 4.43453
#
# Compressibility (1/GPa) = 0.04912966
#
# Stress axis : x y z
#
# Youngs Moduli (GPa) = 60.29458 28.90053 16.99417
#
# Poissons Ratio (x) = 0.37724 0.15791
# Poissons Ratio (y) = 0.78703 0.13774
# Poissons Ratio (z) = 0.56025 0.23425
#
# Static dielectric constant tensor:
#      x y z
#    x 1.651620 0.000000 0.003540 
#    y 0.000000 1.615580 0.000000 
#    z 0.003540 0.000000 1.640980 
# 
# From -- ./inp_files/40036.got.cif
#   From: 2010.05.17/outbox.cif.g08.bks.cpg/sg11_21_cif.got.tgz:40036.got - 2010.06.03 12:22:45.
