data_PCOD9165559
_publ_section_title
;
Structure prediction by ZEFSAII (Michael W. Deem and Ramdas Pophale) SiO2 
 PCOD9165559
Probable space group: P 21/M
;
_chemical_formula_sum "Si O2"
_cell_formula_units_Z 28
_cell_length_a 8.822962
_cell_length_b 7.517188
_cell_length_c 27.432275
_cell_angle_alpha 90.000000
_cell_angle_beta 37.648840
_cell_angle_gamma 90.000000
_cell_volume 1111.335306
_symmetry_space_group_name_H-M "P 21/M"
_symmetry_group_IT_number 11
_symmetry_cell_setting 'monoclinic'
loop_
_space_group_symop_operation_xyz
x,y,z
-x,1/2+y,-z
-x,-y,-z
x,1/2-y,z
loop_
_atom_site_type_symbol
_atom_site_label
_atom_site_fract_x
_atom_site_fract_y
_atom_site_fract_z
Si Si1 0.024089 0.048863 0.621810
Si Si2 0.595726 0.537330 0.671850
Si Si3 0.688794 0.966256 0.545276
Si Si4 0.260535 0.462459 0.908093
Si Si5 0.876718 0.449106 0.300259
Si Si6 0.317884 0.949705 0.123823
Si Si7 0.914021 0.961479 0.154509
O O1 0.111318 0.250000 0.608968
O O2 0.180322 0.970303 0.536852
O O3 0.739150 0.052059 0.678967
O O4 0.034898 0.937758 0.667061
O O5 0.617387 0.750000 0.668867
O O6 0.751336 0.476252 0.584351
O O7 0.307595 0.490632 0.749915
O O8 0.703591 0.750000 0.540020
O O9 0.400293 0.017600 0.621153
O O10 0.310385 0.250000 0.890924
O O11 0.470183 0.530449 0.893912
O O12 0.203752 0.529780 0.866849
O O13 0.000000 0.500000 0.000000
O O14 0.864285 0.250000 0.282204
O O15 0.080200 0.558269 0.219905
O O16 0.403853 0.750000 0.089083
O O17 0.178279 0.027760 0.110467
O O18 0.950819 0.750000 0.139010
#
# Coordination Sequence:
#
# PCOD9165559 Si02
#       7
#     4   4   4   4   4   4   4
#     4  11  22  36  53  78 114 159 202 249 307 363
#     4  11  21  37  58  84 115 151 199 253 301 353
#     4   9  20  36  54  79 115 151 196 253 305 355
#     4  10  23  42  63  91 125 154 192 240 289 356
#     4  11  21  37  58  84 115 151 199 253 301 353
#     4  10  21  39  63  90 122 161 199 241 297 360
#     4  10  21  39  63  90 122 161 199 241 297 360
#
# _framework density 25.194918999999999
#
# number of rings (size 3 to 8) (size 9 to 14) (size 15 to 20)
#    0.000    1.714    1.429    3.000    0.000    2.857 
#    0.000    4.286    0.000    0.000    0.000    0.000 
#    0.000    0.000    0.000    0.000    0.000    0.000 
#
# Total GULP energy -156115.232703 kJ/mol
# GULP energy per Si atom -5575.544025 kJ/mol
# Density = 2.513757 g / cm^3
# Si number density = 25.194919 Si / 1000 Ang^3
#
#
#
# Elastic Constant Matrix: (Units=GPa)
#
#
# Indices 1 2 3 4 5 6 
#
# 1 138.7329 8.9208 13.9044 0.0000 -4.5612 0.0000
# 2 8.9208 68.5561 -3.8465 0.0000 4.2497 0.0000
# 3 13.9044 -3.8465 64.2739 0.0000 -9.8699 0.0000
# 4 0.0000 0.0000 0.0000 25.4026 0.0000 3.1784
# 5 -4.5612 4.2497 -9.8699 0.0000 33.4392 0.0000
# 6 0.0000 0.0000 0.0000 3.1784 0.0000 8.2195
#
#
#
# Elastic Compliance Matrix: (Units=1/GPa)
#
#
# Indices 1 2 3 4 5 6 
#
# 1 0.007459 -0.001102 -0.001573 0.000000 0.000693 0.000000
# 2 -0.001102 0.014889 0.000854 0.000000 -0.001790 0.000000
# 3 -0.001573 0.000854 0.016655 0.000000 0.004593 0.000000
# 4 0.000000 0.000000 0.000000 0.041367 0.000000 -0.015996
# 5 0.000693 -0.001790 0.004593 0.000000 0.031583 0.000000
# 6 0.000000 0.000000 0.000000 -0.015996 0.000000 0.127847
#
#
# Mechanical properties :
#
#
# Convention : Reuss Voigt Hill
#
# Bulk Modulus (GPa) = 28.27871 34.39113 31.33492
# Shear Modulus (GPa) = 19.59024 30.25121 24.92072
#
# Velocity S-wave (km/s) = 2.79148 3.46885 3.14844
# Velocity P-wave (km/s) = 4.65168 5.45193 5.06763
#
# Compressibility (1/GPa) = 0.03536229
#
# Stress axis : x y z
#
# Youngs Moduli (GPa) = 134.05881 67.16412 60.04148
#
# Poissons Ratio (x) = 0.07401 0.09446
# Poissons Ratio (y) = 0.14772 -0.05130
# Poissons Ratio (z) = 0.21090 -0.05739
#
# Static dielectric constant tensor:
#      x y z
#    x 2.165580 0.000000 0.042020 
#    y 0.000000 2.068240 0.000000 
#    z 0.042020 0.000000 1.946640 
# 
# From -- ./inp_files/70790.got.cif
#   From: 2010.05.17/outbox.cif.g08.bks.cpg/sg11_36_cif.got.tgz:70790.got - 2010.06.03 12:22:45.
