data_PCOD9165932
_publ_section_title
;
Structure prediction by ZEFSAII (Michael W. Deem and Ramdas Pophale) SiO2 
 PCOD9165932
Probable space group: P 21/M
;
_chemical_formula_sum "Si O2"
_cell_formula_units_Z 16
_cell_length_a 12.776157
_cell_length_b 10.173971
_cell_length_c 9.647702
_cell_angle_alpha 90.000000
_cell_angle_beta 34.192767
_cell_angle_gamma 90.000000
_cell_volume 704.749334
_symmetry_space_group_name_H-M "P 21/M"
_symmetry_group_IT_number 11
_symmetry_cell_setting 'monoclinic'
loop_
_space_group_symop_operation_xyz
x,y,z
-x,1/2+y,-z
-x,-y,-z
x,1/2-y,z
loop_
_atom_site_type_symbol
_atom_site_label
_atom_site_fract_x
_atom_site_fract_y
_atom_site_fract_z
Si Si1 0.943612 0.608617 0.234843
Si Si2 0.332342 0.393368 0.034453
Si Si3 0.290103 0.031346 0.770951
Si Si4 0.230728 0.596742 0.367058
O O1 0.919367 0.750000 0.330653
O O2 0.810882 0.602343 0.245705
O O3 0.887173 0.486483 0.393268
O O4 0.154167 0.591378 0.950802
O O5 0.277077 0.250000 0.151074
O O6 0.233820 0.513593 0.221366
O O7 0.297258 0.396452 0.909891
O O8 0.554290 0.406587 0.816562
O O9 0.500000 0.000000 0.500000
O O10 0.176711 0.750000 0.413281
#
# Coordination Sequence:
#
# PCOD9165932 Si02
#       4
#     4   4   4   4
#     4  11  25  43  70 104 136 174 226 279 332 402
#     4  10  21  41  69  98 131 177 226 276 334 397
#     4  11  24  45  67 100 136 181 220 277 336 402
#     4  10  22  42  67  99 136 174 222 278 336 399
#
# _framework density 22.703108
#
# number of rings (size 3 to 8) (size 9 to 14) (size 15 to 20)
#    0.000    1.500    2.500    1.500    0.000   10.000 
#    0.000    0.000    0.000    0.000    0.000    0.000 
#    0.000    0.000    0.000    0.000    0.000    0.000 
#
# Total GULP energy -89455.113679 kJ/mol
# GULP energy per Si atom -5590.944605 kJ/mol
# Density = 2.265143 g / cm^3
# Si number density = 22.703108 Si / 1000 Ang^3
#
#
#
# Elastic Constant Matrix: (Units=GPa)
#
#
# Indices 1 2 3 4 5 6 
#
# 1 108.8244 40.5504 65.5495 0.0000 -6.2309 0.0000
# 2 40.5504 216.1104 86.3054 0.0000 12.9076 0.0000
# 3 65.5495 86.3054 145.6263 0.0000 -1.1055 0.0000
# 4 0.0000 0.0000 0.0000 13.1380 0.0000 7.8379
# 5 -6.2309 12.9076 -1.1055 0.0000 41.2563 0.0000
# 6 0.0000 0.0000 0.0000 7.8379 0.0000 -3.8829
#
#
#
# Elastic Compliance Matrix: (Units=1/GPa)
#
#
# Indices 1 2 3 4 5 6 
#
# 1 0.012748 -0.000285 -0.005555 0.000000 0.001866 0.000000
# 2 -0.000285 0.006237 -0.003584 0.000000 -0.002090 0.000000
# 3 -0.005555 -0.003584 0.011496 0.000000 0.000590 0.000000
# 4 0.000000 0.000000 0.000000 0.034531 0.000000 0.069703
# 5 0.001866 -0.002090 0.000590 0.000000 0.025190 0.000000
# 6 0.000000 0.000000 0.000000 0.069703 0.000000 -0.116838
#
#
# Mechanical properties :
#
#
# Convention : Reuss Voigt Hill
#
# Bulk Modulus (GPa) = 85.96322 95.04131 90.50227
# Shear Modulus (GPa) = -1278.66980 28.64599 -625.01190
#
# Velocity S-wave (km/s) = -23.75787 3.55599 -16.61011
# Velocity P-wave (km/s) = 26.73266 7.66900 18.10831
#
# Compressibility (1/GPa) = 0.01163288
#
# Stress axis : x y z
#
# Youngs Moduli (GPa) = 78.44203 160.33792 86.98774
#
# Poissons Ratio (x) = 0.04569 0.48324
# Poissons Ratio (y) = 0.02235 0.31175
# Poissons Ratio (z) = 0.43576 0.57463
#
# Static dielectric constant tensor:
#      x y z
#    x 1.830240 0.000000 -0.017850 
#    y 0.000000 1.840350 0.000000 
#    z -0.017850 0.000000 1.829370 
# 
# From -- ./inp_files/16476.got.cif
#   From: 2010.05.17/outbox.cif.g08.bks.cpg/sg11_9_cif.got.tgz:16476.got - 2010.06.03 12:22:45.
