data_PCOD9165635
_publ_section_title
;
Structure prediction by ZEFSAII (Michael W. Deem and Ramdas Pophale) SiO2 
 PCOD9165635
Probable space group: P 21/M
;
_chemical_formula_sum "Si O2"
_cell_formula_units_Z 32
_cell_length_a 11.931874
_cell_length_b 8.558035
_cell_length_c 15.305911
_cell_angle_alpha 90.000000
_cell_angle_beta 92.406590
_cell_angle_gamma 90.000000
_cell_volume 1561.560040
_symmetry_space_group_name_H-M "P 21/M"
_symmetry_group_IT_number 11
_symmetry_cell_setting 'monoclinic'
loop_
_space_group_symop_operation_xyz
x,y,z
-x,1/2+y,-z
-x,-y,-z
x,1/2-y,z
loop_
_atom_site_type_symbol
_atom_site_label
_atom_site_fract_x
_atom_site_fract_y
_atom_site_fract_z
Si Si1 0.328954 0.565594 0.583163
Si Si2 0.917570 0.566998 0.423126
Si Si3 0.065962 0.932630 0.131597
Si Si4 0.512665 0.935184 0.264983
Si Si5 0.420430 0.563410 0.920531
Si Si6 0.090131 0.430121 0.311322
Si Si7 0.317027 0.938603 0.387909
Si Si8 0.163713 0.563152 0.943028
O O1 0.348812 0.750000 0.595756
O O2 0.197311 0.527652 0.582269
O O3 0.390703 0.474425 0.661920
O O4 0.364188 0.521120 0.485370
O O5 0.896405 0.750000 0.436245
O O6 0.000000 0.500000 0.500000
O O7 0.986210 0.536703 0.336837
O O8 0.076937 0.750000 0.153703
O O9 0.132682 0.960575 0.043797
O O10 0.113231 0.036037 0.211129
O O11 0.935811 0.977095 0.111690
O O12 0.507191 0.750000 0.250452
O O13 0.399775 0.983867 0.312360
O O14 0.534432 0.014796 0.173067
O O15 0.419123 0.750000 0.927230
O O16 0.500000 0.500000 0.000000
O O17 0.290294 0.510698 0.926813
O O18 0.062416 0.250000 0.325795
O O19 0.198497 0.479604 0.369751
O O20 0.301712 0.750000 0.385947
O O21 0.155167 0.750000 0.925030
#
# Coordination Sequence:
#
# PCOD9165635 Si02
#       8
#     4   4   4   4   4   4   4   4
#     4  11  23  42  68  96 129 171 215 268 321 379
#     4  12  24  41  63  92 128 168 211 257 313 375
#     4  10  21  39  65  94 125 162 206 261 317 381
#     4  11  25  44  67  96 129 171 218 268 323 382
#     4  11  25  45  67  94 128 168 215 268 322 386
#     4  12  25  39  62  94 129 169 212 261 316 382
#     4  10  23  43  66  92 129 172 219 269 320 377
#     4   9  21  42  65  90 124 163 207 260 320 380
#
# _framework density 20.492328000000001
#
# number of rings (size 3 to 8) (size 9 to 14) (size 15 to 20)
#    0.000    1.250    1.250    4.125    3.500    3.000 
#    0.000    0.000    0.000    0.000    0.000    0.000 
#    0.000    0.000    0.000    0.000    0.000    0.000 
#
# Total GULP energy -178948.267074 kJ/mol
# GULP energy per Si atom -5592.133346 kJ/mol
# Density = 2.044569 g / cm^3
# Si number density = 20.492328 Si / 1000 Ang^3
#
#
#
# Elastic Constant Matrix: (Units=GPa)
#
#
# Indices 1 2 3 4 5 6 
#
# 1 84.1212 7.0235 27.5195 0.0000 -16.3245 0.0000
# 2 7.0235 26.8289 21.9897 0.0000 -2.6215 0.0000
# 3 27.5195 21.9897 99.5083 0.0000 -3.9041 0.0000
# 4 0.0000 0.0000 0.0000 35.3704 0.0000 4.7392
# 5 -16.3245 -2.6215 -3.9041 0.0000 24.3570 0.0000
# 6 0.0000 0.0000 0.0000 4.7392 0.0000 29.5935
#
#
#
# Elastic Compliance Matrix: (Units=1/GPa)
#
#
# Indices 1 2 3 4 5 6 
#
# 1 0.014946 0.000113 -0.003789 0.000000 0.009422 0.000000
# 2 0.000113 0.045785 -0.010016 0.000000 0.003398 0.000000
# 3 -0.003789 -0.010016 0.013252 0.000000 -0.001493 0.000000
# 4 0.000000 0.000000 0.000000 0.028892 0.000000 -0.004627
# 5 0.009422 0.003398 -0.001493 0.000000 0.047497 0.000000
# 6 0.000000 0.000000 0.000000 -0.004627 0.000000 0.034532
#
#
# Mechanical properties :
#
#
# Convention : Reuss Voigt Hill
#
# Bulk Modulus (GPa) = 21.45903 35.94708 28.70306
# Shear Modulus (GPa) = 21.94716 28.12590 25.03653
#
# Velocity S-wave (km/s) = 3.27616 3.70876 3.49915
# Velocity P-wave (km/s) = 4.98050 5.99330 5.51022
#
# Compressibility (1/GPa) = 0.04660043
#
# Stress axis : x y z
#
# Youngs Moduli (GPa) = 66.90736 21.84136 75.46069
#
# Poissons Ratio (x) = -0.00248 0.28590
# Poissons Ratio (y) = -0.00758 0.75579
# Poissons Ratio (z) = 0.25350 0.21876
#
# Static dielectric constant tensor:
#      x y z
#    x 1.717750 0.000000 -0.022190 
#    y 0.000000 1.685320 0.000000 
#    z -0.022190 0.000000 1.742900 
# 
# From -- ./inp_files/49328.got.cif
#   From: 2010.05.17/outbox.cif.g08.bks.cpg/sg11_25_cif.got.tgz:49328.got - 2010.06.03 12:22:45.
