data_PCOD9165058
_publ_section_title
;
Structure prediction by ZEFSAII (Michael W. Deem and Ramdas Pophale) SiO2 
 PCOD9165058
Probable space group: P 21/M
;
_chemical_formula_sum "Si O2"
_cell_formula_units_Z 26
_cell_length_a 7.549897
_cell_length_b 23.547915
_cell_length_c 10.696849
_cell_angle_alpha 90.000000
_cell_angle_beta 45.105181
_cell_angle_gamma 90.000000
_cell_volume 1347.194031
_symmetry_space_group_name_H-M "P 21/M"
_symmetry_group_IT_number 11
_symmetry_cell_setting 'monoclinic'
loop_
_space_group_symop_operation_xyz
x,y,z
-x,1/2+y,-z
-x,-y,-z
x,1/2-y,z
loop_
_atom_site_type_symbol
_atom_site_label
_atom_site_fract_x
_atom_site_fract_y
_atom_site_fract_z
Si Si1 0.461420 0.849065 0.241738
Si Si2 0.260062 0.936575 0.533915
Si Si3 0.327882 0.436576 0.466088
Si Si4 0.349620 0.937868 0.936872
Si Si5 0.944885 0.150935 0.758264
Si Si6 0.734945 0.750000 0.265060
Si Si7 0.223363 0.437869 0.063124
O O1 0.290408 0.889431 0.413832
O O2 0.580456 0.799483 0.263523
O O3 0.288434 0.829608 0.211571
O O4 0.679194 0.889867 0.078870
O O5 0.519127 0.937185 0.480876
O O6 0.038473 0.924772 0.741298
O O7 0.221138 0.999999 0.499999
O O8 0.521055 0.424771 0.258706
O O9 0.118054 0.389434 0.586176
O O10 0.571514 0.940521 0.928489
O O11 0.163080 0.889865 0.078863
O O12 0.223100 0.999999 1.000000
O O13 0.107498 0.200517 0.736470
#
# Coordination Sequence:
#
# PCOD9165058 Si02
#       7
#     4   4   4   4   4   2   4
#     4  11  24  44  68  95 130 171 218 269 320 384
#     4  11  22  36  63 101 137 168 206 263 333 394
#     4  11  22  36  63 101 137 168 206 263 333 394
#     4  10  21  37  63  98 132 166 206 261 331 394
#     4  11  24  44  68  95 130 171 218 269 320 384
#     4  12  26  48  66  90 124 182 230 266 310 374
#     4  10  21  37  63  98 132 166 206 261 331 394
#
# _framework density 19.299372000000002
#
# number of rings (size 3 to 8) (size 9 to 14) (size 15 to 20)
#    0.000    1.231    4.615    1.385    2.154    1.846 
#    0.000    3.077    0.000    3.692    0.000    0.000 
#    0.000    0.000    0.000    0.000    0.000    0.000 
#
# Total GULP energy -144778.876565 kJ/mol
# GULP energy per Si atom -5568.418329 kJ/mol
# Density = 1.925545 g / cm^3
# Si number density = 19.299372 Si / 1000 Ang^3
#
#
#
# Elastic Constant Matrix: (Units=GPa)
#
#
# Indices 1 2 3 4 5 6 
#
# 1 110.8045 74.4695 18.7152 0.0000 -0.6711 0.0000
# 2 74.4695 160.2805 52.2962 0.0000 -0.2503 0.0000
# 3 18.7152 52.2962 122.3916 0.0000 0.8111 0.0000
# 4 0.0000 0.0000 0.0000 -2.3987 0.0000 -0.8112
# 5 -0.6711 -0.2503 0.8111 0.0000 16.7455 0.0000
# 6 0.0000 0.0000 0.0000 -0.8112 0.0000 68.2719
#
#
#
# Elastic Compliance Matrix: (Units=1/GPa)
#
#
# Indices 1 2 3 4 5 6 
#
# 1 0.013176 -0.006348 0.000695 0.000000 0.000400 0.000000
# 2 -0.006348 0.010309 -0.003435 0.000000 0.000066 0.000000
# 3 0.000695 -0.003435 0.009535 0.000000 -0.000485 0.000000
# 4 0.000000 0.000000 0.000000 -0.415230 0.000000 -0.004934
# 5 0.000400 0.000066 -0.000485 0.000000 0.059758 0.000000
# 6 0.000000 0.000000 0.000000 -0.004934 0.000000 0.014589
#
#
# Mechanical properties :
#
#
# Convention : Reuss Voigt Hill
#
# Bulk Modulus (GPa) = 67.36295 76.04872 71.70583
# Shear Modulus (GPa) = -17.55996 33.05681 7.74843
#
# Velocity S-wave (km/s) = -3.01968 4.14314 2.00588
# Velocity P-wave (km/s) = 4.77724 7.89796 6.52686
#
# Compressibility (1/GPa) = 0.01484496
#
# Stress axis : x y z
#
# Youngs Moduli (GPa) = 75.89324 96.99955 104.87615
#
# Poissons Ratio (x) = 0.61577 -0.07289
# Poissons Ratio (y) = 0.48178 0.36022
# Poissons Ratio (z) = -0.05274 0.33317
#
# Static dielectric constant tensor:
#      x y z
#    x 1.702350 0.000000 -0.000330 
#    y 0.000000 1.639970 0.000000 
#    z -0.000330 0.000000 1.674130 
# 
# From -- ./inp_files/32610.got.cif
#   From: 2010.05.17/outbox.cif.g08.bks.cpg/sg11_17_cif.got.tgz:32610.got - 2010.06.03 12:22:45.
