data_PCOD9165887
_publ_section_title
;
Structure prediction by ZEFSAII (Michael W. Deem and Ramdas Pophale) SiO2 
 PCOD9165887
Probable space group: P 21/M
;
_chemical_formula_sum "Si O2"
_cell_formula_units_Z 20
_cell_length_a 12.423339
_cell_length_b 11.815071
_cell_length_c 5.116197
_cell_angle_alpha 90.000000
_cell_angle_beta 100.272021
_cell_angle_gamma 90.000000
_cell_volume 738.932510
_symmetry_space_group_name_H-M "P 21/M"
_symmetry_group_IT_number 11
_symmetry_cell_setting 'monoclinic'
loop_
_space_group_symop_operation_xyz
x,y,z
-x,1/2+y,-z
-x,-y,-z
x,1/2-y,z
loop_
_atom_site_type_symbol
_atom_site_label
_atom_site_fract_x
_atom_site_fract_y
_atom_site_fract_z
Si Si1 0.957742 0.873265 0.714913
Si Si2 0.245505 0.122698 0.695128
Si Si3 0.556790 0.250000 0.096300
Si Si4 0.710197 0.250000 0.664347
Si Si5 0.171800 0.553501 0.009166
Si Si6 0.434961 0.114311 0.386266
O O1 0.935151 0.750000 0.820745
O O2 0.885144 0.878301 0.422276
O O3 0.087871 0.887586 0.768907
O O4 0.901801 0.966068 0.866589
O O5 0.269597 0.250000 0.804153
O O6 0.314892 0.101885 0.460940
O O7 0.262953 0.018611 0.896903
O O8 0.653801 0.250000 0.358561
O O9 0.479861 0.139945 0.111918
O O10 0.621216 0.250000 0.857845
O O11 0.781323 0.141057 0.763827
O O12 0.453507 0.250000 0.477740
O O13 0.500000 0.000000 0.500000
#
# Coordination Sequence:
#
# PCOD9165887 Si02
#       6
#     4   4   2   2   4   4
#     4  10  22  41  60  97 134 174 237 279 353 408
#     4  10  21  41  65  95 132 174 228 284 352 410
#     4  10  26  48  69 101 142 182 232 294 342 413
#     4  12  26  46  71 103 140 182 236 280 346 413
#     4  11  23  39  65  94 135 183 224 289 339 424
#     4   9  20  40  66  95 135 174 235 283 350 407
#
# _framework density 27.06607
#
# number of rings (size 3 to 8) (size 9 to 14) (size 15 to 20)
#    0.600    1.200    1.000    2.400    5.600    0.000 
#    3.600    2.000    0.000    0.000    0.000    0.000 
#    0.000    0.000    0.000    0.000    0.000    0.000 
#
# Total GULP energy -111645.258404 kJ/mol
# GULP energy per Si atom -5582.262920 kJ/mol
# Density = 2.700447 g / cm^3
# Si number density = 27.066070 Si / 1000 Ang^3
#
#
#
# Elastic Constant Matrix: (Units=GPa)
#
#
# Indices 1 2 3 4 5 6 
#
# 1 93.5357 35.1750 36.3970 0.0000 17.4261 0.0000
# 2 35.1750 164.8284 33.7262 0.0000 11.6901 0.0000
# 3 36.3970 33.7262 85.3494 0.0000 3.7420 0.0000
# 4 0.0000 0.0000 0.0000 28.0674 0.0000 -0.3547
# 5 17.4261 11.6901 3.7420 0.0000 38.2849 0.0000
# 6 0.0000 0.0000 0.0000 -0.3547 0.0000 13.0821
#
#
#
# Elastic Compliance Matrix: (Units=1/GPa)
#
#
# Indices 1 2 3 4 5 6 
#
# 1 0.014368 -0.001599 -0.005253 0.000000 -0.005538 0.000000
# 2 -0.001599 0.006900 -0.001993 0.000000 -0.001184 0.000000
# 3 -0.005253 -0.001993 0.014675 0.000000 0.001565 0.000000
# 4 0.000000 0.000000 0.000000 0.035641 0.000000 0.000966
# 5 -0.005538 -0.001184 0.001565 0.000000 0.028850 0.000000
# 6 0.000000 0.000000 0.000000 0.000966 0.000000 0.076467
#
#
# Mechanical properties :
#
#
# Convention : Reuss Voigt Hill
#
# Bulk Modulus (GPa) = 54.77962 61.59000 58.18481
# Shear Modulus (GPa) = 24.91607 31.78121 28.34864
#
# Velocity S-wave (km/s) = 3.03737 3.43039 3.23985
# Velocity P-wave (km/s) = 5.70824 6.20443 5.96150
#
# Compressibility (1/GPa) = 0.01825497
#
# Stress axis : x y z
#
# Youngs Moduli (GPa) = 69.59885 144.93096 68.14122
#
# Poissons Ratio (x) = 0.23169 0.35792
# Poissons Ratio (y) = 0.11126 0.13580
# Poissons Ratio (z) = 0.36558 0.28883
#
# Static dielectric constant tensor:
#      x y z
#    x 2.185770 0.000000 0.060170 
#    y 0.000000 2.117200 0.000000 
#    z 0.060170 0.000000 2.321250 
# 
# From -- ./inp_files/6247.got.cif
#   From: 2010.05.17/outbox.cif.g08.bks.cpg/sg11_4_cif.got.tgz:6247.got - 2010.06.03 12:22:45.
