data_PCOD9165383
_publ_section_title
;
Structure prediction by ZEFSAII (Michael W. Deem and Ramdas Pophale) SiO2 
 PCOD9165383
Probable space group: P 21/M
;
_chemical_formula_sum "Si O2"
_cell_formula_units_Z 28
_cell_length_a 17.652873
_cell_length_b 12.387336
_cell_length_c 10.132807
_cell_angle_alpha 90.000000
_cell_angle_beta 28.165772
_cell_angle_gamma 90.000000
_cell_volume 1045.893220
_symmetry_space_group_name_H-M "P 21/M"
_symmetry_group_IT_number 11
_symmetry_cell_setting 'monoclinic'
loop_
_space_group_symop_operation_xyz
x,y,z
-x,1/2+y,-z
-x,-y,-z
x,1/2-y,z
loop_
_atom_site_type_symbol
_atom_site_label
_atom_site_fract_x
_atom_site_fract_y
_atom_site_fract_z
Si Si1 0.926693 0.368621 0.400374
Si Si2 0.986053 0.915130 0.171330
Si Si3 0.397109 0.562154 0.055100
Si Si4 0.337346 0.592297 0.653910
Si Si5 0.692466 0.626593 0.006777
Si Si6 0.684598 0.634022 0.445241
Si Si7 0.139893 0.923176 0.188873
O O1 0.995266 0.250000 0.276685
O O2 0.983763 0.455641 0.201739
O O3 0.892122 0.387419 0.614465
O O4 0.735290 0.371854 0.663914
O O5 0.834101 0.881472 0.319119
O O6 0.996032 0.885101 0.313357
O O7 0.164327 0.876483 0.852412
O O8 0.327887 0.460173 0.078704
O O9 0.519751 0.630286 0.780654
O O10 0.500000 0.500000 0.000000
O O11 0.512076 0.631173 0.344547
O O12 0.336299 0.465352 0.621664
O O13 0.296819 0.617341 0.869357
O O14 0.739432 0.750000 0.908743
O O15 0.828325 0.554507 0.874934
O O16 0.701668 0.750000 0.353107
#
# Coordination Sequence:
#
# PCOD9165383 Si02
#       7
#     4   4   4   4   4   4   4
#     4  11  22  39  63  91 120 164 209 247 310 368
#     4  10  22  40  62  88 128 166 194 262 300 354
#     4  10  21  42  60  87 124 154 201 264 304 349
#     4   9  22  40  63  87 128 160 197 263 299 353
#     4  10  21  38  64  92 117 160 207 249 307 368
#     4  11  22  39  63  91 120 164 209 247 310 368
#     4   9  22  40  63  87 128 160 197 263 299 353
#
# _framework density 26.771374999999999
#
# number of rings (size 3 to 8) (size 9 to 14) (size 15 to 20)
#    0.857    1.143    1.429    1.714    0.000    4.571 
#    0.000    0.000    0.000    0.000    0.000    0.000 
#    0.000    0.000    0.000    0.000    0.000    0.000 
#
# Total GULP energy -155891.532221 kJ/mol
# GULP energy per Si atom -5567.554722 kJ/mol
# Density = 2.671044 g / cm^3
# Si number density = 26.771375 Si / 1000 Ang^3
#
#
#
# Elastic Constant Matrix: (Units=GPa)
#
#
# Indices 1 2 3 4 5 6 
#
# 1 65.8397 6.5181 -4.3703 0.0000 -9.1025 0.0000
# 2 6.5181 183.8806 16.8536 0.0000 10.6113 0.0000
# 3 -4.3703 16.8536 123.2455 0.0000 -9.6234 0.0000
# 4 0.0000 0.0000 0.0000 52.2408 0.0000 39.0028
# 5 -9.1025 10.6113 -9.6234 0.0000 17.3260 0.0000
# 6 0.0000 0.0000 0.0000 39.0028 0.0000 36.9711
#
#
#
# Elastic Compliance Matrix: (Units=1/GPa)
#
#
# Indices 1 2 3 4 5 6 
#
# 1 0.016896 -0.001359 0.001613 0.000000 0.010605 0.000000
# 2 -0.001359 0.005890 -0.001245 0.000000 -0.005013 0.000000
# 3 0.001613 -0.001245 0.008851 0.000000 0.006526 0.000000
# 4 0.000000 0.000000 0.000000 0.090134 0.000000 -0.095087
# 5 0.010605 -0.005013 0.006526 0.000000 0.069983 0.000000
# 6 0.000000 0.000000 0.000000 -0.095087 0.000000 0.127360
#
#
# Mechanical properties :
#
#
# Convention : Reuss Voigt Hill
#
# Bulk Modulus (GPa) = 33.72071 45.66319 39.69195
# Shear Modulus (GPa) = 15.10663 44.90520 30.00591
#
# Velocity S-wave (km/s) = 2.37804 4.10000 3.35150
# Velocity P-wave (km/s) = 4.49035 6.28547 5.46216
#
# Compressibility (1/GPa) = 0.02965537
#
# Stress axis : x y z
#
# Youngs Moduli (GPa) = 59.18514 169.78351 112.98286
#
# Poissons Ratio (x) = 0.23069 -0.18224
# Poissons Ratio (y) = 0.08042 0.14066
# Poissons Ratio (z) = -0.09547 0.21138
#
# Static dielectric constant tensor:
#      x y z
#    x 0.334190 0.000000 0.446840 
#    y 0.000000 2.104100 0.000000 
#    z 0.446840 0.000000 1.599310 
# 
# From -- ./inp_files/43219.got.cif
#   From: 2010.05.17/outbox.cif.g08.bks.cpg/sg11_22_cif.got.tgz:43219.got - 2010.06.03 12:22:45.
