data_PCOD9165774
_publ_section_title
;
Structure prediction by ZEFSAII (Michael W. Deem and Ramdas Pophale) SiO2 
 PCOD9165774
Probable space group: P 21/M
;
_chemical_formula_sum "Si O2"
_cell_formula_units_Z 14
_cell_length_a 9.598742
_cell_length_b 10.110025
_cell_length_c 10.055429
_cell_angle_alpha 90.000000
_cell_angle_beta 44.142899
_cell_angle_gamma 90.000000
_cell_volume 679.606105
_symmetry_space_group_name_H-M "P 21/M"
_symmetry_group_IT_number 11
_symmetry_cell_setting 'monoclinic'
loop_
_space_group_symop_operation_xyz
x,y,z
-x,1/2+y,-z
-x,-y,-z
x,1/2-y,z
loop_
_atom_site_type_symbol
_atom_site_label
_atom_site_fract_x
_atom_site_fract_y
_atom_site_fract_z
Si Si1 0.208072 0.250000 0.530519
Si Si2 0.794285 0.250000 0.939647
Si Si3 0.234079 0.969248 0.830631
Si Si4 0.837342 0.250000 0.611628
Si Si5 0.648659 0.048168 0.544099
O O1 0.320845 0.389154 0.464372
O O2 0.036642 0.250000 0.762164
O O3 0.071355 0.250000 0.490607
O O4 0.730954 0.250000 0.829341
O O5 0.729104 0.374472 0.069494
O O6 0.411913 0.076936 0.718124
O O7 0.273865 0.912376 0.655384
O O8 0.000000 0.000000 0.000000
O O9 0.772825 0.376238 0.570477
#
# Coordination Sequence:
#
# PCOD9165774 Si02
#       5
#     2   2   4   2   4
#     4  10  21  40  65  91 127 168 207 259 315 379
#     4  10  22  39  64  89 135 160 211 263 317 369
#     4  11  22  40  63  93 124 167 213 265 307 374
#     4  10  23  41  65  96 126 170 212 258 316 384
#     4  11  23  41  69  91 128 171 210 258 327 371
#
# _framework density 20.600169000000001
#
# number of rings (size 3 to 8) (size 9 to 14) (size 15 to 20)
#    0.857    0.571    2.857    2.571    0.000    5.714 
#    0.000    2.857    0.000    0.000    0.000    0.000 
#    0.000    0.000    0.000    0.000    0.000    0.000 
#
# Total GULP energy -77995.647642 kJ/mol
# GULP energy per Si atom -5571.117689 kJ/mol
# Density = 2.055328 g / cm^3
# Si number density = 20.600169 Si / 1000 Ang^3
#
#
#
# Elastic Constant Matrix: (Units=GPa)
#
#
# Indices 1 2 3 4 5 6 
#
# 1 108.2688 23.5836 45.6117 0.0000 17.0958 0.0000
# 2 23.5836 90.4793 24.1263 0.0000 14.0344 0.0000
# 3 45.6117 24.1263 130.5481 0.0000 -4.3584 0.0000
# 4 0.0000 0.0000 0.0000 17.2163 0.0000 8.7685
# 5 17.0958 14.0344 -4.3584 0.0000 59.1148 0.0000
# 6 0.0000 0.0000 0.0000 8.7685 0.0000 98.0177
#
#
#
# Elastic Compliance Matrix: (Units=1/GPa)
#
#
# Indices 1 2 3 4 5 6 
#
# 1 0.011748 -0.001495 -0.003940 0.000000 -0.003333 0.000000
# 2 -0.001495 0.012343 -0.001847 0.000000 -0.002634 0.000000
# 3 -0.003940 -0.001847 0.009454 0.000000 0.002275 0.000000
# 4 0.000000 0.000000 0.000000 0.060857 0.000000 -0.005444
# 5 -0.003333 -0.002634 0.002275 0.000000 0.018673 0.000000
# 6 0.000000 0.000000 0.000000 -0.005444 0.000000 0.010689
#
#
# Mechanical properties :
#
#
# Convention : Reuss Voigt Hill
#
# Bulk Modulus (GPa) = 52.68042 57.32660 55.00351
# Shear Modulus (GPa) = 34.56528 50.60138 42.58333
#
# Velocity S-wave (km/s) = 4.10068 4.96154 4.55151
# Velocity P-wave (km/s) = 6.93174 7.79174 7.37429
#
# Compressibility (1/GPa) = 0.01898239
#
# Stress axis : x y z
#
# Youngs Moduli (GPa) = 85.12231 81.01838 105.77869
#
# Poissons Ratio (x) = 0.12109 0.41672
# Poissons Ratio (y) = 0.12722 0.19535
# Poissons Ratio (z) = 0.33535 0.14963
#
# Static dielectric constant tensor:
#      x y z
#    x 1.743710 0.000000 -0.032460 
#    y 0.000000 1.835330 0.000000 
#    z -0.032460 0.000000 1.726980 
# 
# From -- ./inp_files/11664.got.cif
#   From: 2010.05.17/outbox.cif.g08.bks.cpg/sg11_6_cif.got.tgz:11664.got - 2010.06.03 12:22:45.
