data_PCOD9165452
_publ_section_title
;
Structure prediction by ZEFSAII (Michael W. Deem and Ramdas Pophale) SiO2 
 PCOD9165452
Probable space group: P 21/M
;
_chemical_formula_sum "Si O2"
_cell_formula_units_Z 28
_cell_length_a 14.994207
_cell_length_b 8.640432
_cell_length_c 11.031172
_cell_angle_alpha 90.000000
_cell_angle_beta 112.602657
_cell_angle_gamma 90.000000
_cell_volume 1319.388922
_symmetry_space_group_name_H-M "P 21/M"
_symmetry_group_IT_number 11
_symmetry_cell_setting 'monoclinic'
loop_
_space_group_symop_operation_xyz
x,y,z
-x,1/2+y,-z
-x,-y,-z
x,1/2-y,z
loop_
_atom_site_type_symbol
_atom_site_label
_atom_site_fract_x
_atom_site_fract_y
_atom_site_fract_z
Si Si1 0.465402 0.066120 0.851327
Si Si2 0.252298 0.934566 0.710042
Si Si3 0.057311 0.071687 0.179567
Si Si4 0.252591 0.931589 0.193019
Si Si5 0.844110 0.437387 0.091158
Si Si6 0.091901 0.074519 0.483152
Si Si7 0.447609 0.067814 0.353640
O O1 0.477887 0.250000 0.861345
O O2 0.353838 0.019166 0.773859
O O3 0.518635 0.003190 0.757956
O O4 0.500000 0.000000 0.000000
O O5 0.267976 0.750000 0.722978
O O6 0.185586 0.981748 0.789686
O O7 0.189019 0.979997 0.561139
O O8 0.066165 0.250000 0.138178
O O9 0.067663 0.079933 0.329649
O O10 0.949273 0.006506 0.102936
O O11 0.145425 0.966399 0.183924
O O12 0.275594 0.750000 0.214666
O O13 0.333904 0.029303 0.301730
O O14 0.241694 0.977069 0.045810
O O15 0.852852 0.250000 0.094289
O O16 0.105988 0.250000 0.534450
O O17 0.000000 0.000000 0.500000
O O18 0.465056 0.250000 0.359300
O O19 0.500000 0.000000 0.500000
#
# Coordination Sequence:
#
# PCOD9165452 Si02
#       7
#     4   4   4   4   4   4   4
#     4  12  26  47  73 105 139 177 226 282 342 408
#     4  11  22  40  66  95 130 172 216 268 330 392
#     4  10  21  39  60  87 127 172 213 260 318 384
#     4  11  23  40  65  95 127 167 215 267 324 393
#     4   9  19  38  62  91 129 170 210 259 315 375
#     4  11  22  38  60  88 126 169 216 268 325 390
#     4  12  27  49  73  99 133 177 228 287 347 409
#
# _framework density 21.221944000000001
#
# number of rings (size 3 to 8) (size 9 to 14) (size 15 to 20)
#    0.000    1.143    1.429    5.143    2.000    2.286 
#    0.000    2.857    0.000    0.000    0.000    0.000 
#    0.000    0.000    0.000    0.000    0.000    0.000 
#
# Total GULP energy -156520.877364 kJ/mol
# GULP energy per Si atom -5590.031334 kJ/mol
# Density = 2.117364 g / cm^3
# Si number density = 21.221944 Si / 1000 Ang^3
#
#
#
# Elastic Constant Matrix: (Units=GPa)
#
#
# Indices 1 2 3 4 5 6 
#
# 1 76.2498 19.5787 32.1479 0.0000 13.7658 0.0000
# 2 19.5787 117.2606 45.7760 0.0000 -3.3469 0.0000
# 3 32.1479 45.7760 123.8103 0.0000 18.3353 0.0000
# 4 0.0000 0.0000 0.0000 30.6532 0.0000 -0.3515
# 5 13.7658 -3.3469 18.3353 0.0000 37.0635 0.0000
# 6 0.0000 0.0000 0.0000 -0.3515 0.0000 33.7508
#
#
#
# Elastic Compliance Matrix: (Units=1/GPa)
#
#
# Indices 1 2 3 4 5 6 
#
# 1 0.015518 -0.001649 -0.002745 0.000000 -0.004555 0.000000
# 2 -0.001649 0.010447 -0.003955 0.000000 0.003512 0.000000
# 3 -0.002745 -0.003955 0.010956 0.000000 -0.004758 0.000000
# 4 0.000000 0.000000 0.000000 0.032627 0.000000 0.000340
# 5 -0.004555 0.003512 -0.004758 0.000000 0.031343 0.000000
# 6 0.000000 0.000000 0.000000 0.000340 0.000000 0.029632
#
#
# Mechanical properties :
#
#
# Convention : Reuss Voigt Hill
#
# Bulk Modulus (GPa) = 49.44688 56.92511 53.18599
# Shear Modulus (GPa) = 32.47528 34.94804 33.71166
#
# Velocity S-wave (km/s) = 3.91611 4.06247 3.98996
# Velocity P-wave (km/s) = 6.61803 6.99191 6.80754
#
# Compressibility (1/GPa) = 0.02022372
#
# Stress axis : x y z
#
# Youngs Moduli (GPa) = 64.44178 95.71711 91.27168
#
# Poissons Ratio (x) = 0.15788 0.25054
# Poissons Ratio (y) = 0.10629 0.36094
# Poissons Ratio (z) = 0.17689 0.37852
#
# Static dielectric constant tensor:
#      x y z
#    x 1.765960 0.000000 -0.016940 
#    y 0.000000 1.739610 0.000000 
#    z -0.016940 0.000000 1.772890 
# 
# From -- ./inp_files/38421.got.cif
#   From: 2010.05.17/outbox.cif.g08.bks.cpg/sg11_20_cif.got.tgz:38421.got - 2010.06.03 12:22:45.
