data_PCOD9165658
_publ_section_title
;
Structure prediction by ZEFSAII (Michael W. Deem and Ramdas Pophale) SiO2 
 PCOD9165658
Probable space group: P 21/M
;
_chemical_formula_sum "Si O2"
_cell_formula_units_Z 28
_cell_length_a 11.054888
_cell_length_b 13.938035
_cell_length_c 9.879785
_cell_angle_alpha 90.000000
_cell_angle_beta 57.784457
_cell_angle_gamma 90.000000
_cell_volume 1287.949075
_symmetry_space_group_name_H-M "P 21/M"
_symmetry_group_IT_number 11
_symmetry_cell_setting 'monoclinic'
loop_
_space_group_symop_operation_xyz
x,y,z
-x,1/2+y,-z
-x,-y,-z
x,1/2-y,z
loop_
_atom_site_type_symbol
_atom_site_label
_atom_site_fract_x
_atom_site_fract_y
_atom_site_fract_z
Si Si1 0.454135 0.865584 0.474569
Si Si2 0.215372 0.540326 0.991381
Si Si3 0.387798 0.363744 0.883324
Si Si4 0.285006 0.134602 0.492004
Si Si5 0.005157 0.488093 0.658127
Si Si6 0.139602 0.864665 0.766889
Si Si7 0.518460 0.635766 0.868051
O O1 0.456123 0.750000 0.482851
O O2 0.490959 0.889456 0.298460
O O3 0.587264 0.898416 0.485413
O O4 0.299924 0.891958 0.621682
O O5 0.372241 0.587654 0.907429
O O6 0.135236 0.550633 0.182186
O O7 0.250060 0.429167 0.939238
O O8 0.127342 0.589083 0.922817
O O9 0.357307 0.250000 0.890935
O O10 0.444699 0.385148 0.999077
O O11 0.268519 0.250000 0.513484
O O12 0.137707 0.082356 0.608569
O O13 0.346477 0.111418 0.306486
O O14 0.037828 0.587557 0.716436
O O15 0.000000 0.500000 0.500000
O O16 0.125531 0.750000 0.781011
O O17 0.497014 0.750000 0.866280
#
# Coordination Sequence:
#
# PCOD9165658 Si02
#       7
#     4   4   4   4   4   4   4
#     4   9  19  38  66  98 120 159 222 278 335 384
#     4  12  24  42  67  98 133 180 230 276 337 405
#     4  10  22  37  62  98 134 171 220 280 342 399
#     4  10  21  42  68  95 129 174 223 278 338 400
#     4  12  29  44  63 102 141 185 228 270 343 416
#     4  11  25  46  70  97 135 178 227 287 341 402
#     4  10  21  39  66  98 133 175 225 281 338 397
#
# _framework density 21.739989000000001
#
# number of rings (size 3 to 8) (size 9 to 14) (size 15 to 20)
#    0.000    1.429    1.429    3.000    4.000    3.429 
#    0.000    1.429    0.000    0.000    0.000    0.000 
#    0.000    0.000    0.000    0.000    0.000    0.000 
#
# Total GULP energy -156655.156795 kJ/mol
# GULP energy per Si atom -5594.827028 kJ/mol
# Density = 2.169051 g / cm^3
# Si number density = 21.739989 Si / 1000 Ang^3
#
#
#
# Elastic Constant Matrix: (Units=GPa)
#
#
# Indices 1 2 3 4 5 6 
#
# 1 33.5097 28.7463 -1.3720 0.0000 1.6840 0.0000
# 2 28.7463 91.6854 25.1994 0.0000 10.7211 0.0000
# 3 -1.3720 25.1994 108.0786 0.0000 6.3703 0.0000
# 4 0.0000 0.0000 0.0000 22.2944 0.0000 1.7269
# 5 1.6840 10.7211 6.3703 0.0000 43.3121 0.0000
# 6 0.0000 0.0000 0.0000 1.7269 0.0000 28.4922
#
#
#
# Elastic Compliance Matrix: (Units=1/GPa)
#
#
# Indices 1 2 3 4 5 6 
#
# 1 0.042369 -0.014500 0.003837 0.000000 0.001377 0.000000
# 2 -0.014500 0.016892 -0.003944 0.000000 -0.003038 0.000000
# 3 0.003837 -0.003944 0.010261 0.000000 -0.000682 0.000000
# 4 0.000000 0.000000 0.000000 0.045066 0.000000 -0.002731
# 5 0.001377 -0.003038 -0.000682 0.000000 0.023887 0.000000
# 6 0.000000 0.000000 0.000000 -0.002731 0.000000 0.035263
#
#
# Mechanical properties :
#
#
# Convention : Reuss Voigt Hill
#
# Bulk Modulus (GPa) = 24.80781 37.60233 31.20507
# Shear Modulus (GPa) = 23.10690 30.86640 26.98665
#
# Velocity S-wave (km/s) = 3.26371 3.77211 3.52708
# Velocity P-wave (km/s) = 5.06343 6.02542 5.56525
#
# Compressibility (1/GPa) = 0.04030988
#
# Stress axis : x y z
#
# Youngs Moduli (GPa) = 23.60238 59.19946 97.45719
#
# Poissons Ratio (x) = 0.85837 -0.37398
# Poissons Ratio (y) = 0.34223 0.38433
# Poissons Ratio (z) = -0.09057 0.23346
#
# Static dielectric constant tensor:
#      x y z
#    x 1.769040 0.000000 0.015670 
#    y 0.000000 1.828780 0.000000 
#    z 0.015670 0.000000 1.787260 
# 
# From -- ./inp_files/17931.got.cif
#   From: 2010.05.17/outbox.cif.g08.bks.cpg/sg11_9_cif.got.tgz:17931.got - 2010.06.03 12:22:45.
