data_PCOD9165434
_publ_section_title
;
Structure prediction by ZEFSAII (Michael W. Deem and Ramdas Pophale) SiO2 
 PCOD9165434
Probable space group: P 21/M
;
_chemical_formula_sum "Si O2"
_cell_formula_units_Z 32
_cell_length_a 19.183707
_cell_length_b 9.088862
_cell_length_c 26.058051
_cell_angle_alpha 90.000000
_cell_angle_beta 157.506185
_cell_angle_gamma 90.000000
_cell_volume 1738.242776
_symmetry_space_group_name_H-M "P 21/M"
_symmetry_group_IT_number 11
_symmetry_cell_setting 'monoclinic'
loop_
_space_group_symop_operation_xyz
x,y,z
-x,1/2+y,-z
-x,-y,-z
x,1/2-y,z
loop_
_atom_site_type_symbol
_atom_site_label
_atom_site_fract_x
_atom_site_fract_y
_atom_site_fract_z
Si Si1 0.598172 0.082340 0.611945
Si Si2 0.016420 0.079328 0.861977
Si Si3 0.884898 0.925810 0.578352
Si Si4 0.482289 0.579057 0.636003
Si Si5 0.865947 0.577167 0.949689
Si Si6 0.155939 0.926185 0.856745
Si Si7 0.522342 0.427942 0.072169
Si Si8 0.914508 0.072868 0.390497
O O1 0.536926 0.250000 0.574242
O O2 0.809558 0.079468 0.741021
O O3 0.500000 0.000000 0.500000
O O4 0.547796 0.001058 0.629454
O O5 0.067972 0.250000 0.886066
O O6 0.049544 0.982819 0.834448
O O7 0.119813 0.020827 0.982558
O O8 0.857103 0.750000 0.561400
O O9 0.036408 0.960532 0.724714
O O10 0.958918 0.963783 0.572405
O O11 0.698089 0.006116 0.464445
O O12 0.446266 0.750000 0.600636
O O13 0.657047 0.567207 0.791321
O O14 0.919080 0.750000 0.986837
O O15 0.000000 0.500000 0.000000
O O16 0.183574 0.750000 0.877064
O O17 0.347327 0.010997 0.983393
O O18 0.519970 0.250000 0.065134
O O19 0.709127 0.466233 0.230387
O O20 0.500000 0.500000 0.000000
O O21 0.914798 0.250000 0.397903
O O22 0.000000 0.000000 0.500000
#
# Coordination Sequence:
#
# PCOD9165434 Si02
#       8
#     4   4   4   4   4   4   4   4
#     4  11  22  37  58  83 116 156 198 246 302 360
#     4  10  22  39  58  85 119 156 199 251 308 361
#     4  10  22  42  62  86 126 165 205 257 312 368
#     4  11  23  37  59  89 118 156 206 251 305 370
#     4  10  21  39  60  82 115 156 203 253 302 364
#     4  11  23  40  63  93 125 161 209 260 312 368
#     4  11  22  41  68  96 129 168 212 261 316 377
#     4  10  23  43  66  96 132 169 210 261 315 377
#
# _framework density 18.409396999999998
#
# number of rings (size 3 to 8) (size 9 to 14) (size 15 to 20)
#    0.000    1.500    2.500    2.250    0.000    7.500 
#    0.000    3.750    0.000    0.000    0.000    0.000 
#    0.000    0.000    0.000    0.000    0.000    0.000 
#
# Total GULP energy -178633.198299 kJ/mol
# GULP energy per Si atom -5582.287447 kJ/mol
# Density = 1.836750 g / cm^3
# Si number density = 18.409397 Si / 1000 Ang^3
#
#
#
# Elastic Constant Matrix: (Units=GPa)
#
#
# Indices 1 2 3 4 5 6 
#
# 1 133.4668 59.2532 65.1330 0.0000 -13.1329 0.0000
# 2 59.2532 65.6994 61.9243 0.0000 -5.9136 0.0000
# 3 65.1330 61.9243 102.7023 0.0000 -9.0248 0.0000
# 4 0.0000 0.0000 0.0000 29.9334 0.0000 0.6073
# 5 -13.1329 -5.9136 -9.0248 0.0000 41.0929 0.0000
# 6 0.0000 0.0000 0.0000 0.6073 0.0000 37.0879
#
#
#
# Elastic Compliance Matrix: (Units=1/GPa)
#
#
# Indices 1 2 3 4 5 6 
#
# 1 0.013014 -0.009130 -0.002547 0.000000 0.002286 0.000000
# 2 -0.009130 0.041671 -0.019440 0.000000 -0.001191 0.000000
# 3 -0.002547 -0.019440 0.023204 0.000000 0.001484 0.000000
# 4 0.000000 0.000000 0.000000 0.033419 0.000000 -0.000547
# 5 0.002286 -0.001191 0.001484 0.000000 0.025220 0.000000
# 6 0.000000 0.000000 0.000000 -0.000547 0.000000 0.026972
#
#
# Mechanical properties :
#
#
# Convention : Reuss Voigt Hill
#
# Bulk Modulus (GPa) = 63.88116 74.94327 69.41222
# Shear Modulus (GPa) = 21.64951 29.32671 25.48811
#
# Velocity S-wave (km/s) = 3.43301 3.99561 3.72495
# Velocity P-wave (km/s) = 7.10561 7.87935 7.50246
#
# Compressibility (1/GPa) = 0.01565407
#
# Stress axis : x y z
#
# Youngs Moduli (GPa) = 76.84014 23.99765 43.09623
#
# Poissons Ratio (x) = 0.21911 0.10978
# Poissons Ratio (y) = 0.70158 0.83777
# Poissons Ratio (z) = 0.19574 0.46650
#
# Static dielectric constant tensor:
#      x y z
#    x 1.593310 0.000000 -0.021420 
#    y 0.000000 1.623000 0.000000 
#    z -0.021420 0.000000 1.711600 
# 
# From -- ./inp_files/72171.got.cif
#   From: 2010.05.17/outbox.cif.g08.bks.cpg/sg11_37_cif.got.tgz:72171.got - 2010.06.03 12:22:45.
