data_PCOD9165357
_publ_section_title
;
Structure prediction by ZEFSAII (Michael W. Deem and Ramdas Pophale) SiO2 
 PCOD9165357
Probable space group: P 21/M
;
_chemical_formula_sum "Si O2"
_cell_formula_units_Z 24
_cell_length_a 16.596096
_cell_length_b 18.016733
_cell_length_c 11.180390
_cell_angle_alpha 90.000000
_cell_angle_beta 22.418922
_cell_angle_gamma 90.000000
_cell_volume 1274.946433
_symmetry_space_group_name_H-M "P 21/M"
_symmetry_group_IT_number 11
_symmetry_cell_setting 'monoclinic'
loop_
_space_group_symop_operation_xyz
x,y,z
-x,1/2+y,-z
-x,-y,-z
x,1/2-y,z
loop_
_atom_site_type_symbol
_atom_site_label
_atom_site_fract_x
_atom_site_fract_y
_atom_site_fract_z
Si Si1 0.985049 0.964870 0.390858
Si Si2 0.857367 0.425211 0.208195
Si Si3 0.654143 0.438585 0.728811
Si Si4 0.385807 0.574549 0.697484
Si Si5 0.677255 0.838551 0.719010
Si Si6 0.737679 0.662527 0.354869
O O1 0.839379 0.891411 0.570538
O O2 0.883162 0.031206 0.452375
O O3 0.000000 0.000000 0.500000
O O4 0.215863 0.943663 0.031439
O O5 0.675420 0.436026 0.556795
O O6 0.749365 0.401280 0.232402
O O7 0.000000 0.500000 0.000000
O O8 0.031936 0.364488 0.001985
O O9 0.500000 0.500000 0.000000
O O10 0.555917 0.363132 0.916067
O O11 0.500000 0.500000 0.500000
O O12 0.560220 0.627744 0.513920
O O13 0.712348 0.750000 0.684602
O O14 0.705363 0.859071 0.539729
O O15 0.721937 0.750000 0.372127
#
# Coordination Sequence:
#
# PCOD9165357 Si02
#       6
#     4   4   4   4   4   4
#     4  11  22  37  63  94 127 162 214 265 311 372
#     4  12  21  42  66  95 127 167 212 271 313 377
#     4  10  21  38  63  89 122 163 210 259 314 371
#     4  12  24  37  67  99 124 164 217 263 318 374
#     4  10  22  42  64  89 129 171 210 260 322 382
#     4  11  24  43  65  95 130 167 213 263 320 385
#
# _framework density 18.824318999999999
#
# number of rings (size 3 to 8) (size 9 to 14) (size 15 to 20)
#    0.000    1.000    5.000    2.000    4.667    2.000 
#    0.000    0.833    0.000    0.000    0.000    0.000 
#    0.000    0.000    0.000    0.000    0.000    0.000 
#
# Total GULP energy -133884.045108 kJ/mol
# GULP energy per Si atom -5578.501880 kJ/mol
# Density = 1.878147 g / cm^3
# Si number density = 18.824319 Si / 1000 Ang^3
#
#
#
# Elastic Constant Matrix: (Units=GPa)
#
#
# Indices 1 2 3 4 5 6 
#
# 1 120.6052 48.1394 32.6227 0.0000 -0.2218 0.0000
# 2 48.1394 97.9046 33.3125 0.0000 -4.5346 0.0000
# 3 32.6227 33.3125 92.9000 0.0000 3.8416 0.0000
# 4 0.0000 0.0000 0.0000 24.3987 0.0000 -3.1130
# 5 -0.2218 -4.5346 3.8416 0.0000 42.6673 0.0000
# 6 0.0000 0.0000 0.0000 -3.1130 0.0000 33.6077
#
#
#
# Elastic Compliance Matrix: (Units=1/GPa)
#
#
# Indices 1 2 3 4 5 6 
#
# 1 0.010675 -0.004542 -0.002110 0.000000 -0.000237 0.000000
# 2 -0.004542 0.013678 -0.003382 0.000000 0.001735 0.000000
# 3 -0.002110 -0.003382 0.012781 0.000000 -0.001521 0.000000
# 4 0.000000 0.000000 0.000000 0.041476 0.000000 0.003842
# 5 -0.000237 0.001735 -0.001521 0.000000 0.023757 0.000000
# 6 0.000000 0.000000 0.000000 0.003842 0.000000 0.030111
#
#
# Mechanical properties :
#
#
# Convention : Reuss Voigt Hill
#
# Bulk Modulus (GPa) = 58.59388 59.95102 59.27245
# Shear Modulus (GPa) = 31.59886 33.29041 32.44464
#
# Velocity S-wave (km/s) = 4.10154 4.20989 4.15607
# Velocity P-wave (km/s) = 7.32287 7.45303 7.38824
#
# Compressibility (1/GPa) = 0.01706663
#
# Stress axis : x y z
#
# Youngs Moduli (GPa) = 93.67972 73.10941 78.24270
#
# Poissons Ratio (x) = 0.33204 0.16510
# Poissons Ratio (y) = 0.42547 0.26459
# Poissons Ratio (z) = 0.19767 0.24723
#
# Static dielectric constant tensor:
#      x y z
#    x 1.712920 0.000000 -0.001370 
#    y 0.000000 1.111350 0.000000 
#    z -0.001370 0.000000 1.700700 
# 
# From -- ./inp_files/41901.got.cif
#   From: 2010.05.17/outbox.cif.g08.bks.cpg/sg11_21_cif.got.tgz:41901.got - 2010.06.03 12:22:45.
