data_PCOD9165551
_publ_section_title
;
Structure prediction by ZEFSAII (Michael W. Deem and Ramdas Pophale) SiO2 
 PCOD9165551
Probable space group: P 21/M
;
_chemical_formula_sum "Si O2"
_cell_formula_units_Z 28
_cell_length_a 28.190627
_cell_length_b 7.881289
_cell_length_c 9.641937
_cell_angle_alpha 90.000000
_cell_angle_beta 37.424459
_cell_angle_gamma 90.000000
_cell_volume 1301.865658
_symmetry_space_group_name_H-M "P 21/M"
_symmetry_group_IT_number 11
_symmetry_cell_setting 'monoclinic'
loop_
_space_group_symop_operation_xyz
x,y,z
-x,1/2+y,-z
-x,-y,-z
x,1/2-y,z
loop_
_atom_site_type_symbol
_atom_site_label
_atom_site_fract_x
_atom_site_fract_y
_atom_site_fract_z
Si Si1 0.023539 0.953608 0.792004
Si Si2 0.799799 0.042138 0.655924
Si Si3 0.926313 0.546755 0.765493
Si Si4 0.661992 0.047998 0.793083
Si Si5 0.373784 0.054672 0.436575
Si Si6 0.487189 0.955402 0.690679
Si Si7 0.241443 0.946552 0.945967
O O1 0.026698 0.750000 0.768688
O O2 0.110705 0.018368 0.555947
O O3 0.955393 0.012832 0.848089
O O4 0.000000 0.000000 0.000000
O O5 0.803139 0.250000 0.650141
O O6 0.746254 0.985716 0.651624
O O7 0.758817 0.990351 0.895031
O O8 0.914161 0.750000 0.791372
O O9 0.000000 0.500000 0.500000
O O10 0.847685 0.460790 0.896988
O O11 0.663968 0.250000 0.807584
O O12 0.642251 0.018764 0.678263
O O13 0.593908 0.983309 0.053377
O O14 0.393531 0.250000 0.365305
O O15 0.443909 0.980891 0.367294
O O16 0.297411 0.041001 0.709831
O O17 0.487773 0.750000 0.694430
O O18 0.500000 0.000000 0.500000
O O19 0.265995 0.750000 0.888928
#
# Coordination Sequence:
#
# PCOD9165551 Si02
#       7
#     4   4   4   4   4   4   4
#     4  10  22  39  57  83 118 155 196 246 295 351
#     4   9  19  38  60  84 114 150 200 249 290 347
#     4  11  22  39  61  88 121 156 200 251 302 358
#     4  10  21  39  63  89 118 159 203 243 291 356
#     4  11  24  40  58  90 128 157 193 247 301 354
#     4  10  22  40  64  92 124 159 199 244 295 356
#     4  11  22  40  64  87 116 158 204 250 301 357
#
# _framework density 21.507594999999998
#
# number of rings (size 3 to 8) (size 9 to 14) (size 15 to 20)
#    0.000    1.714    1.429    2.571    2.000    4.000 
#    0.000    1.429    0.000    0.000    0.000    0.000 
#    0.000    0.000    0.000    0.000    0.000    0.000 
#
# Total GULP energy -156415.416507 kJ/mol
# GULP energy per Si atom -5586.264875 kJ/mol
# Density = 2.145864 g / cm^3
# Si number density = 21.507595 Si / 1000 Ang^3
#
#
#
# Elastic Constant Matrix: (Units=GPa)
#
#
# Indices 1 2 3 4 5 6 
#
# 1 141.8872 -0.9688 20.1199 0.0000 10.7770 0.0000
# 2 -0.9688 22.8902 -7.6064 0.0000 -1.8135 0.0000
# 3 20.1199 -7.6064 64.8083 0.0000 9.1393 0.0000
# 4 0.0000 0.0000 0.0000 21.9590 0.0000 6.4139
# 5 10.7770 -1.8135 9.1393 0.0000 40.7464 0.0000
# 6 0.0000 0.0000 0.0000 6.4139 0.0000 24.0852
#
#
#
# Elastic Compliance Matrix: (Units=1/GPa)
#
#
# Indices 1 2 3 4 5 6 
#
# 1 0.007466 -0.000524 -0.002166 0.000000 -0.001512 0.000000
# 2 -0.000524 0.045525 0.005370 0.000000 0.000960 0.000000
# 3 -0.002166 0.005370 0.017161 0.000000 -0.003037 0.000000
# 4 0.000000 0.000000 0.000000 0.049380 0.000000 -0.013150
# 5 -0.001512 0.000960 -0.003037 0.000000 0.025666 0.000000
# 6 0.000000 0.000000 0.000000 -0.013150 0.000000 0.045021
#
#
# Mechanical properties :
#
#
# Convention : Reuss Voigt Hill
#
# Bulk Modulus (GPa) = 13.24257 28.07499 20.65878
# Shear Modulus (GPa) = 23.80608 31.89418 27.85013
#
# Velocity S-wave (km/s) = 3.33057 3.85506 3.60237
# Velocity P-wave (km/s) = 4.57830 5.73560 5.18931
#
# Compressibility (1/GPa) = 0.07551402
#
# Stress axis : x y z
#
# Youngs Moduli (GPa) = 133.93517 21.96585 58.27087
#
# Poissons Ratio (x) = 0.01150 0.12622
# Poissons Ratio (y) = 0.07013 -0.31294
# Poissons Ratio (z) = 0.29012 -0.11796
#
# Static dielectric constant tensor:
#      x y z
#    x 1.841340 0.000000 0.004450 
#    y 0.000000 1.853440 0.000000 
#    z 0.004450 0.000000 1.748020 
# 
# From -- ./inp_files/28308.got.cif
#   From: 2010.05.17/outbox.cif.g08.bks.cpg/sg11_15_cif.got.tgz:28308.got - 2010.06.03 12:22:45.
