data_PCOD9165048
_publ_section_title
;
Structure prediction by ZEFSAII (Michael W. Deem and Ramdas Pophale) SiO2 
 PCOD9165048
Probable space group: P 21/M
;
_chemical_formula_sum "Si O2"
_cell_formula_units_Z 14
_cell_length_a 20.022910
_cell_length_b 5.279351
_cell_length_c 8.407516
_cell_angle_alpha 90.000000
_cell_angle_beta 41.923574
_cell_angle_gamma 90.000000
_cell_volume 593.802593
_symmetry_space_group_name_H-M "P 21/M"
_symmetry_group_IT_number 11
_symmetry_cell_setting 'monoclinic'
loop_
_space_group_symop_operation_xyz
x,y,z
-x,1/2+y,-z
-x,-y,-z
x,1/2-y,z
loop_
_atom_site_type_symbol
_atom_site_label
_atom_site_fract_x
_atom_site_fract_y
_atom_site_fract_z
Si Si1 0.131230 0.750000 0.308636
Si Si2 0.427518 0.250000 0.861714
Si Si3 0.079872 0.250000 0.202280
Si Si4 0.652369 0.250000 0.143063
Si Si5 0.274321 0.250000 0.425236
Si Si6 0.659669 0.250000 0.504732
Si Si7 0.067315 0.250000 0.879654
O O1 0.112128 0.499047 0.238500
O O2 0.041436 0.750000 0.594110
O O3 0.247417 0.750000 0.143388
O O4 0.346231 0.250000 0.145927
O O5 0.408669 0.499675 0.791035
O O6 0.539249 0.250000 0.730751
O O7 0.122705 0.250000 0.951166
O O8 0.682256 0.250000 0.275652
O O9 0.298583 0.502005 0.482510
O O10 0.155757 0.250000 0.594094
O O11 0.000000 0.500000 0.000000
#
# Coordination Sequence:
#
# PCOD9165048 Si02
#       7
#     2   2   2   2   2   2   2
#     4  10  21  37  63  86 121 164 205 261 308 387
#     4  12  26  42  68 104 136 170 224 281 335 383
#     4  10  21  39  58  88 120 162 215 251 311 374
#     4  12  24  41  69  98 138 169 222 277 339 380
#     4  12  26  45  71  96 135 182 221 269 338 400
#     4  12  24  47  70  97 134 181 225 269 327 411
#     4  12  26  41  65  93 132 166 216 266 322 387
#
# _framework density 23.576861000000001
#
# number of rings (size 3 to 8) (size 9 to 14) (size 15 to 20)
#    0.000    0.571    0.000    8.571    4.000    0.000 
#    0.000    0.000    0.000    0.000    0.000    0.000 
#    0.000    0.000    0.000    0.000    0.000    0.000 
#
# Total GULP energy -78479.102105 kJ/mol
# GULP energy per Si atom -5605.650150 kJ/mol
# Density = 2.352320 g / cm^3
# Si number density = 23.576861 Si / 1000 Ang^3
#
#
#
# Elastic Constant Matrix: (Units=GPa)
#
#
# Indices 1 2 3 4 5 6 
#
# 1 52.5555 58.7789 17.8338 0.0000 -0.2691 0.0000
# 2 58.7789 237.7500 32.4672 0.0000 -4.0468 0.0000
# 3 17.8338 32.4672 152.7774 0.0000 -25.0817 0.0000
# 4 0.0000 0.0000 0.0000 25.7334 0.0000 -11.3398
# 5 -0.2691 -4.0468 -25.0817 0.0000 54.2330 0.0000
# 6 0.0000 0.0000 0.0000 -11.3398 0.0000 55.3170
#
#
#
# Elastic Compliance Matrix: (Units=1/GPa)
#
#
# Indices 1 2 3 4 5 6 
#
# 1 0.026835 -0.006385 -0.001982 0.000000 -0.001260 0.000000
# 2 -0.006385 0.005852 -0.000467 0.000000 0.000189 0.000000
# 3 -0.001982 -0.000467 0.007433 0.000000 0.003393 0.000000
# 4 0.000000 0.000000 0.000000 0.042719 0.000000 0.008757
# 5 -0.001260 0.000189 0.003393 0.000000 0.020016 0.000000
# 6 0.000000 0.000000 0.000000 0.008757 0.000000 0.019873
#
#
# Mechanical properties :
#
#
# Convention : Reuss Voigt Hill
#
# Bulk Modulus (GPa) = 44.54269 73.47140 59.00705
# Shear Modulus (GPa) = 33.81103 49.32355 41.56729
#
# Velocity S-wave (km/s) = 3.79103 4.57884 4.20343
# Velocity P-wave (km/s) = 6.17220 7.69314 6.97426
#
# Compressibility (1/GPa) = 0.02245037
#
# Stress axis : x y z
#
# Youngs Moduli (GPa) = 37.26475 170.88999 134.53148
#
# Poissons Ratio (x) = 1.09116 0.26670
# Poissons Ratio (y) = 0.23794 0.06285
# Poissons Ratio (z) = 0.07387 0.07984
#
# Static dielectric constant tensor:
#      x y z
#    x 1.838110 0.000000 -0.020020 
#    y 0.000000 1.787350 0.000000 
#    z -0.020020 0.000000 1.918430 
# 
# From -- ./inp_files/23529.got.cif
#   From: 2010.05.17/outbox.cif.g08.bks.cpg/sg11_12_cif.got.tgz:23529.got - 2010.06.03 12:22:45.
