data_PCOD9165500
_publ_section_title
;
Structure prediction by ZEFSAII (Michael W. Deem and Ramdas Pophale) SiO2 
 PCOD9165500
Probable space group: P 21/M
;
_chemical_formula_sum "Si O2"
_cell_formula_units_Z 28
_cell_length_a 11.420349
_cell_length_b 7.880639
_cell_length_c 15.252655
_cell_angle_alpha 90.000000
_cell_angle_beta 112.715800
_cell_angle_gamma 90.000000
_cell_volume 1266.252879
_symmetry_space_group_name_H-M "P 21/M"
_symmetry_group_IT_number 11
_symmetry_cell_setting 'monoclinic'
loop_
_space_group_symop_operation_xyz
x,y,z
-x,1/2+y,-z
-x,-y,-z
x,1/2-y,z
loop_
_atom_site_type_symbol
_atom_site_label
_atom_site_fract_x
_atom_site_fract_y
_atom_site_fract_z
Si Si1 0.316730 0.944416 0.939456
Si Si2 0.043820 0.453542 0.915178
Si Si3 0.213579 0.955038 0.240100
Si Si4 0.851433 0.545076 0.453269
Si Si5 0.350911 0.051705 0.458878
Si Si6 0.326573 0.447380 0.746416
Si Si7 0.404685 0.541682 0.148129
O O1 0.353531 0.750000 0.933695
O O2 0.173332 0.952397 0.932772
O O3 0.314772 0.039757 0.847191
O O4 0.396243 0.015329 0.044788
O O5 0.062860 0.250000 0.914946
O O6 0.932830 0.502986 0.814973
O O7 0.000000 0.500000 0.000000
O O8 0.218631 0.750000 0.243977
O O9 0.287379 0.011029 0.173693
O O10 0.286000 0.019481 0.346160
O O11 0.851685 0.750000 0.457801
O O12 0.750898 0.481124 0.498579
O O13 0.788892 0.483491 0.343531
O O14 0.000000 0.500000 0.500000
O O15 0.355955 0.250000 0.478863
O O16 0.500000 0.000000 0.500000
O O17 0.333710 0.250000 0.724514
O O18 0.466408 0.519163 0.768737
O O19 0.404299 0.750000 0.144413
#
# Coordination Sequence:
#
# PCOD9165500 Si02
#       7
#     4   4   4   4   4   4   4
#     4  11  22  37  58  87 123 160 200 247 300 360
#     4  11  22  38  60  87 123 163 203 247 301 362
#     4  10  21  39  63  89 121 163 202 246 305 365
#     4  10  24  44  65  89 123 164 210 262 320 376
#     4  11  24  43  67  97 126 162 209 263 319 378
#     4  10  21  39  62  85 114 157 204 248 302 365
#     4   9  18  37  61  86 121 160 196 240 301 364
#
# _framework density 22.112486000000001
#
# number of rings (size 3 to 8) (size 9 to 14) (size 15 to 20)
#    0.000    1.714    1.429    2.571    2.000    5.143 
#    0.000    2.857    0.000    0.000    0.000    0.000 
#    0.000    0.000    0.000    0.000    0.000    0.000 
#
# Total GULP energy -156314.653196 kJ/mol
# GULP energy per Si atom -5582.666186 kJ/mol
# Density = 2.206216 g / cm^3
# Si number density = 22.112486 Si / 1000 Ang^3
#
#
#
# Elastic Constant Matrix: (Units=GPa)
#
#
# Indices 1 2 3 4 5 6 
#
# 1 114.7514 13.0291 59.8344 0.0000 22.6195 0.0000
# 2 13.0291 39.5316 8.3976 0.0000 8.3828 0.0000
# 3 59.8344 8.3976 152.0466 0.0000 29.6058 0.0000
# 4 0.0000 0.0000 0.0000 27.1393 0.0000 0.6009
# 5 22.6195 8.3828 29.6058 0.0000 43.0012 0.0000
# 6 0.0000 0.0000 0.0000 0.6009 0.0000 21.9455
#
#
#
# Elastic Compliance Matrix: (Units=1/GPa)
#
#
# Indices 1 2 3 4 5 6 
#
# 1 0.011575 -0.002366 -0.003844 0.000000 -0.002981 0.000000
# 2 -0.002366 0.026907 0.000259 0.000000 -0.004179 0.000000
# 3 -0.003844 0.000259 0.008882 0.000000 -0.004144 0.000000
# 4 0.000000 0.000000 0.000000 0.036869 0.000000 -0.001010
# 5 -0.002981 -0.004179 -0.004144 0.000000 0.028491 0.000000
# 6 0.000000 0.000000 0.000000 -0.001010 0.000000 0.045595
#
#
# Mechanical properties :
#
#
# Convention : Reuss Voigt Hill
#
# Bulk Modulus (GPa) = 28.19956 52.09463 40.14710
# Shear Modulus (GPa) = 27.46601 33.42177 30.44389
#
# Velocity S-wave (km/s) = 3.52817 3.89195 3.71452
# Velocity P-wave (km/s) = 5.42013 6.61864 6.04914
#
# Compressibility (1/GPa) = 0.03546155
#
# Stress axis : x y z
#
# Youngs Moduli (GPa) = 86.39219 37.16463 112.58474
#
# Poissons Ratio (x) = 0.08794 0.43278
# Poissons Ratio (y) = 0.20443 -0.02914
# Poissons Ratio (z) = 0.33209 -0.00962
#
# Static dielectric constant tensor:
#      x y z
#    x 1.836610 0.000000 -0.000330 
#    y 0.000000 1.967680 0.000000 
#    z -0.000330 0.000000 1.819380 
# 
# From -- ./inp_files/37879.got.cif
#   From: 2010.05.17/outbox.cif.g08.bks.cpg/sg11_19_cif.got.tgz:37879.got - 2010.06.03 12:22:45.
