data_PCOD9165190
_publ_section_title
;
Structure prediction by ZEFSAII (Michael W. Deem and Ramdas Pophale) SiO2 
 PCOD9165190
Probable space group: P 21/M
;
_chemical_formula_sum "Si O2"
_cell_formula_units_Z 32
_cell_length_a 25.745154
_cell_length_b 14.327452
_cell_length_c 9.504343
_cell_angle_alpha 90.000000
_cell_angle_beta 154.134201
_cell_angle_gamma 90.000000
_cell_volume 1529.454908
_symmetry_space_group_name_H-M "P 21/M"
_symmetry_group_IT_number 11
_symmetry_cell_setting 'monoclinic'
loop_
_space_group_symop_operation_xyz
x,y,z
-x,1/2+y,-z
-x,-y,-z
x,1/2-y,z
loop_
_atom_site_type_symbol
_atom_site_label
_atom_site_fract_x
_atom_site_fract_y
_atom_site_fract_z
Si Si1 0.630728 0.971908 0.651244
Si Si2 0.754371 0.643323 0.417468
Si Si3 0.027441 0.641325 0.180013
Si Si4 0.413486 0.641333 0.256638
Si Si5 0.256489 0.643751 0.595121
Si Si6 0.026855 0.511401 0.729781
Si Si7 0.303535 0.999058 0.492538
Si Si8 0.817471 0.861927 0.266769
O O1 0.530093 0.906821 0.474793
O O2 0.628181 0.072818 0.720385
O O3 0.618475 0.985185 0.454850
O O4 0.751583 0.915930 0.981151
O O5 0.713621 0.750000 0.322914
O O6 0.692958 0.583605 0.387973
O O7 0.747620 0.609702 0.240000
O O8 0.895334 0.641010 0.795133
O O9 0.057365 0.750000 0.284956
O O10 0.124599 0.604156 0.305820
O O11 0.025719 0.576594 0.312223
O O12 0.432946 0.750000 0.344569
O O13 0.319812 0.640022 0.900438
O O14 0.243550 0.750000 0.518485
O O15 0.326825 0.589245 0.647664
O O16 0.000000 0.500000 0.500000
O O17 0.952329 0.601364 0.599416
O O18 0.167125 0.514148 0.104799
O O19 0.812906 0.750000 0.243448
#
# Coordination Sequence:
#
# PCOD9165190 Si02
#       8
#     4   4   4   4   4   4   4   4
#     4  11  23  40  63  89 118 152 194 244 302 351
#     4   9  19  34  55  84 115 153 195 233 279 344
#     4   9  18  34  56  79 111 155 197 233 278 342
#     4  10  23  43  64  85 113 153 200 245 295 356
#     4  10  21  38  60  83 111 152 198 241 289 342
#     4  11  21  34  51  86 124 154 192 234 290 350
#     4  11  22  36  59  87 121 148 188 245 293 350
#     4  11  22  38  59  84 121 163 199 234 282 350
#
# _framework density 20.922488000000001
#
# number of rings (size 3 to 8) (size 9 to 14) (size 15 to 20)
#    0.000    1.750    1.250    3.375    0.000    6.000 
#    0.000    0.000    0.000    3.000    0.000    0.000 
#    0.000    0.000    0.000    0.000    0.000    0.000 
#
# Total GULP energy -178811.456072 kJ/mol
# GULP energy per Si atom -5587.858002 kJ/mol
# Density = 2.087487 g / cm^3
# Si number density = 20.922488 Si / 1000 Ang^3
#
#
#
# Elastic Constant Matrix: (Units=GPa)
#
#
# Indices 1 2 3 4 5 6 
#
# 1 102.9514 48.8476 7.8957 0.0000 -26.7027 0.0000
# 2 48.8476 114.4618 3.9653 0.0000 -6.6845 0.0000
# 3 7.8957 3.9653 14.0504 0.0000 4.6726 0.0000
# 4 0.0000 0.0000 0.0000 22.8456 0.0000 -7.1650
# 5 -26.7027 -6.6845 4.6726 0.0000 26.6779 0.0000
# 6 0.0000 0.0000 0.0000 -7.1650 0.0000 -4.5692
#
#
#
# Elastic Compliance Matrix: (Units=1/GPa)
#
#
# Indices 1 2 3 4 5 6 
#
# 1 0.019329 -0.006503 -0.015841 0.000000 0.020492 0.000000
# 2 -0.006503 0.011214 0.001827 0.000000 -0.004019 0.000000
# 3 -0.015841 0.001827 0.089918 0.000000 -0.031147 0.000000
# 4 0.000000 0.000000 0.000000 0.029342 0.000000 -0.046011
# 5 0.020492 -0.004019 -0.031147 0.000000 0.062444 0.000000
# 6 0.000000 0.000000 0.000000 -0.046011 0.000000 -0.146707
#
#
# Mechanical properties :
#
#
# Convention : Reuss Voigt Hill
#
# Bulk Modulus (GPa) = 12.59066 39.20896 25.89981
# Shear Modulus (GPa) = 37.58007 20.37453 28.97730
#
# Velocity S-wave (km/s) = 4.24271 3.12398 3.72557
# Velocity P-wave (km/s) = 5.48011 5.63854 5.55989
#
# Compressibility (1/GPa) = 0.07942394
#
# Stress axis : x y z
#
# Youngs Moduli (GPa) = 51.73592 89.17530 11.12130
#
# Poissons Ratio (x) = 0.57993 0.17618
# Poissons Ratio (y) = 0.33645 -0.02031
# Poissons Ratio (z) = 0.81957 -0.16288
#
# Static dielectric constant tensor:
#      x y z
#    x 1.741450 0.000000 0.023630 
#    y 0.000000 1.751490 0.000000 
#    z 0.023630 0.000000 1.793960 
# 
# From -- ./inp_files/22197.got.cif
#   From: 2010.05.17/outbox.cif.g08.bks.cpg/sg11_12_cif.got.tgz:22197.got - 2010.06.03 12:22:45.
