data_PCOD9165456
_publ_section_title
;
Structure prediction by ZEFSAII (Michael W. Deem and Ramdas Pophale) SiO2 
 PCOD9165456
Probable space group: P 21/M
;
_chemical_formula_sum "Si O2"
_cell_formula_units_Z 26
_cell_length_a 6.522566
_cell_length_b 12.303127
_cell_length_c 20.263950
_cell_angle_alpha 90.000000
_cell_angle_beta 128.240917
_cell_angle_gamma 90.000000
_cell_volume 1277.195329
_symmetry_space_group_name_H-M "P 21/M"
_symmetry_group_IT_number 11
_symmetry_cell_setting 'monoclinic'
loop_
_space_group_symop_operation_xyz
x,y,z
-x,1/2+y,-z
-x,-y,-z
x,1/2-y,z
loop_
_atom_site_type_symbol
_atom_site_label
_atom_site_fract_x
_atom_site_fract_y
_atom_site_fract_z
Si Si1 0.605458 0.931448 0.802403
Si Si2 0.279255 0.555963 0.544640
Si Si3 0.844313 0.016812 0.115264
Si Si4 0.266785 0.375928 0.779335
Si Si5 0.646672 0.250000 0.334387
Si Si6 0.317499 0.372335 0.031060
Si Si7 0.308262 0.625638 0.397704
O O1 0.409563 0.845040 0.732768
O O2 0.685990 0.894842 0.892001
O O3 0.471132 0.048929 0.781194
O O4 0.871811 0.935733 0.813795
O O5 0.315329 0.654152 0.602140
O O6 0.299577 0.600517 0.473963
O O7 0.500296 0.463013 0.596074
O O8 0.000000 0.500000 0.500000
O O9 0.761617 0.929671 0.154125
O O10 0.618260 0.106661 0.069607
O O11 0.845846 0.955912 0.045474
O O12 0.344299 0.250000 0.798112
O O13 0.983173 0.383422 0.688951
O O14 0.234901 0.250000 0.000842
O O15 0.399999 0.750000 0.405319
#
# Coordination Sequence:
#
# PCOD9165456 Si02
#       7
#     4   4   4   4   2   4   4
#     4  11  23  41  62  98 130 172 215 267 326 382
#     4  11  24  42  65  96 127 172 215 259 327 390
#     4  10  22  39  62  93 126 171 223 259 324 385
#     4  10  22  41  64  92 128 166 215 269 321 383
#     4  12  24  42  66  98 130 166 222 260 320 396
#     4  10  21  39  60  90 132 170 214 271 318 382
#     4  10  22  43  64  92 129 164 211 270 322 381
#
# _framework density 20.357105000000001
#
# number of rings (size 3 to 8) (size 9 to 14) (size 15 to 20)
#    0.000    1.538    1.538    2.769    2.154    1.231 
#    0.000    7.692    0.000    0.000    0.000    0.000 
#    0.000    0.000    0.000    0.000    0.000    0.000 
#
# Total GULP energy -144775.654353 kJ/mol
# GULP energy per Si atom -5568.294398 kJ/mol
# Density = 2.031077 g / cm^3
# Si number density = 20.357105 Si / 1000 Ang^3
#
#
#
# Elastic Constant Matrix: (Units=GPa)
#
#
# Indices 1 2 3 4 5 6 
#
# 1 36.7864 10.5461 -8.3592 0.0000 5.0090 0.0000
# 2 10.5461 87.5697 0.0214 0.0000 -4.2071 0.0000
# 3 -8.3592 0.0214 56.8868 0.0000 -19.0709 0.0000
# 4 0.0000 0.0000 0.0000 30.0940 0.0000 -22.4786
# 5 5.0090 -4.2071 -19.0709 0.0000 22.4281 0.0000
# 6 0.0000 0.0000 0.0000 -22.4786 0.0000 -77.7618
#
#
#
# Elastic Compliance Matrix: (Units=1/GPa)
#
#
# Indices 1 2 3 4 5 6 
#
# 1 0.029566 -0.003805 0.002648 0.000000 -0.005065 0.000000
# 2 -0.003805 0.012054 0.000670 0.000000 0.003681 0.000000
# 3 0.002648 0.000670 0.024913 0.000000 0.020718 0.000000
# 4 0.000000 0.000000 0.000000 0.027328 0.000000 -0.007900
# 5 -0.005065 0.003681 0.020718 0.000000 0.064026 0.000000
# 6 0.000000 0.000000 0.000000 -0.007900 0.000000 -0.010576
#
#
# Mechanical properties :
#
#
# Convention : Reuss Voigt Hill
#
# Bulk Modulus (GPa) = 15.25295 20.62884 17.94090
# Shear Modulus (GPa) = 29.38789 6.88770 18.13779
#
# Velocity S-wave (km/s) = 3.80362 1.84141 2.98817
# Velocity P-wave (km/s) = 5.17677 3.83100 4.55387
#
# Compressibility (1/GPa) = 0.06556107
#
# Stress axis : x y z
#
# Youngs Moduli (GPa) = 33.82255 82.95762 40.13918
#
# Poissons Ratio (x) = 0.31562 -0.10629
# Poissons Ratio (y) = 0.12868 -0.02691
# Poissons Ratio (z) = -0.08956 -0.05561
#
# Static dielectric constant tensor:
#      x y z
#    x 1.720770 0.000000 -0.000010 
#    y 0.000000 1.686380 0.000000 
#    z -0.000010 0.000000 1.720410 
# 
# From -- ./inp_files/62779.got.cif
#   From: 2010.05.17/outbox.cif.g08.bks.cpg/sg11_32_cif.got.tgz:62779.got - 2010.06.03 12:22:45.
