data_PCOD9165359
_publ_section_title
;
Structure prediction by ZEFSAII (Michael W. Deem and Ramdas Pophale) SiO2 
 PCOD9165359
Probable space group: P 21/M
;
_chemical_formula_sum "Si O2"
_cell_formula_units_Z 32
_cell_length_a 19.038571
_cell_length_b 18.091625
_cell_length_c 15.352538
_cell_angle_alpha 90.000000
_cell_angle_beta 161.438439
_cell_angle_gamma 90.000000
_cell_volume 1683.296653
_symmetry_space_group_name_H-M "P 21/M"
_symmetry_group_IT_number 11
_symmetry_cell_setting 'monoclinic'
loop_
_space_group_symop_operation_xyz
x,y,z
-x,1/2+y,-z
-x,-y,-z
x,1/2-y,z
loop_
_atom_site_type_symbol
_atom_site_label
_atom_site_fract_x
_atom_site_fract_y
_atom_site_fract_z
Si Si1 0.809086 0.457341 0.220609
Si Si2 0.584654 0.580701 0.569404
Si Si3 0.565972 0.164200 0.055544
Si Si4 0.165676 0.408620 0.514275
Si Si5 0.386137 0.946186 0.736151
Si Si6 0.165401 0.402742 0.307121
Si Si7 0.220855 0.667987 0.233120
Si Si8 0.060524 0.933313 0.192550
O O1 0.704322 0.389394 0.152852
O O2 0.000000 0.500000 0.500000
O O3 0.924816 0.422030 0.271043
O O4 0.615835 0.517375 0.972562
O O5 0.500000 0.500000 0.500000
O O6 0.632714 0.586642 0.522351
O O7 0.407706 0.641259 0.387654
O O8 0.813153 0.596552 0.890108
O O9 0.631437 0.250000 0.129589
O O10 0.585101 0.126155 0.172388
O O11 0.308878 0.154430 0.727778
O O12 0.289572 0.486287 0.679915
O O13 0.192765 0.396594 0.442523
O O14 0.198756 0.931336 0.443792
O O15 0.036957 0.480134 0.143309
O O16 0.011922 0.338569 0.090195
O O17 0.258511 0.750000 0.310048
O O18 0.206560 0.609962 0.294507
#
# Coordination Sequence:
#
# PCOD9165359 Si02
#       8
#     4   4   4   4   4   4   4   4
#     4  11  19  40  67  87 118 162 211 246 301 362
#     4  11  19  38  64  87 120 158 207 240 298 367
#     4  11  23  39  58  90 130 163 198 253 313 363
#     4  10  21  39  63  90 119 157 207 256 296 363
#     4  10  21  38  64  93 118 159 206 251 303 360
#     4  10  21  38  63  91 114 159 202 254 304 356
#     4  11  23  38  58  88 126 159 198 254 307 356
#     4  10  21  38  63  91 119 159 202 251 300 363
#
# _framework density 19.010314999999999
#
# number of rings (size 3 to 8) (size 9 to 14) (size 15 to 20)
#    0.000    1.500    5.000    1.500    0.000    8.500 
#    0.000    1.250    0.000    0.000    0.000    0.000 
#    0.000    0.000    0.000    0.000    0.000    0.000 
#
# Total GULP energy -178317.054392 kJ/mol
# GULP energy per Si atom -5572.407950 kJ/mol
# Density = 1.896705 g / cm^3
# Si number density = 19.010315 Si / 1000 Ang^3
#
#
#
# Elastic Constant Matrix: (Units=GPa)
#
#
# Indices 1 2 3 4 5 6 
#
# 1 101.5829 29.6366 46.7468 0.0000 7.1499 0.0000
# 2 29.6366 89.8091 18.4492 0.0000 -4.9603 0.0000
# 3 46.7468 18.4492 64.2319 0.0000 6.5993 0.0000
# 4 0.0000 0.0000 0.0000 11.8746 0.0000 4.8756
# 5 7.1499 -4.9603 6.5993 0.0000 33.8763 0.0000
# 6 0.0000 0.0000 0.0000 4.8756 0.0000 10.0243
#
#
#
# Elastic Compliance Matrix: (Units=1/GPa)
#
#
# Indices 1 2 3 4 5 6 
#
# 1 0.015615 -0.003137 -0.010283 0.000000 -0.001752 0.000000
# 2 -0.003137 0.012665 -0.001646 0.000000 0.002837 0.000000
# 3 -0.010283 -0.001646 0.023803 0.000000 -0.002708 0.000000
# 4 0.000000 0.000000 0.000000 0.105228 0.000000 -0.051180
# 5 -0.001752 0.002837 -0.002708 0.000000 0.030832 0.000000
# 6 0.000000 0.000000 0.000000 -0.051180 0.000000 0.124650
#
#
# Mechanical properties :
#
#
# Convention : Reuss Voigt Hill
#
# Bulk Modulus (GPa) = 45.55710 49.47656 47.51683
# Shear Modulus (GPa) = 14.27584 21.87447 18.07515
#
# Velocity S-wave (km/s) = 2.74332 3.39582 3.08686
# Velocity P-wave (km/s) = 5.83531 6.43880 6.14447
#
# Compressibility (1/GPa) = 0.02195047
#
# Stress axis : x y z
#
# Youngs Moduli (GPa) = 64.04147 78.95892 42.01070
#
# Poissons Ratio (x) = 0.24771 0.43200
# Poissons Ratio (y) = 0.20091 0.06915
# Poissons Ratio (z) = 0.65855 0.12997
#
# Static dielectric constant tensor:
#      x y z
#    x 1.718400 0.000000 0.001970 
#    y 0.000000 1.629060 0.000000 
#    z 0.001970 0.000000 1.698880 
# 
# From -- ./inp_files/53811.got.cif
#   From: 2010.05.17/outbox.cif.g08.bks.cpg/sg11_27_cif.got.tgz:53811.got - 2010.06.03 12:22:45.
