data_PCOD9165106
_publ_section_title
;
Structure prediction by ZEFSAII (Michael W. Deem and Ramdas Pophale) SiO2 
 PCOD9165106
Probable space group: P 21/M
;
_chemical_formula_sum "Si O2"
_cell_formula_units_Z 28
_cell_length_a 22.374762
_cell_length_b 8.405881
_cell_length_c 23.826345
_cell_angle_alpha 90.000000
_cell_angle_beta 161.787754
_cell_angle_gamma 90.000000
_cell_volume 1400.560422
_symmetry_space_group_name_H-M "P 21/M"
_symmetry_group_IT_number 11
_symmetry_cell_setting 'monoclinic'
loop_
_space_group_symop_operation_xyz
x,y,z
-x,1/2+y,-z
-x,-y,-z
x,1/2-y,z
loop_
_atom_site_type_symbol
_atom_site_label
_atom_site_fract_x
_atom_site_fract_y
_atom_site_fract_z
Si Si1 0.805318 0.940634 0.296399
Si Si2 0.788772 0.060177 0.074480
Si Si3 0.185176 0.555582 0.029917
Si Si4 0.985253 0.441612 0.624032
Si Si5 0.407529 0.558541 0.332923
Si Si6 0.598950 0.440152 0.215207
Si Si7 0.208557 0.442388 0.262811
O O1 0.796080 0.750000 0.289995
O O2 0.843918 0.990013 0.266632
O O3 0.637511 0.008492 0.185284
O O4 0.000000 0.000000 0.500000
O O5 0.790789 0.250000 0.074695
O O6 0.963799 0.004250 0.269466
O O7 0.798725 0.999335 0.019478
O O8 0.593609 0.004559 0.929670
O O9 0.186336 0.750000 0.029432
O O10 0.352474 0.504142 0.221591
O O11 0.987207 0.507146 0.882758
O O12 0.982992 0.250000 0.623148
O O13 0.783484 0.493943 0.416943
O O14 0.411406 0.750000 0.335873
O O15 0.248633 0.506313 0.236368
O O16 0.610963 0.503538 0.538422
O O17 0.594374 0.250000 0.212044
O O18 0.209617 0.250000 0.261197
#
# Coordination Sequence:
#
# PCOD9165106 Si02
#       7
#     4   4   4   4   4   4   4
#     4   9  17  32  56  83 108 137 176 222 274 326
#     4  11  23  36  54  80 107 142 187 225 262 316
#     4   9  19  34  50  72 102 136 172 208 252 306
#     4   9  20  38  57  78 107 141 175 218 272 323
#     4   9  17  31  52  76 102 130 163 207 255 303
#     4  10  21  38  58  79 108 143 179 224 274 323
#     4   9  17  31  52  76 101 129 164 207 254 303
#
# _framework density 19.991997000000001
#
# number of rings (size 3 to 8) (size 9 to 14) (size 15 to 20)
#    0.000    2.571    0.000    2.571    0.000    5.143 
#    0.000    5.714    0.000    3.429    0.000    0.000 
#    0.000    0.000    0.000    0.000    0.000    0.000 
#
# Total GULP energy -156237.032925 kJ/mol
# GULP energy per Si atom -5579.894033 kJ/mol
# Density = 1.994649 g / cm^3
# Si number density = 19.991997 Si / 1000 Ang^3
#
#
#
# Elastic Constant Matrix: (Units=GPa)
#
#
# Indices 1 2 3 4 5 6 
#
# 1 93.3799 3.7196 17.4619 0.0000 -32.4256 0.0000
# 2 3.7196 7.7751 3.7288 0.0000 -7.6799 0.0000
# 3 17.4619 3.7288 49.5585 0.0000 -12.3173 0.0000
# 4 0.0000 0.0000 0.0000 22.7153 0.0000 0.9881
# 5 -32.4256 -7.6799 -12.3173 0.0000 29.2187 0.0000
# 6 0.0000 0.0000 0.0000 0.9881 0.0000 23.7810
#
#
#
# Elastic Compliance Matrix: (Units=1/GPa)
#
#
# Indices 1 2 3 4 5 6 
#
# 1 0.018872 0.015900 -0.001789 0.000000 0.024368 0.000000
# 2 0.015900 0.187277 -0.003433 0.000000 0.065422 0.000000
# 3 -0.001789 -0.003433 0.022731 0.000000 0.006694 0.000000
# 4 0.000000 0.000000 0.000000 0.044103 0.000000 -0.001832
# 5 0.024368 0.065422 0.006694 0.000000 0.081285 0.000000
# 6 0.000000 0.000000 0.000000 -0.001832 0.000000 0.042127
#
#
# Mechanical properties :
#
#
# Convention : Reuss Voigt Hill
#
# Bulk Modulus (GPa) = 3.99625 22.28156 13.13891
# Shear Modulus (GPa) = 10.90629 23.52988 17.21808
#
# Velocity S-wave (km/s) = 2.33820 3.43441 2.93789
# Velocity P-wave (km/s) = 3.04841 5.18617 4.25377
#
# Compressibility (1/GPa) = 0.25023468
#
# Stress axis : x y z
#
# Youngs Moduli (GPa) = 52.98897 5.33967 43.99324
#
# Poissons Ratio (x) = -0.08490 0.07872
# Poissons Ratio (y) = -0.84250 0.15103
# Poissons Ratio (z) = 0.09482 0.01833
#
# Static dielectric constant tensor:
#      x y z
#    x 1.704670 0.000000 -0.019370 
#    y 0.000000 1.683380 0.000000 
#    z -0.019370 0.000000 1.724590 
# 
# From -- ./inp_files/69827.got.cif
#   From: 2010.05.17/outbox.cif.g08.bks.cpg/sg11_35_cif.got.tgz:69827.got - 2010.06.03 12:22:45.
