data_PCOD9165049
_publ_section_title
;
Structure prediction by ZEFSAII (Michael W. Deem and Ramdas Pophale) SiO2 
 PCOD9165049
Probable space group: P 21/M
;
_chemical_formula_sum "Si O2"
_cell_formula_units_Z 26
_cell_length_a 12.000727
_cell_length_b 18.477460
_cell_length_c 8.578081
_cell_angle_alpha 90.000000
_cell_angle_beta 142.997993
_cell_angle_gamma 90.000000
_cell_volume 1144.783028
_symmetry_space_group_name_H-M "P 21/M"
_symmetry_group_IT_number 11
_symmetry_cell_setting 'monoclinic'
loop_
_space_group_symop_operation_xyz
x,y,z
-x,1/2+y,-z
-x,-y,-z
x,1/2-y,z
loop_
_atom_site_type_symbol
_atom_site_label
_atom_site_fract_x
_atom_site_fract_y
_atom_site_fract_z
Si Si1 0.112846 0.587294 0.600300
Si Si2 0.223503 0.371303 0.624351
Si Si3 0.167648 0.750000 0.569529
Si Si4 0.594077 0.750000 0.961406
Si Si5 0.953772 0.617271 0.877632
Si Si6 0.538090 0.031826 0.870657
Si Si7 0.767798 0.460395 0.617674
Si Si8 0.162337 0.250000 0.047684
O O1 0.138903 0.674396 0.625647
O O2 0.160354 0.562292 0.476000
O O3 0.900391 0.573595 0.411209
O O4 0.252461 0.556992 0.887701
O O5 0.311028 0.316741 0.843670
O O6 0.397896 0.400595 0.721216
O O7 0.075290 0.349711 0.326694
O O8 0.012900 0.750000 0.263753
O O9 0.375789 0.750000 0.738185
O O10 0.654779 0.750000 0.851592
O O11 0.856374 0.538121 0.761526
O O12 0.155832 0.598355 0.175073
O O13 0.856234 0.676033 0.877636
O O14 0.451976 0.975633 0.650825
O O15 0.500000 0.000000 0.000000
#
# Coordination Sequence:
#
# PCOD9165049 Si02
#       8
#     4   4   2   2   4   4   4   2
#     4  11  20  39  64  92 122 163 215 261 309 364
#     4  11  21  37  63  93 120 162 207 256 313 368
#     4  12  22  37  68  89 118 155 212 272 308 366
#     4  12  23  39  65  91 113 158 214 264 318 360
#     4  10  21  37  63  88 127 165 199 249 311 380
#     4   9  20  34  57  88 124 155 201 253 295 354
#     4   9  19  38  60  88 127 166 199 247 310 365
#     4  12  23  44  63  86 123 163 206 258 320 376
#
# _framework density 22.711728999999998
#
# number of rings (size 3 to 8) (size 9 to 14) (size 15 to 20)
#    0.000    1.538    4.615    0.462    0.000    5.538 
#    0.000    3.846    0.000    0.000    0.000    0.000 
#    0.000    0.000    0.000    0.000    0.000    0.000 
#
# Total GULP energy -144994.315742 kJ/mol
# GULP energy per Si atom -5576.704452 kJ/mol
# Density = 2.266004 g / cm^3
# Si number density = 22.711729 Si / 1000 Ang^3
#
#
#
# Elastic Constant Matrix: (Units=GPa)
#
#
# Indices 1 2 3 4 5 6 
#
# 1 68.8088 25.5403 27.9869 0.0000 7.1313 0.0000
# 2 25.5403 75.9845 17.5681 0.0000 -0.1210 0.0000
# 3 27.9869 17.5681 97.2375 0.0000 7.6322 0.0000
# 4 0.0000 0.0000 0.0000 29.6590 0.0000 -2.7471
# 5 7.1313 -0.1210 7.6322 0.0000 35.6885 0.0000
# 6 0.0000 0.0000 0.0000 -2.7471 0.0000 20.9010
#
#
#
# Elastic Compliance Matrix: (Units=1/GPa)
#
#
# Indices 1 2 3 4 5 6 
#
# 1 0.018460 -0.005251 -0.004143 0.000000 -0.002820 0.000000
# 2 -0.005251 0.015240 -0.001351 0.000000 0.001390 0.000000
# 3 -0.004143 -0.001351 0.011855 0.000000 -0.001712 0.000000
# 4 0.000000 0.000000 0.000000 0.034132 0.000000 0.004486
# 5 -0.002820 0.001390 -0.001712 0.000000 0.028955 0.000000
# 6 0.000000 0.000000 0.000000 0.004486 0.000000 0.048434
#
#
# Mechanical properties :
#
#
# Convention : Reuss Voigt Hill
#
# Bulk Modulus (GPa) = 41.55570 42.69127 42.12348
# Shear Modulus (GPa) = 26.79701 28.64540 27.72121
#
# Velocity S-wave (km/s) = 3.43866 3.55528 3.49745
# Velocity P-wave (km/s) = 5.83974 5.97421 5.90736
#
# Compressibility (1/GPa) = 0.02406409
#
# Stress axis : x y z
#
# Youngs Moduli (GPa) = 54.17240 65.61550 84.35269
#
# Poissons Ratio (x) = 0.34457 0.34946
# Poissons Ratio (y) = 0.28448 0.11397
# Poissons Ratio (z) = 0.22443 0.08866
#
# Static dielectric constant tensor:
#      x y z
#    x 1.918240 0.000000 0.045300 
#    y 0.000000 2.286520 0.000000 
#    z 0.045300 0.000000 1.929720 
# 
# From -- ./inp_files/19485.got.cif
#   From: 2010.05.17/outbox.cif.g08.bks.cpg/sg11_10_cif.got.tgz:19485.got - 2010.06.03 12:22:45.
