data_PCOD9165103
_publ_section_title
;
Structure prediction by ZEFSAII (Michael W. Deem and Ramdas Pophale) SiO2 
 PCOD9165103
Probable space group: P 21/M
;
_chemical_formula_sum "Si O2"
_cell_formula_units_Z 30
_cell_length_a 5.561268
_cell_length_b 30.425852
_cell_length_c 7.277487
_cell_angle_alpha 90.000000
_cell_angle_beta 72.143577
_cell_angle_gamma 90.000000
_cell_volume 1172.077795
_symmetry_space_group_name_H-M "P 21/M"
_symmetry_group_IT_number 11
_symmetry_cell_setting 'monoclinic'
loop_
_space_group_symop_operation_xyz
x,y,z
-x,1/2+y,-z
-x,-y,-z
x,1/2-y,z
loop_
_atom_site_type_symbol
_atom_site_label
_atom_site_fract_x
_atom_site_fract_y
_atom_site_fract_z
Si Si1 0.644659 0.983631 0.261122
Si Si2 0.342263 0.328701 0.056548
Si Si3 0.647622 0.250000 0.059138
Si Si4 0.250111 0.902597 0.011882
Si Si5 0.547018 0.405174 0.439938
Si Si6 0.047582 0.180335 0.807589
Si Si7 0.179208 0.499331 0.175692
Si Si8 0.969771 0.645299 0.559171
O O1 0.542603 0.943868 0.404161
O O2 0.396767 0.012157 0.268098
O O3 0.889825 0.005057 0.299996
O O4 0.760731 0.974189 0.029449
O O5 0.452334 0.289862 0.155132
O O6 0.508102 0.372327 0.999188
O O7 0.300261 0.309942 0.862039
O O8 0.082216 0.339705 0.221127
O O9 0.841010 0.211912 0.939687
O O10 0.292702 0.912299 0.786203
O O11 0.021689 0.870504 0.124621
O O12 0.221982 0.948881 0.121346
O O13 0.755454 0.377366 0.507547
O O14 0.281854 0.382897 0.436892
O O15 0.039899 0.182888 0.591991
#
# Coordination Sequence:
#
# PCOD9165103 Si02
#       8
#     4   4   2   4   4   4   4   4
#     4  10  21  38  57  87 130 162 218 263 317 371
#     4  10  23  44  61  96 128 162 206 269 304 385
#     4  10  24  42  66  96 126 162 214 248 322 376
#     4  10  22  37  63  89 126 163 217 259 320 366
#     4  11  22  40  60  95 126 166 213 270 305 378
#     4  11  22  42  66  90 125 170 201 263 310 383
#     4  10  22  37  59  90 121 171 212 265 315 377
#     4  11  25  40  68  94 128 166 215 253 319 368
#
# _framework density 25.595569999999999
#
# number of rings (size 3 to 8) (size 9 to 14) (size 15 to 20)
#    0.000    1.600    1.333    2.800    7.467    1.067 
#    0.000    1.333    0.000    7.200    0.000    0.000 
#    0.000    0.000    0.000    0.000    0.000    0.000 
#
# Total GULP energy -167158.762633 kJ/mol
# GULP energy per Si atom -5571.958754 kJ/mol
# Density = 2.553731 g / cm^3
# Si number density = 25.595570 Si / 1000 Ang^3
#
#
#
# Elastic Constant Matrix: (Units=GPa)
#
#
# Indices 1 2 3 4 5 6 
#
# 1 122.8615 5.0437 30.6196 0.0000 -7.8312 0.0000
# 2 5.0437 105.3046 16.4745 0.0000 -9.7646 0.0000
# 3 30.6196 16.4745 95.5198 0.0000 0.6028 0.0000
# 4 0.0000 0.0000 0.0000 2.2809 0.0000 3.5035
# 5 -7.8312 -9.7646 0.6028 0.0000 36.3109 0.0000
# 6 0.0000 0.0000 0.0000 3.5035 0.0000 -71.1115
#
#
#
# Elastic Compliance Matrix: (Units=1/GPa)
#
#
# Indices 1 2 3 4 5 6 
#
# 1 0.008992 0.000218 -0.002933 0.000000 0.002047 0.000000
# 2 0.000218 0.010027 -0.001817 0.000000 0.002774 0.000000
# 3 -0.002933 -0.001817 0.011731 0.000000 -0.001316 0.000000
# 4 0.000000 0.000000 0.000000 0.407584 0.000000 0.020081
# 5 0.002047 0.002774 -0.001316 0.000000 0.028749 0.000000
# 6 0.000000 0.000000 0.000000 0.020081 0.000000 -0.013073
#
#
# Mechanical properties :
#
#
# Convention : Reuss Voigt Hill
#
# Bulk Modulus (GPa) = 46.11198 47.55128 46.83163
# Shear Modulus (GPa) = 10.63148 11.59928 11.11538
#
# Velocity S-wave (km/s) = 2.04026 2.13110 2.08617
# Velocity P-wave (km/s) = 4.85849 4.96726 4.91318
#
# Compressibility (1/GPa) = 0.02168634
#
# Stress axis : x y z
#
# Youngs Moduli (GPa) = 111.21410 99.72834 85.24552
#
# Poissons Ratio (x) = -0.02173 0.25001
# Poissons Ratio (y) = -0.02424 0.15487
# Poissons Ratio (z) = 0.32617 0.18118
#
# Static dielectric constant tensor:
#      x y z
#    x 2.182350 0.000000 0.034490 
#    y 0.000000 2.161720 0.000000 
#    z 0.034490 0.000000 1.995190 
# 
# From -- ./inp_files/10830.got.cif
#   From: 2010.05.17/outbox.cif.g08.bks.cpg/sg11_6_cif.got.tgz:10830.got - 2010.06.03 12:22:45.
