data_PCOD9165869
_publ_section_title
;
Structure prediction by ZEFSAII (Michael W. Deem and Ramdas Pophale) SiO2 
 PCOD9165869
Probable space group: P 21/M
;
_chemical_formula_sum "Si O2"
_cell_formula_units_Z 18
_cell_length_a 10.576182
_cell_length_b 13.259349
_cell_length_c 14.445463
_cell_angle_alpha 90.000000
_cell_angle_beta 26.837942
_cell_angle_gamma 90.000000
_cell_volume 914.555489
_symmetry_space_group_name_H-M "P 21/M"
_symmetry_group_IT_number 11
_symmetry_cell_setting 'monoclinic'
loop_
_space_group_symop_operation_xyz
x,y,z
-x,1/2+y,-z
-x,-y,-z
x,1/2-y,z
loop_
_atom_site_type_symbol
_atom_site_label
_atom_site_fract_x
_atom_site_fract_y
_atom_site_fract_z
Si Si1 0.989216 0.250000 0.627748
Si Si2 0.030847 0.250000 0.803107
Si Si3 0.531775 0.892368 0.020575
Si Si4 0.720024 0.960578 0.280500
Si Si5 0.804632 0.870528 0.043270
Si Si6 0.362436 0.250000 0.204566
O O1 0.147400 0.250000 0.621924
O O2 0.773870 0.342989 0.768771
O O3 0.183316 0.250000 0.412867
O O4 0.125419 0.357127 0.785379
O O5 0.692280 0.250000 0.016280
O O6 0.678352 0.882166 0.023461
O O7 0.692885 0.839284 0.830955
O O8 0.500000 0.000000 0.000000
O O9 0.500000 0.000000 0.500000
O O10 0.614911 0.920868 0.248507
O O11 0.922071 0.057456 0.133410
O O12 0.850488 0.750000 0.029677
#
# Coordination Sequence:
#
# PCOD9165869 Si02
#       6
#     2   2   4   4   4   2
#     4  10  22  37  64  96 120 173 209 248 329 384
#     4  10  22  44  59  93 139 159 218 280 321 384
#     4  10  21  41  64  93 132 164 208 267 320 382
#     4  11  26  41  67  97 123 180 222 264 327 392
#     4  11  22  43  66  95 136 169 212 277 326 378
#     4  10  22  39  63  91 127 170 207 260 322 378
#
# _framework density 19.681692000000002
#
# number of rings (size 3 to 8) (size 9 to 14) (size 15 to 20)
#    0.000    1.778    3.333    2.667    1.556    8.000 
#    0.000    0.000    0.000    0.000    0.000    0.000 
#    0.000    0.000    0.000    0.000    0.000    0.000 
#
# Total GULP energy -100221.699394 kJ/mol
# GULP energy per Si atom -5567.872189 kJ/mol
# Density = 1.963690 g / cm^3
# Si number density = 19.681692 Si / 1000 Ang^3
#
#
#
# Elastic Constant Matrix: (Units=GPa)
#
#
# Indices 1 2 3 4 5 6 
#
# 1 82.7540 46.4619 30.7666 0.0000 27.3940 0.0000
# 2 46.4619 189.6922 43.8994 0.0000 16.0087 0.0000
# 3 30.7666 43.8994 120.4776 0.0000 42.9633 0.0000
# 4 0.0000 0.0000 0.0000 62.6399 0.0000 8.6694
# 5 27.3940 16.0087 42.9633 0.0000 32.4720 0.0000
# 6 0.0000 0.0000 0.0000 8.6694 0.0000 35.0920
#
#
#
# Elastic Compliance Matrix: (Units=1/GPa)
#
#
# Indices 1 2 3 4 5 6 
#
# 1 0.019174 -0.003854 0.003027 0.000000 -0.018280 0.000000
# 2 -0.003854 0.006532 -0.002664 0.000000 0.003556 0.000000
# 3 0.003027 -0.002664 0.016927 0.000000 -0.023636 0.000000
# 4 0.000000 0.000000 0.000000 0.016529 0.000000 -0.004084
# 5 -0.018280 0.003556 -0.023636 0.000000 0.075736 0.000000
# 6 0.000000 0.000000 0.000000 -0.004084 0.000000 0.029505
#
#
# Mechanical properties :
#
#
# Convention : Reuss Voigt Hill
#
# Bulk Modulus (GPa) = 28.05056 70.57552 49.31304
# Shear Modulus (GPa) = 27.28227 44.16051 35.72139
#
# Velocity S-wave (km/s) = 3.72718 4.74195 4.26485
# Velocity P-wave (km/s) = 5.72761 8.11897 7.02578
#
# Compressibility (1/GPa) = 0.03564991
#
# Stress axis : x y z
#
# Youngs Moduli (GPa) = 52.15465 153.09010 59.07834
#
# Poissons Ratio (x) = 0.59001 -0.17881
# Poissons Ratio (y) = 0.20101 0.15738
# Poissons Ratio (z) = -0.15785 0.40782
#
# Static dielectric constant tensor:
#      x y z
#    x 1.716430 0.000000 0.014770 
#    y 0.000000 1.684720 0.000000 
#    z 0.014770 0.000000 1.691790 
# 
# From -- ./inp_files/49742.got.cif
#   From: 2010.05.17/outbox.cif.g08.bks.cpg/sg11_25_cif.got.tgz:49742.got - 2010.06.03 12:22:45.
