data_PCOD9165913
_publ_section_title
;
Structure prediction by ZEFSAII (Michael W. Deem and Ramdas Pophale) SiO2 
 PCOD9165913
Probable space group: P 21/M
;
_chemical_formula_sum "Si O2"
_cell_formula_units_Z 28
_cell_length_a 5.069802
_cell_length_b 30.845197
_cell_length_c 8.984759
_cell_angle_alpha 90.000000
_cell_angle_beta 56.877901
_cell_angle_gamma 90.000000
_cell_volume 1176.722222
_symmetry_space_group_name_H-M "P 21/M"
_symmetry_group_IT_number 11
_symmetry_cell_setting 'monoclinic'
loop_
_space_group_symop_operation_xyz
x,y,z
-x,1/2+y,-z
-x,-y,-z
x,1/2-y,z
loop_
_atom_site_type_symbol
_atom_site_label
_atom_site_fract_x
_atom_site_fract_y
_atom_site_fract_z
Si Si1 0.155152 0.202567 0.730221
Si Si2 0.687378 0.368658 0.317337
Si Si3 0.577550 0.200014 0.122610
Si Si4 0.533926 0.464795 0.361303
Si Si5 0.673094 0.623286 0.002096
Si Si6 0.259947 0.033059 0.144800
Si Si7 0.248032 0.653738 0.375794
O O1 0.123317 0.250000 0.671768
O O2 0.021761 0.167201 0.656044
O O3 0.510385 0.193271 0.668369
O O4 0.931136 0.201880 0.944815
O O5 0.551639 0.324218 0.289477
O O6 0.495665 0.412985 0.403292
O O7 0.845316 0.361008 0.430624
O O8 0.950229 0.378268 0.110388
O O9 0.463182 0.250000 0.161891
O O10 0.408565 0.168045 0.057099
O O11 0.500000 0.500000 0.500000
O O12 0.281871 0.474799 0.312827
O O13 0.901709 0.469843 0.199656
O O14 0.602506 0.580992 0.927433
O O15 0.480457 0.621363 0.214355
O O16 0.500000 0.000000 0.000000
#
# Coordination Sequence:
#
# PCOD9165913 Si02
#       7
#     4   4   4   4   4   4   4
#     4  10  22  42  63  92 131 171 223 283 330 389
#     4  11  24  43  67  99 135 177 228 279 339 402
#     4  10  21  41  67  92 133 183 224 275 339 395
#     4  11  25  46  69 103 144 174 223 288 348 411
#     4  10  23  45  64  98 141 173 227 283 336 400
#     4  11  24  44  73 102 137 180 228 279 345 419
#     4  11  24  39  67  94 128 177 221 271 341 394
#
# _framework density 23.794910000000002
#
# number of rings (size 3 to 8) (size 9 to 14) (size 15 to 20)
#    0.000    1.429    2.857    1.286    4.000    2.286 
#    5.143    0.000    0.000    0.000    0.000    0.000 
#    0.000    0.000    0.000    0.000    0.000    0.000 
#
# Total GULP energy -156297.353412 kJ/mol
# GULP energy per Si atom -5582.048336 kJ/mol
# Density = 2.374075 g / cm^3
# Si number density = 23.794910 Si / 1000 Ang^3
#
#
#
# Elastic Constant Matrix: (Units=GPa)
#
#
# Indices 1 2 3 4 5 6 
#
# 1 56.1184 12.7278 7.7306 0.0000 4.5010 0.0000
# 2 12.7278 129.4709 16.5098 0.0000 -1.8275 0.0000
# 3 7.7306 16.5098 75.0829 0.0000 -0.1844 0.0000
# 4 0.0000 0.0000 0.0000 28.7464 0.0000 4.0710
# 5 4.5010 -1.8275 -0.1844 0.0000 39.9866 0.0000
# 6 0.0000 0.0000 0.0000 4.0710 0.0000 27.7647
#
#
#
# Elastic Compliance Matrix: (Units=1/GPa)
#
#
# Indices 1 2 3 4 5 6 
#
# 1 0.018584 -0.001660 -0.001554 0.000000 -0.002175 0.000000
# 2 -0.001660 0.008100 -0.001609 0.000000 0.000550 0.000000
# 3 -0.001554 -0.001609 0.013833 0.000000 0.000165 0.000000
# 4 0.000000 0.000000 0.000000 0.035525 0.000000 -0.005209
# 5 -0.002175 0.000550 0.000165 0.000000 0.025279 0.000000
# 6 0.000000 0.000000 0.000000 -0.005209 0.000000 0.036781
#
#
# Mechanical properties :
#
#
# Convention : Reuss Voigt Hill
#
# Bulk Modulus (GPa) = 32.39135 37.17873 34.78504
# Shear Modulus (GPa) = 31.63825 34.21315 32.92570
#
# Velocity S-wave (km/s) = 3.65035 3.79599 3.72389
# Velocity P-wave (km/s) = 5.60438 5.90519 5.75675
#
# Compressibility (1/GPa) = 0.03087244
#
# Stress axis : x y z
#
# Youngs Moduli (GPa) = 53.80871 123.45998 72.29214
#
# Poissons Ratio (x) = 0.20488 0.11234
# Poissons Ratio (y) = 0.08930 0.11631
# Poissons Ratio (z) = 0.08361 0.19863
#
# Static dielectric constant tensor:
#      x y z
#    x 1.915320 0.000000 -0.031380 
#    y 0.000000 1.929600 0.000000 
#    z -0.031380 0.000000 1.929850 
# 
# From -- ./inp_files/10789.got.cif
#   From: 2010.05.17/outbox.cif.g08.bks.cpg/sg11_6_cif.got.tgz:10789.got - 2010.06.03 12:22:45.
