data_PCOD9165802
_publ_section_title
;
Structure prediction by ZEFSAII (Michael W. Deem and Ramdas Pophale) SiO2 
 PCOD9165802
Probable space group: P 21/M
;
_chemical_formula_sum "Si O2"
_cell_formula_units_Z 32
_cell_length_a 9.310061
_cell_length_b 27.797682
_cell_length_c 12.745719
_cell_angle_alpha 90.000000
_cell_angle_beta 30.992891
_cell_angle_gamma 90.000000
_cell_volume 1698.537313
_symmetry_space_group_name_H-M "P 21/M"
_symmetry_group_IT_number 11
_symmetry_cell_setting 'monoclinic'
loop_
_space_group_symop_operation_xyz
x,y,z
-x,1/2+y,-z
-x,-y,-z
x,1/2-y,z
loop_
_atom_site_type_symbol
_atom_site_label
_atom_site_fract_x
_atom_site_fract_y
_atom_site_fract_z
Si Si1 0.450756 0.379096 0.098941
Si Si2 0.790599 0.804098 0.149109
Si Si3 0.143950 0.377271 0.074907
Si Si4 0.449440 0.694069 0.778670
Si Si5 0.846690 0.510236 0.986793
Si Si6 0.242296 0.462473 0.369537
Si Si7 0.495851 0.149888 0.483075
Si Si8 0.940132 0.572799 0.291585
O O1 0.318165 0.366752 0.070534
O O2 0.449835 0.336697 0.185269
O O3 0.275364 0.423158 0.257888
O O4 0.768549 0.398117 0.888225
O O5 0.756216 0.750000 0.128488
O O6 0.593413 0.812978 0.371659
O O7 0.745417 0.844390 0.089431
O O8 0.111793 0.808717 0.985837
O O9 0.159064 0.433691 0.037575
O O10 0.817971 0.364322 0.292386
O O11 0.529318 0.750000 0.735450
O O12 0.547083 0.671538 0.606712
O O13 0.997714 0.477715 0.804175
O O14 0.534123 0.490310 0.192261
O O15 0.000000 0.500000 0.000000
O O16 0.175892 0.436551 0.520187
O O17 0.000000 0.500000 0.500000
O O18 0.291680 0.104177 0.622922
#
# Coordination Sequence:
#
# PCOD9165802 Si02
#       8
#     4   4   4   4   4   4   4   4
#     4  11  23  41  61  92 129 163 204 258 317 372
#     4  10  22  42  66  90 120 162 208 259 318 376
#     4  11  25  39  62  94 131 160 201 262 318 366
#     4  10  21  40  66  91 119 159 209 261 310 372
#     4  11  24  39  59  91 127 166 213 255 305 365
#     4  11  23  39  61  87 127 169 209 248 306 369
#     4  11  21  40  66  91 118 162 212 257 303 370
#     4  11  22  38  64  87 123 169 213 252 298 371
#
# _framework density 18.839739000000002
#
# number of rings (size 3 to 8) (size 9 to 14) (size 15 to 20)
#    0.000    1.250    2.500    3.375    3.500    9.000 
#    0.000    0.000    0.000    0.000    0.000    0.000 
#    0.000    0.000    0.000    0.000    0.000    0.000 
#
# Total GULP energy -178878.404830 kJ/mol
# GULP energy per Si atom -5589.950151 kJ/mol
# Density = 1.879686 g / cm^3
# Si number density = 18.839739 Si / 1000 Ang^3
#
#
#
# Elastic Constant Matrix: (Units=GPa)
#
#
# Indices 1 2 3 4 5 6 
#
# 1 112.7983 55.0025 16.4788 0.0000 15.0974 0.0000
# 2 55.0025 134.4093 32.7901 0.0000 12.2384 0.0000
# 3 16.4788 32.7901 79.1423 0.0000 17.2805 0.0000
# 4 0.0000 0.0000 0.0000 25.4305 0.0000 5.1109
# 5 15.0974 12.2384 17.2805 0.0000 18.5199 0.0000
# 6 0.0000 0.0000 0.0000 5.1109 0.0000 22.8252
#
#
#
# Elastic Compliance Matrix: (Units=1/GPa)
#
#
# Indices 1 2 3 4 5 6 
#
# 1 0.011907 -0.004421 0.001047 0.000000 -0.007762 0.000000
# 2 -0.004421 0.010040 -0.003237 0.000000 -0.000010 0.000000
# 3 0.001047 -0.003237 0.016926 0.000000 -0.014508 0.000000
# 4 0.000000 0.000000 0.000000 0.041176 0.000000 -0.009220
# 5 -0.007762 -0.000010 -0.014508 0.000000 0.073868 0.000000
# 6 0.000000 0.000000 0.000000 -0.009220 0.000000 0.045876
#
#
# Mechanical properties :
#
#
# Convention : Reuss Voigt Hill
#
# Bulk Modulus (GPa) = 38.98360 59.43254 49.20807
# Shear Modulus (GPa) = 22.56671 28.16035 25.36353
#
# Velocity S-wave (km/s) = 3.46472 3.87037 3.67315
# Velocity P-wave (km/s) = 6.06158 7.18247 6.64570
#
# Compressibility (1/GPa) = 0.02565181
#
# Stress axis : x y z
#
# Youngs Moduli (GPa) = 83.98232 99.60312 59.07946
#
# Poissons Ratio (x) = 0.44038 -0.06188
# Poissons Ratio (y) = 0.37132 0.19123
# Poissons Ratio (z) = -0.08797 0.32241
#
# Static dielectric constant tensor:
#      x y z
#    x 1.637710 0.000000 0.015790 
#    y 0.000000 1.659380 0.000000 
#    z 0.015790 0.000000 1.633530 
# 
# From -- ./inp_files/33190.got.cif
#   From: 2010.05.17/outbox.cif.g08.bks.cpg/sg11_17_cif.got.tgz:33190.got - 2010.06.03 12:22:45.
