data_PCOD9165001
_publ_section_title
;
Structure prediction by ZEFSAII (Michael W. Deem and Ramdas Pophale) SiO2 
 PCOD9165001
Probable space group: P 21/M
;
_chemical_formula_sum "Si O2"
_cell_formula_units_Z 18
_cell_length_a 9.908855
_cell_length_b 7.311326
_cell_length_c 11.984011
_cell_angle_alpha 90.000000
_cell_angle_beta 130.320819
_cell_angle_gamma 90.000000
_cell_volume 661.947667
_symmetry_space_group_name_H-M "P 21/M"
_symmetry_group_IT_number 11
_symmetry_cell_setting 'monoclinic'
loop_
_space_group_symop_operation_xyz
x,y,z
-x,1/2+y,-z
-x,-y,-z
x,1/2-y,z
loop_
_atom_site_type_symbol
_atom_site_label
_atom_site_fract_x
_atom_site_fract_y
_atom_site_fract_z
Si Si1 0.686846 0.031234 0.035644
Si Si2 0.358884 0.968513 0.560739
Si Si3 0.245122 0.963879 0.178690
Si Si4 0.846948 0.750000 0.708042
Si Si5 0.834772 0.466750 0.332819
O O1 0.707361 0.250000 0.036048
O O2 0.823596 0.958727 0.202608
O O3 0.715984 0.964564 0.926017
O O4 0.500000 0.000000 0.000000
O O5 0.328423 0.750000 0.530911
O O6 0.326069 0.020447 0.673247
O O7 0.565977 0.007216 0.655124
O O8 0.226486 0.091543 0.418951
O O9 0.205107 0.750000 0.159949
O O10 0.112503 0.090707 0.175662
O O11 0.827822 0.250000 0.313117
O O12 0.000000 0.500000 0.500000
#
# Coordination Sequence:
#
# PCOD9165001 Si02
#       5
#     4   4   4   2   4
#     4  10  21  37  60  92 128 154 199 263 314 371
#     4  11  22  36  57  91 125 158 209 258 301 370
#     4  11  22  35  57  92 124 162 203 253 314 369
#     4  12  24  36  58  86 128 168 206 250 312 364
#     4  10  23  41  63  93 124 162 206 257 315 377
#
# _framework density 27.192482999999999
#
# number of rings (size 3 to 8) (size 9 to 14) (size 15 to 20)
#    0.000    1.333    4.444    1.333    3.111    0.889 
#    0.000    0.000    0.000    1.333    0.000    0.000 
#    0.000    0.000    0.000    0.000    0.000    0.000 
#
# Total GULP energy -100288.767755 kJ/mol
# GULP energy per Si atom -5571.598209 kJ/mol
# Density = 2.713059 g / cm^3
# Si number density = 27.192483 Si / 1000 Ang^3
#
#
#
# Elastic Constant Matrix: (Units=GPa)
#
#
# Indices 1 2 3 4 5 6 
#
# 1 70.6327 22.5830 50.2778 0.0000 -7.0757 0.0000
# 2 22.5830 192.4024 29.6053 0.0000 -34.6371 0.0000
# 3 50.2778 29.6053 169.7652 0.0000 -44.1909 0.0000
# 4 0.0000 0.0000 0.0000 26.5188 0.0000 -5.9331
# 5 -7.0757 -34.6371 -44.1909 0.0000 54.9993 0.0000
# 6 0.0000 0.0000 0.0000 -5.9331 0.0000 20.0490
#
#
#
# Elastic Compliance Matrix: (Units=1/GPa)
#
#
# Indices 1 2 3 4 5 6 
#
# 1 0.018829 -0.001936 -0.006228 0.000000 -0.003801 0.000000
# 2 -0.001936 0.006062 0.000563 0.000000 0.004021 0.000000
# 3 -0.006228 0.000563 0.009510 0.000000 0.007194 0.000000
# 4 0.000000 0.000000 0.000000 0.040383 0.000000 0.011950
# 5 -0.003801 0.004021 0.007194 0.000000 0.026005 0.000000
# 6 0.000000 0.000000 0.000000 0.011950 0.000000 0.053414
#
#
# Mechanical properties :
#
#
# Convention : Reuss Voigt Hill
#
# Bulk Modulus (GPa) = 52.08920 70.85915 61.47417
# Shear Modulus (GPa) = 28.44050 42.33572 35.38811
#
# Velocity S-wave (km/s) = 3.23754 3.95003 3.61140
# Velocity P-wave (km/s) = 5.75959 6.84971 6.32817
#
# Compressibility (1/GPa) = 0.01919784
#
# Stress axis : x y z
#
# Youngs Moduli (GPa) = 53.10832 164.96444 105.15733
#
# Poissons Ratio (x) = 0.31937 0.65496
# Poissons Ratio (y) = 0.10282 -0.05919
# Poissons Ratio (z) = 0.33078 -0.09286
#
# Static dielectric constant tensor:
#      x y z
#    x 2.286350 0.000000 -0.013610 
#    y 0.000000 2.034430 0.000000 
#    z -0.013610 0.000000 2.132610 
# 
# From -- ./inp_files/33616.got.cif
#   From: 2010.05.17/outbox.cif.g08.bks.cpg/sg11_17_cif.got.tgz:33616.got - 2010.06.03 12:22:45.
