data_PCOD9165987
_publ_section_title
;
Structure prediction by ZEFSAII (Michael W. Deem and Ramdas Pophale) SiO2 
 PCOD9165987
Probable space group: P 21/M
;
_chemical_formula_sum "Si O2"
_cell_formula_units_Z 26
_cell_length_a 8.942879
_cell_length_b 14.886632
_cell_length_c 13.778442
_cell_angle_alpha 90.000000
_cell_angle_beta 35.469570
_cell_angle_gamma 90.000000
_cell_volume 1064.398877
_symmetry_space_group_name_H-M "P 21/M"
_symmetry_group_IT_number 11
_symmetry_cell_setting 'monoclinic'
loop_
_space_group_symop_operation_xyz
x,y,z
-x,1/2+y,-z
-x,-y,-z
x,1/2-y,z
loop_
_atom_site_type_symbol
_atom_site_label
_atom_site_fract_x
_atom_site_fract_y
_atom_site_fract_z
Si Si1 0.966063 0.250000 0.268426
Si Si2 0.309848 0.347495 0.583315
Si Si3 0.442694 0.044922 0.330488
Si Si4 0.506389 0.651634 0.295553
Si Si5 0.802088 0.060985 0.870972
Si Si6 0.006428 0.095439 0.086760
Si Si7 0.754737 0.904177 0.762304
O O1 0.924016 0.171173 0.207251
O O2 0.055802 0.329175 0.298557
O O3 0.353607 0.250000 0.514861
O O4 0.378150 0.425238 0.473106
O O5 0.458343 0.347952 0.606631
O O6 0.013309 0.362556 0.765645
O O7 0.308123 0.101696 0.317775
O O8 0.752890 0.059091 0.166377
O O9 0.367573 0.941932 0.349010
O O10 0.405168 0.750000 0.319890
O O11 0.781923 0.638361 0.096624
O O12 0.865503 0.984949 0.918038
O O13 0.828748 0.005216 0.756803
O O14 0.521043 0.102417 0.035313
#
# Coordination Sequence:
#
# PCOD9165987 Si02
#       7
#     2   4   4   4   4   4   4
#     4  10  24  40  64 102 132 170 218 286 332 406
#     4  11  26  41  63  97 143 180 228 272 337 405
#     4  12  24  42  69 100 136 185 223 279 337 403
#     4  11  22  40  65 100 131 171 228 287 334 393
#     4  10  21  43  64  96 131 175 213 283 343 397
#     4  11  21  41  71  97 132 167 226 285 342 394
#     4  10  23  40  70  96 133 171 227 276 341 401
#
# _framework density 24.426931
#
# number of rings (size 3 to 8) (size 9 to 14) (size 15 to 20)
#    0.000    1.231    3.846    1.846    3.231    0.615 
#    0.000    0.769    0.000    1.846    0.000    0.000 
#    0.000    0.000    0.000    0.000    0.000    0.000 
#
# Total GULP energy -145022.352375 kJ/mol
# GULP energy per Si atom -5577.782784 kJ/mol
# Density = 2.437133 g / cm^3
# Si number density = 24.426931 Si / 1000 Ang^3
#
#
#
# Elastic Constant Matrix: (Units=GPa)
#
#
# Indices 1 2 3 4 5 6 
#
# 1 116.3169 27.5908 10.1516 0.0000 20.2567 0.0000
# 2 27.5908 120.7677 25.3821 0.0000 8.6954 0.0000
# 3 10.1516 25.3821 69.3594 0.0000 -2.8813 0.0000
# 4 0.0000 0.0000 0.0000 2.3551 0.0000 28.7041
# 5 20.2567 8.6954 -2.8813 0.0000 33.5563 0.0000
# 6 0.0000 0.0000 0.0000 28.7041 0.0000 27.6837
#
#
#
# Elastic Compliance Matrix: (Units=1/GPa)
#
#
# Indices 1 2 3 4 5 6 
#
# 1 0.010090 -0.001657 -0.001109 0.000000 -0.005757 0.000000
# 2 -0.001657 0.009477 -0.003298 0.000000 -0.001738 0.000000
# 3 -0.001109 -0.003298 0.015907 0.000000 0.002890 0.000000
# 4 0.000000 0.000000 0.000000 -0.036487 0.000000 0.037832
# 5 -0.005757 -0.001738 0.002890 0.000000 0.033974 0.000000
# 6 0.000000 0.000000 0.000000 0.037832 0.000000 -0.003104
#
#
# Mechanical properties :
#
#
# Convention : Reuss Voigt Hill
#
# Bulk Modulus (GPa) = 42.83646 48.07700 45.45673
# Shear Modulus (GPa) = 100.46659 28.94034 64.70346
#
# Velocity S-wave (km/s) = 6.42018 3.44579 5.15229
# Velocity P-wave (km/s) = 8.51663 5.96288 7.35149
#
# Compressibility (1/GPa) = 0.02334460
#
# Stress axis : x y z
#
# Youngs Moduli (GPa) = 99.11120 105.51507 62.86572
#
# Poissons Ratio (x) = 0.17489 0.06974
# Poissons Ratio (y) = 0.16427 0.20732
# Poissons Ratio (z) = 0.10995 0.34797
#
# Static dielectric constant tensor:
#      x y z
#    x 1.877190 0.000000 -0.027460 
#    y 0.000000 1.940300 0.000000 
#    z -0.027460 0.000000 2.052590 
# 
# From -- ./inp_files/47756.got.cif
#   From: 2010.05.17/outbox.cif.g08.bks.cpg/sg11_24_cif.got.tgz:47756.got - 2010.06.03 12:22:45.
