data_PCOD9165942
_publ_section_title
;
Structure prediction by ZEFSAII (Michael W. Deem and Ramdas Pophale) SiO2 
 PCOD9165942
Probable space group: P 21/M
;
_chemical_formula_sum "Si O2"
_cell_formula_units_Z 20
_cell_length_a 4.897315
_cell_length_b 11.228377
_cell_length_c 16.082952
_cell_angle_alpha 90.000000
_cell_angle_beta 115.351698
_cell_angle_gamma 90.000000
_cell_volume 799.214635
_symmetry_space_group_name_H-M "P 21/M"
_symmetry_group_IT_number 11
_symmetry_cell_setting 'monoclinic'
loop_
_space_group_symop_operation_xyz
x,y,z
-x,1/2+y,-z
-x,-y,-z
x,1/2-y,z
loop_
_atom_site_type_symbol
_atom_site_label
_atom_site_fract_x
_atom_site_fract_y
_atom_site_fract_z
Si Si1 0.649438 0.250000 0.969513
Si Si2 0.310543 0.881541 0.862617
Si Si3 0.681228 0.496877 0.776791
Si Si4 0.940483 0.498916 0.393623
Si Si5 0.118163 0.250000 0.441473
Si Si6 0.019730 0.750000 0.149814
Si Si7 0.791346 0.250000 0.570135
O O1 0.929034 0.250000 0.943629
O O2 0.335618 0.250000 0.879346
O O3 0.653976 0.360988 0.034104
O O4 0.373546 0.750000 0.834037
O O5 0.531420 0.972171 0.846378
O O6 0.967526 0.918740 0.802270
O O7 0.407765 0.508293 0.676824
O O8 0.815669 0.365657 0.795575
O O9 0.000000 0.500000 0.500000
O O10 0.091689 0.373219 0.388260
O O11 0.070581 0.625561 0.379159
O O12 0.432744 0.250000 0.532589
O O13 0.859911 0.250000 0.479301
#
# Coordination Sequence:
#
# PCOD9165942 Si02
#       7
#     2   4   4   4   2   2   2
#     4  10  24  46  70 104 136 178 228 272 360 422
#     4  10  25  45  68 100 136 173 224 290 340 400
#     4  12  25  43  69 101 144 176 231 289 336 411
#     4  10  24  44  67  98 135 186 228 281 339 400
#     4  10  22  36  66  88 118 169 230 271 326 382
#     4  12  25  42  71 104 134 188 218 275 358 419
#     4  10  21  42  59  90 128 163 224 276 326 395
#
# _framework density 25.024569
#
# number of rings (size 3 to 8) (size 9 to 14) (size 15 to 20)
#    0.600    0.800    0.000    4.200    2.800   11.200 
#    0.000    4.000    0.000    0.000    0.000    0.000 
#    0.000    0.000    0.000    0.000    0.000    0.000 
#
# Total GULP energy -112013.971377 kJ/mol
# GULP energy per Si atom -5600.698569 kJ/mol
# Density = 2.496761 g / cm^3
# Si number density = 25.024569 Si / 1000 Ang^3
#
#
#
# Elastic Constant Matrix: (Units=GPa)
#
#
# Indices 1 2 3 4 5 6 
#
# 1 61.0146 10.5931 15.5405 0.0000 -7.8491 0.0000
# 2 10.5931 189.5984 47.6876 0.0000 24.4387 0.0000
# 3 15.5405 47.6876 79.9996 0.0000 11.5381 0.0000
# 4 0.0000 0.0000 0.0000 58.6384 0.0000 2.6714
# 5 -7.8491 24.4387 11.5381 0.0000 52.5474 0.0000
# 6 0.0000 0.0000 0.0000 2.6714 0.0000 29.5204
#
#
#
# Elastic Compliance Matrix: (Units=1/GPa)
#
#
# Indices 1 2 3 4 5 6 
#
# 1 0.017907 -0.000555 -0.003687 0.000000 0.003743 0.000000
# 2 -0.000555 0.006464 -0.003408 0.000000 -0.002341 0.000000
# 3 -0.003687 -0.003408 0.015592 0.000000 -0.002390 0.000000
# 4 0.000000 0.000000 0.000000 0.017124 0.000000 -0.001550
# 5 0.003743 -0.002341 -0.002390 0.000000 0.021203 0.000000
# 6 0.000000 0.000000 0.000000 -0.001550 0.000000 0.034015
#
#
# Mechanical properties :
#
#
# Convention : Reuss Voigt Hill
#
# Bulk Modulus (GPa) = 40.54773 53.13944 46.84359
# Shear Modulus (GPa) = 36.81154 45.26066 41.03610
#
# Velocity S-wave (km/s) = 3.83954 4.25744 4.05388
# Velocity P-wave (km/s) = 5.99120 6.74156 6.37743
#
# Compressibility (1/GPa) = 0.02466229
#
# Stress axis : x y z
#
# Youngs Moduli (GPa) = 55.84548 154.69780 64.13420
#
# Poissons Ratio (x) = 0.08593 0.23647
# Poissons Ratio (y) = 0.03102 0.21855
# Poissons Ratio (z) = 0.20591 0.52717
#
# Static dielectric constant tensor:
#      x y z
#    x 1.930800 0.000000 -0.102470 
#    y 0.000000 1.983400 0.000000 
#    z -0.102470 0.000000 1.987170 
# 
# From -- ./inp_files/62622.got.cif
#   From: 2010.05.17/outbox.cif.g08.bks.cpg/sg11_32_cif.got.tgz:62622.got - 2010.06.03 12:22:45.
