data_PCOD9165836
_publ_section_title
;
Structure prediction by ZEFSAII (Michael W. Deem and Ramdas Pophale) SiO2 
 PCOD9165836
Probable space group: P 21/M
;
_chemical_formula_sum "Si O2"
_cell_formula_units_Z 26
_cell_length_a 17.099130
_cell_length_b 7.770197
_cell_length_c 16.762413
_cell_angle_alpha 90.000000
_cell_angle_beta 33.309430
_cell_angle_gamma 90.000000
_cell_volume 1223.043125
_symmetry_space_group_name_H-M "P 21/M"
_symmetry_group_IT_number 11
_symmetry_cell_setting 'monoclinic'
loop_
_space_group_symop_operation_xyz
x,y,z
-x,1/2+y,-z
-x,-y,-z
x,1/2-y,z
loop_
_atom_site_type_symbol
_atom_site_label
_atom_site_fract_x
_atom_site_fract_y
_atom_site_fract_z
Si Si1 0.626720 0.545814 0.452625
Si Si2 0.144491 0.446775 0.268538
Si Si3 0.244296 0.438490 0.953720
Si Si4 0.836215 0.450003 0.144753
Si Si5 0.561048 0.540053 0.687530
Si Si6 0.174398 0.750000 0.116929
Si Si7 0.826630 0.956326 0.570438
O O1 0.500000 0.500000 0.500000
O O2 0.631530 0.750000 0.455220
O O3 0.770060 0.486878 0.287300
O O4 0.600342 0.481479 0.564523
O O5 0.188601 0.250000 0.212554
O O6 0.195117 0.595879 0.166647
O O7 0.189119 0.486015 0.321850
O O8 0.971672 0.456898 0.416988
O O9 0.190569 0.250000 0.022178
O O10 0.243598 0.451790 0.858245
O O11 0.407588 0.466578 0.841164
O O12 0.157263 0.597036 0.063407
O O13 0.815480 0.250000 0.146695
O O14 0.000000 0.500000 0.000000
O O15 0.545711 0.750000 0.701746
O O16 0.687874 0.493309 0.639084
O O17 0.847794 0.750000 0.540808
#
# Coordination Sequence:
#
# PCOD9165836 Si02
#       7
#     4   4   4   4   4   2   4
#     4  11  22  38  66  98 130 174 227 275 330 399
#     4  10  21  40  69  99 131 174 220 272 341 407
#     4  12  25  44  68  94 131 180 224 274 335 397
#     4  12  25  45  67  96 138 182 223 279 339 396
#     4  10  21  41  68  96 132 175 221 279 335 390
#     4  12  24  44  66  94 136 178 216 278 336 408
#     4   9  19  39  68 100 134 170 217 280 340 398
#
# _framework density 21.25845
#
# number of rings (size 3 to 8) (size 9 to 14) (size 15 to 20)
#    0.000    1.231    3.846    2.308    1.077    2.462 
#    2.769    2.308    0.000    0.000    0.000    0.000 
#    0.000    0.000    0.000    0.000    0.000    0.000 
#
# Total GULP energy -144806.673378 kJ/mol
# GULP energy per Si atom -5569.487438 kJ/mol
# Density = 2.121007 g / cm^3
# Si number density = 21.258450 Si / 1000 Ang^3
#
#
#
# Elastic Constant Matrix: (Units=GPa)
#
#
# Indices 1 2 3 4 5 6 
#
# 1 57.0950 9.2461 -4.7896 0.0000 -0.9561 0.0000
# 2 9.2461 138.3239 17.0768 0.0000 18.3350 0.0000
# 3 -4.7896 17.0768 38.2900 0.0000 6.1429 0.0000
# 4 0.0000 0.0000 0.0000 25.5764 0.0000 6.9833
# 5 -0.9561 18.3350 6.1429 0.0000 31.1811 0.0000
# 6 0.0000 0.0000 0.0000 6.9833 0.0000 29.1097
#
#
#
# Elastic Compliance Matrix: (Units=1/GPa)
#
#
# Indices 1 2 3 4 5 6 
#
# 1 0.018044 -0.001689 0.002852 0.000000 0.000984 0.000000
# 2 -0.001689 0.008311 -0.003228 0.000000 -0.004303 0.000000
# 3 0.002852 -0.003228 0.028495 0.000000 -0.003628 0.000000
# 4 0.000000 0.000000 0.000000 0.041839 0.000000 -0.010037
# 5 0.000984 -0.004303 -0.003628 0.000000 0.035346 0.000000
# 6 0.000000 0.000000 0.000000 -0.010037 0.000000 0.036761
#
#
# Mechanical properties :
#
#
# Convention : Reuss Voigt Hill
#
# Bulk Modulus (GPa) = 19.71537 30.75283 25.23410
# Shear Modulus (GPa) = 26.33927 31.31850 28.82888
#
# Velocity S-wave (km/s) = 3.52377 3.84243 3.68654
# Velocity P-wave (km/s) = 5.08431 5.84664 5.47875
#
# Compressibility (1/GPa) = 0.05072184
#
# Stress axis : x y z
#
# Youngs Moduli (GPa) = 55.42043 120.32077 35.09415
#
# Poissons Ratio (x) = 0.20319 -0.10010
# Poissons Ratio (y) = 0.09359 0.11327
# Poissons Ratio (z) = -0.15808 0.38834
#
# Static dielectric constant tensor:
#      x y z
#    x 1.753500 0.000000 0.016770 
#    y 0.000000 1.765960 0.000000 
#    z 0.016770 0.000000 1.788970 
# 
# From -- ./inp_files/51921.got.cif
#   From: 2010.05.17/outbox.cif.g08.bks.cpg/sg11_26_cif.got.tgz:51921.got - 2010.06.03 12:22:45.
