data_PCOD9165448
_publ_section_title
;
Structure prediction by ZEFSAII (Michael W. Deem and Ramdas Pophale) SiO2 
 PCOD9165448
Probable space group: P 21/M
;
_chemical_formula_sum "Si O2"
_cell_formula_units_Z 32
_cell_length_a 11.413840
_cell_length_b 15.418458
_cell_length_c 14.519864
_cell_angle_alpha 90.000000
_cell_angle_beta 40.214781
_cell_angle_gamma 90.000000
_cell_volume 1649.816312
_symmetry_space_group_name_H-M "P 21/M"
_symmetry_group_IT_number 11
_symmetry_cell_setting 'monoclinic'
loop_
_space_group_symop_operation_xyz
x,y,z
-x,1/2+y,-z
-x,-y,-z
x,1/2-y,z
loop_
_atom_site_type_symbol
_atom_site_label
_atom_site_fract_x
_atom_site_fract_y
_atom_site_fract_z
Si Si1 0.931549 0.394227 0.136647
Si Si2 0.927053 0.896521 0.136840
Si Si3 0.098944 0.522927 0.344670
Si Si4 0.687053 0.409285 0.022934
Si Si5 0.451302 0.650885 0.717051
Si Si6 0.828872 0.850324 0.391255
Si Si7 0.402192 0.655447 0.122706
Si Si8 0.799341 0.595406 0.875845
O O1 0.911134 0.499028 0.146550
O O2 0.732047 0.359959 0.232591
O O3 0.024670 0.370037 0.176539
O O4 0.073122 0.369530 0.969650
O O5 0.811674 0.862419 0.291223
O O6 0.128852 0.869549 0.047412
O O7 0.283360 0.580243 0.242533
O O8 0.151826 0.435707 0.256510
O O9 0.000000 0.500000 0.500000
O O10 0.969238 0.582228 0.355116
O O11 0.554112 0.408276 0.188945
O O12 0.627862 0.359180 0.968331
O O13 0.739990 0.505016 0.959745
O O14 0.457379 0.750000 0.746723
O O15 0.631596 0.633871 0.551936
O O16 0.883256 0.750000 0.376891
O O17 0.336831 0.750000 0.191173
O O18 0.619071 0.650139 0.999514
#
# Coordination Sequence:
#
# PCOD9165448 Si02
#       8
#     4   4   4   4   4   4   4   4
#     4   9  18  37  56  82 115 151 193 236 290 357
#     4   9  17  34  59  84 106 145 191 241 295 349
#     4  11  23  40  60  87 124 162 200 246 301 367
#     4   9  17  35  58  82 112 146 198 252 292 339
#     4  10  22  33  54  87 121 153 194 245 300 346
#     4  11  22  37  57  90 122 150 197 255 304 344
#     4  11  22  37  60  86 116 153 202 255 299 348
#     4  10  21  39  60  87 116 157 204 240 292 364
#
# _framework density 19.396097999999999
#
# number of rings (size 3 to 8) (size 9 to 14) (size 15 to 20)
#    0.000    2.000    3.750    3.000    3.500    3.000 
#    0.000    0.625    0.000    1.500    0.000    0.000 
#    0.000    0.000    0.000    0.000    0.000    0.000 
#
# Total GULP energy -178300.790837 kJ/mol
# GULP energy per Si atom -5571.899714 kJ/mol
# Density = 1.935195 g / cm^3
# Si number density = 19.396098 Si / 1000 Ang^3
#
#
#
# Elastic Constant Matrix: (Units=GPa)
#
#
# Indices 1 2 3 4 5 6 
#
# 1 42.0470 12.9507 14.4724 0.0000 0.6498 0.0000
# 2 12.9507 36.4858 23.4170 0.0000 2.6900 0.0000
# 3 14.4724 23.4170 124.6475 0.0000 15.4981 0.0000
# 4 0.0000 0.0000 0.0000 14.3505 0.0000 -3.6332
# 5 0.6498 2.6900 15.4981 0.0000 27.6709 0.0000
# 6 0.0000 0.0000 0.0000 -3.6332 0.0000 14.3450
#
#
#
# Elastic Compliance Matrix: (Units=1/GPa)
#
#
# Indices 1 2 3 4 5 6 
#
# 1 0.026984 -0.008597 -0.001659 0.000000 0.001131 0.000000
# 2 -0.008597 0.033907 -0.005360 0.000000 -0.000092 0.000000
# 3 -0.001659 -0.005360 0.009838 0.000000 -0.004950 0.000000
# 4 0.000000 0.000000 0.000000 0.074458 0.000000 0.018858
# 5 0.001131 -0.000092 -0.004950 0.000000 0.038894 0.000000
# 6 0.000000 0.000000 0.000000 0.018858 0.000000 0.074487
#
#
# Mechanical properties :
#
#
# Convention : Reuss Voigt Hill
#
# Bulk Modulus (GPa) = 25.31857 33.87338 29.59597
# Shear Modulus (GPa) = 16.50357 21.42930 18.96643
#
# Velocity S-wave (km/s) = 2.92013 3.32750 3.13045
# Velocity P-wave (km/s) = 4.94483 5.68022 5.32523
#
# Compressibility (1/GPa) = 0.03949671
#
# Stress axis : x y z
#
# Youngs Moduli (GPa) = 37.05863 29.49283 101.65019
#
# Poissons Ratio (x) = 0.25355 0.16860
# Poissons Ratio (y) = 0.31859 0.54487
# Poissons Ratio (z) = 0.06147 0.15809
#
# Static dielectric constant tensor:
#      x y z
#    x 1.718430 0.000000 0.012250 
#    y 0.000000 1.711300 0.000000 
#    z 0.012250 0.000000 1.709670 
# 
# From -- ./inp_files/50376.got.cif
#   From: 2010.05.17/outbox.cif.g08.bks.cpg/sg11_26_cif.got.tgz:50376.got - 2010.06.03 12:22:45.
