data_PCOD9165197
_publ_section_title
;
Structure prediction by ZEFSAII (Michael W. Deem and Ramdas Pophale) SiO2 
 PCOD9165197
Probable space group: P 21/M
;
_chemical_formula_sum "Si O2"
_cell_formula_units_Z 28
_cell_length_a 9.141919
_cell_length_b 8.697451
_cell_length_c 29.367294
_cell_angle_alpha 90.000000
_cell_angle_beta 141.042049
_cell_angle_gamma 90.000000
_cell_volume 1468.152623
_symmetry_space_group_name_H-M "P 21/M"
_symmetry_group_IT_number 11
_symmetry_cell_setting 'monoclinic'
loop_
_space_group_symop_operation_xyz
x,y,z
-x,1/2+y,-z
-x,-y,-z
x,1/2-y,z
loop_
_atom_site_type_symbol
_atom_site_label
_atom_site_fract_x
_atom_site_fract_y
_atom_site_fract_z
Si Si1 0.120891 0.064811 0.216165
Si Si2 0.979626 0.435497 0.356219
Si Si3 0.583914 0.065096 0.068534
Si Si4 0.556556 0.564192 0.791254
Si Si5 0.695700 0.434128 0.644497
Si Si6 0.162517 0.064194 0.499660
Si Si7 0.742007 0.066454 0.930948
O O1 0.131911 0.250000 0.223222
O O2 0.279983 0.021089 0.211641
O O3 0.852913 0.022435 0.142429
O O4 0.215381 0.992538 0.285331
O O5 0.993528 0.250000 0.357668
O O6 0.710348 0.477863 0.283638
O O7 0.139303 0.502628 0.355220
O O8 0.069905 0.485035 0.427699
O O9 0.567926 0.250000 0.064311
O O10 0.423941 0.999005 0.069803
O O11 0.500000 0.000000 0.000000
O O12 0.568684 0.750000 0.799509
O O13 0.644483 0.487235 0.858663
O O14 0.701487 0.250000 0.645050
O O15 0.429400 0.484481 0.571616
O O16 0.154245 0.250000 0.499107
O O17 0.000000 0.000000 0.500000
O O18 0.748741 0.250000 0.935269
O O19 0.000000 0.000000 0.000000
#
# Coordination Sequence:
#
# PCOD9165197 Si02
#       7
#     4   4   4   4   4   4   4
#     4  10  22  40  62  86 117 157 195 234 289 352
#     4  10  21  38  60  84 116 157 197 236 287 349
#     4  11  23  40  63  91 121 156 199 244 292 351
#     4  10  21  39  62  88 116 151 198 245 289 348
#     4  11  23  37  57  87 120 151 193 244 289 339
#     4  10  22  39  59  86 116 151 194 241 291 345
#     4  12  25  41  62  88 120 157 196 244 298 352
#
# _framework density 19.071587999999998
#
# number of rings (size 3 to 8) (size 9 to 14) (size 15 to 20)
#    0.000    1.429    0.000    5.143    0.000    9.714 
#    0.000    0.000    0.000    0.000    0.000    0.000 
#    0.000    0.000    0.000    0.000    0.000    0.000 
#
# Total GULP energy -156628.056692 kJ/mol
# GULP energy per Si atom -5593.859168 kJ/mol
# Density = 1.902818 g / cm^3
# Si number density = 19.071588 Si / 1000 Ang^3
#
#
#
# Elastic Constant Matrix: (Units=GPa)
#
#
# Indices 1 2 3 4 5 6 
#
# 1 239.1962 64.0974 144.6603 0.0000 2.5779 0.0000
# 2 64.0974 46.6640 70.0763 0.0000 2.2236 0.0000
# 3 144.6603 70.0763 234.3635 0.0000 0.4279 0.0000
# 4 0.0000 0.0000 0.0000 32.1634 0.0000 -4.8652
# 5 2.5779 2.2236 0.4279 0.0000 44.5616 0.0000
# 6 0.0000 0.0000 0.0000 -4.8652 0.0000 35.7494
#
#
#
# Elastic Compliance Matrix: (Units=1/GPa)
#
#
# Indices 1 2 3 4 5 6 
#
# 1 0.007519 -0.006087 -0.002821 0.000000 -0.000104 0.000000
# 2 -0.006087 0.043972 -0.009388 0.000000 -0.001752 0.000000
# 3 -0.002821 -0.009388 0.008814 0.000000 0.000547 0.000000
# 4 0.000000 0.000000 0.000000 0.031745 0.000000 0.004320
# 5 -0.000104 -0.001752 0.000547 0.000000 0.022529 0.000000
# 6 0.000000 0.000000 0.000000 0.004320 0.000000 0.028560
#
#
# Mechanical properties :
#
#
# Convention : Reuss Voigt Hill
#
# Bulk Modulus (GPa) = 42.16911 119.76574 80.96742
# Shear Modulus (GPa) = 26.64771 38.58753 32.61762
#
# Velocity S-wave (km/s) = 3.74203 4.50299 4.14003
# Velocity P-wave (km/s) = 6.38979 9.48526 8.08701
#
# Compressibility (1/GPa) = 0.02371404
#
# Stress axis : x y z
#
# Youngs Moduli (GPa) = 132.99973 22.74199 113.45671
#
# Poissons Ratio (x) = 0.13843 0.32004
# Poissons Ratio (y) = 0.80954 1.06508
# Poissons Ratio (z) = 0.37516 0.21349
#
# Static dielectric constant tensor:
#      x y z
#    x 1.618460 0.000000 0.011890 
#    y 0.000000 1.628910 0.000000 
#    z 0.011890 0.000000 1.634290 
# 
# From -- ./inp_files/70732.got.cif
#   From: 2010.05.17/outbox.cif.g08.bks.cpg/sg11_36_cif.got.tgz:70732.got - 2010.06.03 12:22:45.
