data_PCOD9165067
_publ_section_title
;
Structure prediction by ZEFSAII (Michael W. Deem and Ramdas Pophale) SiO2 
 PCOD9165067
Probable space group: P 21/M
;
_chemical_formula_sum "Si O2"
_cell_formula_units_Z 32
_cell_length_a 7.965856
_cell_length_b 13.251263
_cell_length_c 13.773538
_cell_angle_alpha 90.000000
_cell_angle_beta 114.227950
_cell_angle_gamma 90.000000
_cell_volume 1325.842682
_symmetry_space_group_name_H-M "P 21/M"
_symmetry_group_IT_number 11
_symmetry_cell_setting 'monoclinic'
loop_
_space_group_symop_operation_xyz
x,y,z
-x,1/2+y,-z
-x,-y,-z
x,1/2-y,z
loop_
_atom_site_type_symbol
_atom_site_label
_atom_site_fract_x
_atom_site_fract_y
_atom_site_fract_z
Si Si1 0.944412 0.995139 0.650348
Si Si2 0.611733 0.136588 0.615303
Si Si3 0.777388 0.930442 0.416099
Si Si4 0.382580 0.637181 0.096708
Si Si5 0.259611 0.139165 0.939946
Si Si6 0.599665 0.360322 0.384498
Si Si7 0.313828 0.080071 0.157892
Si Si8 0.087761 0.928988 0.876582
O O1 0.771709 0.052385 0.660620
O O2 0.071081 0.083508 0.631447
O O3 0.057282 0.929241 0.754279
O O4 0.865451 0.927113 0.543999
O O5 0.682112 0.250000 0.647821
O O6 0.421720 0.121486 0.629691
O O7 0.552813 0.129141 0.487271
O O8 0.733422 0.048873 0.392501
O O9 0.354274 0.750000 0.129608
O O10 0.592723 0.627117 0.110803
O O11 0.336512 0.540889 0.151684
O O12 0.255015 0.624705 0.970368
O O13 0.176411 0.250000 0.915830
O O14 0.117884 0.048086 0.904291
O O15 0.369511 0.125717 0.067254
O O16 0.681163 0.250000 0.389586
O O17 0.428033 0.375512 0.273217
O O18 0.101219 0.106439 0.121302
#
# Coordination Sequence:
#
# PCOD9165067 Si02
#       8
#     4   4   4   4   4   4   4   4
#     4  10  22  39  61  93 127 163 214 264 313 370
#     4  10  21  41  64  92 132 172 213 260 314 376
#     4  10  21  40  65  89 128 175 207 258 321 376
#     4  10  23  41  60  87 121 160 206 253 308 378
#     4  10  22  39  58  83 118 158 202 252 307 372
#     4  10  21  37  64  95 124 164 213 259 310 375
#     4  11  21  36  63  91 121 160 199 256 314 373
#     4  11  22  37  60  87 119 156 201 256 309 367
#
# _framework density 24.135594000000001
#
# number of rings (size 3 to 8) (size 9 to 14) (size 15 to 20)
#    0.000    1.750    0.000    6.375    3.500    3.500 
#    0.000    4.375    0.000    1.500    0.000    0.000 
#    0.000    0.000    0.000    0.000    0.000    0.000 
#
# Total GULP energy -178942.386850 kJ/mol
# GULP energy per Si atom -5591.949589 kJ/mol
# Density = 2.408066 g / cm^3
# Si number density = 24.135594 Si / 1000 Ang^3
#
#
#
# Elastic Constant Matrix: (Units=GPa)
#
#
# Indices 1 2 3 4 5 6 
#
# 1 57.7799 -14.4921 14.5025 0.0000 -17.5036 0.0000
# 2 -14.4921 80.8542 -10.3124 0.0000 -2.1158 0.0000
# 3 14.5025 -10.3124 92.7481 0.0000 3.5072 0.0000
# 4 0.0000 0.0000 0.0000 9.7923 0.0000 -1.4040
# 5 -17.5036 -2.1158 3.5072 0.0000 32.3288 0.0000
# 6 0.0000 0.0000 0.0000 -1.4040 0.0000 -6.6359
#
#
#
# Elastic Compliance Matrix: (Units=1/GPa)
#
#
# Indices 1 2 3 4 5 6 
#
# 1 0.023265 0.004047 -0.003689 0.000000 0.013262 0.000000
# 2 0.004047 0.013264 0.000729 0.000000 0.002980 0.000000
# 3 -0.003689 0.000729 0.011561 0.000000 -0.003204 0.000000
# 4 0.000000 0.000000 0.000000 0.099114 0.000000 -0.020971
# 5 0.013262 0.002980 -0.003204 0.000000 0.038655 0.000000
# 6 0.000000 0.000000 0.000000 -0.020971 0.000000 -0.146258
#
#
# Mechanical properties :
#
#
# Convention : Reuss Voigt Hill
#
# Bulk Modulus (GPa) = 19.89511 23.41982 21.65746
# Shear Modulus (GPa) = 92.27770 23.20929 57.74350
#
# Velocity S-wave (km/s) = 6.18999 3.10437 4.89659
# Velocity P-wave (km/s) = 7.70383 4.75120 6.40012
#
# Compressibility (1/GPa) = 0.05026362
#
# Stress axis : x y z
#
# Youngs Moduli (GPa) = 42.98222 75.39068 86.49737
#
# Poissons Ratio (x) = -0.30507 0.31913
# Poissons Ratio (y) = -0.17393 -0.06309
# Poissons Ratio (z) = 0.15858 -0.05499
#
# Static dielectric constant tensor:
#      x y z
#    x 1.914540 0.000000 -0.024260 
#    y 0.000000 1.902870 0.000000 
#    z -0.024260 0.000000 1.992340 
# 
# From -- ./inp_files/47651.got.cif
#   From: 2010.05.17/outbox.cif.g08.bks.cpg/sg11_24_cif.got.tgz:47651.got - 2010.06.03 12:22:45.
