data_PCOD9165986
_publ_section_title
;
Structure prediction by ZEFSAII (Michael W. Deem and Ramdas Pophale) SiO2 
 PCOD9165986
Probable space group: P 21/M
;
_chemical_formula_sum "Si O2"
_cell_formula_units_Z 26
_cell_length_a 15.221829
_cell_length_b 15.147030
_cell_length_c 8.494635
_cell_angle_alpha 90.000000
_cell_angle_beta 146.112433
_cell_angle_gamma 90.000000
_cell_volume 1092.029926
_symmetry_space_group_name_H-M "P 21/M"
_symmetry_group_IT_number 11
_symmetry_cell_setting 'monoclinic'
loop_
_space_group_symop_operation_xyz
x,y,z
-x,1/2+y,-z
-x,-y,-z
x,1/2-y,z
loop_
_atom_site_type_symbol
_atom_site_label
_atom_site_fract_x
_atom_site_fract_y
_atom_site_fract_z
Si Si1 0.739969 0.443464 0.860857
Si Si2 0.152236 0.104681 0.789885
Si Si3 0.262754 0.462135 0.621248
Si Si4 0.308093 0.250000 0.241369
Si Si5 0.005052 0.150733 0.071182
Si Si6 0.857332 0.346950 0.509654
Si Si7 0.554300 0.585112 0.377408
O O1 0.843143 0.373634 0.919445
O O2 0.632962 0.499738 0.579943
O O3 0.620851 0.405839 0.814085
O O4 0.849393 0.513716 0.113581
O O5 0.223069 0.084346 0.726105
O O6 0.974813 0.141365 0.536563
O O7 0.262525 0.173105 0.044076
O O8 0.244327 0.566393 0.616974
O O9 0.421234 0.433237 0.769575
O O10 0.127169 0.424865 0.301082
O O11 0.355836 0.172515 0.437803
O O12 0.056144 0.250000 0.192665
O O13 0.972056 0.153729 0.835140
O O14 0.780757 0.250000 0.390220
#
# Coordination Sequence:
#
# PCOD9165986 Si02
#       7
#     4   4   4   2   4   4   4
#     4  10  21  43  61  92 125 173 208 276 319 377
#     4  11  23  39  64  92 134 166 213 262 337 379
#     4  12  24  40  64 100 130 173 214 272 325 395
#     4  10  22  42  64  92 124 176 216 266 306 396
#     4  11  23  36  65  95 130 166 224 267 315 379
#     4  11  22  40  63  92 131 171 217 273 322 383
#     4  10  23  40  68  89 126 167 228 259 320 382
#
# _framework density 23.808871
#
# number of rings (size 3 to 8) (size 9 to 14) (size 15 to 20)
#    0.000    1.231    3.846    2.769    5.385    0.615 
#    0.000    0.000    0.000    0.000    0.000    0.000 
#    0.000    0.000    0.000    0.000    0.000    0.000 
#
# Total GULP energy -145078.578666 kJ/mol
# GULP energy per Si atom -5579.945333 kJ/mol
# Density = 2.375468 g / cm^3
# Si number density = 23.808871 Si / 1000 Ang^3
#
#
#
# Elastic Constant Matrix: (Units=GPa)
#
#
# Indices 1 2 3 4 5 6 
#
# 1 167.5560 68.3736 22.5414 0.0000 2.3028 0.0000
# 2 68.3736 172.9408 31.3195 0.0000 -4.9600 0.0000
# 3 22.5414 31.3195 48.6383 0.0000 -1.0411 0.0000
# 4 0.0000 0.0000 0.0000 12.1150 0.0000 -21.7322
# 5 2.3028 -4.9600 -1.0411 0.0000 27.8798 0.0000
# 6 0.0000 0.0000 0.0000 -21.7322 0.0000 8.0241
#
#
#
# Elastic Compliance Matrix: (Units=1/GPa)
#
#
# Indices 1 2 3 4 5 6 
#
# 1 0.007275 -0.002596 -0.001724 0.000000 -0.001127 0.000000
# 2 -0.002596 0.007501 -0.003596 0.000000 0.001415 0.000000
# 3 -0.001724 -0.003596 0.023683 0.000000 0.000387 0.000000
# 4 0.000000 0.000000 0.000000 -0.021393 0.000000 -0.057941
# 5 -0.001127 0.001415 0.000387 0.000000 0.036228 0.000000
# 6 0.000000 0.000000 0.000000 -0.057941 0.000000 -0.032300
#
#
# Mechanical properties :
#
#
# Convention : Reuss Voigt Hill
#
# Bulk Modulus (GPa) = 44.19791 70.40046 57.29919
# Shear Modulus (GPa) = 112.69371 27.39714 70.04543
#
# Velocity S-wave (km/s) = 6.88734 3.39589 5.42989
# Velocity P-wave (km/s) = 9.04716 6.70890 7.96431
#
# Compressibility (1/GPa) = 0.02262550
#
# Stress axis : x y z
#
# Youngs Moduli (GPa) = 137.45606 133.32090 42.22454
#
# Poissons Ratio (x) = 0.34615 0.07279
# Poissons Ratio (y) = 0.35689 0.15185
# Poissons Ratio (z) = 0.23695 0.47947
#
# Static dielectric constant tensor:
#      x y z
#    x 1.947670 0.000000 0.026610 
#    y 0.000000 1.851920 0.000000 
#    z 0.026610 0.000000 1.984740 
# 
# From -- ./inp_files/22459.got.cif
#   From: 2010.05.17/outbox.cif.g08.bks.cpg/sg11_12_cif.got.tgz:22459.got - 2010.06.03 12:22:45.
