data_PCOD9165776
_publ_section_title
;
Structure prediction by ZEFSAII (Michael W. Deem and Ramdas Pophale) SiO2 
 PCOD9165776
Probable space group: P 21/M
;
_chemical_formula_sum "Si O2"
_cell_formula_units_Z 24
_cell_length_a 12.017267
_cell_length_b 8.863816
_cell_length_c 12.098013
_cell_angle_alpha 90.000000
_cell_angle_beta 87.536015
_cell_angle_gamma 90.000000
_cell_volume 1287.474907
_symmetry_space_group_name_H-M "P 21/M"
_symmetry_group_IT_number 11
_symmetry_cell_setting 'monoclinic'
loop_
_space_group_symop_operation_xyz
x,y,z
-x,1/2+y,-z
-x,-y,-z
x,1/2-y,z
loop_
_atom_site_type_symbol
_atom_site_label
_atom_site_fract_x
_atom_site_fract_y
_atom_site_fract_z
Si Si1 0.591580 0.068878 0.414558
Si Si2 0.176145 0.070780 0.519391
Si Si3 0.482475 0.929928 0.830396
Si Si4 0.044880 0.929060 0.326651
Si Si5 0.082510 0.070264 0.086581
Si Si6 0.676938 0.428971 0.956249
O O1 0.593367 0.250000 0.424178
O O2 0.558616 0.030608 0.289899
O O3 0.500000 0.000000 0.500000
O O4 0.711433 0.002695 0.441036
O O5 0.190681 0.250000 0.503899
O O6 0.074780 0.046532 0.609841
O O7 0.136195 0.996778 0.406440
O O8 0.505474 0.750000 0.833104
O O9 0.592328 0.017668 0.864294
O O10 0.387285 0.960615 0.925860
O O11 0.061929 0.750000 0.313382
O O12 0.051003 0.009084 0.208901
O O13 0.075216 0.250000 0.084217
O O14 0.207741 0.016333 0.056087
O O15 0.000000 0.000000 0.000000
O O16 0.696754 0.250000 0.947639
#
# Coordination Sequence:
#
# PCOD9165776 Si02
#       6
#     4   4   4   4   4   4
#     4  11  24  40  61  90 125 163 208 255 305 364
#     4  10  22  41  65  93 124 161 205 254 309 365
#     4   9  21  41  63  89 121 162 205 251 306 363
#     4  10  22  42  66  93 123 162 207 250 306 368
#     4  12  26  42  63  92 127 163 205 255 306 362
#     4  10  21  40  65  92 121 159 205 253 307 365
#
# _framework density 18.641141000000001
#
# number of rings (size 3 to 8) (size 9 to 14) (size 15 to 20)
#    0.000    1.667    0.000    3.500    4.667    4.000 
#    0.000    0.000    0.000    0.000    0.000    0.000 
#    0.000    0.000    0.000    0.000    0.000    0.000 
#
# Total GULP energy -134199.076827 kJ/mol
# GULP energy per Si atom -5591.628201 kJ/mol
# Density = 1.859871 g / cm^3
# Si number density = 18.641141 Si / 1000 Ang^3
#
#
#
# Elastic Constant Matrix: (Units=GPa)
#
#
# Indices 1 2 3 4 5 6 
#
# 1 140.5246 94.8455 98.6886 0.0000 29.9908 0.0000
# 2 94.8455 128.1264 99.3434 0.0000 12.4080 0.0000
# 3 98.6886 99.3434 170.6915 0.0000 30.4925 0.0000
# 4 0.0000 0.0000 0.0000 33.8661 0.0000 5.1083
# 5 29.9908 12.4080 30.4925 0.0000 19.9408 0.0000
# 6 0.0000 0.0000 0.0000 5.1083 0.0000 37.6484
#
#
#
# Elastic Compliance Matrix: (Units=1/GPa)
#
#
# Indices 1 2 3 4 5 6 
#
# 1 0.021205 -0.013020 -0.000595 0.000000 -0.022880 0.000000
# 2 -0.013020 0.022626 -0.009114 0.000000 0.019438 0.000000
# 3 -0.000595 -0.009114 0.014218 0.000000 -0.015175 0.000000
# 4 0.000000 0.000000 0.000000 0.030145 0.000000 -0.004090
# 5 -0.022880 0.019438 -0.015175 0.000000 0.095670 0.000000
# 6 0.000000 0.000000 0.000000 -0.004090 0.000000 0.027117
#
#
# Mechanical properties :
#
#
# Convention : Reuss Voigt Hill
#
# Bulk Modulus (GPa) = 79.41461 113.89970 96.65715
# Shear Modulus (GPa) = 19.18397 28.05539 23.61968
#
# Velocity S-wave (km/s) = 3.21147 3.88367 3.56346
# Velocity P-wave (km/s) = 7.51303 9.01912 8.30031
#
# Compressibility (1/GPa) = 0.01259214
#
# Stress axis : x y z
#
# Youngs Moduli (GPa) = 47.15947 44.19612 70.33514
#
# Poissons Ratio (x) = 0.57542 0.04185
# Poissons Ratio (y) = 0.61400 0.64101
# Poissons Ratio (z) = 0.02806 0.40279
#
# Static dielectric constant tensor:
#      x y z
#    x 1.609360 0.000000 -0.013310 
#    y 0.000000 1.620330 0.000000 
#    z -0.013310 0.000000 1.619100 
# 
# From -- ./inp_files/33802.got.cif
#   From: 2010.05.17/outbox.cif.g08.bks.cpg/sg11_17_cif.got.tgz:33802.got - 2010.06.03 12:22:45.
