data_PCOD9165627
_publ_section_title
;
Structure prediction by ZEFSAII (Michael W. Deem and Ramdas Pophale) SiO2 
 PCOD9165627
Probable space group: P 21/M
;
_chemical_formula_sum "Si O2"
_cell_formula_units_Z 32
_cell_length_a 8.830708
_cell_length_b 13.937097
_cell_length_c 22.213560
_cell_angle_alpha 90.000000
_cell_angle_beta 146.178146
_cell_angle_gamma 90.000000
_cell_volume 1521.734872
_symmetry_space_group_name_H-M "P 21/M"
_symmetry_group_IT_number 11
_symmetry_cell_setting 'monoclinic'
loop_
_space_group_symop_operation_xyz
x,y,z
-x,1/2+y,-z
-x,-y,-z
x,1/2-y,z
loop_
_atom_site_type_symbol
_atom_site_label
_atom_site_fract_x
_atom_site_fract_y
_atom_site_fract_z
Si Si1 0.583553 0.862285 0.859768
Si Si2 0.962863 0.138606 0.084831
Si Si3 0.857297 0.993626 0.747820
Si Si4 0.143820 0.135224 0.668153
Si Si5 0.191834 0.865565 0.619052
Si Si6 0.374791 0.134814 0.611760
Si Si7 0.583937 0.540800 0.127343
Si Si8 0.434338 0.635184 0.567540
O O1 0.545282 0.750000 0.862903
O O2 0.367237 0.888639 0.735448
O O3 0.877932 0.872979 0.925715
O O4 0.541114 0.936247 0.899386
O O5 0.995971 0.250000 0.113460
O O6 0.102377 0.070471 0.179522
O O7 0.651430 0.108215 0.975885
O O8 0.709325 0.924292 0.650183
O O9 0.651972 0.081188 0.689633
O O10 0.153163 0.028695 0.826842
O O11 0.163290 0.250000 0.681253
O O12 0.272887 0.111978 0.645744
O O13 0.306277 0.085334 0.774419
O O14 0.821638 0.112568 0.559553
O O15 0.184257 0.750000 0.614498
O O16 0.330348 0.891431 0.601053
O O17 0.877851 0.896975 0.514003
O O18 0.405483 0.250000 0.617222
O O19 0.480248 0.750000 0.580687
#
# Coordination Sequence:
#
# PCOD9165627 Si02
#       8
#     4   4   4   4   4   4   4   4
#     4  10  21  39  65  92 119 155 207 258 301 346
#     4  11  24  46  69  84 109 161 214 258 296 350
#     4  12  24  38  62  91 124 159 205 240 308 365
#     4   9  20  39  61  87 120 162 206 254 302 350
#     4   8  15  33  60  90 118 157 207 249 288 340
#     4   9  20  37  61  91 125 163 207 248 291 351
#     4  12  26  40  59  91 132 158 197 243 314 370
#     4   9  18  35  61  89 119 158 207 252 295 351
#
# _framework density 21.028628999999999
#
# number of rings (size 3 to 8) (size 9 to 14) (size 15 to 20)
#    0.000    2.000    1.250    3.750    1.750    3.500 
#    0.000    1.875    0.000    0.000    0.000    0.000 
#    0.000    0.000    0.000    0.000    0.000    0.000 
#
# Total GULP energy -178876.699223 kJ/mol
# GULP energy per Si atom -5589.896851 kJ/mol
# Density = 2.098077 g / cm^3
# Si number density = 21.028629 Si / 1000 Ang^3
#
#
#
# Elastic Constant Matrix: (Units=GPa)
#
#
# Indices 1 2 3 4 5 6 
#
# 1 34.0024 22.4066 18.1589 0.0000 30.2355 0.0000
# 2 22.4066 63.5546 26.6946 0.0000 17.8996 0.0000
# 3 18.1589 26.6946 85.7212 0.0000 34.9968 0.0000
# 4 0.0000 0.0000 0.0000 35.3051 0.0000 11.1757
# 5 30.2355 17.8996 34.9968 0.0000 34.6400 0.0000
# 6 0.0000 0.0000 0.0000 11.1757 0.0000 5.6051
#
#
#
# Elastic Compliance Matrix: (Units=1/GPa)
#
#
# Indices 1 2 3 4 5 6 
#
# 1 0.326301 -0.054972 0.089659 0.000000 -0.346988 0.000000
# 2 -0.054972 0.028189 -0.018341 0.000000 0.051946 0.000000
# 3 0.089659 -0.018341 0.045045 0.000000 -0.114290 0.000000
# 4 0.000000 0.000000 0.000000 0.076790 0.000000 -0.153108
# 5 -0.346988 0.051946 -0.114290 0.000000 0.420363 0.000000
# 6 0.000000 0.000000 0.000000 -0.153108 0.000000 0.483683
#
#
# Mechanical properties :
#
#
# Convention : Reuss Voigt Hill
#
# Bulk Modulus (GPa) = 2.31360 35.31095 18.81228
# Shear Modulus (GPa) = 3.35176 22.84457 13.09817
#
# Velocity S-wave (km/s) = 1.26387 3.29957 2.49845
# Velocity P-wave (km/s) = 1.79789 5.59861 4.15794
#
# Compressibility (1/GPa) = 0.43222598
#
# Stress axis : x y z
#
# Youngs Moduli (GPa) = 3.06466 35.47517 22.20015
#
# Poissons Ratio (x) = 1.95014 -1.99044
# Poissons Ratio (y) = 0.16847 0.40717
# Poissons Ratio (z) = -0.27477 0.65065
#
# Static dielectric constant tensor:
#      x y z
#    x 1.752890 0.000000 0.003510 
#    y 0.000000 1.769250 0.000000 
#    z 0.003510 0.000000 1.751790 
# 
# From -- ./inp_files/27826.got.cif
#   From: 2010.05.17/outbox.cif.g08.bks.cpg/sg11_14_cif.got.tgz:27826.got - 2010.06.03 12:22:45.
