data_PCOD9165116
_publ_section_title
;
Structure prediction by ZEFSAII (Michael W. Deem and Ramdas Pophale) SiO2 
 PCOD9165116
Probable space group: P 21/M
;
_chemical_formula_sum "Si O2"
_cell_formula_units_Z 32
_cell_length_a 19.837095
_cell_length_b 18.845375
_cell_length_c 6.908841
_cell_angle_alpha 90.000000
_cell_angle_beta 134.151470
_cell_angle_gamma 90.000000
_cell_volume 1853.149590
_symmetry_space_group_name_H-M "P 21/M"
_symmetry_group_IT_number 11
_symmetry_cell_setting 'monoclinic'
loop_
_space_group_symop_operation_xyz
x,y,z
-x,1/2+y,-z
-x,-y,-z
x,1/2-y,z
loop_
_atom_site_type_symbol
_atom_site_label
_atom_site_fract_x
_atom_site_fract_y
_atom_site_fract_z
Si Si1 0.265351 0.666303 0.199973
Si Si2 0.734648 0.833697 0.138568
Si Si3 0.890113 0.833638 0.129821
Si Si4 0.763272 0.920404 0.586556
Si Si5 0.609716 0.575635 0.611878
Si Si6 0.390283 0.924365 0.173012
Si Si7 0.236727 0.579595 0.533466
Si Si8 0.109886 0.833638 0.569367
O O1 0.276998 0.750000 0.254779
O O2 0.347994 0.634681 0.231993
O O3 0.259217 0.624577 0.387768
O O4 0.170169 0.654710 0.884699
O O5 0.723005 0.750000 0.146791
O O6 0.829830 0.845293 0.204023
O O7 0.740780 0.875423 0.350896
O O8 0.652005 0.865317 0.840013
O O9 0.879509 0.750000 0.058250
O O10 1.000000 0.848439 0.376153
O O11 0.843785 0.881462 0.871379
O O12 0.672345 0.924304 0.544229
O O13 0.789943 1.000000 0.579885
O O14 0.621021 0.500001 0.742045
O O15 0.499999 0.586772 0.352411
O O16 0.327654 0.924304 0.854845
O O17 0.156214 0.618536 0.496238
O O18 0.120490 0.750000 0.540204
#
# Coordination Sequence:
#
# PCOD9165116 Si02
#       8
#     4   4   4   4   4   4   4   4
#     4  10  21  38  58  82 114 149 187 236 285 334
#     4  10  21  38  58  82 114 149 187 236 285 334
#     4   9  20  38  58  81 113 152 190 231 283 341
#     4  11  21  35  58  87 114 148 189 236 284 337
#     4  10  21  38  59  82 112 151 189 228 279 339
#     4  10  21  38  59  82 112 151 189 228 279 339
#     4  11  21  35  58  87 114 148 189 236 284 337
#     4   9  20  38  58  81 113 152 190 231 283 341
#
# _framework density 17.267899
#
# number of rings (size 3 to 8) (size 9 to 14) (size 15 to 20)
#    0.000    2.000    2.500    0.750    0.000    4.500 
#    0.000    3.750    0.000    0.000    0.000    0.000 
#    0.000    0.000    0.000    0.000    0.000    0.000 
#
# Total GULP energy -178635.549681 kJ/mol
# GULP energy per Si atom -5582.360928 kJ/mol
# Density = 1.722860 g / cm^3
# Si number density = 17.267899 Si / 1000 Ang^3
#
#
#
# Elastic Constant Matrix: (Units=GPa)
#
#
# Indices 1 2 3 4 5 6 
#
# 1 99.3130 64.0245 83.4087 0.0000 8.9919 0.0000
# 2 64.0245 109.1012 65.9468 0.0000 -6.7497 0.0000
# 3 83.4087 65.9468 96.5287 0.0000 0.7561 0.0000
# 4 0.0000 0.0000 0.0000 31.9536 0.0000 -6.0432
# 5 8.9919 -6.7497 0.7561 0.0000 35.5430 0.0000
# 6 0.0000 0.0000 0.0000 -6.0432 0.0000 30.2295
#
#
#
# Elastic Compliance Matrix: (Units=1/GPa)
#
#
# Indices 1 2 3 4 5 6 
#
# 1 0.041560 -0.005810 -0.031856 0.000000 -0.010940 0.000000
# 2 -0.005810 0.016796 -0.006492 0.000000 0.004798 0.000000
# 3 -0.031856 -0.006492 0.042275 0.000000 0.005927 0.000000
# 4 0.000000 0.000000 0.000000 0.032525 0.000000 0.006502
# 5 -0.010940 0.004798 0.005927 0.000000 0.031688 0.000000
# 6 0.000000 0.000000 0.000000 0.006502 0.000000 0.034380
#
#
# Mechanical properties :
#
#
# Convention : Reuss Voigt Hill
#
# Bulk Modulus (GPa) = 81.20614 81.30032 81.25323
# Shear Modulus (GPa) = 17.14413 25.64941 21.39677
#
# Velocity S-wave (km/s) = 3.15434 3.85825 3.52391
# Velocity P-wave (km/s) = 7.77148 8.18731 7.98210
#
# Compressibility (1/GPa) = 0.01231434
#
# Stress axis : x y z
#
# Youngs Moduli (GPa) = 24.06179 59.53631 23.65479
#
# Poissons Ratio (x) = 0.34591 0.75355
# Poissons Ratio (y) = 0.13980 0.15357
# Poissons Ratio (z) = 0.76651 0.38653
#
# Static dielectric constant tensor:
#      x y z
#    x 1.559760 0.000000 0.000940 
#    y 0.000000 1.576160 0.000000 
#    z 0.000940 0.000000 1.559490 
# 
# From -- ./inp_files/8344.got.cif
#   From: 2010.05.17/outbox.cif.g08.bks.cpg/sg11_5_cif.got.tgz:8344.got - 2010.06.03 12:22:45.
