data_PCOD9165326
_publ_section_title
;
Structure prediction by ZEFSAII (Michael W. Deem and Ramdas Pophale) SiO2 
 PCOD9165326
Probable space group: P 21/M
;
_chemical_formula_sum "Si O2"
_cell_formula_units_Z 16
_cell_length_a 6.687167
_cell_length_b 10.369008
_cell_length_c 9.203216
_cell_angle_alpha 90.000000
_cell_angle_beta 89.780713
_cell_angle_gamma 90.000000
_cell_volume 638.139772
_symmetry_space_group_name_H-M "P 21/M"
_symmetry_group_IT_number 11
_symmetry_cell_setting 'monoclinic'
loop_
_space_group_symop_operation_xyz
x,y,z
-x,1/2+y,-z
-x,-y,-z
x,1/2-y,z
loop_
_atom_site_type_symbol
_atom_site_label
_atom_site_fract_x
_atom_site_fract_y
_atom_site_fract_z
Si Si1 0.935033 0.614655 0.642568
Si Si2 0.316531 0.025264 0.607369
Si Si3 0.175258 0.896095 0.140028
Si Si4 0.297021 0.394033 0.928776
O O1 0.883941 0.750000 0.715666
O O2 0.839613 0.612322 0.483155
O O3 0.842134 0.493608 0.725431
O O4 0.173728 0.597441 0.637936
O O5 0.500000 0.000000 0.500000
O O6 0.371082 0.083112 0.763111
O O7 0.237879 0.750000 0.172183
O O8 0.946431 0.886214 0.085027
O O9 0.309115 0.974511 0.024128
O O10 0.360331 0.250000 0.980497
#
# Coordination Sequence:
#
# PCOD9165326 Si02
#       4
#     4   4   4   4
#     4  10  21  38  62  90 119 154 198 246 296 352
#     4  10  22  38  59  89 123 158 196 243 299 357
#     4   9  18  34  56  83 116 153 195 242 295 353
#     4   9  17  32  56  84 114 150 195 244 292 347
#
# _framework density 25.072876999999998
#
# number of rings (size 3 to 8) (size 9 to 14) (size 15 to 20)
#    0.000    2.500    0.000    1.500    0.000   14.000 
#    0.000    1.250    0.000    0.000    0.000    0.000 
#    0.000    0.000    0.000    0.000    0.000    0.000 
#
# Total GULP energy -89371.849428 kJ/mol
# GULP energy per Si atom -5585.740589 kJ/mol
# Density = 2.501581 g / cm^3
# Si number density = 25.072877 Si / 1000 Ang^3
#
#
#
# Elastic Constant Matrix: (Units=GPa)
#
#
# Indices 1 2 3 4 5 6 
#
# 1 62.3240 18.8683 20.5529 0.0000 -24.3428 0.0000
# 2 18.8683 266.5479 93.7706 0.0000 0.6762 0.0000
# 3 20.5529 93.7706 158.9603 0.0000 -28.9202 0.0000
# 4 0.0000 0.0000 0.0000 13.0212 0.0000 -5.5974
# 5 -24.3428 0.6762 -28.9202 0.0000 53.1477 0.0000
# 6 0.0000 0.0000 0.0000 -5.5974 0.0000 -6.8622
#
#
#
# Elastic Compliance Matrix: (Units=1/GPa)
#
#
# Indices 1 2 3 4 5 6 
#
# 1 0.020084 -0.001411 -0.000097 0.000000 0.009164 0.000000
# 2 -0.001411 0.004985 -0.003205 0.000000 -0.002453 0.000000
# 3 -0.000097 -0.003205 0.009093 0.000000 0.004944 0.000000
# 4 0.000000 0.000000 0.000000 0.056861 0.000000 -0.046380
# 5 0.009164 -0.002453 0.004944 0.000000 0.025734 0.000000
# 6 0.000000 0.000000 0.000000 -0.046380 0.000000 -0.107894
#
#
# Mechanical properties :
#
#
# Convention : Reuss Voigt Hill
#
# Bulk Modulus (GPa) = 40.42586 83.80175 62.11380
# Shear Modulus (GPa) = 188.43922 35.50404 111.97163
#
# Velocity S-wave (km/s) = 8.67870 3.76710 6.68995
# Velocity P-wave (km/s) = 10.79744 7.23998 9.19244
#
# Compressibility (1/GPa) = 0.02473664
#
# Stress axis : x y z
#
# Youngs Moduli (GPa) = 49.79206 200.59578 109.96915
#
# Poissons Ratio (x) = 0.28297 0.01071
# Poissons Ratio (y) = 0.07024 0.35242
# Poissons Ratio (z) = 0.00485 0.64285
#
# Static dielectric constant tensor:
#      x y z
#    x 2.054070 0.000000 -0.015000 
#    y 0.000000 2.022540 0.000000 
#    z -0.015000 0.000000 1.977010 
# 
# From -- ./inp_files/30567.got.cif
#   From: 2010.05.17/outbox.cif.g08.bks.cpg/sg11_16_cif.got.tgz:30567.got - 2010.06.03 12:22:45.
