data_PCOD9165821
_publ_section_title
;
Structure prediction by ZEFSAII (Michael W. Deem and Ramdas Pophale) SiO2 
 PCOD9165821
Probable space group: P 21/M
;
_chemical_formula_sum "Si O2"
_cell_formula_units_Z 32
_cell_length_a 17.462310
_cell_length_b 18.317553
_cell_length_c 5.246998
_cell_angle_alpha 90.000000
_cell_angle_beta 119.727112
_cell_angle_gamma 90.000000
_cell_volume 1457.465718
_symmetry_space_group_name_H-M "P 21/M"
_symmetry_group_IT_number 11
_symmetry_cell_setting 'monoclinic'
loop_
_space_group_symop_operation_xyz
x,y,z
-x,1/2+y,-z
-x,-y,-z
x,1/2-y,z
loop_
_atom_site_type_symbol
_atom_site_label
_atom_site_fract_x
_atom_site_fract_y
_atom_site_fract_z
Si Si1 0.914618 0.833815 0.276945
Si Si2 0.614960 0.163200 0.932660
Si Si3 0.226411 0.429366 0.191400
Si Si4 0.372079 0.453935 0.741108
Si Si5 0.532212 0.409749 0.299193
Si Si6 0.034266 0.834427 0.962598
Si Si7 0.902863 0.025701 0.757035
Si Si8 0.239246 0.554701 0.842726
O O1 0.887743 0.750000 0.257382
O O2 0.973064 0.851695 0.619047
O O3 0.826655 0.880891 0.095251
O O4 0.976951 0.839397 0.129270
O O5 0.610402 0.250000 0.904547
O O6 0.559594 0.124522 0.613404
O O7 0.577587 0.136111 0.143780
O O8 0.715318 0.133161 0.070036
O O9 0.313207 0.400370 0.471429
O O10 0.152816 0.454287 0.268748
O O11 0.251087 0.507372 0.113249
O O12 0.434359 0.506310 0.674295
O O13 0.302410 0.509380 0.753795
O O14 0.429703 0.414823 0.051417
O O15 0.064608 0.750000 0.988852
O O16 0.107327 0.897445 0.108405
O O17 0.862110 0.048116 0.416297
O O18 0.000000 0.000000 0.000000
#
# Coordination Sequence:
#
# PCOD9165821 Si02
#       8
#     4   4   4   4   4   4   4   4
#     4  10  22  39  59  80 113 157 200 250 315 366
#     4  11  23  42  64  93 134 170 204 254 312 377
#     4  11  21  37  62  90 123 159 206 261 313 364
#     4   9  21  37  63  93 123 154 208 260 306 374
#     4  10  21  40  67  93 120 167 209 248 306 376
#     4  10  22  40  58  81 113 158 204 248 306 368
#     4  11  22  37  59  92 119 161 213 270 304 358
#     4  10  23  37  60  94 125 165 209 256 320 368
#
# _framework density 21.955918
#
# number of rings (size 3 to 8) (size 9 to 14) (size 15 to 20)
#    0.000    1.750    2.500    1.125    5.250    3.000 
#    0.000    1.875    0.000    0.000    0.000    0.000 
#    0.000    0.000    0.000    0.000    0.000    0.000 
#
# Total GULP energy -178450.220353 kJ/mol
# GULP energy per Si atom -5576.569386 kJ/mol
# Density = 2.190595 g / cm^3
# Si number density = 21.955918 Si / 1000 Ang^3
#
#
#
# Elastic Constant Matrix: (Units=GPa)
#
#
# Indices 1 2 3 4 5 6 
#
# 1 32.5459 1.8517 23.3330 0.0000 0.4160 0.0000
# 2 1.8517 70.8152 16.9623 0.0000 2.7796 0.0000
# 3 23.3330 16.9623 131.3821 0.0000 5.2019 0.0000
# 4 0.0000 0.0000 0.0000 34.3262 0.0000 0.0603
# 5 0.4160 2.7796 5.2019 0.0000 37.8351 0.0000
# 6 0.0000 0.0000 0.0000 0.0603 0.0000 16.4980
#
#
#
# Elastic Compliance Matrix: (Units=1/GPa)
#
#
# Indices 1 2 3 4 5 6 
#
# 1 0.035240 0.000582 -0.006351 0.000000 0.000443 0.000000
# 2 0.000582 0.014607 -0.001957 0.000000 -0.000810 0.000000
# 3 -0.006351 -0.001957 0.009033 0.000000 -0.001028 0.000000
# 4 0.000000 0.000000 0.000000 0.029132 0.000000 -0.000106
# 5 0.000443 -0.000810 -0.001028 0.000000 0.026627 0.000000
# 6 0.000000 0.000000 0.000000 -0.000106 0.000000 0.060614
#
#
# Mechanical properties :
#
#
# Convention : Reuss Voigt Hill
#
# Bulk Modulus (GPa) = 23.02671 35.44858 29.23765
# Shear Modulus (GPa) = 24.36877 30.57161 27.47019
#
# Velocity S-wave (km/s) = 3.33512 3.73555 3.54100
# Velocity P-wave (km/s) = 5.03400 5.89798 5.48304
#
# Compressibility (1/GPa) = 0.04342782
#
# Stress axis : x y z
#
# Youngs Moduli (GPa) = 28.37648 68.46205 110.70820
#
# Poissons Ratio (x) = -0.03988 0.70314
# Poissons Ratio (y) = -0.01653 0.21668
# Poissons Ratio (z) = 0.18023 0.13399
#
# Static dielectric constant tensor:
#      x y z
#    x 1.940020 0.000000 -0.030270 
#    y 0.000000 1.806270 0.000000 
#    z -0.030270 0.000000 1.871630 
# 
# From -- ./inp_files/9162.got.cif
#   From: 2010.05.17/outbox.cif.g08.bks.cpg/sg11_5_cif.got.tgz:9162.got - 2010.06.03 12:22:45.
