data_PCOD9165488
_publ_section_title
;
Structure prediction by ZEFSAII (Michael W. Deem and Ramdas Pophale) SiO2 
 PCOD9165488
Probable space group: P 21/M
;
_chemical_formula_sum "Si O2"
_cell_formula_units_Z 28
_cell_length_a 7.286180
_cell_length_b 31.574076
_cell_length_c 5.158743
_cell_angle_alpha 90.000000
_cell_angle_beta 64.797699
_cell_angle_gamma 90.000000
_cell_volume 1073.820789
_symmetry_space_group_name_H-M "P 21/M"
_symmetry_group_IT_number 11
_symmetry_cell_setting 'monoclinic'
loop_
_space_group_symop_operation_xyz
x,y,z
-x,1/2+y,-z
-x,-y,-z
x,1/2-y,z
loop_
_atom_site_type_symbol
_atom_site_label
_atom_site_fract_x
_atom_site_fract_y
_atom_site_fract_z
Si Si1 0.832190 0.704919 0.722211
Si Si2 0.574514 0.297441 0.365465
Si Si3 0.105925 0.572447 0.475583
Si Si4 0.120504 0.661810 0.229365
Si Si5 0.297552 0.446298 0.566113
Si Si6 0.301182 0.141769 0.807765
Si Si7 0.263538 0.969220 0.883061
O O1 0.831781 0.750000 0.878057
O O2 0.640457 0.708624 0.650924
O O3 0.783246 0.659372 0.874547
O O4 0.053501 0.698911 0.465361
O O5 0.641705 0.250000 0.393049
O O6 0.728925 0.321213 0.080550
O O7 0.496612 0.328599 0.637145
O O8 0.180379 0.618332 0.334198
O O9 0.154027 0.563062 0.745789
O O10 0.871018 0.566891 0.541062
O O11 0.209310 0.539083 0.213562
O O12 0.900648 0.651426 0.238027
O O13 0.349548 0.406407 0.717617
O O14 0.498952 0.460928 0.300298
O O15 0.220049 0.484452 0.794051
#
# Coordination Sequence:
#
# PCOD9165488 Si02
#       7
#     4   4   4   4   4   4   4
#     4  10  22  39  61  90 124 164 211 270 335 403
#     4  10  21  39  61  89 124 164 213 269 332 403
#     4  11  25  43  70 100 142 175 234 281 344 404
#     4  10  23  39  63  91 127 171 216 273 335 404
#     4  10  24  43  68  98 138 183 228 281 347 401
#     4  10  22  41  62  93 126 168 218 274 334 403
#     4  11  25  45  67 104 138 185 229 286 337 416
#
# _framework density 26.075113000000002
#
# number of rings (size 3 to 8) (size 9 to 14) (size 15 to 20)
#    0.000    1.714    0.000    2.571    6.000    6.286 
#    5.143    0.000    0.000    0.000    0.000    0.000 
#    0.000    0.000    0.000    0.000    0.000    0.000 
#
# Total GULP energy -156724.188558 kJ/mol
# GULP energy per Si atom -5597.292448 kJ/mol
# Density = 2.601577 g / cm^3
# Si number density = 26.075113 Si / 1000 Ang^3
#
#
#
# Elastic Constant Matrix: (Units=GPa)
#
#
# Indices 1 2 3 4 5 6 
#
# 1 85.3056 25.0068 14.3350 0.0000 -9.3659 0.0000
# 2 25.0068 119.8359 6.4606 0.0000 -8.0922 0.0000
# 3 14.3350 6.4606 99.5778 0.0000 -25.6344 0.0000
# 4 0.0000 0.0000 0.0000 51.2347 0.0000 -15.5431
# 5 -9.3659 -8.0922 -25.6344 0.0000 39.8738 0.0000
# 6 0.0000 0.0000 0.0000 -15.5431 0.0000 46.9641
#
#
#
# Elastic Compliance Matrix: (Units=1/GPa)
#
#
# Indices 1 2 3 4 5 6 
#
# 1 0.012853 -0.002499 -0.001248 0.000000 0.001709 0.000000
# 2 -0.002499 0.008948 0.000115 0.000000 0.001303 0.000000
# 3 -0.001248 0.000115 0.012157 0.000000 0.007546 0.000000
# 4 0.000000 0.000000 0.000000 0.021696 0.000000 0.007181
# 5 0.001709 0.001303 0.007546 0.000000 0.030596 0.000000
# 6 0.000000 0.000000 0.000000 0.007181 0.000000 0.023669
#
#
# Mechanical properties :
#
#
# Convention : Reuss Voigt Hill
#
# Bulk Modulus (GPa) = 37.46402 44.03600 40.75001
# Shear Modulus (GPa) = 39.65655 44.87565 42.26610
#
# Velocity S-wave (km/s) = 3.90405 4.15301 4.03045
# Velocity P-wave (km/s) = 5.89246 6.31834 6.10911
#
# Compressibility (1/GPa) = 0.02669227
#
# Stress axis : x y z
#
# Youngs Moduli (GPa) = 77.80512 111.75590 82.25621
#
# Poissons Ratio (x) = 0.27931 0.10266
# Poissons Ratio (y) = 0.19446 -0.00942
# Poissons Ratio (z) = 0.09710 -0.01280
#
# Static dielectric constant tensor:
#      x y z
#    x 2.069800 0.000000 0.056980 
#    y 0.000000 2.082000 0.000000 
#    z 0.056980 0.000000 2.051390 
# 
# From -- ./inp_files/3320.got.cif
#   From: 2010.05.17/outbox.cif.g08.bks.cpg/sg11_2_cif.got.tgz:3320.got - 2010.06.03 12:22:45.
