data_PCOD9165994
_publ_section_title
;
Structure prediction by ZEFSAII (Michael W. Deem and Ramdas Pophale) SiO2 
 PCOD9165994
Probable space group: P 21/M
;
_chemical_formula_sum "Si O2"
_cell_formula_units_Z 22
_cell_length_a 4.695907
_cell_length_b 21.950360
_cell_length_c 7.902799
_cell_angle_alpha 90.000000
_cell_angle_beta 99.644059
_cell_angle_gamma 90.000000
_cell_volume 803.083352
_symmetry_space_group_name_H-M "P 21/M"
_symmetry_group_IT_number 11
_symmetry_cell_setting 'monoclinic'
loop_
_space_group_symop_operation_xyz
x,y,z
-x,1/2+y,-z
-x,-y,-z
x,1/2-y,z
loop_
_atom_site_type_symbol
_atom_site_label
_atom_site_fract_x
_atom_site_fract_y
_atom_site_fract_z
Si Si1 0.551858 0.250000 0.071430
Si Si2 0.180841 0.548827 0.915914
Si Si3 0.385344 0.360573 0.856592
Si Si4 0.561741 0.356016 0.518676
Si Si5 0.015730 0.159109 0.283295
Si Si6 0.230341 0.036654 0.634772
O O1 0.336528 0.305197 0.978652
O O2 0.795063 0.199035 0.155395
O O3 0.338397 0.513666 0.778383
O O4 0.957525 0.595766 0.810258
O O5 0.400896 0.590047 0.040981
O O6 0.000000 0.500000 0.000000
O O7 0.538780 0.330427 0.706085
O O8 0.141052 0.405493 0.750449
O O9 0.332204 0.321196 0.373574
O O10 0.455534 0.425985 0.540619
O O11 0.853938 0.351682 0.445739
O O12 0.000000 0.000000 0.500000
#
# Coordination Sequence:
#
# PCOD9165994 Si02
#       6
#     2   4   4   4   4   4
#     4  10  24  48  76 104 148 198 254 326 362 470
#     4  11  23  40  67 108 151 192 236 311 374 448
#     4   9  23  42  70 106 148 196 255 303 394 428
#     4  10  25  46  73 106 144 188 254 294 379 447
#     4  11  25  49  72 108 142 200 247 304 378 442
#     4  10  21  43  69 105 151 187 245 301 379 452
#
# _framework density 27.394418999999999
#
# number of rings (size 3 to 8) (size 9 to 14) (size 15 to 20)
#    1.091    0.727    1.818    0.545    2.545    7.273 
#    0.000    3.636    0.000    0.000    0.000    0.000 
#    0.000    0.000    0.000    0.000    0.000    0.000 
#
# Total GULP energy -122521.269284 kJ/mol
# GULP energy per Si atom -5569.148604 kJ/mol
# Density = 2.733207 g / cm^3
# Si number density = 27.394419 Si / 1000 Ang^3
#
#
#
# Elastic Constant Matrix: (Units=GPa)
#
#
# Indices 1 2 3 4 5 6 
#
# 1 93.3191 21.4608 20.5978 0.0000 -4.2262 0.0000
# 2 21.4608 166.3698 43.9289 0.0000 10.1833 0.0000
# 3 20.5978 43.9289 109.7958 0.0000 21.0813 0.0000
# 4 0.0000 0.0000 0.0000 -45.0161 0.0000 70.5372
# 5 -4.2262 10.1833 21.0813 0.0000 40.1751 0.0000
# 6 0.0000 0.0000 0.0000 70.5372 0.0000 3.8704
#
#
#
# Elastic Compliance Matrix: (Units=1/GPa)
#
#
# Indices 1 2 3 4 5 6 
#
# 1 0.011580 -0.001060 -0.002262 0.000000 0.002674 0.000000
# 2 -0.001060 0.006822 -0.002421 0.000000 -0.000570 0.000000
# 3 -0.002262 -0.002421 0.011597 0.000000 -0.005710 0.000000
# 4 0.000000 0.000000 0.000000 -0.000752 0.000000 0.013697
# 5 0.002674 -0.000570 -0.005710 0.000000 0.028313 0.000000
# 6 0.000000 0.000000 0.000000 0.013697 0.000000 0.008741
#
#
# Mechanical properties :
#
#
# Convention : Reuss Voigt Hill
#
# Bulk Modulus (GPa) = 54.01569 60.16218 57.08893
# Shear Modulus (GPa) = 59.55374 18.70569 39.12971
#
# Velocity S-wave (km/s) = 4.66761 2.61593 3.78350
# Velocity P-wave (km/s) = 6.98637 5.57972 6.32229
#
# Compressibility (1/GPa) = 0.01851314
#
# Stress axis : x y z
#
# Youngs Moduli (GPa) = 86.35572 146.59310 86.22962
#
# Poissons Ratio (x) = 0.15543 0.19501
# Poissons Ratio (y) = 0.09156 0.20875
# Poissons Ratio (z) = 0.19530 0.35489
#
# Static dielectric constant tensor:
#      x y z
#    x 2.169900 0.000000 -0.051360 
#    y 0.000000 2.158200 0.000000 
#    z -0.051360 0.000000 2.239850 
# 
# From -- ./inp_files/10469.got.cif
#   From: 2010.05.17/outbox.cif.g08.bks.cpg/sg11_6_cif.got.tgz:10469.got - 2010.06.03 12:22:45.
