data_PCOD9165780
_publ_section_title
;
Structure prediction by ZEFSAII (Michael W. Deem and Ramdas Pophale) SiO2 
 PCOD9165780
Probable space group: P 21/M
;
_chemical_formula_sum "Si O2"
_cell_formula_units_Z 28
_cell_length_a 14.828744
_cell_length_b 16.228506
_cell_length_c 6.781898
_cell_angle_alpha 90.000000
_cell_angle_beta 121.591533
_cell_angle_gamma 90.000000
_cell_volume 1390.189549
_symmetry_space_group_name_H-M "P 21/M"
_symmetry_group_IT_number 11
_symmetry_cell_setting 'monoclinic'
loop_
_space_group_symop_operation_xyz
x,y,z
-x,1/2+y,-z
-x,-y,-z
x,1/2-y,z
loop_
_atom_site_type_symbol
_atom_site_label
_atom_site_fract_x
_atom_site_fract_y
_atom_site_fract_z
Si Si1 0.907895 0.418780 0.792971
Si Si2 0.005413 0.418917 0.289029
Si Si3 0.376395 0.416593 0.707886
Si Si4 0.265771 0.032287 0.187827
Si Si5 0.618358 0.073033 0.005219
Si Si6 0.827925 0.340916 0.325975
Si Si7 0.803926 0.653931 0.232649
O O1 0.818613 0.472074 0.803882
O O2 0.855421 0.354872 0.585542
O O3 0.969022 0.486421 0.730997
O O4 0.984551 0.381905 0.047079
O O5 0.897391 0.405601 0.283340
O O6 0.099614 0.379124 0.521786
O O7 0.328214 0.422655 0.435011
O O8 0.499797 0.394139 0.850290
O O9 0.302010 0.360272 0.758600
O O10 0.373142 0.507650 0.804921
O O11 0.345716 0.978129 0.146592
O O12 0.210496 0.097409 0.977415
O O13 0.706013 0.141704 0.144885
O O14 0.859872 0.250000 0.299156
O O15 0.819294 0.750000 0.204197
#
# Coordination Sequence:
#
# PCOD9165780 Si02
#       7
#     4   4   4   4   4   4   4
#     4  11  23  40  69  90 119 165 216 253 303 375
#     4  11  24  42  64  89 122 163 210 258 302 370
#     4  10  21  40  68  90 118 164 211 259 300 368
#     4  11  20  41  65  95 120 160 215 259 300 364
#     4  10  21  40  65  93 121 158 212 254 309 368
#     4  12  25  40  60  92 131 163 201 259 321 372
#     4  11  25  40  58  91 130 163 204 257 316 369
#
# _framework density 20.141141000000001
#
# number of rings (size 3 to 8) (size 9 to 14) (size 15 to 20)
#    0.000    1.143    4.286    2.143    4.000    2.286 
#    0.000    0.000    0.000    0.000    0.000    0.000 
#    0.000    0.000    0.000    0.000    0.000    0.000 
#
# Total GULP energy -156507.235248 kJ/mol
# GULP energy per Si atom -5589.544116 kJ/mol
# Density = 2.009530 g / cm^3
# Si number density = 20.141141 Si / 1000 Ang^3
#
#
#
# Elastic Constant Matrix: (Units=GPa)
#
#
# Indices 1 2 3 4 5 6 
#
# 1 106.5800 20.0517 41.6519 0.0000 15.7460 0.0000
# 2 20.0517 31.3511 33.0663 0.0000 -3.5206 0.0000
# 3 41.6519 33.0663 128.7042 0.0000 -1.1071 0.0000
# 4 0.0000 0.0000 0.0000 14.1902 0.0000 2.3682
# 5 15.7460 -3.5206 -1.1071 0.0000 29.5742 0.0000
# 6 0.0000 0.0000 0.0000 2.3682 0.0000 4.6380
#
#
#
# Elastic Compliance Matrix: (Units=1/GPa)
#
#
# Indices 1 2 3 4 5 6 
#
# 1 0.012684 -0.006265 -0.002561 0.000000 -0.007595 0.000000
# 2 -0.006265 0.047535 -0.010111 0.000000 0.008616 0.000000
# 3 -0.002561 -0.010111 0.011201 0.000000 0.000579 0.000000
# 4 0.000000 0.000000 0.000000 0.077036 0.000000 -0.039335
# 5 -0.007595 0.008616 0.000579 0.000000 0.038904 0.000000
# 6 0.000000 0.000000 0.000000 -0.039335 0.000000 0.235694
#
#
# Mechanical properties :
#
#
# Convention : Reuss Voigt Hill
#
# Bulk Modulus (GPa) = 29.80833 50.68612 40.24722
# Shear Modulus (GPa) = 10.59075 21.13816 15.86446
#
# Velocity S-wave (km/s) = 2.29558 3.24312 2.80958
# Velocity P-wave (km/s) = 4.67526 6.26449 5.52729
#
# Compressibility (1/GPa) = 0.03354767
#
# Stress axis : x y z
#
# Youngs Moduli (GPa) = 78.83922 21.03696 89.27631
#
# Poissons Ratio (x) = 0.13179 0.22861
# Poissons Ratio (y) = 0.49389 0.90269
# Poissons Ratio (z) = 0.20189 0.21271
#
# Static dielectric constant tensor:
#      x y z
#    x 1.726330 0.000000 -0.005370 
#    y 0.000000 1.684960 0.000000 
#    z -0.005370 0.000000 1.735090 
# 
# From -- ./inp_files/6879.got.cif
#   From: 2010.05.17/outbox.cif.g08.bks.cpg/sg11_4_cif.got.tgz:6879.got - 2010.06.03 12:22:45.
