data_PCOD9165909
_publ_section_title
;
Structure prediction by ZEFSAII (Michael W. Deem and Ramdas Pophale) SiO2 
 PCOD9165909
Probable space group: P 21/M
;
_chemical_formula_sum "Si O2"
_cell_formula_units_Z 28
_cell_length_a 5.334508
_cell_length_b 12.467551
_cell_length_c 20.032560
_cell_angle_alpha 90.000000
_cell_angle_beta 79.821085
_cell_angle_gamma 90.000000
_cell_volume 1311.360582
_symmetry_space_group_name_H-M "P 21/M"
_symmetry_group_IT_number 11
_symmetry_cell_setting 'monoclinic'
loop_
_space_group_symop_operation_xyz
x,y,z
-x,1/2+y,-z
-x,-y,-z
x,1/2-y,z
loop_
_atom_site_type_symbol
_atom_site_label
_atom_site_fract_x
_atom_site_fract_y
_atom_site_fract_z
Si Si1 0.712371 0.121068 0.054983
Si Si2 0.170207 0.137098 0.657533
Si Si3 0.287843 0.630700 0.216789
Si Si4 0.531413 0.976923 0.683739
Si Si5 0.135768 0.916463 0.447748
Si Si6 0.714480 0.250000 0.454963
Si Si7 0.816764 0.002806 0.910613
Si Si8 0.286214 0.250000 0.361856
O O1 0.721103 0.250000 0.058260
O O2 0.429009 0.075567 0.081692
O O3 0.783434 0.077849 0.977546
O O4 0.924660 0.065522 0.092382
O O5 0.328682 0.250000 0.661259
O O6 0.943580 0.144261 0.721027
O O7 0.075074 0.142302 0.586534
O O8 0.263688 0.014965 0.665871
O O9 0.401901 0.750000 0.200475
O O10 0.458729 0.544009 0.248101
O O11 0.191195 0.578874 0.153187
O O12 0.629056 0.856096 0.683019
O O13 0.701686 0.029437 0.617651
O O14 0.292538 0.847553 0.492844
O O15 0.000000 0.000000 0.500000
O O16 0.478495 0.250000 0.416079
O O17 0.990979 0.250000 0.402064
#
# Coordination Sequence:
#
# PCOD9165909 Si02
#       8
#     4   4   4   4   4   2   4   2
#     4  10  21  41  67 103 144 182 220 279 331 386
#     4  10  22  39  62  92 124 162 215 272 329 384
#     4  10  23  44  66  96 128 172 226 274 327 390
#     4  11  25  42  64  92 128 176 211 277 327 401
#     4  11  22  38  62  89 124 156 215 263 335 391
#     4  12  26  42  66  96 118 172 206 276 333 399
#     4  10  22  40  69 102 138 179 232 272 328 389
#     4  12  28  46  64  90 136 164 220 260 337 405
#
# _framework density 21.351868
#
# number of rings (size 3 to 8) (size 9 to 14) (size 15 to 20)
#    0.000    1.429    2.143    2.143    8.000    1.143 
#    2.571    1.429    0.000    0.000    0.000    0.000 
#    0.000    0.000    0.000    0.000    0.000    0.000 
#
# Total GULP energy -156073.084362 kJ/mol
# GULP energy per Si atom -5574.038727 kJ/mol
# Density = 2.130327 g / cm^3
# Si number density = 21.351868 Si / 1000 Ang^3
#
#
#
# Elastic Constant Matrix: (Units=GPa)
#
#
# Indices 1 2 3 4 5 6 
#
# 1 71.8729 13.7690 18.0931 0.0000 15.2669 0.0000
# 2 13.7690 134.4910 33.8505 0.0000 8.2385 0.0000
# 3 18.0931 33.8505 100.0142 0.0000 25.1668 0.0000
# 4 0.0000 0.0000 0.0000 13.9961 0.0000 9.4563
# 5 15.2669 8.2385 25.1668 0.0000 22.8884 0.0000
# 6 0.0000 0.0000 0.0000 9.4563 0.0000 22.9256
#
#
#
# Elastic Compliance Matrix: (Units=1/GPa)
#
#
# Indices 1 2 3 4 5 6 
#
# 1 0.016348 -0.001040 0.000061 0.000000 -0.010598 0.000000
# 2 -0.001040 0.008194 -0.002789 0.000000 0.000811 0.000000
# 3 0.000061 -0.002789 0.014778 0.000000 -0.015286 0.000000
# 4 0.000000 0.000000 0.000000 0.099053 0.000000 -0.040857
# 5 -0.010598 0.000811 -0.015286 0.000000 0.067275 0.000000
# 6 0.000000 0.000000 0.000000 -0.040857 0.000000 0.060472
#
#
# Mechanical properties :
#
#
# Convention : Reuss Voigt Hill
#
# Bulk Modulus (GPa) = 31.46213 48.64483 40.05348
# Shear Modulus (GPa) = 17.59004 28.00638 22.79821
#
# Velocity S-wave (km/s) = 2.87334 3.62561 3.27117
# Velocity P-wave (km/s) = 5.07692 6.35285 5.75038
#
# Compressibility (1/GPa) = 0.03178424
#
# Stress axis : x y z
#
# Youngs Moduli (GPa) = 61.16819 122.03611 67.66795
#
# Poissons Ratio (x) = 0.12691 -0.00414
# Poissons Ratio (y) = 0.06361 0.18876
# Poissons Ratio (z) = -0.00374 0.34041
#
# Static dielectric constant tensor:
#      x y z
#    x 1.862310 0.000000 0.031000 
#    y 0.000000 2.145170 0.000000 
#    z 0.031000 0.000000 1.718980 
# 
# From -- ./inp_files/62575.got.cif
#   From: 2010.05.17/outbox.cif.g08.bks.cpg/sg11_32_cif.got.tgz:62575.got - 2010.06.03 12:22:45.
