data_PCOD9165671
_publ_section_title
;
Structure prediction by ZEFSAII (Michael W. Deem and Ramdas Pophale) SiO2 
 PCOD9165671
Probable space group: P 21/M
;
_chemical_formula_sum "Si O2"
_cell_formula_units_Z 24
_cell_length_a 7.606273
_cell_length_b 17.732039
_cell_length_c 10.591183
_cell_angle_alpha 90.000000
_cell_angle_beta 134.692009
_cell_angle_gamma 90.000000
_cell_volume 1015.505051
_symmetry_space_group_name_H-M "P 21/M"
_symmetry_group_IT_number 11
_symmetry_cell_setting 'monoclinic'
loop_
_space_group_symop_operation_xyz
x,y,z
-x,1/2+y,-z
-x,-y,-z
x,1/2-y,z
loop_
_atom_site_type_symbol
_atom_site_label
_atom_site_fract_x
_atom_site_fract_y
_atom_site_fract_z
Si Si1 0.392587 0.617035 0.392415
Si Si2 0.279677 0.613215 0.066991
Si Si3 0.124631 0.044711 0.279692
Si Si4 0.155962 0.665355 0.529775
Si Si5 0.765621 0.946321 0.235884
Si Si6 0.522619 0.666298 0.944718
O O1 0.327373 0.651281 0.224475
O O2 0.681468 0.602071 0.562244
O O3 0.266250 0.533546 0.325781
O O4 0.284717 0.659432 0.458202
O O5 0.989860 0.420601 0.090454
O O6 0.496496 0.548846 0.163165
O O7 0.342762 0.663850 0.976948
O O8 0.903215 0.020907 0.262417
O O9 0.057433 0.750000 0.500541
O O10 0.940776 0.603579 0.412982
O O11 0.363745 0.651055 0.740172
O O12 0.719366 0.896498 0.085634
O O13 0.632655 0.750000 0.989853
#
# Coordination Sequence:
#
# PCOD9165671 Si02
#       6
#     4   4   4   4   4   4
#     4  10  23  38  58  89 119 157 191 237 285 349
#     4  10  22  36  62  88 115 151 190 245 289 332
#     4  10  21  40  56  87 125 153 190 232 295 352
#     4  10  21  41  61  81 114 157 195 236 291 351
#     4   9  21  36  64  86 111 153 193 241 286 343
#     4   9  21  38  58  85 113 147 194 239 288 340
#
# _framework density 23.633562000000001
#
# number of rings (size 3 to 8) (size 9 to 14) (size 15 to 20)
#    1.000    1.333    0.000    1.500    2.333    8.000 
#    0.000    0.833    0.000    0.000    0.000    0.000 
#    0.000    0.000    0.000    0.000    0.000    0.000 
#
# Total GULP energy -134087.851477 kJ/mol
# GULP energy per Si atom -5586.993812 kJ/mol
# Density = 2.357977 g / cm^3
# Si number density = 23.633562 Si / 1000 Ang^3
#
#
#
# Elastic Constant Matrix: (Units=GPa)
#
#
# Indices 1 2 3 4 5 6 
#
# 1 54.5783 -0.1910 42.1771 0.0000 -3.2425 0.0000
# 2 -0.1910 55.4154 29.5452 0.0000 8.8450 0.0000
# 3 42.1771 29.5452 191.4692 0.0000 -8.6160 0.0000
# 4 0.0000 0.0000 0.0000 7.3119 0.0000 -0.2822
# 5 -3.2425 8.8450 -8.6160 0.0000 33.6356 0.0000
# 6 0.0000 0.0000 0.0000 -0.2822 0.0000 5.0823
#
#
#
# Elastic Compliance Matrix: (Units=1/GPa)
#
#
# Indices 1 2 3 4 5 6 
#
# 1 0.022520 0.002966 -0.005418 0.000000 0.000003 0.000000
# 2 0.002966 0.021336 -0.004234 0.000000 -0.006409 0.000000
# 3 -0.005418 -0.004234 0.007179 0.000000 0.002430 0.000000
# 4 0.000000 0.000000 0.000000 0.137057 0.000000 0.007610
# 5 0.000003 -0.006409 0.002430 0.000000 0.032039 0.000000
# 6 0.000000 0.000000 0.000000 0.007610 0.000000 0.197185
#
#
# Mechanical properties :
#
#
# Convention : Reuss Voigt Hill
#
# Bulk Modulus (GPa) = 26.55170 49.39172 37.97171
# Shear Modulus (GPa) = 11.28049 24.53473 17.90761
#
# Velocity S-wave (km/s) = 2.18711 3.22550 2.75566
# Velocity P-wave (km/s) = 4.19965 5.90052 5.12119
#
# Compressibility (1/GPa) = 0.03766237
#
# Stress axis : x y z
#
# Youngs Moduli (GPa) = 44.40498 46.86867 139.29474
#
# Poissons Ratio (x) = -0.13901 0.75474
# Poissons Ratio (y) = -0.13170 0.58979
# Poissons Ratio (z) = 0.24060 0.19845
#
# Static dielectric constant tensor:
#      x y z
#    x 1.927750 0.000000 -0.010230 
#    y 0.000000 1.863240 0.000000 
#    z -0.010230 0.000000 1.901260 
# 
# From -- ./inp_files/14852.got.cif
#   From: 2010.05.17/outbox.cif.g08.bks.cpg/sg11_8_cif.got.tgz:14852.got - 2010.06.03 12:22:45.
