data_PCOD9165342
_publ_section_title
;
Structure prediction by ZEFSAII (Michael W. Deem and Ramdas Pophale) SiO2 
 PCOD9165342
Probable space group: P 21/M
;
_chemical_formula_sum "Si O2"
_cell_formula_units_Z 24
_cell_length_a 12.608681
_cell_length_b 8.781698
_cell_length_c 11.569827
_cell_angle_alpha 90.000000
_cell_angle_beta 87.841545
_cell_angle_gamma 90.000000
_cell_volume 1280.167430
_symmetry_space_group_name_H-M "P 21/M"
_symmetry_group_IT_number 11
_symmetry_cell_setting 'monoclinic'
loop_
_space_group_symop_operation_xyz
x,y,z
-x,1/2+y,-z
-x,-y,-z
x,1/2-y,z
loop_
_atom_site_type_symbol
_atom_site_label
_atom_site_fract_x
_atom_site_fract_y
_atom_site_fract_z
Si Si1 0.920165 0.431908 0.841248
Si Si2 0.142779 0.931434 0.892091
Si Si3 0.273924 0.431546 0.276627
Si Si4 0.381660 0.569011 0.499101
Si Si5 0.541739 0.070892 0.879535
Si Si6 0.330401 0.071739 0.738983
O O1 0.929036 0.250000 0.828687
O O2 0.840205 0.500540 0.751357
O O3 0.035966 0.507291 0.835983
O O4 0.871674 0.464177 0.970941
O O5 0.151830 0.750000 0.877854
O O6 0.244112 0.012876 0.833504
O O7 0.270353 0.250000 0.281229
O O8 0.319094 0.497966 0.394155
O O9 0.356190 0.485744 0.174403
O O10 0.500000 0.500000 0.500000
O O11 0.388703 0.750000 0.484806
O O12 0.326665 0.523966 0.621762
O O13 0.565830 0.250000 0.893801
O O14 0.446783 0.056213 0.790725
O O15 0.500000 0.000000 0.000000
O O16 0.313235 0.250000 0.714565
#
# Coordination Sequence:
#
# PCOD9165342 Si02
#       6
#     4   4   4   4   4   4
#     4  10  21  39  63  90 123 160 202 248 300 359
#     4  10  21  38  62  91 123 160 202 247 301 358
#     4  12  24  39  61  88 121 158 201 248 301 359
#     4  12  24  41  63  87 118 159 204 248 301 359
#     4  11  23  37  57  86 122 157 197 246 300 359
#     4  11  23  39  60  87 120 159 202 247 299 357
#
# _framework density 18.747547999999998
#
# number of rings (size 3 to 8) (size 9 to 14) (size 15 to 20)
#    0.000    1.000    1.667    6.000    0.000    6.667 
#    0.000    0.833    0.000    0.000    0.000    0.000 
#    0.000    0.000    0.000    0.000    0.000    0.000 
#
# Total GULP energy -134286.503338 kJ/mol
# GULP energy per Si atom -5595.270972 kJ/mol
# Density = 1.870488 g / cm^3
# Si number density = 18.747548 Si / 1000 Ang^3
#
#
#
# Elastic Constant Matrix: (Units=GPa)
#
#
# Indices 1 2 3 4 5 6 
#
# 1 61.7151 21.2911 -13.5996 0.0000 18.6303 0.0000
# 2 21.2911 87.6594 13.8909 0.0000 17.9559 0.0000
# 3 -13.5996 13.8909 40.5112 0.0000 19.5324 0.0000
# 4 0.0000 0.0000 0.0000 33.0857 0.0000 -1.0572
# 5 18.6303 17.9559 19.5324 0.0000 36.1532 0.0000
# 6 0.0000 0.0000 0.0000 -1.0572 0.0000 36.6540
#
#
#
# Elastic Compliance Matrix: (Units=1/GPa)
#
#
# Indices 1 2 3 4 5 6 
#
# 1 0.032887 -0.006458 0.026881 0.000000 -0.028263 0.000000
# 2 -0.006458 0.014063 -0.007068 0.000000 0.000162 0.000000
# 3 0.026881 -0.007068 0.055602 0.000000 -0.040382 0.000000
# 4 0.000000 0.000000 0.000000 0.030252 0.000000 0.000873
# 5 -0.028263 0.000162 -0.040382 0.000000 0.063960 0.000000
# 6 0.000000 0.000000 0.000000 0.000873 0.000000 0.027307
#
#
# Mechanical properties :
#
#
# Convention : Reuss Voigt Hill
#
# Bulk Modulus (GPa) = 7.73624 25.89450 16.81537
# Shear Modulus (GPa) = 20.79432 32.39880 26.59656
#
# Velocity S-wave (km/s) = 3.33404 4.16163 3.77061
# Velocity P-wave (km/s) = 4.35392 6.07737 5.28635
#
# Compressibility (1/GPa) = 0.12926171
#
# Stress axis : x y z
#
# Youngs Moduli (GPa) = 30.40727 71.10723 17.98492
#
# Poissons Ratio (x) = 0.45923 -0.48346
# Poissons Ratio (y) = 0.19638 0.12712
# Poissons Ratio (z) = -0.81739 0.50261
#
# Static dielectric constant tensor:
#      x y z
#    x 1.624660 0.000000 0.002990 
#    y 0.000000 1.619610 0.000000 
#    z 0.002990 0.000000 1.637960 
# 
# From -- ./inp_files/33815.got.cif
#   From: 2010.05.17/outbox.cif.g08.bks.cpg/sg11_17_cif.got.tgz:33815.got - 2010.06.03 12:22:45.
