data_PCOD9165683
_publ_section_title
;
Structure prediction by ZEFSAII (Michael W. Deem and Ramdas Pophale) SiO2 
 PCOD9165683
Probable space group: P 21/M
;
_chemical_formula_sum "Si O2"
_cell_formula_units_Z 24
_cell_length_a 14.238355
_cell_length_b 14.323902
_cell_length_c 8.148205
_cell_angle_alpha 90.000000
_cell_angle_beta 139.527320
_cell_angle_gamma 90.000000
_cell_volume 1078.660913
_symmetry_space_group_name_H-M "P 21/M"
_symmetry_group_IT_number 11
_symmetry_cell_setting 'monoclinic'
loop_
_space_group_symop_operation_xyz
x,y,z
-x,1/2+y,-z
-x,-y,-z
x,1/2-y,z
loop_
_atom_site_type_symbol
_atom_site_label
_atom_site_fract_x
_atom_site_fract_y
_atom_site_fract_z
Si Si1 0.201010 0.521293 0.131627
Si Si2 0.410856 0.012181 0.678698
Si Si3 0.078294 0.595786 0.645488
Si Si4 0.811627 0.652569 0.479888
Si Si5 0.636391 0.359831 0.139929
Si Si6 0.990755 0.856332 0.057134
O O1 0.351166 0.491562 0.414279
O O2 0.126928 0.582076 0.179797
O O3 0.178378 0.583108 0.940874
O O4 0.108765 0.427023 0.971687
O O5 0.293257 0.065003 0.640575
O O6 0.418458 0.908695 0.764917
O O7 0.551318 0.076104 0.892981
O O8 0.190210 0.628899 0.656698
O O9 0.000000 0.500000 0.500000
O O10 0.936504 0.652285 0.510344
O O11 0.728060 0.750000 0.355949
O O12 0.898035 0.651778 0.766070
O O13 0.606177 0.250000 0.088660
O O14 0.017709 0.750000 0.149450
#
# Coordination Sequence:
#
# PCOD9165683 Si02
#       6
#     4   4   4   4   4   4
#     4   9  19  34  56  82 118 155 193 239 288 343
#     4  10  21  40  61  85 115 154 201 245 287 346
#     4  11  21  37  57  88 124 154 190 238 299 346
#     4   9  16  32  58  83 113 151 190 234 287 343
#     4  11  24  40  61  86 117 155 197 244 297 353
#     4   8  15  28  52  85 113 145 190 236 282 338
#
# _framework density 22.24981
#
# number of rings (size 3 to 8) (size 9 to 14) (size 15 to 20)
#    0.000    2.333    1.667    2.000    0.000    2.667 
#    0.000    0.833    0.000    0.000    0.000    0.000 
#    0.000    0.000    0.000    0.000    0.000    0.000 
#
# Total GULP energy -133687.041178 kJ/mol
# GULP energy per Si atom -5570.293382 kJ/mol
# Density = 2.219917 g / cm^3
# Si number density = 22.249810 Si / 1000 Ang^3
#
#
#
# Elastic Constant Matrix: (Units=GPa)
#
#
# Indices 1 2 3 4 5 6 
#
# 1 59.2317 10.7216 4.1097 0.0000 20.6578 0.0000
# 2 10.7216 85.3604 -6.8293 0.0000 7.9901 0.0000
# 3 4.1097 -6.8293 75.9012 0.0000 6.0099 0.0000
# 4 0.0000 0.0000 0.0000 12.8155 0.0000 7.8493
# 5 20.6578 7.9901 6.0099 0.0000 32.5720 0.0000
# 6 0.0000 0.0000 0.0000 7.8493 0.0000 3.0264
#
#
#
# Elastic Compliance Matrix: (Units=1/GPa)
#
#
# Indices 1 2 3 4 5 6 
#
# 1 0.021864 -0.001508 -0.000255 0.000000 -0.013450 0.000000
# 2 -0.001508 0.012228 0.001364 0.000000 -0.002295 0.000000
# 3 -0.000255 0.001364 0.013523 0.000000 -0.002668 0.000000
# 4 0.000000 0.000000 0.000000 -0.132578 0.000000 0.343858
# 5 -0.013450 -0.002295 -0.002668 0.000000 0.040287 0.000000
# 6 0.000000 0.000000 0.000000 0.343858 0.000000 -0.561415
#
#
# Mechanical properties :
#
#
# Convention : Reuss Voigt Hill
#
# Bulk Modulus (GPa) = 21.35919 26.27749 23.81834
# Shear Modulus (GPa) = -8.47907 23.84887 7.68490
#
# Velocity S-wave (km/s) = -1.95426 3.27749 1.86049
# Velocity P-wave (km/s) = 2.12800 5.11453 3.91707
#
# Compressibility (1/GPa) = 0.04681826
#
# Stress axis : x y z
#
# Youngs Moduli (GPa) = 45.73677 81.77733 73.94938
#
# Poissons Ratio (x) = 0.12329 0.01882
# Poissons Ratio (y) = 0.06895 -0.10084
# Poissons Ratio (z) = 0.01164 -0.11151
#
# Static dielectric constant tensor:
#      x y z
#    x 1.844550 0.000000 -0.006700 
#    y 0.000000 -17.587380 0.000000 
#    z -0.006700 0.000000 1.867370 
# 
# From -- ./inp_files/22310.got.cif
#   From: 2010.05.17/outbox.cif.g08.bks.cpg/sg11_12_cif.got.tgz:22310.got - 2010.06.03 12:22:45.
