data_PCOD9165039
_publ_section_title
;
Structure prediction by ZEFSAII (Michael W. Deem and Ramdas Pophale) SiO2 
 PCOD9165039
Probable space group: P 21/M
;
_chemical_formula_sum "Si O2"
_cell_formula_units_Z 32
_cell_length_a 11.390147
_cell_length_b 21.236859
_cell_length_c 17.489282
_cell_angle_alpha 90.000000
_cell_angle_beta 158.342974
_cell_angle_gamma 90.000000
_cell_volume 1561.264665
_symmetry_space_group_name_H-M "P 21/M"
_symmetry_group_IT_number 11
_symmetry_cell_setting 'monoclinic'
loop_
_space_group_symop_operation_xyz
x,y,z
-x,1/2+y,-z
-x,-y,-z
x,1/2-y,z
loop_
_atom_site_type_symbol
_atom_site_label
_atom_site_fract_x
_atom_site_fract_y
_atom_site_fract_z
Si Si1 0.357238 0.428908 0.909584
Si Si2 0.209473 0.577333 0.696943
Si Si3 0.426607 0.951010 0.112907
Si Si4 0.720827 0.973226 0.699920
Si Si5 0.509805 0.923704 0.330855
Si Si6 0.594513 0.321998 0.297626
Si Si7 0.870329 0.322763 0.803104
Si Si8 0.290352 0.865464 0.463665
O O1 0.480382 0.407368 0.901577
O O2 0.982789 0.418221 0.686366
O O3 0.500000 0.500000 0.000000
O O4 0.522340 0.397621 0.082114
O O5 0.324397 0.509289 0.735082
O O6 0.192393 0.626761 0.617850
O O7 0.889853 0.571863 0.553163
O O8 0.407923 0.916078 0.181645
O O9 0.081564 0.981427 0.893277
O O10 0.620912 0.901262 0.649099
O O11 0.500000 0.000000 0.500000
O O12 0.640323 0.012048 0.727259
O O13 0.374508 0.869414 0.303010
O O14 0.655992 0.250000 0.310560
O O15 0.661847 0.327689 0.428956
O O16 0.226418 0.336823 0.051090
O O17 0.805527 0.250000 0.782056
O O18 0.824183 0.332085 0.683656
#
# Coordination Sequence:
#
# PCOD9165039 Si02
#       8
#     4   4   4   4   4   4   4   4
#     4  10  21  37  62  93 132 166 203 258 320 394
#     4  11  21  40  62  90 133 165 207 265 321 381
#     4  11  22  37  60  95 130 167 207 256 327 393
#     4  12  21  35  60  94 128 164 204 256 321 396
#     4  12  23  38  61  93 128 168 207 260 324 379
#     4  11  24  43  68  93 119 169 227 271 312 376
#     4  11  25  45  65  90 127 169 218 270 316 375
#     4  12  22  42  67  95 131 168 214 262 328 387
#
# _framework density 20.496205
#
# number of rings (size 3 to 8) (size 9 to 14) (size 15 to 20)
#    0.000    0.750    2.500    7.875    0.000    0.500 
#    0.000    0.000    0.000    0.750    0.000    0.000 
#    0.000    0.000    0.000    0.000    0.000    0.000 
#
# Total GULP energy -178724.940961 kJ/mol
# GULP energy per Si atom -5585.154405 kJ/mol
# Density = 2.044955 g / cm^3
# Si number density = 20.496205 Si / 1000 Ang^3
#
#
#
# Elastic Constant Matrix: (Units=GPa)
#
#
# Indices 1 2 3 4 5 6 
#
# 1 104.9420 8.0566 30.6394 0.0000 -18.1619 0.0000
# 2 8.0566 46.3936 12.3725 0.0000 5.0107 0.0000
# 3 30.6394 12.3725 102.4416 0.0000 6.3065 0.0000
# 4 0.0000 0.0000 0.0000 17.8167 0.0000 -2.9145
# 5 -18.1619 5.0107 6.3065 0.0000 49.7345 0.0000
# 6 0.0000 0.0000 0.0000 -2.9145 0.0000 11.3549
#
#
#
# Elastic Compliance Matrix: (Units=1/GPa)
#
#
# Indices 1 2 3 4 5 6 
#
# 1 0.011520 -0.001573 -0.003552 0.000000 0.004816 0.000000
# 2 -0.001573 0.022670 -0.002108 0.000000 -0.002591 0.000000
# 3 -0.003552 -0.002108 0.011233 0.000000 -0.002509 0.000000
# 4 0.000000 0.000000 0.000000 0.058587 0.000000 0.015037
# 5 0.004816 -0.002591 -0.002509 0.000000 0.022445 0.000000
# 6 0.000000 0.000000 0.000000 0.015037 0.000000 0.091928
#
#
# Mechanical properties :
#
#
# Convention : Reuss Voigt Hill
#
# Bulk Modulus (GPa) = 32.30322 39.54603 35.92462
# Shear Modulus (GPa) = 20.56188 29.29513 24.92850
#
# Velocity S-wave (km/s) = 3.17078 3.78470 3.49126
# Velocity P-wave (km/s) = 5.40369 6.19958 5.81527
#
# Compressibility (1/GPa) = 0.03095666
#
# Stress axis : x y z
#
# Youngs Moduli (GPa) = 86.80226 44.11125 89.02257
#
# Poissons Ratio (x) = 0.06941 0.31622
# Poissons Ratio (y) = 0.13658 0.18765
# Poissons Ratio (z) = 0.30833 0.09298
#
# Static dielectric constant tensor:
#      x y z
#    x 1.768140 0.000000 -0.041380 
#    y 0.000000 1.728190 0.000000 
#    z -0.041380 0.000000 1.797760 
# 
# From -- ./inp_files/59749.got.cif
#   From: 2010.05.17/outbox.cif.g08.bks.cpg/sg11_30_cif.got.tgz:59749.got - 2010.06.03 12:22:45.
