data_PCOD9165870
_publ_section_title
;
Structure prediction by ZEFSAII (Michael W. Deem and Ramdas Pophale) SiO2 
 PCOD9165870
Probable space group: P 21/M
;
_chemical_formula_sum "Si O2"
_cell_formula_units_Z 30
_cell_length_a 9.451695
_cell_length_b 14.729999
_cell_length_c 10.379115
_cell_angle_alpha 90.000000
_cell_angle_beta 103.034839
_cell_angle_gamma 90.000000
_cell_volume 1407.782693
_symmetry_space_group_name_H-M "P 21/M"
_symmetry_group_IT_number 11
_symmetry_cell_setting 'monoclinic'
loop_
_space_group_symop_operation_xyz
x,y,z
-x,1/2+y,-z
-x,-y,-z
x,1/2-y,z
loop_
_atom_site_type_symbol
_atom_site_label
_atom_site_fract_x
_atom_site_fract_y
_atom_site_fract_z
Si Si1 0.274900 0.750000 0.549205
Si Si2 0.827685 0.428316 0.338369
Si Si3 0.199278 0.853989 0.106593
Si Si4 0.864225 0.642873 0.037442
Si Si5 0.408343 0.893080 0.386080
Si Si6 0.664555 0.485799 0.076480
Si Si7 0.912365 0.646091 0.751660
Si Si8 0.284755 0.431690 0.494537
O O1 0.176043 0.831763 0.592018
O O2 0.374502 0.828910 0.499553
O O3 0.684550 0.440716 0.220302
O O4 0.824275 0.512340 0.436003
O O5 0.961535 0.422234 0.267129
O O6 0.198838 0.750000 0.059369
O O7 0.306659 0.860885 0.249354
O O8 0.257568 0.920072 0.009641
O O9 0.032462 0.875391 0.108239
O O10 0.836255 0.750000 0.051042
O O11 0.853512 0.622428 0.881639
O O12 0.752579 0.580098 0.090015
O O13 0.580113 0.892787 0.397133
O O14 0.355557 0.993499 0.413693
O O15 0.500000 0.500000 0.000000
O O16 0.964999 0.750000 0.774031
O O17 0.794560 0.638357 0.614489
#
# Coordination Sequence:
#
# PCOD9165870 Si02
#       8
#     2   4   4   4   4   4   4   4
#     4  10  22  40  64  94 130 174 220 268 326 396
#     4  11  23  42  63  93 139 169 219 269 336 396
#     4  11  22  40  71  96 129 178 225 275 325 396
#     4  10  24  45  68 100 130 177 231 274 330 400
#     4  10  21  41  64  94 129 171 225 261 330 389
#     4  12  26  43  67 100 137 177 219 279 344 397
#     4  11  22  41  67  96 130 172 225 270 323 393
#     4  10  23  39  62  96 130 173 214 272 324 391
#
# _framework density 21.310109000000001
#
# number of rings (size 3 to 8) (size 9 to 14) (size 15 to 20)
#    0.000    1.333    2.667    2.400    3.733    2.667 
#    2.400    0.667    0.000    0.000    0.000    0.000 
#    0.000    0.000    0.000    0.000    0.000    0.000 
#
# Total GULP energy -167126.185000 kJ/mol
# GULP energy per Si atom -5570.872833 kJ/mol
# Density = 2.126161 g / cm^3
# Si number density = 21.310109 Si / 1000 Ang^3
#
#
#
# Elastic Constant Matrix: (Units=GPa)
#
#
# Indices 1 2 3 4 5 6 
#
# 1 62.3123 23.9249 20.7098 0.0000 18.7552 0.0000
# 2 23.9249 76.5712 13.1435 0.0000 4.3054 0.0000
# 3 20.7098 13.1435 48.9165 0.0000 26.8291 0.0000
# 4 0.0000 0.0000 0.0000 12.2375 0.0000 3.6954
# 5 18.7552 4.3054 26.8291 0.0000 36.4086 0.0000
# 6 0.0000 0.0000 0.0000 3.6954 0.0000 12.7021
#
#
#
# Elastic Compliance Matrix: (Units=1/GPa)
#
#
# Indices 1 2 3 4 5 6 
#
# 1 0.021801 -0.005807 -0.003167 0.000000 -0.008210 0.000000
# 2 -0.005807 0.015311 -0.003865 0.000000 0.004029 0.000000
# 3 -0.003167 -0.003865 0.036380 0.000000 -0.024720 0.000000
# 4 0.000000 0.000000 0.000000 0.089586 0.000000 -0.026063
# 5 -0.008210 0.004029 -0.024720 0.000000 0.049435 0.000000
# 6 0.000000 0.000000 0.000000 -0.026063 0.000000 0.086310
#
#
# Mechanical properties :
#
#
# Convention : Reuss Voigt Hill
#
# Bulk Modulus (GPa) = 20.91380 33.70626 27.31003
# Shear Modulus (GPa) = 14.68691 20.93776 17.81233
#
# Velocity S-wave (km/s) = 2.62811 3.13793 2.89427
# Velocity P-wave (km/s) = 4.36401 5.38332 4.90024
#
# Compressibility (1/GPa) = 0.04781531
#
# Stress axis : x y z
#
# Youngs Moduli (GPa) = 45.86863 65.31245 27.48734
#
# Poissons Ratio (x) = 0.37925 0.08704
# Poissons Ratio (y) = 0.26635 0.10625
# Poissons Ratio (z) = 0.14525 0.25245
#
# Static dielectric constant tensor:
#      x y z
#    x 1.794480 0.000000 0.009690 
#    y 0.000000 1.756230 0.000000 
#    z 0.009690 0.000000 1.813830 
# 
# From -- ./inp_files/18101.got.cif
#   From: 2010.05.17/outbox.cif.g08.bks.cpg/sg11_10_cif.got.tgz:18101.got - 2010.06.03 12:22:45.
