data_PCOD9165053
_publ_section_title
;
Structure prediction by ZEFSAII (Michael W. Deem and Ramdas Pophale) SiO2 
 PCOD9165053
Probable space group: P 21/M
;
_chemical_formula_sum "Si O2"
_cell_formula_units_Z 32
_cell_length_a 11.378545
_cell_length_b 14.812305
_cell_length_c 18.366320
_cell_angle_alpha 90.000000
_cell_angle_beta 27.194533
_cell_angle_gamma 90.000000
_cell_volume 1414.686257
_symmetry_space_group_name_H-M "P 21/M"
_symmetry_group_IT_number 11
_symmetry_cell_setting 'monoclinic'
loop_
_space_group_symop_operation_xyz
x,y,z
-x,1/2+y,-z
-x,-y,-z
x,1/2-y,z
loop_
_atom_site_type_symbol
_atom_site_label
_atom_site_fract_x
_atom_site_fract_y
_atom_site_fract_z
Si Si1 0.019149 0.104567 0.970090
Si Si2 0.044542 0.958380 0.154520
Si Si3 0.225220 0.352973 0.570004
Si Si4 0.562008 0.853127 0.697141
Si Si5 0.565512 0.148136 0.740602
Si Si6 0.620518 0.977425 0.805043
Si Si7 0.063792 0.853750 0.601374
Si Si8 0.192540 0.650589 0.695367
O O1 0.275186 0.139569 0.868303
O O2 0.028388 0.102491 0.876409
O O3 0.747086 0.145922 0.145680
O O4 0.000000 0.000000 0.000000
O O5 0.925530 0.915347 0.291866
O O6 0.350187 0.962018 0.992935
O O7 0.948376 0.061508 0.197630
O O8 0.124596 0.250000 0.625730
O O9 0.265414 0.384995 0.465363
O O10 0.518610 0.349823 0.435745
O O11 0.634071 0.750000 0.673046
O O12 0.608551 0.918023 0.738183
O O13 0.607448 0.250000 0.742236
O O14 0.750973 0.130367 0.569293
O O15 0.626284 0.078922 0.771845
O O16 0.850399 0.931422 0.721361
O O17 0.960712 0.750000 0.651285
O O18 0.204448 0.856630 0.601298
O O19 0.076071 0.750000 0.777292
#
# Coordination Sequence:
#
# PCOD9165053 Si02
#       8
#     4   4   4   4   4   4   4   4
#     4  11  20  38  60  96 131 159 206 258 324 382
#     4  11  23  37  64  94 129 166 207 259 324 382
#     4  10  22  38  61  95 129 166 211 257 319 385
#     4  10  21  37  63  93 130 170 204 259 324 380
#     4  11  23  40  65  95 127 164 213 266 314 375
#     4  11  24  41  65  94 129 167 216 265 321 372
#     4  10  23  43  65  90 121 169 224 268 315 372
#     4  10  22  39  63  91 125 170 214 259 313 378
#
# _framework density 22.619858000000001
#
# number of rings (size 3 to 8) (size 9 to 14) (size 15 to 20)
#    0.000    1.500    2.500    3.000    1.750    5.000 
#    0.000    0.000    0.000    0.000    0.000    0.000 
#    0.000    0.000    0.000    0.000    0.000    0.000 
#
# Total GULP energy -179048.285761 kJ/mol
# GULP energy per Si atom -5595.258930 kJ/mol
# Density = 2.256837 g / cm^3
# Si number density = 22.619858 Si / 1000 Ang^3
#
#
#
# Elastic Constant Matrix: (Units=GPa)
#
#
# Indices 1 2 3 4 5 6 
#
# 1 11.8727 5.7579 16.1384 0.0000 -0.8729 0.0000
# 2 5.7579 91.1721 39.0938 0.0000 13.3840 0.0000
# 3 16.1384 39.0938 99.2725 0.0000 22.7584 0.0000
# 4 0.0000 0.0000 0.0000 -10.5259 0.0000 -23.3457
# 5 -0.8729 13.3840 22.7584 0.0000 21.3408 0.0000
# 6 0.0000 0.0000 0.0000 -23.3457 0.0000 -127.4041
#
#
#
# Elastic Compliance Matrix: (Units=1/GPa)
#
#
# Indices 1 2 3 4 5 6 
#
# 1 0.125841 -0.001108 -0.028273 0.000000 0.035993 0.000000
# 2 -0.001108 0.013421 -0.004189 0.000000 -0.003995 0.000000
# 3 -0.028273 -0.004189 0.021154 0.000000 -0.021088 0.000000
# 4 0.000000 0.000000 0.000000 -0.160050 0.000000 0.029328
# 5 0.035993 -0.003995 -0.021088 0.000000 0.073325 0.000000
# 6 0.000000 0.000000 0.000000 0.029328 0.000000 -0.013223
#
#
# Mechanical properties :
#
#
# Convention : Reuss Voigt Hill
#
# Bulk Modulus (GPa) = 10.72092 36.03305 23.37699
# Shear Modulus (GPa) = 31.50628 -13.89601 8.80513
#
# Velocity S-wave (km/s) = 3.73615 -2.48125 1.97512
# Velocity P-wave (km/s) = 4.83339 2.78489 3.94444
#
# Compressibility (1/GPa) = 0.09327554
#
# Stress axis : x y z
#
# Youngs Moduli (GPa) = 7.94655 74.51008 47.27316
#
# Poissons Ratio (x) = 0.08256 1.33654
# Poissons Ratio (y) = 0.00881 0.19804
# Poissons Ratio (z) = 0.22467 0.31214
#
# Static dielectric constant tensor:
#      x y z
#    x 1.880950 0.000000 -0.015190 
#    y 0.000000 1.816110 0.000000 
#    z -0.015190 0.000000 1.810100 
# 
# From -- ./inp_files/59448.got.cif
#   From: 2010.05.17/outbox.cif.g08.bks.cpg/sg11_30_cif.got.tgz:59448.got - 2010.06.03 12:22:45.
