data_PCOD9165323
_publ_section_title
;
Structure prediction by ZEFSAII (Michael W. Deem and Ramdas Pophale) SiO2 
 PCOD9165323
Probable space group: P 21/M
;
_chemical_formula_sum "Si O2"
_cell_formula_units_Z 24
_cell_length_a 5.258506
_cell_length_b 17.686344
_cell_length_c 12.653707
_cell_angle_alpha 90.000000
_cell_angle_beta 67.893305
_cell_angle_gamma 90.000000
_cell_volume 1090.326205
_symmetry_space_group_name_H-M "P 21/M"
_symmetry_group_IT_number 11
_symmetry_cell_setting 'monoclinic'
loop_
_space_group_symop_operation_xyz
x,y,z
-x,1/2+y,-z
-x,-y,-z
x,1/2-y,z
loop_
_atom_site_type_symbol
_atom_site_label
_atom_site_fract_x
_atom_site_fract_y
_atom_site_fract_z
Si Si1 0.569006 0.658660 0.659208
Si Si2 0.098296 0.339100 0.968034
Si Si3 0.181568 0.342061 0.604964
Si Si4 0.805673 0.029774 0.935022
Si Si5 0.956811 0.897711 0.785530
Si Si6 0.436313 0.841771 0.262847
O O1 0.544818 0.750000 0.666837
O O2 0.727200 0.637069 0.527107
O O3 0.265509 0.623707 0.706313
O O4 0.741685 0.630978 0.732878
O O5 0.067833 0.250000 0.959017
O O6 0.376456 0.364983 0.865347
O O7 0.853789 0.381533 0.943895
O O8 0.097218 0.358319 0.091999
O O9 0.179951 0.250000 0.607900
O O10 0.400828 0.366620 0.657918
O O11 0.875969 0.367394 0.681895
O O12 0.916771 0.986579 0.814993
O O13 0.500000 0.000000 0.000000
O O14 0.000000 0.000000 0.000000
O O15 0.430709 0.750000 0.262781
#
# Coordination Sequence:
#
# PCOD9165323 Si02
#       6
#     4   4   4   4   4   4
#     4  11  21  35  58  85 116 154 196 240 279 333
#     4  10  21  38  62  90 116 145 191 242 284 335
#     4   9  18  33  52  78 111 149 191 231 280 330
#     4  10  22  40  58  80 118 160 185 219 286 355
#     4  11  22  36  57  87 120 151 185 232 295 347
#     4   9  18  32  53  80 110 144 185 237 283 325
#
# _framework density 22.011759999999999
#
# number of rings (size 3 to 8) (size 9 to 14) (size 15 to 20)
#    0.000    2.000    0.000    4.500    0.000    6.667 
#    0.000   10.833    0.000    6.000    0.000    0.000 
#    0.000    0.000    0.000    0.000    0.000    0.000 
#
# Total GULP energy -134219.659205 kJ/mol
# GULP energy per Si atom -5592.485800 kJ/mol
# Density = 2.196166 g / cm^3
# Si number density = 22.011760 Si / 1000 Ang^3
#
#
#
# Elastic Constant Matrix: (Units=GPa)
#
#
# Indices 1 2 3 4 5 6 
#
# 1 123.0839 17.7720 26.1830 0.0000 -9.1605 0.0000
# 2 17.7720 74.0581 30.7883 0.0000 1.8825 0.0000
# 3 26.1830 30.7883 112.3186 0.0000 -7.9749 0.0000
# 4 0.0000 0.0000 0.0000 14.2650 0.0000 3.5470
# 5 -9.1605 1.8825 -7.9749 0.0000 33.8883 0.0000
# 6 0.0000 0.0000 0.0000 3.5470 0.0000 26.7592
#
#
#
# Elastic Compliance Matrix: (Units=1/GPa)
#
#
# Indices 1 2 3 4 5 6 
#
# 1 0.008822 -0.001556 -0.001479 0.000000 0.002123 0.000000
# 2 -0.001556 0.015630 -0.004081 0.000000 -0.002249 0.000000
# 3 -0.001479 -0.004081 0.010531 0.000000 0.002305 0.000000
# 4 0.000000 0.000000 0.000000 0.072491 0.000000 -0.009609
# 5 0.002123 -0.002249 0.002305 0.000000 0.030750 0.000000
# 6 0.000000 0.000000 0.000000 -0.009609 0.000000 0.038644
#
#
# Mechanical properties :
#
#
# Convention : Reuss Voigt Hill
#
# Bulk Modulus (GPa) = 48.19454 50.99412 49.59433
# Shear Modulus (GPa) = 25.25027 30.63030 27.94029
#
# Velocity S-wave (km/s) = 3.39060 3.73439 3.56664
# Velocity P-wave (km/s) = 6.10497 6.46616 6.28816
#
# Compressibility (1/GPa) = 0.02074924
#
# Stress axis : x y z
#
# Youngs Moduli (GPa) = 113.35439 63.97830 94.96195
#
# Poissons Ratio (x) = 0.09955 0.14047
# Poissons Ratio (y) = 0.17638 0.38759
# Poissons Ratio (z) = 0.16768 0.26113
#
# Static dielectric constant tensor:
#      x y z
#    x 1.792420 0.000000 -0.004290 
#    y 0.000000 1.890170 0.000000 
#    z -0.004290 0.000000 1.789430 
# 
# From -- ./inp_files/29861.got.cif
#   From: 2010.05.17/outbox.cif.g08.bks.cpg/sg11_15_cif.got.tgz:29861.got - 2010.06.03 12:22:45.
