data_PCOD9165408
_publ_section_title
;
Structure prediction by ZEFSAII (Michael W. Deem and Ramdas Pophale) SiO2 
 PCOD9165408
Probable space group: P 21/M
;
_chemical_formula_sum "Si O2"
_cell_formula_units_Z 20
_cell_length_a 9.316666
_cell_length_b 17.305341
_cell_length_c 5.577121
_cell_angle_alpha 90.000000
_cell_angle_beta 100.061146
_cell_angle_gamma 90.000000
_cell_volume 885.360689
_symmetry_space_group_name_H-M "P 21/M"
_symmetry_group_IT_number 11
_symmetry_cell_setting 'monoclinic'
loop_
_space_group_symop_operation_xyz
x,y,z
-x,1/2+y,-z
-x,-y,-z
x,1/2-y,z
loop_
_atom_site_type_symbol
_atom_site_label
_atom_site_fract_x
_atom_site_fract_y
_atom_site_fract_z
Si Si1 0.593450 0.545195 0.724443
Si Si2 0.058521 0.598372 0.761370
Si Si3 0.643042 0.396645 0.967136
Si Si4 0.634577 0.838967 0.352477
Si Si5 0.905731 0.587306 0.222459
O O1 0.500000 0.500000 0.500000
O O2 0.693912 0.475473 0.846763
O O3 0.663078 0.616826 0.609313
O O4 0.472766 0.574080 0.872655
O O5 0.082460 0.505368 0.748316
O O6 0.988504 0.620857 0.484220
O O7 0.216208 0.636452 0.861483
O O8 0.968857 0.610859 0.981959
O O9 0.537296 0.347350 0.764441
O O10 0.673490 0.750000 0.371240
O O11 0.739114 0.883966 0.197816
#
# Coordination Sequence:
#
# PCOD9165408 Si02
#       5
#     4   4   4   4   4
#     4   9  19  35  63  93 124 158 216 272 326 370
#     4  10  22  39  68  98 129 161 222 279 333 380
#     4  10  21  38  66  95 123 168 223 281 317 390
#     4  11  25  42  62  92 133 180 220 265 335 406
#     4  10  23  39  63 100 132 170 210 274 336 397
#
# _framework density 22.589665
#
# number of rings (size 3 to 8) (size 9 to 14) (size 15 to 20)
#    0.000    2.000    0.000    3.600   16.800    0.800 
#    0.000    2.000    0.000    0.000    0.000    0.000 
#    0.000    0.000    0.000    0.000    0.000    0.000 
#
# Total GULP energy -111600.512336 kJ/mol
# GULP energy per Si atom -5580.025617 kJ/mol
# Density = 2.253825 g / cm^3
# Si number density = 22.589665 Si / 1000 Ang^3
#
#
#
# Elastic Constant Matrix: (Units=GPa)
#
#
# Indices 1 2 3 4 5 6 
#
# 1 112.5381 14.2328 49.6229 0.0000 23.2187 0.0000
# 2 14.2328 51.7585 16.3352 0.0000 -23.0859 0.0000
# 3 49.6229 16.3352 132.6190 0.0000 22.6918 0.0000
# 4 0.0000 0.0000 0.0000 1.4489 0.0000 1.9228
# 5 23.2187 -23.0859 22.6918 0.0000 43.7894 0.0000
# 6 0.0000 0.0000 0.0000 1.9228 0.0000 12.9234
#
#
#
# Elastic Compliance Matrix: (Units=1/GPa)
#
#
# Indices 1 2 3 4 5 6 
#
# 1 0.012649 -0.006781 -0.002346 0.000000 -0.009066 0.000000
# 2 -0.006781 0.033974 -0.005846 0.000000 0.024536 0.000000
# 3 -0.002346 -0.005846 0.010372 0.000000 -0.007213 0.000000
# 4 0.000000 0.000000 0.000000 0.859955 0.000000 -0.127949
# 5 -0.009066 0.024536 -0.007213 0.000000 0.044317 0.000000
# 6 0.000000 0.000000 0.000000 -0.127949 0.000000 0.096416
#
#
# Mechanical properties :
#
#
# Convention : Reuss Voigt Hill
#
# Bulk Modulus (GPa) = 36.97036 50.81083 43.89059
# Shear Modulus (GPa) = 4.55936 26.08065 15.32000
#
# Velocity S-wave (km/s) = 1.42222 3.40154 2.60703
# Velocity P-wave (km/s) = 4.37019 6.16190 5.34170
#
# Compressibility (1/GPa) = 0.02704869
#
# Stress axis : x y z
#
# Youngs Moduli (GPa) = 79.06009 29.43420 96.40905
#
# Poissons Ratio (x) = 0.19961 0.22620
# Poissons Ratio (y) = 0.53614 0.56356
# Poissons Ratio (z) = 0.18550 0.17206
#
# Static dielectric constant tensor:
#      x y z
#    x 2.017070 0.000000 0.184270 
#    y 0.000000 1.814060 0.000000 
#    z 0.184270 0.000000 2.098210 
# 
# From -- ./inp_files/1979.got.cif
#   From: 2010.05.17/outbox.cif.g08.bks.cpg/sg11_1_cif.got.tgz:1979.got - 2010.06.03 12:22:45.
