data_PCOD9165376
_publ_section_title
;
Structure prediction by ZEFSAII (Michael W. Deem and Ramdas Pophale) SiO2 
 PCOD9165376
Probable space group: P 21/M
;
_chemical_formula_sum "Si O2"
_cell_formula_units_Z 28
_cell_length_a 12.008554
_cell_length_b 14.844726
_cell_length_c 8.505809
_cell_angle_alpha 90.000000
_cell_angle_beta 65.839771
_cell_angle_gamma 90.000000
_cell_volume 1383.457802
_symmetry_space_group_name_H-M "P 21/M"
_symmetry_group_IT_number 11
_symmetry_cell_setting 'monoclinic'
loop_
_space_group_symop_operation_xyz
x,y,z
-x,1/2+y,-z
-x,-y,-z
x,1/2-y,z
loop_
_atom_site_type_symbol
_atom_site_label
_atom_site_fract_x
_atom_site_fract_y
_atom_site_fract_z
Si Si1 0.396814 0.986134 0.688887
Si Si2 0.779531 0.146818 0.723564
Si Si3 0.323743 0.149236 0.955470
Si Si4 0.035142 0.354150 0.751678
Si Si5 0.531953 0.099470 0.044556
Si Si6 0.166100 0.970247 0.606223
Si Si7 0.951851 0.856356 0.881036
O O1 0.271300 0.961690 0.675643
O O2 0.500000 0.000000 0.500000
O O3 0.373435 0.078051 0.800289
O O4 0.441503 0.911392 0.787237
O O5 0.782941 0.250000 0.660028
O O6 0.654866 0.133714 0.891088
O O7 0.786993 0.074287 0.580713
O O8 0.898439 0.134895 0.764189
O O9 0.314014 0.250000 0.892427
O O10 0.414725 0.152115 0.050240
O O11 0.187456 0.120923 0.082073
O O12 0.071503 0.250000 0.705448
O O13 0.124280 0.426005 0.619291
O O14 0.036017 0.371861 0.938446
O O15 0.500000 0.000000 0.000000
O O16 0.047749 0.915495 0.731942
O O17 0.972708 0.750000 0.839384
#
# Coordination Sequence:
#
# PCOD9165376 Si02
#       7
#     4   4   4   4   4   4   4
#     4  11  24  42  65  96 125 162 223 270 318 394
#     4  11  24  42  62  92 131 172 217 273 326 388
#     4  10  21  41  64  89 129 171 210 267 329 387
#     4  10  22  39  61  91 128 168 218 268 326 394
#     4  10  22  40  65  88 123 164 212 256 324 389
#     4  12  22  38  67  93 131 173 215 271 336 382
#     4  10  21  38  63  97 129 167 217 267 328 400
#
# _framework density 20.239142999999999
#
# number of rings (size 3 to 8) (size 9 to 14) (size 15 to 20)
#    0.000    1.429    1.429    4.286    4.000    0.000 
#    2.571    4.286    0.000    2.571    0.000    0.000 
#    0.000    0.000    0.000    0.000    0.000    0.000 
#
# Total GULP energy -156511.924068 kJ/mol
# GULP energy per Si atom -5589.711574 kJ/mol
# Density = 2.019308 g / cm^3
# Si number density = 20.239143 Si / 1000 Ang^3
#
#
#
# Elastic Constant Matrix: (Units=GPa)
#
#
# Indices 1 2 3 4 5 6 
#
# 1 161.7262 30.1587 62.6784 0.0000 2.6087 0.0000
# 2 30.1587 65.0033 41.7049 0.0000 -2.6230 0.0000
# 3 62.6784 41.7049 104.6340 0.0000 -7.6399 0.0000
# 4 0.0000 0.0000 0.0000 14.8540 0.0000 -3.0928
# 5 2.6087 -2.6230 -7.6399 0.0000 22.3486 0.0000
# 6 0.0000 0.0000 0.0000 -3.0928 0.0000 28.7346
#
#
#
# Elastic Compliance Matrix: (Units=1/GPa)
#
#
# Indices 1 2 3 4 5 6 
#
# 1 0.008245 -0.000859 -0.004794 0.000000 -0.002702 0.000000
# 2 -0.000859 0.020762 -0.007770 0.000000 -0.000119 0.000000
# 3 -0.004794 -0.007770 0.015897 0.000000 0.005082 0.000000
# 4 0.000000 0.000000 0.000000 0.068865 0.000000 0.007412
# 5 -0.002702 -0.000119 0.005082 0.000000 0.046784 0.000000
# 6 0.000000 0.000000 0.000000 0.007412 0.000000 0.035599
#
#
# Mechanical properties :
#
#
# Convention : Reuss Voigt Hill
#
# Bulk Modulus (GPa) = 55.37316 66.71639 61.04478
# Shear Modulus (GPa) = 21.83241 26.30887 24.07064
#
# Velocity S-wave (km/s) = 3.28795 3.60932 3.45238
# Velocity P-wave (km/s) = 6.46784 7.09966 6.79111
#
# Compressibility (1/GPa) = 0.01805929
#
# Stress axis : x y z
#
# Youngs Moduli (GPa) = 121.28652 48.16411 62.90578
#
# Poissons Ratio (x) = 0.04135 0.30157
# Poissons Ratio (y) = 0.10414 0.48877
# Poissons Ratio (z) = 0.58145 0.37423
#
# Static dielectric constant tensor:
#      x y z
#    x 1.725110 0.000000 0.017610 
#    y 0.000000 1.738190 0.000000 
#    z 0.017610 0.000000 1.675030 
# 
# From -- ./inp_files/17902.got.cif
#   From: 2010.05.17/outbox.cif.g08.bks.cpg/sg11_9_cif.got.tgz:17902.got - 2010.06.03 12:22:45.
