data_PCOD9165072
_publ_section_title
;
Structure prediction by ZEFSAII (Michael W. Deem and Ramdas Pophale) SiO2 
 PCOD9165072
Probable space group: P 21/M
;
_chemical_formula_sum "Si O2"
_cell_formula_units_Z 32
_cell_length_a 15.555897
_cell_length_b 14.104212
_cell_length_c 10.789754
_cell_angle_alpha 90.000000
_cell_angle_beta 38.679636
_cell_angle_gamma 90.000000
_cell_volume 1479.487466
_symmetry_space_group_name_H-M "P 21/M"
_symmetry_group_IT_number 11
_symmetry_cell_setting 'monoclinic'
loop_
_space_group_symop_operation_xyz
x,y,z
-x,1/2+y,-z
-x,-y,-z
x,1/2-y,z
loop_
_atom_site_type_symbol
_atom_site_label
_atom_site_fract_x
_atom_site_fract_y
_atom_site_fract_z
Si Si1 0.482757 0.138281 0.138724
Si Si2 0.016676 0.498153 0.334238
Si Si3 0.206845 0.860099 0.541550
Si Si4 0.695808 0.644133 0.416274
Si Si5 0.741192 0.448286 0.250677
Si Si6 0.007815 0.644181 0.149421
Si Si7 0.513240 0.859361 0.134622
Si Si8 0.670501 0.483248 0.074140
O O1 0.506526 0.250000 0.103651
O O2 0.378692 0.121288 0.369533
O O3 0.621580 0.085921 0.020681
O O4 0.427370 0.109870 0.066147
O O5 0.910622 0.427293 0.383966
O O6 0.992543 0.602670 0.303984
O O7 0.000000 0.500000 0.500000
O O8 0.175940 0.478356 0.120465
O O9 0.162006 0.750000 0.596065
O O10 0.256681 0.892276 0.622822
O O11 0.348882 0.866655 0.305839
O O12 0.650486 0.750000 0.426280
O O13 0.687567 0.554366 0.336331
O O14 0.858114 0.648773 0.260062
O O15 0.661933 0.424306 0.212202
O O16 0.898122 0.430358 0.029778
O O17 0.069449 0.750000 0.077001
O O18 0.547394 0.750000 0.121858
O O19 0.568627 0.928151 0.177727
#
# Coordination Sequence:
#
# PCOD9165072 Si02
#       8
#     4   4   4   4   4   4   4   4
#     4  10  22  41  65  93 128 170 219 266 325 394
#     4  11  25  41  64  99 131 167 216 278 330 388
#     4  11  24  43  68  93 128 180 222 266 331 396
#     4  10  21  37  65  93 121 168 218 268 320 384
#     4  11  23  42  62  93 134 169 218 268 321 393
#     4  10  22  40  64  92 125 171 219 266 319 387
#     4  10  23  43  66  94 129 173 220 267 327 394
#     4  11  25  38  64  95 130 168 209 270 330 377
#
# _framework density 21.629111000000002
#
# number of rings (size 3 to 8) (size 9 to 14) (size 15 to 20)
#    0.000    1.500    1.250    2.625    3.500    6.000 
#    0.000    2.500    0.000    0.000    0.000    0.000 
#    0.000    0.000    0.000    0.000    0.000    0.000 
#
# Total GULP energy -178519.100394 kJ/mol
# GULP energy per Si atom -5578.721887 kJ/mol
# Density = 2.157988 g / cm^3
# Si number density = 21.629111 Si / 1000 Ang^3
#
#
#
# Elastic Constant Matrix: (Units=GPa)
#
#
# Indices 1 2 3 4 5 6 
#
# 1 75.6215 30.5053 13.9500 0.0000 7.6319 0.0000
# 2 30.5053 82.5943 23.5134 0.0000 4.1156 0.0000
# 3 13.9500 23.5134 63.9214 0.0000 5.4036 0.0000
# 4 0.0000 0.0000 0.0000 26.3479 0.0000 1.9393
# 5 7.6319 4.1156 5.4036 0.0000 37.7442 0.0000
# 6 0.0000 0.0000 0.0000 1.9393 0.0000 14.6071
#
#
#
# Elastic Compliance Matrix: (Units=1/GPa)
#
#
# Indices 1 2 3 4 5 6 
#
# 1 0.015875 -0.005377 -0.001280 0.000000 -0.002440 0.000000
# 2 -0.005377 0.015367 -0.004484 0.000000 0.000054 0.000000
# 3 -0.001280 -0.004484 0.017724 0.000000 -0.001790 0.000000
# 4 0.000000 0.000000 0.000000 0.038328 0.000000 -0.005089
# 5 -0.002440 0.000054 -0.001790 0.000000 0.027238 0.000000
# 6 0.000000 0.000000 0.000000 -0.005089 0.000000 0.069135
#
#
# Mechanical properties :
#
#
# Convention : Reuss Voigt Hill
#
# Bulk Modulus (GPa) = 37.47548 39.78605 38.63077
# Shear Modulus (GPa) = 23.27250 26.01775 24.64512
#
# Velocity S-wave (km/s) = 3.28377 3.47205 3.37922
# Velocity P-wave (km/s) = 5.63397 5.87436 5.75542
#
# Compressibility (1/GPa) = 0.02668411
#
# Stress axis : x y z
#
# Youngs Moduli (GPa) = 62.99053 65.07357 56.41984
#
# Poissons Ratio (x) = 0.34992 0.07223
# Poissons Ratio (y) = 0.33872 0.25298
# Poissons Ratio (z) = 0.08064 0.29178
#
# Static dielectric constant tensor:
#      x y z
#    x 1.787400 0.000000 0.015440 
#    y 0.000000 1.812410 0.000000 
#    z 0.015440 0.000000 1.834070 
# 
# From -- ./inp_files/41675.got.cif
#   From: 2010.05.17/outbox.cif.g08.bks.cpg/sg11_21_cif.got.tgz:41675.got - 2010.06.03 12:22:45.
