data_PCOD9165055
_publ_section_title
;
Structure prediction by ZEFSAII (Michael W. Deem and Ramdas Pophale) SiO2 
 PCOD9165055
Probable space group: P 21/M
;
_chemical_formula_sum "Si O2"
_cell_formula_units_Z 32
_cell_length_a 15.336221
_cell_length_b 8.495137
_cell_length_c 11.862930
_cell_angle_alpha 90.000000
_cell_angle_beta 86.845421
_cell_angle_gamma 90.000000
_cell_volume 1543.199695
_symmetry_space_group_name_H-M "P 21/M"
_symmetry_group_IT_number 11
_symmetry_cell_setting 'monoclinic'
loop_
_space_group_symop_operation_xyz
x,y,z
-x,1/2+y,-z
-x,-y,-z
x,1/2-y,z
loop_
_atom_site_type_symbol
_atom_site_label
_atom_site_fract_x
_atom_site_fract_y
_atom_site_fract_z
Si Si1 0.813096 0.933347 0.910147
Si Si2 0.771416 0.435120 0.499560
Si Si3 0.370003 0.936563 0.072940
Si Si4 0.417026 0.940494 0.576728
Si Si5 0.076887 0.566905 0.916273
Si Si6 0.098499 0.064938 0.330397
Si Si7 0.086393 0.068090 0.669390
Si Si8 0.455240 0.939750 0.830331
O O1 0.824687 0.750000 0.938757
O O2 0.875491 0.969470 0.800344
O O3 0.714404 0.968381 0.883300
O O4 0.837621 0.041030 0.014013
O O5 0.765865 0.250000 0.525628
O O6 0.674936 0.492210 0.471876
O O7 0.818965 0.520912 0.599299
O O8 0.838916 0.463734 0.392725
O O9 0.354582 0.750000 0.081904
O O10 0.453091 0.982352 0.142328
O O11 0.392227 0.977141 0.940630
O O12 0.417369 0.750000 0.575081
O O13 0.424044 0.988564 0.708105
O O14 0.500000 0.000000 0.500000
O O15 0.062144 0.750000 0.891784
O O16 0.083999 0.470153 0.801589
O O17 0.000000 0.500000 0.000000
O O18 0.080265 0.250000 0.341988
O O19 0.010737 0.972381 0.367478
O O20 0.105789 0.250000 0.645790
O O21 0.465693 0.750000 0.829453
#
# Coordination Sequence:
#
# PCOD9165055 Si02
#       8
#     4   4   4   4   4   4   4   4
#     4  11  24  40  62  93 129 169 212 259 314 378
#     4  11  25  44  67  95 128 168 217 270 324 383
#     4  10  21  37  63  94 124 162 207 259 317 379
#     4  10  24  44  66  92 125 166 210 261 320 379
#     4  12  24  41  64  93 130 168 208 255 313 374
#     4  11  24  43  66  92 129 173 217 268 323 381
#     4  12  25  43  68  97 130 170 216 266 319 381
#     4   9  20  41  63  88 124 164 204 256 321 382
#
# _framework density 20.736136999999999
#
# number of rings (size 3 to 8) (size 9 to 14) (size 15 to 20)
#    0.000    1.250    1.250    4.125    3.500    3.500 
#    0.000    0.000    0.000    0.000    0.000    0.000 
#    0.000    0.000    0.000    0.000    0.000    0.000 
#
# Total GULP energy -178959.376574 kJ/mol
# GULP energy per Si atom -5592.480518 kJ/mol
# Density = 2.068894 g / cm^3
# Si number density = 20.736137 Si / 1000 Ang^3
#
#
#
# Elastic Constant Matrix: (Units=GPa)
#
#
# Indices 1 2 3 4 5 6 
#
# 1 96.7189 2.3048 9.1500 0.0000 3.3116 0.0000
# 2 2.3048 17.1861 -1.3633 0.0000 -2.3091 0.0000
# 3 9.1500 -1.3633 77.0132 0.0000 16.5314 0.0000
# 4 0.0000 0.0000 0.0000 30.3297 0.0000 0.5211
# 5 3.3116 -2.3091 16.5314 0.0000 23.9498 0.0000
# 6 0.0000 0.0000 0.0000 0.5211 0.0000 30.5385
#
#
#
# Elastic Compliance Matrix: (Units=1/GPa)
#
#
# Indices 1 2 3 4 5 6 
#
# 1 0.010510 -0.001611 -0.001094 0.000000 -0.000853 0.000000
# 2 -0.001611 0.059200 -0.000039 0.000000 0.005958 0.000000
# 3 -0.001094 -0.000039 0.015358 0.000000 -0.010453 0.000000
# 4 0.000000 0.000000 0.000000 0.032981 0.000000 -0.000563
# 5 -0.000853 0.005958 -0.010453 0.000000 0.049662 0.000000
# 6 0.000000 0.000000 0.000000 -0.000563 0.000000 0.032755
#
#
# Mechanical properties :
#
#
# Convention : Reuss Voigt Hill
#
# Bulk Modulus (GPa) = 12.56608 23.45568 18.01088
# Shear Modulus (GPa) = 21.50707 29.01869 25.26288
#
# Velocity S-wave (km/s) = 3.22402 3.74495 3.49421
# Velocity P-wave (km/s) = 4.46455 5.48047 4.99839
#
# Compressibility (1/GPa) = 0.07957933
#
# Stress axis : x y z
#
# Youngs Moduli (GPa) = 95.14423 16.89188 65.11280
#
# Poissons Ratio (x) = 0.02721 0.07124
# Poissons Ratio (y) = 0.15327 0.00257
# Poissons Ratio (z) = 0.10409 0.00067
#
# Static dielectric constant tensor:
#      x y z
#    x 1.740060 0.000000 0.018890 
#    y 0.000000 1.696810 0.000000 
#    z 0.018890 0.000000 1.749920 
# 
# From -- ./inp_files/38241.got.cif
#   From: 2010.05.17/outbox.cif.g08.bks.cpg/sg11_20_cif.got.tgz:38241.got - 2010.06.03 12:22:45.
