data_PCOD9165553
_publ_section_title
;
Structure prediction by ZEFSAII (Michael W. Deem and Ramdas Pophale) SiO2 
 PCOD9165553
Probable space group: P 21/M
;
_chemical_formula_sum "Si O2"
_cell_formula_units_Z 24
_cell_length_a 18.587651
_cell_length_b 7.538899
_cell_length_c 23.649758
_cell_angle_alpha 90.000000
_cell_angle_beta 16.588494
_cell_angle_gamma 90.000000
_cell_volume 946.147905
_symmetry_space_group_name_H-M "P 21/M"
_symmetry_group_IT_number 11
_symmetry_cell_setting 'monoclinic'
loop_
_space_group_symop_operation_xyz
x,y,z
-x,1/2+y,-z
-x,-y,-z
x,1/2-y,z
loop_
_atom_site_type_symbol
_atom_site_label
_atom_site_fract_x
_atom_site_fract_y
_atom_site_fract_z
Si Si1 0.904147 0.042548 0.317303
Si Si2 0.858529 0.042430 0.019706
Si Si3 0.603614 0.998676 0.103345
Si Si4 0.361721 0.961873 0.692510
Si Si5 0.880861 0.465461 0.465748
Si Si6 0.746255 0.961004 0.726548
O O1 0.982619 0.250000 0.256692
O O2 0.856081 0.993853 0.418682
O O3 0.647878 0.023709 0.475387
O O4 0.134777 0.931709 0.119434
O O5 0.792671 0.250000 0.060038
O O6 0.735909 0.932352 0.061767
O O7 0.744078 0.982806 0.165926
O O8 0.159080 0.029212 0.800123
O O9 0.312691 0.250000 0.230753
O O10 0.474360 0.941068 0.141055
O O11 0.356947 0.750000 0.694062
O O12 0.847552 0.250000 0.498991
O O13 0.657110 0.557194 0.669632
O O14 0.155883 0.509387 0.284500
O O15 0.000000 0.000000 0.500000
#
# Coordination Sequence:
#
# PCOD9165553 Si02
#       6
#     4   4   4   4   4   4
#     4  11  23  39  62  91 123 161 203 246 298 357
#     4  10  21  39  63  89 120 158 199 247 303 360
#     4  11  21  36  62  91 121 157 201 247 299 354
#     4  10  22  40  62  90 120 157 201 247 303 361
#     4   9  19  38  59  85 123 159 197 248 295 349
#     4   9  19  36  60  88 121 160 201 246 299 351
#
# _framework density 25.366012000000001
#
# number of rings (size 3 to 8) (size 9 to 14) (size 15 to 20)
#    0.000    2.000    1.667    1.500    0.000    5.333 
#    0.000    0.000    0.000    0.000    0.000    0.000 
#    0.000    0.000    0.000    0.000    0.000    0.000 
#
# Total GULP energy -133638.973953 kJ/mol
# GULP energy per Si atom -5568.290581 kJ/mol
# Density = 2.530828 g / cm^3
# Si number density = 25.366012 Si / 1000 Ang^3
#
#
#
# Elastic Constant Matrix: (Units=GPa)
#
#
# Indices 1 2 3 4 5 6 
#
# 1 153.6349 21.9605 67.9396 0.0000 -49.7595 0.0000
# 2 21.9605 114.0931 22.5226 0.0000 -7.1053 0.0000
# 3 67.9396 22.5226 156.2699 0.0000 -40.1733 0.0000
# 4 0.0000 0.0000 0.0000 -39.1828 0.0000 8.2661
# 5 -49.7595 -7.1053 -40.1733 0.0000 70.8025 0.0000
# 6 0.0000 0.0000 0.0000 8.2661 0.0000 2.7858
#
#
#
# Elastic Compliance Matrix: (Units=1/GPa)
#
#
# Indices 1 2 3 4 5 6 
#
# 1 0.009464 -0.000979 -0.002680 0.000000 0.005032 0.000000
# 2 -0.000979 0.009125 -0.000973 0.000000 -0.000324 0.000000
# 3 -0.002680 -0.000973 0.008424 0.000000 0.002799 0.000000
# 4 0.000000 0.000000 0.000000 -0.015696 0.000000 0.046574
# 5 0.005032 -0.000324 0.002799 0.000000 0.019216 0.000000
# 6 0.000000 0.000000 0.000000 0.046574 0.000000 0.220769
#
#
# Mechanical properties :
#
#
# Convention : Reuss Voigt Hill
#
# Bulk Modulus (GPa) = 56.33985 72.09369 64.21677
# Shear Modulus (GPa) = 18.76304 27.65277 23.20791
#
# Velocity S-wave (km/s) = 2.72268 3.30532 3.02805
# Velocity P-wave (km/s) = 5.66948 6.56125 6.13160
#
# Compressibility (1/GPa) = 0.01774943
#
# Stress axis : x y z
#
# Youngs Moduli (GPa) = 105.66618 109.58796 118.70971
#
# Poissons Ratio (x) = 0.10731 0.31810
# Poissons Ratio (y) = 0.10347 0.11549
# Poissons Ratio (z) = 0.28314 0.10661
#
# Static dielectric constant tensor:
#      x y z
#    x 1.994310 0.000000 0.002310 
#    y 0.000000 2.040200 0.000000 
#    z 0.002310 0.000000 1.956120 
# 
# From -- ./inp_files/69498.got.cif
#   From: 2010.05.17/outbox.cif.g08.bks.cpg/sg11_35_cif.got.tgz:69498.got - 2010.06.03 12:22:45.
