data_PCOD9165514
_publ_section_title
;
Structure prediction by ZEFSAII (Michael W. Deem and Ramdas Pophale) SiO2 
 PCOD9165514
Probable space group: P 21/M
;
_chemical_formula_sum "Si O2"
_cell_formula_units_Z 28
_cell_length_a 15.250326
_cell_length_b 16.836733
_cell_length_c 6.949037
_cell_angle_alpha 90.000000
_cell_angle_beta 125.520805
_cell_angle_gamma 90.000000
_cell_volume 1452.228918
_symmetry_space_group_name_H-M "P 21/M"
_symmetry_group_IT_number 11
_symmetry_cell_setting 'monoclinic'
loop_
_space_group_symop_operation_xyz
x,y,z
-x,1/2+y,-z
-x,-y,-z
x,1/2-y,z
loop_
_atom_site_type_symbol
_atom_site_label
_atom_site_fract_x
_atom_site_fract_y
_atom_site_fract_z
Si Si1 0.735445 0.343865 0.213929
Si Si2 0.679813 0.840951 0.977332
Si Si3 0.103123 0.568282 0.845444
Si Si4 0.606911 0.958707 0.554653
Si Si5 0.517193 0.842618 0.117366
Si Si6 0.194790 0.952123 0.365459
Si Si7 0.880903 0.921725 0.412335
O O1 0.747327 0.250000 0.211365
O O2 0.793405 0.387933 0.111616
O O3 0.789057 0.376847 0.476656
O O4 0.608654 0.363302 0.059360
O O5 0.682461 0.750000 0.910452
O O6 0.579539 0.849542 0.995490
O O7 0.788581 0.861003 0.233196
O O8 0.663254 0.904808 0.788954
O O9 0.100379 0.480743 0.745299
O O10 0.995667 0.610788 0.629123
O O11 0.113150 0.562510 0.086618
O O12 0.572278 0.900577 0.338760
O O13 0.500000 0.000000 0.500000
O O14 0.692450 0.022234 0.586324
O O15 0.525002 0.750000 0.188112
O O16 0.159492 0.022881 0.463371
#
# Coordination Sequence:
#
# PCOD9165514 Si02
#       7
#     4   4   4   4   4   4   4
#     4  10  23  40  59  87 122 159 199 246 304 362
#     4  11  23  40  60  88 125 162 200 248 305 363
#     4  10  21  39  63  88 116 156 199 253 296 356
#     4  12  23  35  62  91 120 157 208 247 295 359
#     4  10  22  40  58  83 123 159 192 245 302 355
#     4  11  21  37  62  90 119 154 202 251 302 352
#     4  10  21  39  62  87 119 155 202 243 303 358
#
# _framework density 19.280705999999999
#
# number of rings (size 3 to 8) (size 9 to 14) (size 15 to 20)
#    0.000    1.429    2.857    2.571    2.000    2.286 
#    0.000    3.571    0.000    0.000    0.000    0.000 
#    0.000    0.000    0.000    0.000    0.000    0.000 
#
# Total GULP energy -156466.544571 kJ/mol
# GULP energy per Si atom -5588.090878 kJ/mol
# Density = 1.923682 g / cm^3
# Si number density = 19.280706 Si / 1000 Ang^3
#
#
#
# Elastic Constant Matrix: (Units=GPa)
#
#
# Indices 1 2 3 4 5 6 
#
# 1 34.4109 -9.6565 -10.7836 0.0000 9.4005 0.0000
# 2 -9.6565 28.9282 15.2993 0.0000 -1.6278 0.0000
# 3 -10.7836 15.2993 90.8073 0.0000 -5.1703 0.0000
# 4 0.0000 0.0000 0.0000 -20.6847 0.0000 -66.9140
# 5 9.4005 -1.6278 -5.1703 0.0000 28.0540 0.0000
# 6 0.0000 0.0000 0.0000 -66.9140 0.0000 -83.8429
#
#
#
# Elastic Compliance Matrix: (Units=1/GPa)
#
#
# Indices 1 2 3 4 5 6 
#
# 1 0.035517 0.010252 0.001866 0.000000 -0.010962 0.000000
# 2 0.010252 0.040939 -0.005801 0.000000 -0.002129 0.000000
# 3 0.001866 -0.005801 0.012286 0.000000 0.001302 0.000000
# 4 0.000000 0.000000 0.000000 0.030564 0.000000 -0.024393
# 5 -0.010962 -0.002129 0.001302 0.000000 0.039435 0.000000
# 6 0.000000 0.000000 0.000000 -0.024393 0.000000 0.007540
#
#
# Mechanical properties :
#
#
# Convention : Reuss Voigt Hill
#
# Bulk Modulus (GPa) = 9.86428 15.98496 12.92462
# Shear Modulus (GPa) = 26.67541 -4.67559 10.99991
#
# Velocity S-wave (km/s) = 3.72362 -1.55893 2.39113
# Velocity P-wave (km/s) = 4.85946 2.25129 3.78699
#
# Compressibility (1/GPa) = 0.10137592
#
# Stress axis : x y z
#
# Youngs Moduli (GPa) = 28.15540 24.42664 81.39675
#
# Poissons Ratio (x) = -0.25042 -0.15191
# Poissons Ratio (y) = -0.28865 0.47220
# Poissons Ratio (z) = -0.05255 0.14170
#
# Static dielectric constant tensor:
#      x y z
#    x 1.682680 0.000000 0.017770 
#    y 0.000000 1.650050 0.000000 
#    z 0.017770 0.000000 1.663950 
# 
# From -- ./inp_files/6761.got.cif
#   From: 2010.05.17/outbox.cif.g08.bks.cpg/sg11_4_cif.got.tgz:6761.got - 2010.06.03 12:22:45.
