data_PCOD9165182
_publ_section_title
;
Structure prediction by ZEFSAII (Michael W. Deem and Ramdas Pophale) SiO2 
 PCOD9165182
Probable space group: P 21/M
;
_chemical_formula_sum "Si O2"
_cell_formula_units_Z 32
_cell_length_a 11.788102
_cell_length_b 24.521481
_cell_length_c 5.187024
_cell_angle_alpha 90.000000
_cell_angle_beta 81.920633
_cell_angle_gamma 90.000000
_cell_volume 1484.487828
_symmetry_space_group_name_H-M "P 21/M"
_symmetry_group_IT_number 11
_symmetry_cell_setting 'monoclinic'
loop_
_space_group_symop_operation_xyz
x,y,z
-x,1/2+y,-z
-x,-y,-z
x,1/2-y,z
loop_
_atom_site_type_symbol
_atom_site_label
_atom_site_fract_x
_atom_site_fract_y
_atom_site_fract_z
Si Si1 0.834907 0.190003 0.539559
Si Si2 0.256185 0.902197 0.728744
Si Si3 0.624759 0.189470 0.966395
Si Si4 0.010962 0.122878 0.719757
Si Si5 0.112866 0.518432 0.116384
Si Si6 0.516863 0.437563 0.567509
Si Si7 0.421710 0.118993 0.088704
Si Si8 0.157679 0.397171 0.187608
O O1 0.861416 0.250000 0.428982
O O2 0.839383 0.138981 0.347513
O O3 0.704530 0.190595 0.687733
O O4 0.922583 0.173142 0.737017
O O5 0.347763 0.923636 0.492013
O O6 0.325126 0.861111 0.891216
O O7 0.202683 0.952658 0.897373
O O8 0.637519 0.250000 0.079634
O O9 0.492188 0.173343 0.987513
O O10 0.099780 0.127549 0.458693
O O11 0.935100 0.067842 0.696519
O O12 0.080269 0.115744 0.962267
O O13 0.161732 0.463342 0.222629
O O14 0.000000 0.500000 0.000000
O O15 0.500000 0.500000 0.500000
O O16 0.466670 0.424449 0.863097
O O17 0.454456 0.401389 0.366023
O O18 0.286113 0.123600 0.110040
#
# Coordination Sequence:
#
# PCOD9165182 Si02
#       8
#     4   4   4   4   4   4   4   4
#     4  11  22  39  65  92 123 163 213 276 327 371
#     4  11  21  39  61  94 130 162 210 261 320 381
#     4  10  22  41  64  93 123 166 213 270 326 372
#     4  11  23  42  62  93 127 170 217 262 313 381
#     4  10  21  38  59  93 126 172 208 252 312 382
#     4  11  23  38  61  94 130 168 207 256 314 374
#     4  11  23  43  62  93 128 169 216 261 315 383
#     4  11  24  42  65  91 132 174 211 257 318 389
#
# _framework density 21.556253999999999
#
# number of rings (size 3 to 8) (size 9 to 14) (size 15 to 20)
#    0.000    1.250    2.500    4.125    0.000    4.000 
#    0.000    1.250    0.000    0.000    0.000    0.000 
#    0.000    0.000    0.000    0.000    0.000    0.000 
#
# Total GULP energy -178769.588034 kJ/mol
# GULP energy per Si atom -5586.549626 kJ/mol
# Density = 2.150719 g / cm^3
# Si number density = 21.556254 Si / 1000 Ang^3
#
#
#
# Elastic Constant Matrix: (Units=GPa)
#
#
# Indices 1 2 3 4 5 6 
#
# 1 104.1340 23.9628 27.2552 0.0000 -21.5408 0.0000
# 2 23.9628 75.2336 -4.2792 0.0000 0.3852 0.0000
# 3 27.2552 -4.2792 76.2308 0.0000 -12.8730 0.0000
# 4 0.0000 0.0000 0.0000 16.8066 0.0000 -1.2427
# 5 -21.5408 0.3852 -12.8730 0.0000 38.3916 0.0000
# 6 0.0000 0.0000 0.0000 -1.2427 0.0000 19.3690
#
#
#
# Elastic Compliance Matrix: (Units=1/GPa)
#
#
# Indices 1 2 3 4 5 6 
#
# 1 0.012836 -0.004336 -0.003826 0.000000 0.005963 0.000000
# 2 -0.004336 0.014800 0.002062 0.000000 -0.001890 0.000000
# 3 -0.003826 0.002062 0.015090 0.000000 0.002893 0.000000
# 4 0.000000 0.000000 0.000000 0.059784 0.000000 0.003836
# 5 0.005963 -0.001890 0.002893 0.000000 0.030382 0.000000
# 6 0.000000 0.000000 0.000000 0.003836 0.000000 0.051875
#
#
# Mechanical properties :
#
#
# Convention : Reuss Voigt Hill
#
# Bulk Modulus (GPa) = 32.75941 38.83066 35.79504
# Shear Modulus (GPa) = 24.13807 28.82411 26.48109
#
# Velocity S-wave (km/s) = 3.34993 3.66068 3.50875
# Velocity P-wave (km/s) = 5.49480 5.99335 5.74948
#
# Compressibility (1/GPa) = 0.03052558
#
# Stress axis : x y z
#
# Youngs Moduli (GPa) = 77.90848 67.56714 66.26865
#
# Poissons Ratio (x) = 0.29300 0.25352
# Poissons Ratio (y) = 0.33784 -0.13665
# Poissons Ratio (z) = 0.29806 -0.13933
#
# Static dielectric constant tensor:
#      x y z
#    x 1.845710 0.000000 0.044940 
#    y 0.000000 1.750230 0.000000 
#    z 0.044940 0.000000 1.829020 
# 
# From -- ./inp_files/5464.got.cif
#   From: 2010.05.17/outbox.cif.g08.bks.cpg/sg11_3_cif.got.tgz:5464.got - 2010.06.03 12:22:45.
