data_PCOD9165355
_publ_section_title
;
Structure prediction by ZEFSAII (Michael W. Deem and Ramdas Pophale) SiO2 
 PCOD9165355
Probable space group: P 21/M
;
_chemical_formula_sum "Si O2"
_cell_formula_units_Z 28
_cell_length_a 10.783059
_cell_length_b 22.050045
_cell_length_c 5.500692
_cell_angle_alpha 90.000000
_cell_angle_beta 120.922413
_cell_angle_gamma 90.000000
_cell_volume 1121.985409
_symmetry_space_group_name_H-M "P 21/M"
_symmetry_group_IT_number 11
_symmetry_cell_setting 'monoclinic'
loop_
_space_group_symop_operation_xyz
x,y,z
-x,1/2+y,-z
-x,-y,-z
x,1/2-y,z
loop_
_atom_site_type_symbol
_atom_site_label
_atom_site_fract_x
_atom_site_fract_y
_atom_site_fract_z
Si Si1 0.836671 0.986271 0.445142
Si Si2 0.198212 0.181530 0.118434
Si Si3 0.280070 0.603066 0.470583
Si Si4 0.993254 0.093826 0.086778
Si Si5 0.124218 0.816444 0.679499
Si Si6 0.580926 0.180057 0.745291
Si Si7 0.670148 0.636322 0.231535
O O1 0.734814 0.931082 0.249680
O O2 0.893440 0.959161 0.758619
O O3 0.737261 0.046077 0.364277
O O4 0.000000 0.000000 0.500000
O O5 0.151976 0.250000 0.109109
O O6 0.273751 0.159818 0.445780
O O7 0.061450 0.137746 0.956089
O O8 0.286626 0.174945 0.959867
O O9 0.208088 0.660286 0.530206
O O10 0.418039 0.631132 0.473511
O O11 0.168347 0.579309 0.150923
O O12 0.984020 0.133718 0.323690
O O13 0.058578 0.750000 0.582431
O O14 0.252125 0.812758 0.008758
O O15 0.528651 0.250000 0.644719
O O16 0.498911 0.147717 0.886218
#
# Coordination Sequence:
#
# PCOD9165355 Si02
#       7
#     4   4   4   4   4   4   4
#     4  11  22  43  68  96 137 176 223 277 341 413
#     4  11  23  41  66  99 134 174 221 280 342 407
#     4  11  22  39  66  93 128 180 223 273 338 398
#     4  10  22  39  63  97 129 172 221 278 342 400
#     4  10  21  38  62  95 128 168 222 278 336 396
#     4  10  23  43  64  93 130 175 229 284 335 397
#     4  11  26  44  67 100 133 181 227 275 342 400
#
# _framework density 24.955763000000001
#
# number of rings (size 3 to 8) (size 9 to 14) (size 15 to 20)
#    0.000    1.429    1.429    3.429    4.000    3.429 
#    0.000    0.714    0.000    0.000    0.000    0.000 
#    0.000    0.000    0.000    0.000    0.000    0.000 
#
# Total GULP energy -156155.880468 kJ/mol
# GULP energy per Si atom -5576.995731 kJ/mol
# Density = 2.489896 g / cm^3
# Si number density = 24.955763 Si / 1000 Ang^3
#
#
#
# Elastic Constant Matrix: (Units=GPa)
#
#
# Indices 1 2 3 4 5 6 
#
# 1 125.8583 49.9162 4.2506 0.0000 -34.2675 0.0000
# 2 49.9162 171.5136 3.1060 0.0000 -16.2198 0.0000
# 3 4.2506 3.1060 65.2087 0.0000 -11.3852 0.0000
# 4 0.0000 0.0000 0.0000 18.6825 0.0000 -3.3731
# 5 -34.2675 -16.2198 -11.3852 0.0000 46.4357 0.0000
# 6 0.0000 0.0000 0.0000 -3.3731 0.0000 35.8543
#
#
#
# Elastic Compliance Matrix: (Units=1/GPa)
#
#
# Indices 1 2 3 4 5 6 
#
# 1 0.010913 -0.002493 0.000691 0.000000 0.007352 0.000000
# 2 -0.002493 0.006600 -0.000074 0.000000 0.000447 0.000000
# 3 0.000691 -0.000074 0.016066 0.000000 0.004423 0.000000
# 4 0.000000 0.000000 0.000000 0.054451 0.000000 0.005123
# 5 0.007352 0.000447 0.004423 0.000000 0.028201 0.000000
# 6 0.000000 0.000000 0.000000 0.005123 0.000000 0.028373
#
#
# Mechanical properties :
#
#
# Convention : Reuss Voigt Hill
#
# Bulk Modulus (GPa) = 33.52733 53.01402 43.27067
# Shear Modulus (GPa) = 31.58622 40.54836 36.06729
#
# Velocity S-wave (km/s) = 3.56151 4.03527 3.80577
# Velocity P-wave (km/s) = 5.51147 6.55747 6.05710
#
# Compressibility (1/GPa) = 0.02982641
#
# Stress axis : x y z
#
# Youngs Moduli (GPa) = 91.63787 151.52249 62.24268
#
# Poissons Ratio (x) = 0.37778 -0.04301
# Poissons Ratio (y) = 0.22847 0.00459
# Poissons Ratio (z) = -0.06332 0.01117
#
# Static dielectric constant tensor:
#      x y z
#    x 2.055570 0.000000 0.064730 
#    y 0.000000 2.059070 0.000000 
#    z 0.064730 0.000000 2.096350 
# 
# From -- ./inp_files/5099.got.cif
#   From: 2010.05.17/outbox.cif.g08.bks.cpg/sg11_3_cif.got.tgz:5099.got - 2010.06.03 12:22:45.
