data_PCOD9165568
_publ_section_title
;
Structure prediction by ZEFSAII (Michael W. Deem and Ramdas Pophale) SiO2 
 PCOD9165568
Probable space group: P 21/M
;
_chemical_formula_sum "Si O2"
_cell_formula_units_Z 28
_cell_length_a 27.627616
_cell_length_b 8.858653
_cell_length_c 9.517167
_cell_angle_alpha 90.000000
_cell_angle_beta 37.807814
_cell_angle_gamma 90.000000
_cell_volume 1427.873580
_symmetry_space_group_name_H-M "P 21/M"
_symmetry_group_IT_number 11
_symmetry_cell_setting 'monoclinic'
loop_
_space_group_symop_operation_xyz
x,y,z
-x,1/2+y,-z
-x,-y,-z
x,1/2-y,z
loop_
_atom_site_type_symbol
_atom_site_label
_atom_site_fract_x
_atom_site_fract_y
_atom_site_fract_z
Si Si1 0.129056 0.068257 0.554113
Si Si2 0.163934 0.932054 0.779019
Si Si3 0.017793 0.932110 0.305628
Si Si4 0.562367 0.927706 0.251112
Si Si5 0.692960 0.430035 0.362419
Si Si6 0.522076 0.570751 0.802081
Si Si7 0.263309 0.071881 0.023558
O O1 0.129679 0.250000 0.568206
O O2 0.049069 0.025498 0.655604
O O3 0.141227 0.997970 0.679668
O O4 0.199422 0.025988 0.285935
O O5 0.161173 0.750000 0.775959
O O6 0.250979 0.974752 0.635533
O O7 0.100663 0.977351 0.044171
O O8 0.016599 0.750000 0.322419
O O9 0.000000 0.000000 0.500000
O O10 0.546182 0.750000 0.270897
O O11 0.650057 0.944823 0.108312
O O12 0.500000 0.000000 0.500000
O O13 0.545774 0.014605 0.146591
O O14 0.681789 0.250000 0.391027
O O15 0.607885 0.509226 0.559338
O O16 0.737332 0.477797 0.117912
O O17 0.525075 0.750000 0.799085
O O18 0.500000 0.500000 0.000000
O O19 0.251073 0.250000 0.019153
#
# Coordination Sequence:
#
# PCOD9165568 Si02
#       7
#     4   4   4   4   4   4   4
#     4  10  22  39  61  91 122 158 202 246 296 358
#     4  10  23  40  59  89 125 159 198 248 301 356
#     4  10  21  39  63  91 124 158 199 245 294 356
#     4  11  22  39  62  90 122 159 204 252 303 359
#     4  11  23  40  61  88 120 158 205 250 302 364
#     4  12  26  43  63  88 121 160 204 254 309 364
#     4  10  22  39  60  88 120 156 202 250 299 359
#
# _framework density 19.609580000000001
#
# number of rings (size 3 to 8) (size 9 to 14) (size 15 to 20)
#    0.000    1.429    1.429    3.429    2.000    3.429 
#    0.000    0.000    0.000    0.000    0.000    0.000 
#    0.000    0.000    0.000    0.000    0.000    0.000 
#
# Total GULP energy -156489.060658 kJ/mol
# GULP energy per Si atom -5588.895024 kJ/mol
# Density = 1.956495 g / cm^3
# Si number density = 19.609580 Si / 1000 Ang^3
#
#
#
# Elastic Constant Matrix: (Units=GPa)
#
#
# Indices 1 2 3 4 5 6 
#
# 1 100.7999 45.6430 13.2045 0.0000 18.3988 0.0000
# 2 45.6430 66.6522 18.2775 0.0000 -1.1708 0.0000
# 3 13.2045 18.2775 58.9837 0.0000 5.2647 0.0000
# 4 0.0000 0.0000 0.0000 31.8947 0.0000 11.3031
# 5 18.3988 -1.1708 5.2647 0.0000 38.3447 0.0000
# 6 0.0000 0.0000 0.0000 11.3031 0.0000 33.0181
#
#
#
# Elastic Compliance Matrix: (Units=1/GPa)
#
#
# Indices 1 2 3 4 5 6 
#
# 1 0.016711 -0.011774 0.000663 0.000000 -0.008469 0.000000
# 2 -0.011774 0.024748 -0.005674 0.000000 0.007184 0.000000
# 3 0.000663 -0.005674 0.018838 0.000000 -0.003078 0.000000
# 4 0.000000 0.000000 0.000000 0.035682 0.000000 -0.012215
# 5 -0.008469 0.007184 -0.003078 0.000000 0.030785 0.000000
# 6 0.000000 0.000000 0.000000 -0.012215 0.000000 0.034468
#
#
# Mechanical properties :
#
#
# Convention : Reuss Voigt Hill
#
# Bulk Modulus (GPa) = 37.41458 42.29840 39.85649
# Shear Modulus (GPa) = 24.54442 30.60555 27.57498
#
# Velocity S-wave (km/s) = 3.54171 3.95491 3.75400
# Velocity P-wave (km/s) = 5.98716 6.51707 6.25773
#
# Compressibility (1/GPa) = 0.02672755
#
# Stress axis : x y z
#
# Youngs Moduli (GPa) = 59.84056 40.40661 53.08323
#
# Poissons Ratio (x) = 0.47576 -0.03522
# Poissons Ratio (y) = 0.70458 0.30121
# Poissons Ratio (z) = -0.03970 0.22928
#
# Static dielectric constant tensor:
#      x y z
#    x 1.393250 0.000000 -0.080800 
#    y 0.000000 1.660160 0.000000 
#    z -0.080800 0.000000 1.658670 
# 
# From -- ./inp_files/28364.got.cif
#   From: 2010.05.17/outbox.cif.g08.bks.cpg/sg11_15_cif.got.tgz:28364.got - 2010.06.03 12:22:45.
