data_PCOD9165937
_publ_section_title
;
Structure prediction by ZEFSAII (Michael W. Deem and Ramdas Pophale) SiO2 
 PCOD9165937
Probable space group: P 21/M
;
_chemical_formula_sum "Si O2"
_cell_formula_units_Z 28
_cell_length_a 16.267698
_cell_length_b 16.916437
_cell_length_c 8.823844
_cell_angle_alpha 90.000000
_cell_angle_beta 147.688258
_cell_angle_gamma 90.000000
_cell_volume 1297.959969
_symmetry_space_group_name_H-M "P 21/M"
_symmetry_group_IT_number 11
_symmetry_cell_setting 'monoclinic'
loop_
_space_group_symop_operation_xyz
x,y,z
-x,1/2+y,-z
-x,-y,-z
x,1/2-y,z
loop_
_atom_site_type_symbol
_atom_site_label
_atom_site_fract_x
_atom_site_fract_y
_atom_site_fract_z
Si Si1 0.922914 0.845904 0.304036
Si Si2 0.541849 0.916205 0.214848
Si Si3 0.224411 0.654589 0.607188
Si Si4 0.371070 0.156922 0.325292
Si Si5 0.827640 0.844374 0.493293
Si Si6 0.573581 0.050549 0.476304
Si Si7 0.092780 0.921356 0.096425
O O1 0.921883 0.750000 0.298497
O O2 0.870067 0.868482 0.388716
O O3 0.093822 0.869719 0.525187
O O4 0.796617 0.874136 0.985830
O O5 0.578353 0.873489 0.432273
O O6 0.683937 0.894090 0.330078
O O7 0.534752 0.007224 0.258055
O O8 0.384849 0.883668 0.903282
O O9 0.237833 0.750000 0.624908
O O10 0.162212 0.622579 0.350812
O O11 0.361874 0.250000 0.320842
O O12 0.490002 0.133040 0.377854
O O13 0.794818 0.750000 0.447849
O O14 0.973822 0.865059 0.824878
O O15 0.757076 0.057199 0.769136
O O16 0.500000 0.000000 0.500000
O O17 0.000000 0.000000 0.000000
#
# Coordination Sequence:
#
# PCOD9165937 Si02
#       7
#     4   4   4   4   4   4   4
#     4   9  22  41  65 100 133 167 221 281 341 397
#     4  11  23  44  69  98 139 178 222 282 357 408
#     4  11  25  44  70 104 137 175 228 286 336 406
#     4  10  21  41  70  96 132 181 230 283 340 408
#     4  11  23  42  70  99 133 178 230 284 340 406
#     4  10  25  43  67  98 135 175 228 279 338 411
#     4  12  26  46  66  95 138 180 228 272 343 404
#
# _framework density 21.572313999999999
#
# number of rings (size 3 to 8) (size 9 to 14) (size 15 to 20)
#    0.000    1.429    1.429    2.571    8.000    4.000 
#    0.000    1.429    0.000    0.000    0.000    0.000 
#    0.000    0.000    0.000    0.000    0.000    0.000 
#
# Total GULP energy -156595.170349 kJ/mol
# GULP energy per Si atom -5592.684655 kJ/mol
# Density = 2.152321 g / cm^3
# Si number density = 21.572314 Si / 1000 Ang^3
#
#
#
# Elastic Constant Matrix: (Units=GPa)
#
#
# Indices 1 2 3 4 5 6 
#
# 1 140.0444 34.9600 76.4461 0.0000 19.2399 0.0000
# 2 34.9600 32.9514 19.9864 0.0000 -8.9298 0.0000
# 3 76.4461 19.9864 178.4393 0.0000 4.3066 0.0000
# 4 0.0000 0.0000 0.0000 32.4099 0.0000 -4.2276
# 5 19.2399 -8.9298 4.3066 0.0000 45.8734 0.0000
# 6 0.0000 0.0000 0.0000 -4.2276 0.0000 39.0195
#
#
#
# Elastic Compliance Matrix: (Units=1/GPa)
#
#
# Indices 1 2 3 4 5 6 
#
# 1 0.014397 -0.014996 -0.004282 0.000000 -0.008555 0.000000
# 2 -0.014996 0.050369 0.000395 0.000000 0.016057 0.000000
# 3 -0.004282 0.000395 0.007366 0.000000 0.001181 0.000000
# 4 0.000000 0.000000 0.000000 0.031297 0.000000 0.003391
# 5 -0.008555 0.016057 0.001181 0.000000 0.028402 0.000000
# 6 0.000000 0.000000 0.000000 0.003391 0.000000 0.025996
#
#
# Mechanical properties :
#
#
# Convention : Reuss Voigt Hill
#
# Bulk Modulus (GPa) = 29.09741 68.24669 48.67205
# Shear Modulus (GPa) = 24.14913 38.13004 31.13959
#
# Velocity S-wave (km/s) = 3.34945 4.20878 3.80346
# Velocity P-wave (km/s) = 5.33629 7.43797 6.47300
#
# Compressibility (1/GPa) = 0.03436733
#
# Stress axis : x y z
#
# Youngs Moduli (GPa) = 69.46073 19.85332 135.76442
#
# Poissons Ratio (x) = 0.29771 0.58129
# Poissons Ratio (y) = 1.04161 -0.05364
# Poissons Ratio (z) = 0.29741 -0.00784
#
# Static dielectric constant tensor:
#      x y z
#    x 1.786850 0.000000 0.004290 
#    y 0.000000 1.859420 0.000000 
#    z 0.004290 0.000000 1.754840 
# 
# From -- ./inp_files/23221.got.cif
#   From: 2010.05.17/outbox.cif.g08.bks.cpg/sg11_12_cif.got.tgz:23221.got - 2010.06.03 12:22:45.
