data_PCOD9165773
_publ_section_title
;
Structure prediction by ZEFSAII (Michael W. Deem and Ramdas Pophale) SiO2 
 PCOD9165773
Probable space group: P 21/M
;
_chemical_formula_sum "Si O2"
_cell_formula_units_Z 18
_cell_length_a 8.969292
_cell_length_b 15.808454
_cell_length_c 7.056904
_cell_angle_alpha 90.000000
_cell_angle_beta 126.190765
_cell_angle_gamma 90.000000
_cell_volume 807.542098
_symmetry_space_group_name_H-M "P 21/M"
_symmetry_group_IT_number 11
_symmetry_cell_setting 'monoclinic'
loop_
_space_group_symop_operation_xyz
x,y,z
-x,1/2+y,-z
-x,-y,-z
x,1/2-y,z
loop_
_atom_site_type_symbol
_atom_site_label
_atom_site_fract_x
_atom_site_fract_y
_atom_site_fract_z
Si Si1 0.941745 0.750000 0.682977
Si Si2 0.415976 0.414465 0.852207
Si Si3 0.093827 0.429285 0.330828
Si Si4 0.501116 0.250000 0.711358
Si Si5 0.145067 0.750000 0.241150
Si Si6 0.899280 0.598753 0.113758
O O1 0.987219 0.842842 0.640216
O O2 0.715767 0.750000 0.511784
O O3 0.044037 0.750000 0.960360
O O4 0.285016 0.443716 0.580746
O O5 0.534020 0.336409 0.855755
O O6 0.285448 0.374735 0.917508
O O7 0.500000 0.500000 0.000000
O O8 0.959075 0.508207 0.240748
O O9 0.128332 0.413179 0.132635
O O10 0.638759 0.250000 0.637203
O O11 0.062798 0.665489 0.269048
#
# Coordination Sequence:
#
# PCOD9165773 Si02
#       6
#     2   4   4   2   2   4
#     4   8  18  38  62  84 124 164 196 258 308 358
#     4  11  24  40  64  96 130 161 208 268 317 373
#     4   9  20  39  65  89 126 164 209 252 316 370
#     4  10  23  43  62  92 127 164 215 262 315 378
#     4  10  21  41  68  88 125 174 213 252 319 378
#     4  10  21  40  65  91 124 169 210 254 316 379
#
# _framework density 22.289857999999999
#
# number of rings (size 3 to 8) (size 9 to 14) (size 15 to 20)
#    0.000    2.222    0.000    1.333    9.333    0.889 
#    8.000    1.111    0.000    0.000    0.000    0.000 
#    0.000    0.000    0.000    0.000    0.000    0.000 
#
# Total GULP energy -100409.980167 kJ/mol
# GULP energy per Si atom -5578.332231 kJ/mol
# Density = 2.223913 g / cm^3
# Si number density = 22.289858 Si / 1000 Ang^3
#
#
#
# Elastic Constant Matrix: (Units=GPa)
#
#
# Indices 1 2 3 4 5 6 
#
# 1 103.8699 12.9923 -3.6595 0.0000 -7.4697 0.0000
# 2 12.9923 139.3624 33.7628 0.0000 3.8924 0.0000
# 3 -3.6595 33.7628 81.5765 0.0000 -15.4414 0.0000
# 4 0.0000 0.0000 0.0000 17.2576 0.0000 18.1031
# 5 -7.4697 3.8924 -15.4414 0.0000 23.1042 0.0000
# 6 0.0000 0.0000 0.0000 18.1031 0.0000 18.5866
#
#
#
# Elastic Compliance Matrix: (Units=1/GPa)
#
#
# Indices 1 2 3 4 5 6 
#
# 1 0.010256 -0.001593 0.002058 0.000000 0.004960 0.000000
# 2 -0.001593 0.008571 -0.004567 0.000000 -0.005011 0.000000
# 3 0.002058 -0.004567 0.016615 0.000000 0.012539 0.000000
# 4 0.000000 0.000000 0.000000 -2.668819 0.000000 2.599405
# 5 0.004960 -0.005011 0.012539 0.000000 0.054110 0.000000
# 6 0.000000 0.000000 0.000000 2.599405 0.000000 -2.477993
#
#
# Mechanical properties :
#
#
# Convention : Reuss Voigt Hill
#
# Bulk Modulus (GPa) = 36.71530 45.66666 41.19098
# Shear Modulus (GPa) = -0.99207 30.57056 14.78925
#
# Velocity S-wave (km/s) = -0.66786 3.70740 2.57864
# Velocity P-wave (km/s) = 3.98908 6.23366 5.23313
#
# Compressibility (1/GPa) = 0.02723660
#
# Stress axis : x y z
#
# Youngs Moduli (GPa) = 97.50451 116.67879 60.18826
#
# Poissons Ratio (x) = 0.18591 -0.12389
# Poissons Ratio (y) = 0.15536 0.27489
# Poissons Ratio (z) = -0.20070 0.53290
#
# Static dielectric constant tensor:
#      x y z
#    x 1.838930 0.000000 -0.022960 
#    y 0.000000 1.866710 0.000000 
#    z -0.022960 0.000000 1.815650 
# 
# From -- ./inp_files/12788.got.cif
#   From: 2010.05.17/outbox.cif.g08.bks.cpg/sg11_7_cif.got.tgz:12788.got - 2010.06.03 12:22:45.
