data_PCOD9165249
_publ_section_title
;
Structure prediction by ZEFSAII (Michael W. Deem and Ramdas Pophale) SiO2 
 PCOD9165249
Probable space group: P 21/M
;
_chemical_formula_sum "Si O2"
_cell_formula_units_Z 28
_cell_length_a 9.291447
_cell_length_b 9.382154
_cell_length_c 27.228726
_cell_angle_alpha 90.000000
_cell_angle_beta 39.192911
_cell_angle_gamma 90.000000
_cell_volume 1499.976843
_symmetry_space_group_name_H-M "P 21/M"
_symmetry_group_IT_number 11
_symmetry_cell_setting 'monoclinic'
loop_
_space_group_symop_operation_xyz
x,y,z
-x,1/2+y,-z
-x,-y,-z
x,1/2-y,z
loop_
_atom_site_type_symbol
_atom_site_label
_atom_site_fract_x
_atom_site_fract_y
_atom_site_fract_z
Si Si1 0.787560 0.421201 0.657430
Si Si2 0.684907 0.919295 0.484228
Si Si3 0.464208 0.420063 0.364587
Si Si4 0.364006 0.581718 0.193854
Si Si5 0.941734 0.919783 0.235173
Si Si6 0.786168 0.087342 0.038112
Si Si7 0.729066 0.411338 0.938716
O O1 0.777262 0.250000 0.651074
O O2 0.680645 0.504664 0.640001
O O3 0.655142 0.450375 0.743275
O O4 0.052920 0.459143 0.595395
O O5 0.661524 0.750000 0.481143
O O6 0.641344 0.944758 0.553525
O O7 0.500000 0.000000 0.500000
O O8 0.474605 0.250000 0.353653
O O9 0.714284 0.489709 0.299444
O O10 0.418040 0.750000 0.173999
O O11 0.554731 0.489299 0.116388
O O12 0.119045 0.559039 0.232865
O O13 0.887753 0.750000 0.246780
O O14 0.080316 0.962586 0.149498
O O15 0.786863 0.250000 0.055970
O O16 0.808846 0.090698 0.973410
O O17 0.000000 0.000000 0.000000
O O18 0.674343 0.250000 0.937045
O O19 0.500000 0.500000 0.000000
#
# Coordination Sequence:
#
# PCOD9165249 Si02
#       7
#     4   4   4   4   4   4   4
#     4  10  22  40  62  87 119 159 199 238 288 354
#     4  10  22  41  65  92 121 156 198 240 288 348
#     4  11  24  39  59  92 125 154 194 244 293 342
#     4  10  21  39  62  86 113 152 201 245 292 352
#     4  10  21  39  62  86 116 157 199 240 294 357
#     4  11  24  39  58  86 119 155 197 245 298 353
#     4  10  21  38  61  86 113 152 199 245 295 351
#
# _framework density 18.666954
#
# number of rings (size 3 to 8) (size 9 to 14) (size 15 to 20)
#    0.000    1.714    1.429    2.143    2.000    5.143 
#    0.000    0.000    0.000    0.000    0.000    0.000 
#    0.000    0.000    0.000    0.000    0.000    0.000 
#
# Total GULP energy -156398.878912 kJ/mol
# GULP energy per Si atom -5585.674247 kJ/mol
# Density = 1.862447 g / cm^3
# Si number density = 18.666954 Si / 1000 Ang^3
#
#
#
# Elastic Constant Matrix: (Units=GPa)
#
#
# Indices 1 2 3 4 5 6 
#
# 1 97.9837 45.6810 16.2366 0.0000 6.4529 0.0000
# 2 45.6810 55.8685 25.3377 0.0000 4.0618 0.0000
# 3 16.2366 25.3377 63.4662 0.0000 7.8937 0.0000
# 4 0.0000 0.0000 0.0000 30.2678 0.0000 -2.8942
# 5 6.4529 4.0618 7.8937 0.0000 27.9674 0.0000
# 6 0.0000 0.0000 0.0000 -2.8942 0.0000 36.7828
#
#
#
# Elastic Compliance Matrix: (Units=1/GPa)
#
#
# Indices 1 2 3 4 5 6 
#
# 1 0.016736 -0.014293 0.001707 0.000000 -0.002267 0.000000
# 2 -0.014293 0.034079 -0.010098 0.000000 0.001199 0.000000
# 3 0.001707 -0.010098 0.019917 0.000000 -0.004549 0.000000
# 4 0.000000 0.000000 0.000000 0.033289 0.000000 0.002619
# 5 -0.002267 0.001199 -0.004549 0.000000 0.037389 0.000000
# 6 0.000000 0.000000 0.000000 0.002619 0.000000 0.027393
#
#
# Mechanical properties :
#
#
# Convention : Reuss Voigt Hill
#
# Bulk Modulus (GPa) = 39.42767 43.53655 41.48211
# Shear Modulus (GPa) = 22.45930 27.67447 25.06688
#
# Velocity S-wave (km/s) = 3.47242 3.85455 3.66846
# Velocity P-wave (km/s) = 6.10282 6.57142 6.34145
#
# Compressibility (1/GPa) = 0.02536290
#
# Stress axis : x y z
#
# Youngs Moduli (GPa) = 59.75131 29.34387 50.20884
#
# Poissons Ratio (x) = 0.41943 -0.08570
# Poissons Ratio (y) = 0.85405 0.50699
# Poissons Ratio (z) = -0.10199 0.29630
#
# Static dielectric constant tensor:
#      x y z
#    x 1.599520 0.000000 0.005000 
#    y 0.000000 1.631840 0.000000 
#    z 0.005000 0.000000 1.626490 
# 
# From -- ./inp_files/63361.got.cif
#   From: 2010.05.17/outbox.cif.g08.bks.cpg/sg11_32_cif.got.tgz:63361.got - 2010.06.03 12:22:45.
