data_PCOD9165756
_publ_section_title
;
Structure prediction by ZEFSAII (Michael W. Deem and Ramdas Pophale) SiO2 
 PCOD9165756
Probable space group: P 21/M
;
_chemical_formula_sum "Si O2"
_cell_formula_units_Z 24
_cell_length_a 15.386963
_cell_length_b 8.683441
_cell_length_c 10.423228
_cell_angle_alpha 90.000000
_cell_angle_beta 68.359775
_cell_angle_gamma 90.000000
_cell_volume 1294.507948
_symmetry_space_group_name_H-M "P 21/M"
_symmetry_group_IT_number 11
_symmetry_cell_setting 'monoclinic'
loop_
_space_group_symop_operation_xyz
x,y,z
-x,1/2+y,-z
-x,-y,-z
x,1/2-y,z
loop_
_atom_site_type_symbol
_atom_site_label
_atom_site_fract_x
_atom_site_fract_y
_atom_site_fract_z
Si Si1 0.037446 0.566022 0.845985
Si Si2 0.461675 0.064490 0.153407
Si Si3 0.762995 0.934466 0.341177
Si Si4 0.431499 0.935450 0.646836
Si Si5 0.252869 0.435311 0.346302
Si Si6 0.062281 0.566424 0.349747
O O1 0.034257 0.750000 0.849076
O O2 0.142931 0.509190 0.763622
O O3 0.975713 0.502870 0.761855
O O4 0.000000 0.500000 0.000000
O O5 0.462305 0.250000 0.148078
O O6 0.526142 0.018398 0.238658
O O7 0.354811 0.017398 0.240330
O O8 0.500000 0.000000 0.000000
O O9 0.767466 0.750000 0.325002
O O10 0.754469 0.969043 0.497868
O O11 0.671273 0.998745 0.321683
O O12 0.430352 0.750000 0.640199
O O13 0.500000 0.000000 0.500000
O O14 0.243339 0.250000 0.336903
O O15 0.168515 0.517316 0.319382
O O16 0.052623 0.750000 0.352628
O O17 0.000000 0.500000 0.500000
#
# Coordination Sequence:
#
# PCOD9165756 Si02
#       6
#     4   4   4   4   4   4
#     4  12  26  45  67  95 130 169 211 264 324 382
#     4  10  23  42  62  90 127 165 205 259 313 369
#     4  11  22  40  66  95 128 167 211 262 318 380
#     4  11  22  39  63  93 127 165 214 265 317 379
#     4  10  21  40  64  91 127 167 213 262 312 375
#     4  12  24  40  65  97 129 167 214 263 316 380
#
# _framework density 18.539864000000001
#
# number of rings (size 3 to 8) (size 9 to 14) (size 15 to 20)
#    0.000    1.000    3.333    4.000    0.000    4.000 
#    0.000    3.333    0.000    0.000    0.000    0.000 
#    0.000    0.000    0.000    0.000    0.000    0.000 
#
# Total GULP energy -134257.564909 kJ/mol
# GULP energy per Si atom -5594.065205 kJ/mol
# Density = 1.849767 g / cm^3
# Si number density = 18.539864 Si / 1000 Ang^3
#
#
#
# Elastic Constant Matrix: (Units=GPa)
#
#
# Indices 1 2 3 4 5 6 
#
# 1 212.4913 87.1297 116.3384 0.0000 6.2566 0.0000
# 2 87.1297 110.2076 81.0946 0.0000 1.6179 0.0000
# 3 116.3384 81.0946 192.8314 0.0000 2.1135 0.0000
# 4 0.0000 0.0000 0.0000 35.0335 0.0000 -1.3444
# 5 6.2566 1.6179 2.1135 0.0000 35.3155 0.0000
# 6 0.0000 0.0000 0.0000 -1.3444 0.0000 37.7280
#
#
#
# Elastic Compliance Matrix: (Units=1/GPa)
#
#
# Indices 1 2 3 4 5 6 
#
# 1 0.008162 -0.004087 -0.003194 0.000000 -0.001068 0.000000
# 2 -0.004087 0.015189 -0.003925 0.000000 0.000263 0.000000
# 3 -0.003194 -0.003925 0.008761 0.000000 0.000221 0.000000
# 4 0.000000 0.000000 0.000000 0.028583 0.000000 0.001019
# 5 -0.001068 0.000263 0.000221 0.000000 0.028480 0.000000
# 6 0.000000 0.000000 0.000000 0.001019 0.000000 0.026542
#
#
# Mechanical properties :
#
#
# Convention : Reuss Voigt Hill
#
# Bulk Modulus (GPa) = 103.08539 120.51731 111.80135
# Shear Modulus (GPa) = 35.37022 37.01323 36.19172
#
# Velocity S-wave (km/s) = 4.37257 4.47297 4.42305
# Velocity P-wave (km/s) = 9.01195 9.58239 9.30154
#
# Compressibility (1/GPa) = 0.00970070
#
# Stress axis : x y z
#
# Youngs Moduli (GPa) = 122.52024 65.83635 114.14402
#
# Poissons Ratio (x) = 0.26908 0.36454
# Poissons Ratio (y) = 0.50075 0.44800
# Poissons Ratio (z) = 0.39130 0.25840
#
# Static dielectric constant tensor:
#      x y z
#    x 1.621260 0.000000 -0.000050 
#    y 0.000000 1.623180 0.000000 
#    z -0.000050 0.000000 1.604570 
# 
# From -- ./inp_files/20344.got.cif
#   From: 2010.05.17/outbox.cif.g08.bks.cpg/sg11_11_cif.got.tgz:20344.got - 2010.06.03 12:22:45.
