data_PCOD9165029
_publ_section_title
;
Structure prediction by ZEFSAII (Michael W. Deem and Ramdas Pophale) SiO2 
 PCOD9165029
Probable space group: P 21/M
;
_chemical_formula_sum "Si O2"
_cell_formula_units_Z 32
_cell_length_a 6.850980
_cell_length_b 17.779745
_cell_length_c 14.868205
_cell_angle_alpha 90.000000
_cell_angle_beta 91.743495
_cell_angle_gamma 90.000000
_cell_volume 1810.237951
_symmetry_space_group_name_H-M "P 21/M"
_symmetry_group_IT_number 11
_symmetry_cell_setting 'monoclinic'
loop_
_space_group_symop_operation_xyz
x,y,z
-x,1/2+y,-z
-x,-y,-z
x,1/2-y,z
loop_
_atom_site_type_symbol
_atom_site_label
_atom_site_fract_x
_atom_site_fract_y
_atom_site_fract_z
Si Si1 0.898400 0.457343 0.082285
Si Si2 0.406425 0.078589 0.368760
Si Si3 0.310073 0.664192 0.500019
Si Si4 0.911098 0.582574 0.486226
Si Si5 0.446971 0.090212 0.646579
Si Si6 0.562479 0.935118 0.147717
Si Si7 0.304440 0.082493 0.163358
Si Si8 0.565643 0.160730 0.022556
O O1 0.761200 0.518730 0.129878
O O2 0.073438 0.425282 0.145707
O O3 0.757142 0.389255 0.049205
O O4 0.000000 0.500000 0.000000
O O5 0.593005 0.115138 0.419435
O O6 0.224416 0.098258 0.429459
O O7 0.366231 0.101021 0.265928
O O8 0.444593 0.989225 0.370087
O O9 0.323827 0.750000 0.526521
O O10 0.432819 0.649398 0.410787
O O11 0.089189 0.639313 0.481327
O O12 0.768017 0.585009 0.398940
O O13 0.000000 0.500000 0.500000
O O14 0.438072 0.099871 0.753013
O O15 0.517871 0.873954 0.071211
O O16 0.397469 0.000466 0.142242
O O17 0.405201 0.140307 0.096310
O O18 0.601370 0.250000 0.018492
#
# Coordination Sequence:
#
# PCOD9165029 Si02
#       8
#     4   4   4   4   4   4   4   4
#     4  11  19  38  63  88 114 152 201 246 289 343
#     4  10  21  37  62  87 111 153 195 243 291 350
#     4  11  23  39  57  83 123 158 190 243 301 347
#     4  11  19  35  60  89 115 148 200 241 286 344
#     4  10  21  37  62  87 114 151 197 242 289 347
#     4  10  21  37  63  88 112 154 197 243 289 350
#     4  10  21  38  62  87 116 150 198 243 293 347
#     4  11  23  39  57  86 123 158 193 241 300 355
#
# _framework density 17.677233999999999
#
# number of rings (size 3 to 8) (size 9 to 14) (size 15 to 20)
#    0.000    1.500    5.000    1.500    1.750    4.500 
#    0.000    0.000    0.000    0.000    0.000    0.000 
#    0.000    0.000    0.000    0.000    0.000    0.000 
#
# Total GULP energy -178622.482522 kJ/mol
# GULP energy per Si atom -5581.952579 kJ/mol
# Density = 1.763700 g / cm^3
# Si number density = 17.677234 Si / 1000 Ang^3
#
#
#
# Elastic Constant Matrix: (Units=GPa)
#
#
# Indices 1 2 3 4 5 6 
#
# 1 106.6493 6.5819 34.8672 0.0000 11.6853 0.0000
# 2 6.5819 51.1710 22.5823 0.0000 0.6818 0.0000
# 3 34.8672 22.5823 115.6062 0.0000 12.7155 0.0000
# 4 0.0000 0.0000 0.0000 2.0550 0.0000 0.2157
# 5 11.6853 0.6818 12.7155 0.0000 11.8760 0.0000
# 6 0.0000 0.0000 0.0000 0.2157 0.0000 16.4282
#
#
#
# Elastic Compliance Matrix: (Units=1/GPa)
#
#
# Indices 1 2 3 4 5 6 
#
# 1 0.011083 -0.000268 -0.002372 0.000000 -0.008350 0.000000
# 2 -0.000268 0.021535 -0.004555 0.000000 0.003904 0.000000
# 3 -0.002372 -0.004555 0.011301 0.000000 -0.009504 0.000000
# 4 0.000000 0.000000 0.000000 0.487292 0.000000 -0.006397
# 5 -0.008350 0.003904 -0.009504 0.000000 0.102372 0.000000
# 6 0.000000 0.000000 0.000000 -0.006397 0.000000 0.060955
#
#
# Mechanical properties :
#
#
# Convention : Reuss Voigt Hill
#
# Bulk Modulus (GPa) = 33.86478 44.60994 39.23736
# Shear Modulus (GPa) = 6.95632 20.03150 13.49391
#
# Velocity S-wave (km/s) = 1.98588 3.36993 2.76588
# Velocity P-wave (km/s) = 4.94542 6.35865 5.69604
#
# Compressibility (1/GPa) = 0.02952921
#
# Stress axis : x y z
#
# Youngs Moduli (GPa) = 90.22429 46.43595 88.49030
#
# Poissons Ratio (x) = 0.01242 0.20991
# Poissons Ratio (y) = 0.02414 0.40311
# Poissons Ratio (z) = 0.21402 0.21153
#
# Static dielectric constant tensor:
#      x y z
#    x 1.600460 0.000000 0.000590 
#    y 0.000000 1.578040 0.000000 
#    z 0.000590 0.000000 1.602200 
# 
# From -- ./inp_files/46042.got.cif
#   From: 2010.05.17/outbox.cif.g08.bks.cpg/sg11_24_cif.got.tgz:46042.got - 2010.06.03 12:22:45.
