data_PCOD9165202
_publ_section_title
;
Structure prediction by ZEFSAII (Michael W. Deem and Ramdas Pophale) SiO2 
 PCOD9165202
Probable space group: P 21/M
;
_chemical_formula_sum "Si O2"
_cell_formula_units_Z 24
_cell_length_a 17.478931
_cell_length_b 7.848873
_cell_length_c 6.696476
_cell_angle_alpha 90.000000
_cell_angle_beta 90.915348
_cell_angle_gamma 90.000000
_cell_volume 918.571702
_symmetry_space_group_name_H-M "P 21/M"
_symmetry_group_IT_number 11
_symmetry_cell_setting 'monoclinic'
loop_
_space_group_symop_operation_xyz
x,y,z
-x,1/2+y,-z
-x,-y,-z
x,1/2-y,z
loop_
_atom_site_type_symbol
_atom_site_label
_atom_site_fract_x
_atom_site_fract_y
_atom_site_fract_z
Si Si1 0.692632 0.060921 0.565603
Si Si2 0.982391 0.045054 0.231424
Si Si3 0.141625 0.050430 0.354724
Si Si4 0.176121 0.955523 0.900279
Si Si5 0.443161 0.064181 0.666533
Si Si6 0.341676 0.044833 0.988922
O O1 0.671326 0.250000 0.496261
O O2 0.783860 0.039519 0.552421
O O3 0.638299 0.931223 0.450509
O O4 0.670878 0.039467 0.797549
O O5 0.985413 0.250000 0.250337
O O6 0.893737 0.988247 0.247294
O O7 0.055113 0.975070 0.358917
O O8 0.000000 0.000000 0.000000
O O9 0.143024 0.250000 0.405768
O O10 0.158557 0.035789 0.116198
O O11 0.171997 0.750000 0.916098
O O12 0.263184 0.006107 0.865942
O O13 0.471804 0.250000 0.722163
O O14 0.415921 0.978953 0.871956
O O15 0.500000 0.000000 0.500000
O O16 0.347438 0.250000 0.013529
#
# Coordination Sequence:
#
# PCOD9165202 Si02
#       6
#     4   4   4   4   4   4
#     4  11  22  37  60  88 118 152 189 231 280 335
#     4   8  14  22  37  66 103 143 185 229 273 317
#     4   9  15  26  45  71 107 148 189 231 274 323
#     4   9  15  25  44  73 108 145 187 231 275 325
#     4  11  25  44  65  88 114 145 184 231 283 341
#     4  10  21  38  60  86 116 151 189 230 280 336
#
# _framework density 26.127521999999999
#
# number of rings (size 3 to 8) (size 9 to 14) (size 15 to 20)
#    0.000    2.333    0.000    5.500    0.000    4.667 
#    0.000    0.000    0.000    1.000    0.000    0.000 
#    0.000    0.000    0.000    0.000    0.000    0.000 
#
# Total GULP energy -134141.446928 kJ/mol
# GULP energy per Si atom -5589.226955 kJ/mol
# Density = 2.606805 g / cm^3
# Si number density = 26.127522 Si / 1000 Ang^3
#
#
#
# Elastic Constant Matrix: (Units=GPa)
#
#
# Indices 1 2 3 4 5 6 
#
# 1 121.7350 4.8231 26.5130 0.0000 -36.8651 0.0000
# 2 4.8231 113.6925 -2.9077 0.0000 -8.0494 0.0000
# 3 26.5130 -2.9077 60.9716 0.0000 -13.2984 0.0000
# 4 0.0000 0.0000 0.0000 23.0625 0.0000 -1.8282
# 5 -36.8651 -8.0494 -13.2984 0.0000 70.3747 0.0000
# 6 0.0000 0.0000 0.0000 -1.8282 0.0000 29.4179
#
#
#
# Elastic Compliance Matrix: (Units=1/GPa)
#
#
# Indices 1 2 3 4 5 6 
#
# 1 0.010433 -0.000194 -0.003503 0.000000 0.004781 0.000000
# 2 -0.000194 0.008898 0.000739 0.000000 0.001056 0.000000
# 3 -0.003503 0.000739 0.018333 0.000000 0.001714 0.000000
# 4 0.000000 0.000000 0.000000 0.043575 0.000000 0.002708
# 5 0.004781 0.001056 0.001714 0.000000 0.017159 0.000000
# 6 0.000000 0.000000 0.000000 0.002708 0.000000 0.034161
#
#
# Mechanical properties :
#
#
# Convention : Reuss Voigt Hill
#
# Bulk Modulus (GPa) = 31.49807 39.25066 35.37436
# Shear Modulus (GPa) = 33.54399 42.43572 37.98985
#
# Velocity S-wave (km/s) = 3.58698 4.03448 3.81729
# Velocity P-wave (km/s) = 5.40712 6.06284 5.74434
#
# Compressibility (1/GPa) = 0.03174798
#
# Stress axis : x y z
#
# Youngs Moduli (GPa) = 95.84899 112.39084 54.54519
#
# Poissons Ratio (x) = 0.02177 0.19108
# Poissons Ratio (y) = 0.01856 -0.04030
# Poissons Ratio (z) = 0.33578 -0.08304
#
# Static dielectric constant tensor:
#      x y z
#    x 2.082690 0.000000 -0.055410 
#    y 0.000000 1.916050 0.000000 
#    z -0.055410 0.000000 2.172240 
# 
# From -- ./inp_files/23772.got.cif
#   From: 2010.05.17/outbox.cif.g08.bks.cpg/sg11_12_cif.got.tgz:23772.got - 2010.06.03 12:22:45.
