data_PCOD9165712
_publ_section_title
;
Structure prediction by ZEFSAII (Michael W. Deem and Ramdas Pophale) SiO2 
 PCOD9165712
Probable space group: P 21/M
;
_chemical_formula_sum "Si O2"
_cell_formula_units_Z 26
_cell_length_a 7.662573
_cell_length_b 22.987095
_cell_length_c 6.654121
_cell_angle_alpha 90.000000
_cell_angle_beta 66.676645
_cell_angle_gamma 90.000000
_cell_volume 1076.284123
_symmetry_space_group_name_H-M "P 21/M"
_symmetry_group_IT_number 11
_symmetry_cell_setting 'monoclinic'
loop_
_space_group_symop_operation_xyz
x,y,z
-x,1/2+y,-z
-x,-y,-z
x,1/2-y,z
loop_
_atom_site_type_symbol
_atom_site_label
_atom_site_fract_x
_atom_site_fract_y
_atom_site_fract_z
Si Si1 0.674752 0.455852 0.408803
Si Si2 0.707677 0.250000 0.806310
Si Si3 0.590296 0.750000 0.380119
Si Si4 0.154883 0.362920 0.153561
Si Si5 0.136511 0.432094 0.771461
Si Si6 0.984552 0.750000 0.019750
Si Si7 0.555879 0.636357 0.643540
Si Si8 0.843380 0.378701 0.635782
O O1 0.500000 0.500000 0.500000
O O2 0.845756 0.499247 0.276924
O O3 0.625039 0.405693 0.271705
O O4 0.688411 0.421832 0.613448
O O5 0.495259 0.250000 0.806908
O O6 0.786908 0.311770 0.688971
O O7 0.802665 0.250000 0.986388
O O8 0.820921 0.750000 0.269042
O O9 0.520604 0.694279 0.534034
O O10 0.349973 0.350788 0.184997
O O11 0.001991 0.381085 0.388769
O O12 0.182329 0.412252 0.974871
O O13 0.067457 0.306732 0.084064
O O14 0.288020 0.398566 0.559667
O O15 0.937388 0.405683 0.789999
#
# Coordination Sequence:
#
# PCOD9165712 Si02
#       8
#     4   2   2   4   4   2   4   4
#     4  10  22  41  65  89 127 171 219 266 321 381
#     4  12  23  41  73  96 129 170 216 272 328 394
#     4  12  21  41  71  92 129 174 218 264 338 386
#     4  11  22  38  65  91 131 168 207 268 335 382
#     4  10  21  40  66  90 122 172 213 263 321 384
#     4  12  22  44  64 102 134 168 216 270 332 394
#     4  10  21  40  62  93 126 168 211 268 323 384
#     4  11  22  42  64  95 126 165 216 269 327 385
#
# _framework density 24.157188999999999
#
# number of rings (size 3 to 8) (size 9 to 14) (size 15 to 20)
#    0.000    1.231    4.615    2.308    0.000    1.231 
#    2.769    3.077    0.000    0.000    0.000    0.000 
#    0.000    0.000    0.000    0.000    0.000    0.000 
#
# Total GULP energy -145392.212198 kJ/mol
# GULP energy per Si atom -5592.008161 kJ/mol
# Density = 2.410221 g / cm^3
# Si number density = 24.157189 Si / 1000 Ang^3
#
#
#
# Elastic Constant Matrix: (Units=GPa)
#
#
# Indices 1 2 3 4 5 6 
#
# 1 85.4845 42.5027 30.6321 0.0000 36.7775 0.0000
# 2 42.5027 153.6140 30.2672 0.0000 15.4866 0.0000
# 3 30.6321 30.2672 84.0866 0.0000 17.7332 0.0000
# 4 0.0000 0.0000 0.0000 12.6794 0.0000 11.2586
# 5 36.7775 15.4866 17.7332 0.0000 49.3830 0.0000
# 6 0.0000 0.0000 0.0000 11.2586 0.0000 38.2625
#
#
#
# Elastic Compliance Matrix: (Units=1/GPa)
#
#
# Indices 1 2 3 4 5 6 
#
# 1 0.020162 -0.003639 -0.003364 0.000000 -0.012666 0.000000
# 2 -0.003639 0.007754 -0.001649 0.000000 0.000870 0.000000
# 3 -0.003364 -0.001649 0.014145 0.000000 -0.002057 0.000000
# 4 0.000000 0.000000 0.000000 0.106762 0.000000 -0.031415
# 5 -0.012666 0.000870 -0.002057 0.000000 0.030149 0.000000
# 6 0.000000 0.000000 0.000000 -0.031415 0.000000 0.035379
#
#
# Mechanical properties :
#
#
# Convention : Reuss Voigt Hill
#
# Bulk Modulus (GPa) = 40.39116 58.88767 49.63941
# Shear Modulus (GPa) = 20.84141 34.71718 27.77929
#
# Velocity S-wave (km/s) = 2.94043 3.79507 3.39475
# Velocity P-wave (km/s) = 5.31833 6.60554 5.99658
#
# Compressibility (1/GPa) = 0.02475789
#
# Stress axis : x y z
#
# Youngs Moduli (GPa) = 49.59841 128.96957 70.69468
#
# Poissons Ratio (x) = 0.46929 0.23780
# Poissons Ratio (y) = 0.18048 0.11658
# Poissons Ratio (z) = 0.16684 0.21267
#
# Static dielectric constant tensor:
#      x y z
#    x 2.060470 0.000000 -0.002020 
#    y 0.000000 1.901260 0.000000 
#    z -0.002020 0.000000 1.923940 
# 
# From -- ./inp_files/2767.got.cif
#   From: 2010.05.17/outbox.cif.g08.bks.cpg/sg11_2_cif.got.tgz:2767.got - 2010.06.03 12:22:45.
