data_PCOD9165371
_publ_section_title
;
Structure prediction by ZEFSAII (Michael W. Deem and Ramdas Pophale) SiO2 
 PCOD9165371
Probable space group: P 21/M
;
_chemical_formula_sum "Si O2"
_cell_formula_units_Z 28
_cell_length_a 14.473069
_cell_length_b 16.394508
_cell_length_c 9.115824
_cell_angle_alpha 90.000000
_cell_angle_beta 40.841188
_cell_angle_gamma 90.000000
_cell_volume 1414.520354
_symmetry_space_group_name_H-M "P 21/M"
_symmetry_group_IT_number 11
_symmetry_cell_setting 'monoclinic'
loop_
_space_group_symop_operation_xyz
x,y,z
-x,1/2+y,-z
-x,-y,-z
x,1/2-y,z
loop_
_atom_site_type_symbol
_atom_site_label
_atom_site_fract_x
_atom_site_fract_y
_atom_site_fract_z
Si Si1 0.457604 0.658771 0.889035
Si Si2 0.182262 0.444610 0.860233
Si Si3 0.125862 0.582579 0.707148
Si Si4 0.212107 0.158831 0.531786
Si Si5 0.139471 0.469451 0.413006
Si Si6 0.606557 0.340267 0.697352
Si Si7 0.614215 0.979866 0.122019
O O1 0.425157 0.750000 0.865144
O O2 0.625663 0.657649 0.715709
O O3 0.424759 0.576234 0.838396
O O4 0.385373 0.653379 0.135399
O O5 0.146104 0.533116 0.834450
O O6 0.212123 0.389141 0.684166
O O7 0.309972 0.455494 0.818118
O O8 0.042305 0.407224 0.104209
O O9 0.169839 0.526786 0.515911
O O10 0.238346 0.654130 0.560583
O O11 0.164692 0.250000 0.615344
O O12 0.120147 0.116987 0.516034
O O13 0.000000 0.500000 0.500000
O O14 0.269696 0.467876 0.145536
O O15 0.544056 0.250000 0.740592
O O16 0.514220 0.417309 0.753194
#
# Coordination Sequence:
#
# PCOD9165371 Si02
#       7
#     4   4   4   4   4   4   4
#     4  10  21  38  63  94 124 164 215 268 325 381
#     4  10  23  38  63  91 123 168 210 248 320 389
#     4  10  21  41  60  86 125 164 205 254 315 389
#     4  10  22  41  61  87 126 169 208 255 315 387
#     4  11  20  36  65  91 116 159 212 261 311 373
#     4  11  23  38  62  95 125 162 217 273 325 371
#     4  12  21  38  66  96 123 165 212 276 315 374
#
# _framework density 19.794695000000001
#
# number of rings (size 3 to 8) (size 9 to 14) (size 15 to 20)
#    0.000    1.429    4.286    2.143    0.000    3.429 
#    0.000    3.571    0.000    0.000    0.000    0.000 
#    0.000    0.000    0.000    0.000    0.000    0.000 
#
# Total GULP energy -156155.190013 kJ/mol
# GULP energy per Si atom -5576.971072 kJ/mol
# Density = 1.974964 g / cm^3
# Si number density = 19.794695 Si / 1000 Ang^3
#
#
#
# Elastic Constant Matrix: (Units=GPa)
#
#
# Indices 1 2 3 4 5 6 
#
# 1 94.0835 57.4145 9.0058 0.0000 -0.7656 0.0000
# 2 57.4145 147.2514 23.4904 0.0000 -5.6575 0.0000
# 3 9.0058 23.4904 68.2856 0.0000 -7.0634 0.0000
# 4 0.0000 0.0000 0.0000 13.8223 0.0000 -7.1767
# 5 -0.7656 -5.6575 -7.0634 0.0000 23.5546 0.0000
# 6 0.0000 0.0000 0.0000 -7.1767 0.0000 13.7292
#
#
#
# Elastic Compliance Matrix: (Units=1/GPa)
#
#
# Indices 1 2 3 4 5 6 
#
# 1 0.013965 -0.005471 -0.000050 0.000000 -0.000875 0.000000
# 2 -0.005471 0.009352 -0.002355 0.000000 0.001362 0.000000
# 3 -0.000050 -0.002355 0.015895 0.000000 0.004199 0.000000
# 4 0.000000 0.000000 0.000000 0.099297 0.000000 0.051906
# 5 -0.000875 0.001362 0.004199 0.000000 0.044013 0.000000
# 6 0.000000 0.000000 0.000000 0.051906 0.000000 0.099971
#
#
# Mechanical properties :
#
#
# Convention : Reuss Voigt Hill
#
# Bulk Modulus (GPa) = 42.62384 54.38242 48.50313
# Shear Modulus (GPa) = 16.33643 24.86855 20.60249
#
# Velocity S-wave (km/s) = 2.87591 3.54831 3.22966
# Velocity P-wave (km/s) = 5.71030 6.65734 6.20192
#
# Compressibility (1/GPa) = 0.02346105
#
# Stress axis : x y z
#
# Youngs Moduli (GPa) = 71.60743 106.92736 62.91112
#
# Poissons Ratio (x) = 0.58496 0.00317
# Poissons Ratio (y) = 0.39174 0.14814
# Poissons Ratio (z) = 0.00361 0.25179
#
# Static dielectric constant tensor:
#      x y z
#    x 1.674350 0.000000 -0.017910 
#    y 0.000000 1.751620 0.000000 
#    z -0.017910 0.000000 1.719610 
# 
# From -- ./inp_files/22701.got.cif
#   From: 2010.05.17/outbox.cif.g08.bks.cpg/sg11_12_cif.got.tgz:22701.got - 2010.06.03 12:22:45.
