data_PCOD9165137
_publ_section_title
;
Structure prediction by ZEFSAII (Michael W. Deem and Ramdas Pophale) SiO2 
 PCOD9165137
Probable space group: P 21/M
;
_chemical_formula_sum "Si O2"
_cell_formula_units_Z 28
_cell_length_a 5.609361
_cell_length_b 17.247813
_cell_length_c 13.113460
_cell_angle_alpha 90.000000
_cell_angle_beta 63.894137
_cell_angle_gamma 90.000000
_cell_volume 1139.285631
_symmetry_space_group_name_H-M "P 21/M"
_symmetry_group_IT_number 11
_symmetry_cell_setting 'monoclinic'
loop_
_space_group_symop_operation_xyz
x,y,z
-x,1/2+y,-z
-x,-y,-z
x,1/2-y,z
loop_
_atom_site_type_symbol
_atom_site_label
_atom_site_fract_x
_atom_site_fract_y
_atom_site_fract_z
Si Si1 0.439835 0.250000 0.759617
Si Si2 0.834965 0.457373 0.245587
Si Si3 0.697143 0.918710 0.116616
Si Si4 0.249293 0.335933 0.178442
Si Si5 0.063348 0.750000 0.236911
Si Si6 0.803968 0.534638 0.451198
Si Si7 0.385795 0.338019 0.386411
Si Si8 0.725374 0.381117 0.957967
O O1 0.363397 0.330239 0.832500
O O2 0.756782 0.250000 0.696659
O O3 0.252681 0.250000 0.696742
O O4 0.666257 0.511851 0.203022
O O5 0.924351 0.515462 0.318880
O O6 0.644190 0.390749 0.324678
O O7 0.082645 0.406396 0.163526
O O8 0.484856 0.930194 0.067876
O O9 0.016094 0.919887 0.042471
O O10 0.149553 0.250000 0.167301
O O11 0.244303 0.342371 0.302106
O O12 0.548289 0.342335 0.079454
O O13 0.155466 0.821311 0.147604
O O14 0.500000 0.500000 0.500000
O O15 0.775622 0.622879 0.491732
O O16 0.000000 0.500000 0.500000
O O17 0.453931 0.250000 0.393331
#
# Coordination Sequence:
#
# PCOD9165137 Si02
#       8
#     2   4   4   4   2   4   4   4
#     4   8  16  34  54  80 109 163 208 262 298 362
#     4  11  24  41  66  98 132 172 216 272 336 390
#     4  10  23  38  64  87 133 172 224 267 319 379
#     4  11  23  39  65  94 129 175 224 269 326 387
#     4   8  14  32  52  74 107 157 212 246 306 344
#     4  10  21  43  70  94 129 168 204 266 341 395
#     4  10  23  44  68  99 131 168 218 274 330 400
#     4  10  21  38  58  89 126 177 215 267 312 377
#
# _framework density 24.576805
#
# number of rings (size 3 to 8) (size 9 to 14) (size 15 to 20)
#    0.000    2.000    2.143    0.429    4.000    1.143 
#    1.286    0.000    0.000    0.000    0.000    0.000 
#    0.000    0.000    0.000    0.000    0.000    0.000 
#
# Total GULP energy -156353.549409 kJ/mol
# GULP energy per Si atom -5584.055336 kJ/mol
# Density = 2.452087 g / cm^3
# Si number density = 24.576805 Si / 1000 Ang^3
#
#
#
# Elastic Constant Matrix: (Units=GPa)
#
#
# Indices 1 2 3 4 5 6 
#
# 1 164.9742 30.7190 21.1920 0.0000 4.8152 0.0000
# 2 30.7190 169.1275 44.4321 0.0000 3.3554 0.0000
# 3 21.1920 44.4321 30.1826 0.0000 8.4938 0.0000
# 4 0.0000 0.0000 0.0000 23.9561 0.0000 3.8499
# 5 4.8152 3.3554 8.4938 0.0000 29.4689 0.0000
# 6 0.0000 0.0000 0.0000 3.8499 0.0000 31.1560
#
#
#
# Elastic Compliance Matrix: (Units=1/GPa)
#
#
# Indices 1 2 3 4 5 6 
#
# 1 0.006665 0.000057 -0.004849 0.000000 0.000302 0.000000
# 2 0.000057 0.009938 -0.015616 0.000000 0.003360 0.000000
# 3 -0.004849 -0.015616 0.063991 0.000000 -0.015874 0.000000
# 4 0.000000 0.000000 0.000000 0.042589 0.000000 -0.005263
# 5 0.000302 0.003360 -0.015874 0.000000 0.038077 0.000000
# 6 0.000000 0.000000 0.000000 -0.005263 0.000000 0.032747
#
#
# Mechanical properties :
#
#
# Convention : Reuss Voigt Hill
#
# Bulk Modulus (GPa) = 25.13856 61.88561 43.51209
# Shear Modulus (GPa) = 20.15460 34.77895 27.46678
#
# Velocity S-wave (km/s) = 2.86679 3.76588 3.34666
# Velocity P-wave (km/s) = 4.60529 6.64412 5.71634
#
# Compressibility (1/GPa) = 0.03977953
#
# Stress axis : x y z
#
# Youngs Moduli (GPa) = 150.03849 100.62307 15.62710
#
# Poissons Ratio (x) = -0.00577 0.07578
# Poissons Ratio (y) = -0.00861 0.24403
# Poissons Ratio (z) = 0.72755 1.57130
#
# Static dielectric constant tensor:
#      x y z
#    x 1.621490 0.000000 0.115450 
#    y 0.000000 2.004190 0.000000 
#    z 0.115450 0.000000 1.928430 
# 
# From -- ./inp_files/45991.got.cif
#   From: 2010.05.17/outbox.cif.g08.bks.cpg/sg11_23_cif.got.tgz:45991.got - 2010.06.03 12:22:45.
