data_PCOD9165149
_publ_section_title
;
Structure prediction by ZEFSAII (Michael W. Deem and Ramdas Pophale) SiO2 
 PCOD9165149
Probable space group: P 21/M
;
_chemical_formula_sum "Si O2"
_cell_formula_units_Z 32
_cell_length_a 9.194573
_cell_length_b 10.269072
_cell_length_c 19.195432
_cell_angle_alpha 90.000000
_cell_angle_beta 61.029757
_cell_angle_gamma 90.000000
_cell_volume 1585.640988
_symmetry_space_group_name_H-M "P 21/M"
_symmetry_group_IT_number 11
_symmetry_cell_setting 'monoclinic'
loop_
_space_group_symop_operation_xyz
x,y,z
-x,1/2+y,-z
-x,-y,-z
x,1/2-y,z
loop_
_atom_site_type_symbol
_atom_site_label
_atom_site_fract_x
_atom_site_fract_y
_atom_site_fract_z
Si Si1 0.667654 0.397575 0.668109
Si Si2 0.374606 0.997748 0.940677
Si Si3 0.038297 0.100731 0.645190
Si Si4 0.709086 0.888759 0.905448
Si Si5 0.389224 0.905387 0.781937
Si Si6 0.873451 0.095447 0.487271
Si Si7 0.049606 0.616128 0.038596
Si Si8 0.060945 0.007690 0.795297
O O1 0.603516 0.250000 0.698110
O O2 0.544374 0.513937 0.715472
O O3 0.842756 0.411455 0.669285
O O4 0.715216 0.402777 0.575168
O O5 0.569779 0.986164 0.909754
O O6 0.248774 0.889339 0.001020
O O7 0.310424 0.111345 0.006189
O O8 0.085977 0.250000 0.614076
O O9 0.061790 0.079518 0.721618
O O10 0.136005 0.985052 0.582304
O O11 0.659418 0.750000 0.887456
O O12 0.894385 0.921023 0.839558
O O13 0.417783 0.750000 0.784970
O O14 0.227905 0.927396 0.771184
O O15 0.352893 0.977879 0.863887
O O16 0.923180 0.250000 0.468068
O O17 0.000000 0.000000 0.500000
O O18 0.002354 0.750000 0.014424
O O19 0.964750 0.602023 0.132697
O O20 0.000000 0.500000 0.000000
#
# Coordination Sequence:
#
# PCOD9165149 Si02
#       8
#     4   4   4   4   4   4   4   4
#     4   9  21  40  63  93 124 156 196 248 301 365
#     4  10  22  38  57  84 114 151 198 254 306 355
#     4  10  21  40  65  94 127 160 202 252 308 366
#     4  10  21  38  59  83 114 153 202 254 308 364
#     4  12  24  39  59  86 121 162 207 253 301 365
#     4   9  18  36  64  96 127 159 200 247 303 364
#     4  11  22  38  59  81 114 156 199 247 301 357
#     4  11  24  39  58  88 122 159 205 252 307 362
#
# _framework density 20.181114000000001
#
# number of rings (size 3 to 8) (size 9 to 14) (size 15 to 20)
#    0.000    1.750    1.250    3.750    0.000    7.000 
#    0.000    3.750    0.000    0.000    0.000    0.000 
#    0.000    0.000    0.000    0.000    0.000    0.000 
#
# Total GULP energy -178136.955453 kJ/mol
# GULP energy per Si atom -5566.779858 kJ/mol
# Density = 2.013518 g / cm^3
# Si number density = 20.181114 Si / 1000 Ang^3
#
#
#
# Elastic Constant Matrix: (Units=GPa)
#
#
# Indices 1 2 3 4 5 6 
#
# 1 80.1273 25.1442 29.6214 0.0000 9.2042 0.0000
# 2 25.1442 111.4634 49.5399 0.0000 9.8993 0.0000
# 3 29.6214 49.5399 94.5436 0.0000 12.5746 0.0000
# 4 0.0000 0.0000 0.0000 -109.7542 0.0000 67.7126
# 5 9.2042 9.8993 12.5746 0.0000 21.9283 0.0000
# 6 0.0000 0.0000 0.0000 67.7126 0.0000 -14.7343
#
#
#
# Elastic Compliance Matrix: (Units=1/GPa)
#
#
# Indices 1 2 3 4 5 6 
#
# 1 0.014583 -0.001504 -0.003309 0.000000 -0.003544 0.000000
# 2 -0.001504 0.011925 -0.005570 0.000000 -0.001558 0.000000
# 3 -0.003309 -0.005570 0.015171 0.000000 -0.004796 0.000000
# 4 0.000000 0.000000 0.000000 0.004965 0.000000 0.022815
# 5 -0.003544 -0.001558 -0.004796 0.000000 0.050544 0.000000
# 6 0.000000 0.000000 0.000000 0.022815 0.000000 0.036981
#
#
# Mechanical properties :
#
#
# Convention : Reuss Voigt Hill
#
# Bulk Modulus (GPa) = 47.82155 54.97169 51.39662
# Shear Modulus (GPa) = 30.88227 -8.39013 11.24607
#
# Velocity S-wave (km/s) = 3.91609 -2.04119 2.36319
# Velocity P-wave (km/s) = 6.64796 4.66294 5.74188
#
# Compressibility (1/GPa) = 0.02091107
#
# Stress axis : x y z
#
# Youngs Moduli (GPa) = 68.57471 83.85888 65.91735
#
# Poissons Ratio (x) = 0.12612 0.21815
# Poissons Ratio (y) = 0.10313 0.36716
# Poissons Ratio (z) = 0.22694 0.46710
#
# Static dielectric constant tensor:
#      x y z
#    x 1.760420 0.000000 0.014410 
#    y 0.000000 1.891280 0.000000 
#    z 0.014410 0.000000 1.732120 
# 
# From -- ./inp_files/59071.got.cif
#   From: 2010.05.17/outbox.cif.g08.bks.cpg/sg11_30_cif.got.tgz:59071.got - 2010.06.03 12:22:45.
