data_PCOD9165623
_publ_section_title
;
Structure prediction by ZEFSAII (Michael W. Deem and Ramdas Pophale) SiO2 
 PCOD9165623
Probable space group: P 21/M
;
_chemical_formula_sum "Si O2"
_cell_formula_units_Z 22
_cell_length_a 19.901961
_cell_length_b 8.827856
_cell_length_c 7.303508
_cell_angle_alpha 90.000000
_cell_angle_beta 45.455096
_cell_angle_gamma 90.000000
_cell_volume 914.513108
_symmetry_space_group_name_H-M "P 21/M"
_symmetry_group_IT_number 11
_symmetry_cell_setting 'monoclinic'
loop_
_space_group_symop_operation_xyz
x,y,z
-x,1/2+y,-z
-x,-y,-z
x,1/2-y,z
loop_
_atom_site_type_symbol
_atom_site_label
_atom_site_fract_x
_atom_site_fract_y
_atom_site_fract_z
Si Si1 0.702188 0.028364 0.588501
Si Si2 0.902245 0.581244 0.218805
Si Si3 0.404872 0.250000 0.695296
Si Si4 0.572421 0.750000 0.781080
Si Si5 0.581530 0.250000 0.627102
Si Si6 0.294610 0.925769 0.985985
Si Si7 0.898402 0.576112 0.661601
O O1 0.651112 0.111020 0.518449
O O2 0.706038 0.087417 0.789540
O O3 0.809015 0.998742 0.325262
O O4 0.634769 0.886293 0.733631
O O5 0.906787 0.750000 0.134956
O O6 0.888353 0.589671 0.462409
O O7 0.000000 0.500000 0.000000
O O8 0.432515 0.250000 0.428342
O O9 0.498415 0.250000 0.641163
O O10 0.352272 0.413902 0.834623
O O11 0.472920 0.750000 0.070512
O O12 0.321470 0.750000 0.877624
O O13 0.189260 0.969011 0.118168
O O14 0.892648 0.750000 0.743959
O O15 0.000000 0.500000 0.500000
#
# Coordination Sequence:
#
# PCOD9165623 Si02
#       7
#     4   4   2   2   2   4   4
#     4  11  23  47  74 105 148 203 255 310 387 456
#     4  10  23  41  70 102 144 188 244 305 370 454
#     4  12  28  48  76 115 156 201 256 332 383 457
#     4  12  26  48  77 109 152 203 255 320 393 451
#     4  12  26  48  79 106 154 204 259 316 386 460
#     4  11  22  45  76 106 150 209 262 314 390 464
#     4  10  21  39  65 103 147 196 249 307 377 454
#
# _framework density 24.056516999999999
#
# number of rings (size 3 to 8) (size 9 to 14) (size 15 to 20)
#    0.000    1.091    4.545    1.091    1.273    3.636 
#    1.636    0.000    0.000    0.000    0.000    0.000 
#    0.000    0.000    0.000    0.000    0.000    0.000 
#
# Total GULP energy -122823.965971 kJ/mol
# GULP energy per Si atom -5582.907544 kJ/mol
# Density = 2.400176 g / cm^3
# Si number density = 24.056517 Si / 1000 Ang^3
#
#
#
# Elastic Constant Matrix: (Units=GPa)
#
#
# Indices 1 2 3 4 5 6 
#
# 1 168.9748 64.2061 63.4817 0.0000 -27.1656 0.0000
# 2 64.2061 171.1784 45.3656 0.0000 -27.8629 0.0000
# 3 63.4817 45.3656 102.5231 0.0000 -27.5371 0.0000
# 4 0.0000 0.0000 0.0000 23.3522 0.0000 -5.7566
# 5 -27.1656 -27.8629 -27.5371 0.0000 68.9997 0.0000
# 6 0.0000 0.0000 0.0000 -5.7566 0.0000 39.4443
#
#
#
# Elastic Compliance Matrix: (Units=1/GPa)
#
#
# Indices 1 2 3 4 5 6 
#
# 1 0.008308 -0.001894 -0.004069 0.000000 0.000882 0.000000
# 2 -0.001894 0.007229 -0.001615 0.000000 0.001529 0.000000
# 3 -0.004069 -0.001615 0.013870 0.000000 0.003281 0.000000
# 4 0.000000 0.000000 0.000000 0.044421 0.000000 0.006483
# 5 0.000882 0.001529 0.003281 0.000000 0.016767 0.000000
# 6 0.000000 0.000000 0.000000 0.006483 0.000000 0.026298
#
#
# Mechanical properties :
#
#
# Convention : Reuss Voigt Hill
#
# Bulk Modulus (GPa) = 70.17891 87.64256 78.91073
# Shear Modulus (GPa) = 36.54943 44.33411 40.44177
#
# Velocity S-wave (km/s) = 3.90207 4.29758 4.10459
# Velocity P-wave (km/s) = 7.03828 7.81899 7.43888
#
# Compressibility (1/GPa) = 0.01424930
#
# Stress axis : x y z
#
# Youngs Moduli (GPa) = 120.35904 138.32550 72.09999
#
# Poissons Ratio (x) = 0.26203 0.29341
# Poissons Ratio (y) = 0.22800 0.11647
# Poissons Ratio (z) = 0.48979 0.22344
#
# Static dielectric constant tensor:
#      x y z
#    x 1.910340 0.000000 0.100240 
#    y 0.000000 1.924630 0.000000 
#    z 0.100240 0.000000 2.010130 
# 
# From -- ./inp_files/25700.got.cif
#   From: 2010.05.17/outbox.cif.g08.bks.cpg/sg11_13_cif.got.tgz:25700.got - 2010.06.03 12:22:45.
