data_PCOD9165915
_publ_section_title
;
Structure prediction by ZEFSAII (Michael W. Deem and Ramdas Pophale) SiO2 
 PCOD9165915
Probable space group: P 21/M
;
_chemical_formula_sum "Si O2"
_cell_formula_units_Z 24
_cell_length_a 6.824449
_cell_length_b 21.613764
_cell_length_c 9.252064
_cell_angle_alpha 90.000000
_cell_angle_beta 62.843535
_cell_angle_gamma 90.000000
_cell_volume 1214.258575
_symmetry_space_group_name_H-M "P 21/M"
_symmetry_group_IT_number 11
_symmetry_cell_setting 'monoclinic'
loop_
_space_group_symop_operation_xyz
x,y,z
-x,1/2+y,-z
-x,-y,-z
x,1/2-y,z
loop_
_atom_site_type_symbol
_atom_site_label
_atom_site_fract_x
_atom_site_fract_y
_atom_site_fract_z
Si Si1 0.318057 0.679919 0.263633
Si Si2 0.570432 0.561437 0.067531
Si Si3 0.629511 0.181510 0.412882
Si Si4 0.708250 0.526144 0.341980
Si Si5 0.010690 0.410895 0.255552
Si Si6 0.160564 0.358910 0.513425
O O1 0.386818 0.750000 0.194471
O O2 0.403269 0.619727 0.146652
O O3 0.393933 0.671105 0.405830
O O4 0.052941 0.677932 0.362267
O O5 0.633065 0.536344 0.204203
O O6 0.500000 0.500000 0.000000
O O7 0.786943 0.590273 0.921185
O O8 0.722907 0.250000 0.364050
O O9 0.389813 0.177107 0.422840
O O10 0.802779 0.133007 0.291841
O O11 0.500000 0.500000 0.500000
O O12 0.785508 0.589011 0.388146
O O13 0.909282 0.478979 0.288659
O O14 0.096145 0.390827 0.384154
#
# Coordination Sequence:
#
# PCOD9165915 Si02
#       6
#     4   4   4   4   4   4
#     4  10  22  42  66  94 126 174 225 271 324 398
#     4  12  25  42  65  98 140 172 215 276 337 395
#     4  10  21  41  67  93 125 170 227 274 321 390
#     4  12  21  41  67  93 127 172 217 267 320 387
#     4  11  24  38  63  96 134 163 209 269 337 391
#     4  11  20  41  67  95 122 166 221 268 321 387
#
# _framework density 19.765149000000001
#
# number of rings (size 3 to 8) (size 9 to 14) (size 15 to 20)
#    0.000    1.000    3.333    4.500    0.000    1.333 
#    0.000    0.000    0.000    0.000    0.000    0.000 
#    0.000    0.000    0.000    0.000    0.000    0.000 
#
# Total GULP energy -134018.373208 kJ/mol
# GULP energy per Si atom -5584.098884 kJ/mol
# Density = 1.972016 g / cm^3
# Si number density = 19.765149 Si / 1000 Ang^3
#
#
#
# Elastic Constant Matrix: (Units=GPa)
#
#
# Indices 1 2 3 4 5 6 
#
# 1 102.8564 29.4995 35.6455 0.0000 -8.7271 0.0000
# 2 29.4995 121.8608 40.6923 0.0000 -6.2875 0.0000
# 3 35.6455 40.6923 94.6999 0.0000 -7.4033 0.0000
# 4 0.0000 0.0000 0.0000 22.4254 0.0000 -2.6322
# 5 -8.7271 -6.2875 -7.4033 0.0000 28.2020 0.0000
# 6 0.0000 0.0000 0.0000 -2.6322 0.0000 16.9425
#
#
#
# Elastic Compliance Matrix: (Units=1/GPa)
#
#
# Indices 1 2 3 4 5 6 
#
# 1 0.011573 -0.001504 -0.003529 0.000000 0.002320 0.000000
# 2 -0.001504 0.009808 -0.003588 0.000000 0.000780 0.000000
# 3 -0.003529 -0.003588 0.013560 0.000000 0.001668 0.000000
# 4 0.000000 0.000000 0.000000 0.045420 0.000000 0.007057
# 5 0.002320 0.000780 0.001668 0.000000 0.036788 0.000000
# 6 0.000000 0.000000 0.000000 0.007057 0.000000 0.060119
#
#
# Mechanical properties :
#
#
# Convention : Reuss Voigt Hill
#
# Bulk Modulus (GPa) = 56.49277 59.01017 57.75147
# Shear Modulus (GPa) = 24.94885 27.75264 26.35075
#
# Velocity S-wave (km/s) = 3.55669 3.75122 3.65525
# Velocity P-wave (km/s) = 6.74617 6.97730 6.86271
#
# Compressibility (1/GPa) = 0.01770138
#
# Stress axis : x y z
#
# Youngs Moduli (GPa) = 86.40602 101.95442 73.74665
#
# Poissons Ratio (x) = 0.15329 0.26024
# Poissons Ratio (y) = 0.12992 0.26458
# Poissons Ratio (z) = 0.30491 0.36578
#
# Static dielectric constant tensor:
#      x y z
#    x 1.708120 0.000000 -0.009570 
#    y 0.000000 1.727840 0.000000 
#    z -0.009570 0.000000 1.658300 
# 
# From -- ./inp_files/10425.got.cif
#   From: 2010.05.17/outbox.cif.g08.bks.cpg/sg11_6_cif.got.tgz:10425.got - 2010.06.03 12:22:45.
