data_PCOD9165328
_publ_section_title
;
Structure prediction by ZEFSAII (Michael W. Deem and Ramdas Pophale) SiO2 
 PCOD9165328
Probable space group: P 21/M
;
_chemical_formula_sum "Si O2"
_cell_formula_units_Z 32
_cell_length_a 11.657895
_cell_length_b 22.570341
_cell_length_c 11.335436
_cell_angle_alpha 90.000000
_cell_angle_beta 146.533866
_cell_angle_gamma 90.000000
_cell_volume 1644.742467
_symmetry_space_group_name_H-M "P 21/M"
_symmetry_group_IT_number 11
_symmetry_cell_setting 'monoclinic'
loop_
_space_group_symop_operation_xyz
x,y,z
-x,1/2+y,-z
-x,-y,-z
x,1/2-y,z
loop_
_atom_site_type_symbol
_atom_site_label
_atom_site_fract_x
_atom_site_fract_y
_atom_site_fract_z
Si Si1 0.598766 0.932372 0.361893
Si Si2 0.886499 0.180949 0.517798
Si Si3 0.869912 0.007541 0.768811
Si Si4 0.474205 0.345293 0.283974
Si Si5 0.883446 0.935417 0.383022
Si Si6 0.672716 0.380562 0.690923
Si Si7 0.983663 0.813832 0.101113
Si Si8 0.703173 0.962596 0.984268
O O1 0.754358 0.919359 0.389007
O O2 0.457876 0.882158 0.302540
O O3 0.746126 0.956807 0.593981
O O4 0.432769 0.980248 0.167856
O O5 0.937012 0.250000 0.524437
O O6 0.638822 0.177015 0.328619
O O7 0.970935 0.122338 0.521601
O O8 0.974905 0.171997 0.726218
O O9 0.693981 0.053923 0.655552
O O10 0.052815 0.030205 0.839517
O O11 0.000000 0.000000 0.000000
O O12 0.575845 0.344514 0.500126
O O13 0.402046 0.410305 0.180403
O O14 0.260867 0.311855 0.115475
O O15 0.719422 0.945978 0.135643
O O16 0.000000 0.000000 0.500000
O O17 0.910859 0.358945 0.898894
O O18 0.077284 0.750000 0.156212
#
# Coordination Sequence:
#
# PCOD9165328 Si02
#       8
#     4   4   4   4   4   4   4   4
#     4  12  25  37  58  91 130 170 205 244 318 384
#     4  10  22  41  64  92 123 162 216 264 311 378
#     4  12  21  36  58  90 123 161 200 252 311 375
#     4  11  19  36  66  91 119 153 206 262 325 365
#     4  12  24  43  62  93 133 170 211 265 314 370
#     4  11  22  36  57  91 123 157 202 251 309 389
#     4  10  21  38  62  90 120 154 206 270 320 368
#     4  12  21  38  61  90 129 165 202 256 317 379
#
# _framework density 19.455933000000002
#
# number of rings (size 3 to 8) (size 9 to 14) (size 15 to 20)
#    0.000    0.750    6.250    3.375    0.000    0.500 
#    0.000    0.625    0.000    0.000    0.000    0.000 
#    0.000    0.000    0.000    0.000    0.000    0.000 
#
# Total GULP energy -178264.169104 kJ/mol
# GULP energy per Si atom -5570.755285 kJ/mol
# Density = 1.941165 g / cm^3
# Si number density = 19.455933 Si / 1000 Ang^3
#
#
#
# Elastic Constant Matrix: (Units=GPa)
#
#
# Indices 1 2 3 4 5 6 
#
# 1 137.3752 49.5946 28.5042 0.0000 14.5185 0.0000
# 2 49.5946 98.2384 16.0588 0.0000 12.9118 0.0000
# 3 28.5042 16.0588 78.4230 0.0000 6.5124 0.0000
# 4 0.0000 0.0000 0.0000 1.5269 0.0000 -3.6798
# 5 14.5185 12.9118 6.5124 0.0000 29.0438 0.0000
# 6 0.0000 0.0000 0.0000 -3.6798 0.0000 14.9522
#
#
#
# Elastic Compliance Matrix: (Units=1/GPa)
#
#
# Indices 1 2 3 4 5 6 
#
# 1 0.009512 -0.004092 -0.002421 0.000000 -0.002393 0.000000
# 2 -0.004092 0.012841 -0.000854 0.000000 -0.003472 0.000000
# 3 -0.002421 -0.000854 0.013933 0.000000 -0.001535 0.000000
# 4 0.000000 0.000000 0.000000 1.609618 0.000000 0.396137
# 5 -0.002393 -0.003472 -0.001535 0.000000 0.037514 0.000000
# 6 0.000000 0.000000 0.000000 0.396137 0.000000 0.164372
#
#
# Mechanical properties :
#
#
# Convention : Reuss Voigt Hill
#
# Bulk Modulus (GPa) = 46.39608 55.81686 51.10647
# Shear Modulus (GPa) = 2.67422 23.76318 13.21870
#
# Velocity S-wave (km/s) = 1.17366 3.49862 2.60939
# Velocity P-wave (km/s) = 5.07298 6.71354 5.95008
#
# Compressibility (1/GPa) = 0.02155355
#
# Stress axis : x y z
#
# Youngs Moduli (GPa) = 105.13434 77.87658 71.76963
#
# Poissons Ratio (x) = 0.31864 0.17373
# Poissons Ratio (y) = 0.43017 0.06129
# Poissons Ratio (z) = 0.25449 0.06650
#
# Static dielectric constant tensor:
#      x y z
#    x 1.733550 0.000000 0.042050 
#    y 0.000000 1.773500 0.000000 
#    z 0.042050 0.000000 1.748270 
# 
# From -- ./inp_files/36568.got.cif
#   From: 2010.05.17/outbox.cif.g08.bks.cpg/sg11_19_cif.got.tgz:36568.got - 2010.06.03 12:22:45.
