data_PCOD9165192
_publ_section_title
;
Structure prediction by ZEFSAII (Michael W. Deem and Ramdas Pophale) SiO2 
 PCOD9165192
Probable space group: P 21/M
;
_chemical_formula_sum "Si O2"
_cell_formula_units_Z 32
_cell_length_a 24.281290
_cell_length_b 8.888433
_cell_length_c 11.295087
_cell_angle_alpha 90.000000
_cell_angle_beta 133.830150
_cell_angle_gamma 90.000000
_cell_volume 1758.572250
_symmetry_space_group_name_H-M "P 21/M"
_symmetry_group_IT_number 11
_symmetry_cell_setting 'monoclinic'
loop_
_space_group_symop_operation_xyz
x,y,z
-x,1/2+y,-z
-x,-y,-z
x,1/2-y,z
loop_
_atom_site_type_symbol
_atom_site_label
_atom_site_fract_x
_atom_site_fract_y
_atom_site_fract_z
Si Si1 0.082379 0.922136 0.110775
Si Si2 0.460595 0.069852 0.059927
Si Si3 0.537991 0.068996 0.676078
Si Si4 0.856693 0.926798 0.020816
Si Si5 0.280765 0.576273 0.057047
Si Si6 0.703872 0.073419 0.192650
Si Si7 0.998236 0.427409 0.369409
Si Si8 0.140813 0.922432 0.461982
O O1 0.071741 0.750000 0.053487
O O2 0.122446 0.919531 0.296808
O O3 0.134136 0.013582 0.097788
O O4 0.000000 0.000000 0.000000
O O5 0.472062 0.250000 0.079606
O O6 0.483133 0.001273 0.224772
O O7 0.500000 0.000000 0.000000
O O8 0.371348 0.026729 0.912394
O O9 0.524970 0.250000 0.661589
O O10 0.629249 0.044188 0.797408
O O11 0.500000 0.000000 0.500000
O O12 0.868159 0.750000 0.043679
O O13 0.775818 0.972591 0.954653
O O14 0.925984 0.005655 0.193098
O O15 0.267672 0.750000 0.072554
O O16 0.263694 0.561922 0.892169
O O17 0.682291 0.250000 0.178421
O O18 0.772706 0.032027 0.381546
O O19 0.990730 0.250000 0.365096
O O20 0.000000 0.500000 0.500000
O O21 0.077181 0.473479 0.425043
O O22 0.131999 0.750000 0.494931
#
# Coordination Sequence:
#
# PCOD9165192 Si02
#       8
#     4   4   4   4   4   4   4   4
#     4  11  22  38  59  81 112 156 198 241 293 349
#     4  11  22  39  64  93 126 165 205 250 301 362
#     4  10  21  40  66  95 127 163 202 248 302 365
#     4  12  24  38  57  82 114 152 198 243 288 343
#     4   9  19  37  61  87 118 154 192 238 296 350
#     4   9  19  38  62  88 118 152 190 242 299 354
#     4  12  24  37  57  82 112 146 187 239 289 344
#     4  10  21  38  60  84 113 149 193 239 291 351
#
# _framework density 18.196579
#
# number of rings (size 3 to 8) (size 9 to 14) (size 15 to 20)
#    0.000    1.500    1.250    5.625    0.000    4.500 
#    2.250    0.000    0.000    0.000    0.000    0.000 
#    0.000    0.000    0.000    0.000    0.000    0.000 
#
# Total GULP energy -178638.088615 kJ/mol
# GULP energy per Si atom -5582.440269 kJ/mol
# Density = 1.815516 g / cm^3
# Si number density = 18.196579 Si / 1000 Ang^3
#
#
#
# Elastic Constant Matrix: (Units=GPa)
#
#
# Indices 1 2 3 4 5 6 
#
# 1 96.8797 68.9527 35.4671 0.0000 -13.0209 0.0000
# 2 68.9527 148.4356 50.7304 0.0000 -7.3811 0.0000
# 3 35.4671 50.7304 113.0275 0.0000 -10.3670 0.0000
# 4 0.0000 0.0000 0.0000 27.9098 0.0000 -0.0189
# 5 -13.0209 -7.3811 -10.3670 0.0000 18.6277 0.0000
# 6 0.0000 0.0000 0.0000 -0.0189 0.0000 35.2688
#
#
#
# Elastic Compliance Matrix: (Units=1/GPa)
#
#
# Indices 1 2 3 4 5 6 
#
# 1 0.016905 -0.006955 -0.001425 0.000000 0.008268 0.000000
# 2 -0.006955 0.010846 -0.002884 0.000000 -0.002169 0.000000
# 3 -0.001425 -0.002884 0.010952 0.000000 0.003956 0.000000
# 4 0.000000 0.000000 0.000000 0.035830 0.000000 0.000019
# 5 0.008268 -0.002169 0.003956 0.000000 0.060805 0.000000
# 6 0.000000 0.000000 0.000000 0.000019 0.000000 0.028354
#
#
# Mechanical properties :
#
#
# Convention : Reuss Voigt Hill
#
# Bulk Modulus (GPa) = 61.82569 74.29369 68.05969
# Shear Modulus (GPa) = 26.09462 29.90742 28.00102
#
# Velocity S-wave (km/s) = 3.79098 4.05850 3.92702
# Velocity P-wave (km/s) = 7.29468 7.92962 7.61877
#
# Compressibility (1/GPa) = 0.01617451
#
# Stress axis : x y z
#
# Youngs Moduli (GPa) = 59.15467 92.20373 91.30752
#
# Poissons Ratio (x) = 0.64125 0.13009
# Poissons Ratio (y) = 0.41140 0.26337
# Poissons Ratio (z) = 0.08428 0.26596
#
# Static dielectric constant tensor:
#      x y z
#    x 1.606710 0.000000 -0.005940 
#    y 0.000000 1.633440 0.000000 
#    z -0.005940 0.000000 1.601380 
# 
# From -- ./inp_files/43803.got.cif
#   From: 2010.05.17/outbox.cif.g08.bks.cpg/sg11_22_cif.got.tgz:43803.got - 2010.06.03 12:22:45.
