data_PCOD9165993
_publ_section_title
;
Structure prediction by ZEFSAII (Michael W. Deem and Ramdas Pophale) SiO2 
 PCOD9165993
Probable space group: P 21/M
;
_chemical_formula_sum "Si O2"
_cell_formula_units_Z 32
_cell_length_a 13.773551
_cell_length_b 23.065518
_cell_length_c 7.628886
_cell_angle_alpha 90.000000
_cell_angle_beta 33.471901
_cell_angle_gamma 90.000000
_cell_volume 1336.711846
_symmetry_space_group_name_H-M "P 21/M"
_symmetry_group_IT_number 11
_symmetry_cell_setting 'monoclinic'
loop_
_space_group_symop_operation_xyz
x,y,z
-x,1/2+y,-z
-x,-y,-z
x,1/2-y,z
loop_
_atom_site_type_symbol
_atom_site_label
_atom_site_fract_x
_atom_site_fract_y
_atom_site_fract_z
Si Si1 0.587002 0.315959 0.850880
Si Si2 0.098821 0.940486 0.801060
Si Si3 0.938879 0.434367 0.566908
Si Si4 0.518256 0.482302 0.677312
Si Si5 0.717168 0.874976 0.870823
Si Si6 0.421938 0.898532 0.848070
Si Si7 0.056525 0.685013 0.909383
Si Si8 0.312259 0.313354 0.735693
O O1 0.541439 0.250000 0.949114
O O2 0.745309 0.317164 0.471380
O O3 0.404825 0.351105 0.099310
O O4 0.660007 0.348423 0.908829
O O5 0.078587 0.929238 0.620663
O O6 0.301239 0.951812 0.542614
O O7 0.037397 0.882403 0.997247
O O8 0.000000 0.000000 0.000000
O O9 0.000000 0.500000 0.500000
O O10 0.078871 0.389336 0.433436
O O11 0.759371 0.426144 0.946355
O O12 0.500000 0.500000 0.500000
O O13 0.507357 0.543103 0.798303
O O14 0.368621 0.435979 0.943613
O O15 0.688965 0.825150 0.057299
O O16 0.568687 0.865527 0.516662
O O17 0.048223 0.750000 0.011927
O O18 0.887199 0.686911 0.034814
O O19 0.389255 0.250000 0.579396
#
# Coordination Sequence:
#
# PCOD9165993 Si02
#       8
#     4   4   4   4   4   4   4   4
#     4  11  24  44  69  98 135 178 232 287 347 420
#     4  12  24  43  70 102 134 187 235 284 349 419
#     4  12  26  43  66 104 142 179 227 287 353 419
#     4  12  24  40  66 101 139 177 227 294 346 413
#     4  12  22  43  66  96 139 177 229 275 343 409
#     4  12  24  43  67  99 140 176 224 289 353 404
#     4  10  21  43  67  96 133 177 228 281 341 420
#     4  11  23  41  68  95 128 180 232 277 336 412
#
# _framework density 23.939340999999999
#
# number of rings (size 3 to 8) (size 9 to 14) (size 15 to 20)
#    0.000    0.500    6.250    2.250    1.750    1.000 
#    0.000    1.875    0.000    0.000    0.000    0.000 
#    0.000    0.000    0.000    0.000    0.000    0.000 
#
# Total GULP energy -178486.905327 kJ/mol
# GULP energy per Si atom -5577.715791 kJ/mol
# Density = 2.388485 g / cm^3
# Si number density = 23.939341 Si / 1000 Ang^3
#
#
#
# Elastic Constant Matrix: (Units=GPa)
#
#
# Indices 1 2 3 4 5 6 
#
# 1 55.9429 21.9307 32.7940 0.0000 -8.4275 0.0000
# 2 21.9307 196.5876 25.0700 0.0000 -4.6437 0.0000
# 3 32.7940 25.0700 69.0028 0.0000 -20.8699 0.0000
# 4 0.0000 0.0000 0.0000 42.2842 0.0000 -8.8556
# 5 -8.4275 -4.6437 -20.8699 0.0000 32.2770 0.0000
# 6 0.0000 0.0000 0.0000 -8.8556 0.0000 31.6129
#
#
#
# Elastic Compliance Matrix: (Units=1/GPa)
#
#
# Indices 1 2 3 4 5 6 
#
# 1 0.025155 -0.001324 -0.011866 0.000000 -0.001295 0.000000
# 2 -0.001324 0.005413 -0.001500 0.000000 -0.000537 0.000000
# 3 -0.011866 -0.001500 0.024457 0.000000 0.012500 0.000000
# 4 0.000000 0.000000 0.000000 0.025123 0.000000 0.007038
# 5 -0.001295 -0.000537 0.012500 0.000000 0.038649 0.000000
# 6 0.000000 0.000000 0.000000 0.007038 0.000000 0.033604
#
#
# Mechanical properties :
#
#
# Convention : Reuss Voigt Hill
#
# Bulk Modulus (GPa) = 38.99185 53.45806 46.22496
# Shear Modulus (GPa) = 26.27039 37.35072 31.81055
#
# Velocity S-wave (km/s) = 3.31626 3.95425 3.64922
# Velocity P-wave (km/s) = 5.56655 6.57474 6.09154
#
# Compressibility (1/GPa) = 0.02564639
#
# Stress axis : x y z
#
# Youngs Moduli (GPa) = 39.75360 184.73869 40.88827
#
# Poissons Ratio (x) = 0.24452 0.48517
# Poissons Ratio (y) = 0.05262 0.06133
# Poissons Ratio (z) = 0.47171 0.27709
#
# Static dielectric constant tensor:
#      x y z
#    x 2.097240 0.000000 0.069520 
#    y 0.000000 1.939790 0.000000 
#    z 0.069520 0.000000 2.042930 
# 
# From -- ./inp_files/23366.got.cif
#   From: 2010.05.17/outbox.cif.g08.bks.cpg/sg11_12_cif.got.tgz:23366.got - 2010.06.03 12:22:45.
