data_PCOD9165763
_publ_section_title
;
Structure prediction by ZEFSAII (Michael W. Deem and Ramdas Pophale) SiO2 
 PCOD9165763
Probable space group: P 21/M
;
_chemical_formula_sum "Si O2"
_cell_formula_units_Z 32
_cell_length_a 15.340179
_cell_length_b 8.817446
_cell_length_c 12.716068
_cell_angle_alpha 90.000000
_cell_angle_beta 108.685873
_cell_angle_gamma 90.000000
_cell_volume 1629.328707
_symmetry_space_group_name_H-M "P 21/M"
_symmetry_group_IT_number 11
_symmetry_cell_setting 'monoclinic'
loop_
_space_group_symop_operation_xyz
x,y,z
-x,1/2+y,-z
-x,-y,-z
x,1/2-y,z
loop_
_atom_site_type_symbol
_atom_site_label
_atom_site_fract_x
_atom_site_fract_y
_atom_site_fract_z
Si Si1 0.367335 0.430774 0.204449
Si Si2 0.179607 0.568040 0.090814
Si Si3 0.538491 0.067667 0.123301
Si Si4 0.104130 0.931230 0.840440
Si Si5 0.090934 0.566996 0.279171
Si Si6 0.739449 0.569205 0.244101
Si Si7 0.770167 0.432553 0.479827
Si Si8 0.599469 0.069061 0.558239
O O1 0.362770 0.250000 0.212676
O O2 0.278050 0.491166 0.109334
O O3 0.462379 0.469125 0.182649
O O4 0.364820 0.506836 0.317398
O O5 0.192546 0.750000 0.099021
O O6 0.139896 0.519858 0.188643
O O7 0.112756 0.532407 0.967963
O O8 0.545464 0.250000 0.118626
O O9 0.637776 0.999590 0.188514
O O10 0.500000 0.000000 0.000000
O O11 0.107006 0.750000 0.829647
O O12 0.190954 0.003499 0.815339
O O13 0.009745 0.995841 0.757962
O O14 0.083973 0.750000 0.274287
O O15 0.152719 0.526670 0.403982
O O16 0.735128 0.750000 0.235465
O O17 0.776656 0.516840 0.372223
O O18 0.774081 0.250000 0.464745
O O19 0.671918 0.469061 0.495091
O O20 0.593548 0.250000 0.561052
O O21 0.500000 0.000000 0.500000
#
# Coordination Sequence:
#
# PCOD9165763 Si02
#       8
#     4   4   4   4   4   4   4   4
#     4  11  23  37  59  91 124 160 203 250 306 369
#     4  10  21  40  64  93 128 165 205 255 315 374
#     4  11  24  42  63  91 127 168 213 261 312 369
#     4  11  24  41  65  94 125 164 210 261 317 378
#     4  10  21  41  66  93 126 163 205 258 319 375
#     4  12  26  43  64  91 125 167 215 264 314 374
#     4  10  22  42  65  88 124 167 206 258 314 370
#     4  11  22  38  60  88 122 160 202 250 306 366
#
# _framework density 19.639989
#
# number of rings (size 3 to 8) (size 9 to 14) (size 15 to 20)
#    0.000    1.250    1.250    4.500    0.000   10.500 
#    0.000    0.000    0.000    0.000    0.000    0.000 
#    0.000    0.000    0.000    0.000    0.000    0.000 
#
# Total GULP energy -178988.017920 kJ/mol
# GULP energy per Si atom -5593.375560 kJ/mol
# Density = 1.959529 g / cm^3
# Si number density = 19.639989 Si / 1000 Ang^3
#
#
#
# Elastic Constant Matrix: (Units=GPa)
#
#
# Indices 1 2 3 4 5 6 
#
# 1 84.0620 21.5373 19.4434 0.0000 12.2355 0.0000
# 2 21.5373 32.8003 27.5225 0.0000 0.4915 0.0000
# 3 19.4434 27.5225 98.9127 0.0000 4.1199 0.0000
# 4 0.0000 0.0000 0.0000 24.6548 0.0000 1.3741
# 5 12.2355 0.4915 4.1199 0.0000 36.8473 0.0000
# 6 0.0000 0.0000 0.0000 1.3741 0.0000 32.3738
#
#
#
# Elastic Compliance Matrix: (Units=1/GPa)
#
#
# Indices 1 2 3 4 5 6 
#
# 1 0.015136 -0.009836 -0.000035 0.000000 -0.004891 0.000000
# 2 -0.009836 0.046184 -0.011079 0.000000 0.003889 0.000000
# 3 -0.000035 -0.011079 0.013255 0.000000 -0.001323 0.000000
# 4 0.000000 0.000000 0.000000 0.040656 0.000000 -0.001726
# 5 -0.004891 0.003889 -0.001323 0.000000 0.028859 0.000000
# 6 0.000000 0.000000 0.000000 -0.001726 0.000000 0.030962
#
#
# Mechanical properties :
#
#
# Convention : Reuss Voigt Hill
#
# Bulk Modulus (GPa) = 30.60469 39.19793 34.90131
# Shear Modulus (GPa) = 21.94476 28.59329 25.26903
#
# Velocity S-wave (km/s) = 3.34631 3.81973 3.59083
# Velocity P-wave (km/s) = 5.52694 6.28135 5.91618
#
# Compressibility (1/GPa) = 0.03267473
#
# Stress axis : x y z
#
# Youngs Moduli (GPa) = 66.06755 21.65233 75.44527
#
# Poissons Ratio (x) = 0.21298 0.00261
# Poissons Ratio (y) = 0.64986 0.83588
# Poissons Ratio (z) = 0.00229 0.23989
#
# Static dielectric constant tensor:
#      x y z
#    x 1.671560 0.000000 0.001650 
#    y 0.000000 1.653230 0.000000 
#    z 0.001650 0.000000 1.693170 
# 
# From -- ./inp_files/38369.got.cif
#   From: 2010.05.17/outbox.cif.g08.bks.cpg/sg11_20_cif.got.tgz:38369.got - 2010.06.03 12:22:45.
