data_PCOD9165064
_publ_section_title
;
Structure prediction by ZEFSAII (Michael W. Deem and Ramdas Pophale) SiO2 
 PCOD9165064
Probable space group: P 21/M
;
_chemical_formula_sum "Si O2"
_cell_formula_units_Z 20
_cell_length_a 11.476782
_cell_length_b 8.763243
_cell_length_c 28.422548
_cell_angle_alpha 90.000000
_cell_angle_beta 158.719180
_cell_angle_gamma 90.000000
_cell_volume 1037.485462
_symmetry_space_group_name_H-M "P 21/M"
_symmetry_group_IT_number 11
_symmetry_cell_setting 'monoclinic'
loop_
_space_group_symop_operation_xyz
x,y,z
-x,1/2+y,-z
-x,-y,-z
x,1/2-y,z
loop_
_atom_site_type_symbol
_atom_site_label
_atom_site_fract_x
_atom_site_fract_y
_atom_site_fract_z
Si Si1 0.642214 0.586061 0.413565
Si Si2 0.560077 0.750000 0.197196
Si Si3 0.146776 0.421311 0.287527
Si Si4 0.910115 0.750000 0.897539
Si Si5 0.060801 0.250000 0.757641
Si Si6 0.365773 0.501740 0.697102
Si Si7 0.288891 0.750000 0.941421
O O1 0.504706 0.750000 0.376773
O O2 0.446888 0.453209 0.365857
O O3 0.617068 0.574438 0.347935
O O4 0.017147 0.579593 0.566660
O O5 0.778758 0.750000 0.233403
O O6 0.623448 0.892017 0.254612
O O7 0.195075 0.750000 0.042053
O O8 0.189890 0.250000 0.326741
O O9 0.105410 0.580956 0.300015
O O10 0.833311 0.391407 0.136712
O O11 0.673409 0.608774 0.814630
O O12 0.074205 0.750000 0.907955
O O13 0.345980 0.250000 0.904271
#
# Coordination Sequence:
#
# PCOD9165064 Si02
#       7
#     4   2   4   2   2   4   2
#     4  11  21  37  68  94 119 158 205 277 316 351
#     4  11  26  39  60  85 133 170 202 242 309 396
#     4  10  21  37  64  92 118 158 217 263 309 356
#     4  11  20  40  60  91 130 165 194 252 321 381
#     4  11  22  42  58  85 132 169 208 252 305 371
#     4  11  22  39  61  94 123 159 209 252 318 374
#     4   9  20  35  62  93 121 160 210 268 305 360
#
# _framework density 19.277377999999999
#
# number of rings (size 3 to 8) (size 9 to 14) (size 15 to 20)
#    0.600    0.800    5.000    1.200    1.400    0.000 
#    1.800    1.000    4.400    0.000    0.000    0.000 
#    0.000    0.000    0.000    0.000    0.000    0.000 
#
# Total GULP energy -111362.380152 kJ/mol
# GULP energy per Si atom -5568.119008 kJ/mol
# Density = 1.923350 g / cm^3
# Si number density = 19.277378 Si / 1000 Ang^3
#
#
#
# Elastic Constant Matrix: (Units=GPa)
#
#
# Indices 1 2 3 4 5 6 
#
# 1 48.8736 44.3035 32.8513 0.0000 -7.3595 0.0000
# 2 44.3035 144.8494 35.0991 0.0000 -2.4053 0.0000
# 3 32.8513 35.0991 64.3650 0.0000 -8.1446 0.0000
# 4 0.0000 0.0000 0.0000 27.1822 0.0000 20.7530
# 5 -7.3595 -2.4053 -8.1446 0.0000 26.6204 0.0000
# 6 0.0000 0.0000 0.0000 20.7530 0.0000 20.0604
#
#
#
# Elastic Compliance Matrix: (Units=1/GPa)
#
#
# Indices 1 2 3 4 5 6 
#
# 1 0.038386 -0.008146 -0.014460 0.000000 0.005452 0.000000
# 2 -0.008146 0.009694 -0.001355 0.000000 -0.001791 0.000000
# 3 -0.014460 -0.001355 0.024066 0.000000 0.003243 0.000000
# 4 0.000000 0.000000 0.000000 0.175050 0.000000 -0.181094
# 5 0.005452 -0.001791 0.003243 0.000000 0.039903 0.000000
# 6 0.000000 0.000000 0.000000 -0.181094 0.000000 0.237196
#
#
# Mechanical properties :
#
#
# Convention : Reuss Voigt Hill
#
# Bulk Modulus (GPa) = 41.28206 53.62176 47.45191
# Shear Modulus (GPa) = 8.61636 24.49487 16.55561
#
# Velocity S-wave (km/s) = 2.11645 3.56849 2.93373
# Velocity P-wave (km/s) = 5.23772 6.69740 6.01202
#
# Compressibility (1/GPa) = 0.02422360
#
# Stress axis : x y z
#
# Youngs Moduli (GPa) = 26.05127 103.15698 41.55286
#
# Poissons Ratio (x) = 0.84035 0.60084
# Poissons Ratio (y) = 0.21222 0.05631
# Poissons Ratio (z) = 0.37669 0.13978
#
# Static dielectric constant tensor:
#      x y z
#    x 1.633340 0.000000 0.006730 
#    y 0.000000 1.734960 0.000000 
#    z 0.006730 0.000000 1.640100 
# 
# From -- ./inp_files/73025.got.cif
#   From: 2010.05.17/outbox.cif.g08.bks.cpg/sg11_37_cif.got.tgz:73025.got - 2010.06.03 12:22:45.
