data_PCOD9165195
_publ_section_title
;
Structure prediction by ZEFSAII (Michael W. Deem and Ramdas Pophale) SiO2 
 PCOD9165195
Probable space group: P 21/M
;
_chemical_formula_sum "Si O2"
_cell_formula_units_Z 32
_cell_length_a 32.452303
_cell_length_b 7.846543
_cell_length_c 12.523040
_cell_angle_alpha 90.000000
_cell_angle_beta 28.066020
_cell_angle_gamma 90.000000
_cell_volume 1500.316179
_symmetry_space_group_name_H-M "P 21/M"
_symmetry_group_IT_number 11
_symmetry_cell_setting 'monoclinic'
loop_
_space_group_symop_operation_xyz
x,y,z
-x,1/2+y,-z
-x,-y,-z
x,1/2-y,z
loop_
_atom_site_type_symbol
_atom_site_label
_atom_site_fract_x
_atom_site_fract_y
_atom_site_fract_z
Si Si1 0.340732 0.041237 0.550673
Si Si2 0.000914 0.447770 0.822519
Si Si3 0.059646 0.456147 0.463682
Si Si4 0.305815 0.450937 0.393571
Si Si5 0.128708 0.949540 0.701329
Si Si6 0.543315 0.456345 0.105602
Si Si7 0.409956 0.953448 0.765894
Si Si8 0.746881 0.953215 0.031261
O O1 0.339711 0.250000 0.553009
O O2 0.305549 0.984270 0.515966
O O3 0.442198 0.989928 0.330284
O O4 0.286646 0.980917 0.777223
O O5 0.976960 0.250000 0.862562
O O6 0.016271 0.524695 0.671561
O O7 0.091199 0.460343 0.682490
O O8 0.926422 0.520221 0.071176
O O9 0.064448 0.250000 0.462863
O O10 0.000000 0.500000 0.500000
O O11 0.158507 0.520708 0.219914
O O12 0.288729 0.250000 0.435571
O O13 0.230146 0.531942 0.494760
O O14 0.398945 0.481549 0.125007
O O15 0.107306 0.750000 0.737390
O O16 0.544663 0.250000 0.101546
O O17 0.583603 0.515597 0.126595
O O18 0.404261 0.750000 0.782517
O O19 0.500000 0.000000 0.500000
O O20 0.327644 0.017514 0.886622
O O21 0.756007 0.750000 0.023131
#
# Coordination Sequence:
#
# PCOD9165195 Si02
#       8
#     4   4   4   4   4   4   4   4
#     4   9  19  38  59  81 115 155 193 238 288 346
#     4   9  20  40  60  85 118 150 193 241 288 346
#     4  10  23  40  63  91 122 157 194 244 298 355
#     4  11  23  36  58  87 115 149 198 243 287 350
#     4  10  21  38  60  84 115 153 191 240 298 346
#     4  10  21  39  59  82 119 156 194 242 292 341
#     4  11  22  38  62  90 121 158 199 246 295 354
#     4  10  21  40  62  87 120 159 199 242 297 354
#
# _framework density 21.328837
#
# number of rings (size 3 to 8) (size 9 to 14) (size 15 to 20)
#    0.000    2.000    1.250    1.500    3.500    2.500 
#    0.000    1.875    0.000    0.000    0.000    0.000 
#    0.000    0.000    0.000    0.000    0.000    0.000 
#
# Total GULP energy -178789.935499 kJ/mol
# GULP energy per Si atom -5587.185484 kJ/mol
# Density = 2.128029 g / cm^3
# Si number density = 21.328837 Si / 1000 Ang^3
#
#
#
# Elastic Constant Matrix: (Units=GPa)
#
#
# Indices 1 2 3 4 5 6 
#
# 1 75.9802 -11.6945 9.1116 0.0000 15.6765 0.0000
# 2 -11.6945 22.1188 0.3940 0.0000 6.6516 0.0000
# 3 9.1116 0.3940 40.3389 0.0000 -2.6572 0.0000
# 4 0.0000 0.0000 0.0000 14.8680 0.0000 -3.0033
# 5 15.6765 6.6516 -2.6572 0.0000 34.6082 0.0000
# 6 0.0000 0.0000 0.0000 -3.0033 0.0000 20.3391
#
#
#
# Elastic Compliance Matrix: (Units=1/GPa)
#
#
# Indices 1 2 3 4 5 6 
#
# 1 0.018016 0.012928 -0.004922 0.000000 -0.011023 0.000000
# 2 0.012928 0.057307 -0.004614 0.000000 -0.017224 0.000000
# 3 -0.004922 -0.004614 0.026285 0.000000 0.005134 0.000000
# 4 0.000000 0.000000 0.000000 0.069326 0.000000 0.010237
# 5 -0.011023 -0.017224 0.005134 0.000000 0.037593 0.000000
# 6 0.000000 0.000000 0.000000 0.010237 0.000000 0.050678
#
#
# Mechanical properties :
#
#
# Convention : Reuss Voigt Hill
#
# Bulk Modulus (GPa) = 9.22587 14.89558 12.06072
# Shear Modulus (GPa) = 17.32789 23.33819 20.33304
#
# Velocity S-wave (km/s) = 2.85338 3.31147 3.09092
# Velocity P-wave (km/s) = 3.89752 4.64974 4.29015
#
# Compressibility (1/GPa) = 0.10839090
#
# Stress axis : x y z
#
# Youngs Moduli (GPa) = 55.50732 17.44978 38.04459
#
# Poissons Ratio (x) = -0.22558 0.18724
# Poissons Ratio (y) = -0.71758 0.17556
# Poissons Ratio (z) = 0.27319 0.08052
#
# Static dielectric constant tensor:
#      x y z
#    x 1.745630 0.000000 0.025750 
#    y 0.000000 1.809930 0.000000 
#    z 0.025750 0.000000 1.751530 
# 
# From -- ./inp_files/45106.got.cif
#   From: 2010.05.17/outbox.cif.g08.bks.cpg/sg11_23_cif.got.tgz:45106.got - 2010.06.03 12:22:45.
