data_PCOD9165542
_publ_section_title
;
Structure prediction by ZEFSAII (Michael W. Deem and Ramdas Pophale) SiO2 
 PCOD9165542
Probable space group: P 21/M
;
_chemical_formula_sum "Si O2"
_cell_formula_units_Z 28
_cell_length_a 12.178472
_cell_length_b 20.694766
_cell_length_c 10.943598
_cell_angle_alpha 90.000000
_cell_angle_beta 25.629793
_cell_angle_gamma 90.000000
_cell_volume 1193.038391
_symmetry_space_group_name_H-M "P 21/M"
_symmetry_group_IT_number 11
_symmetry_cell_setting 'monoclinic'
loop_
_space_group_symop_operation_xyz
x,y,z
-x,1/2+y,-z
-x,-y,-z
x,1/2-y,z
loop_
_atom_site_type_symbol
_atom_site_label
_atom_site_fract_x
_atom_site_fract_y
_atom_site_fract_z
Si Si1 0.309084 0.938270 0.704025
Si Si2 0.279628 0.078533 0.357949
Si Si3 0.801071 0.178412 0.566444
Si Si4 0.010223 0.514232 0.787219
Si Si5 0.520147 0.323952 0.315923
Si Si6 0.327972 0.099669 0.036138
Si Si7 0.098682 0.681980 0.270918
O O1 0.448637 0.871939 0.600546
O O2 0.136605 0.937128 0.756642
O O3 0.500000 0.000000 0.500000
O O4 0.113855 0.957028 0.008343
O O5 0.384760 0.132217 0.347195
O O6 0.386151 0.074253 0.115013
O O7 0.007667 0.110767 0.607416
O O8 0.228194 0.012928 0.480085
O O9 0.803719 0.250000 0.509644
O O10 0.723345 0.185322 0.788349
O O11 0.085967 0.149452 0.280885
O O12 0.579785 0.134257 0.734971
O O13 0.784712 0.544080 0.935322
O O14 0.425336 0.250000 0.433007
O O15 0.786198 0.315354 0.978595
O O16 0.942431 0.750000 0.442013
#
# Coordination Sequence:
#
# PCOD9165542 Si02
#       7
#     4   4   4   4   4   4   4
#     4  11  24  45  69  88 128 176 232 285 342 402
#     4  11  20  38  60  99 131 167 208 279 344 407
#     4  10  21  39  62  94 137 181 217 266 342 414
#     4  11  25  42  64  92 127 180 226 275 343 410
#     4  11  21  37  65  96 125 166 224 284 337 399
#     4  11  24  39  67 101 136 175 225 280 342 418
#     4   9  18  33  56  89 128 162 205 265 331 397
#
# _framework density 23.469487999999998
#
# number of rings (size 3 to 8) (size 9 to 14) (size 15 to 20)
#    0.000    1.429    4.286    1.286    2.000    1.143 
#    0.000    4.286    0.000    0.000    0.000    0.000 
#    0.000    0.000    0.000    0.000    0.000    0.000 
#
# Total GULP energy -156067.094655 kJ/mol
# GULP energy per Si atom -5573.824809 kJ/mol
# Density = 2.341607 g / cm^3
# Si number density = 23.469488 Si / 1000 Ang^3
#
#
#
# Elastic Constant Matrix: (Units=GPa)
#
#
# Indices 1 2 3 4 5 6 
#
# 1 105.5380 63.3117 10.8606 0.0000 -12.5269 0.0000
# 2 63.3117 127.6281 23.6443 0.0000 -9.3268 0.0000
# 3 10.8606 23.6443 51.8804 0.0000 -0.8956 0.0000
# 4 0.0000 0.0000 0.0000 31.4049 0.0000 -6.8584
# 5 -12.5269 -9.3268 -0.8956 0.0000 22.1420 0.0000
# 6 0.0000 0.0000 0.0000 -6.8584 0.0000 33.7443
#
#
#
# Elastic Compliance Matrix: (Units=1/GPa)
#
#
# Indices 1 2 3 4 5 6 
#
# 1 0.014042 -0.006619 0.000166 0.000000 0.005163 0.000000
# 2 -0.006619 0.011950 -0.004041 0.000000 0.001125 0.000000
# 3 0.000166 -0.004041 0.021069 0.000000 -0.000756 0.000000
# 4 0.000000 0.000000 0.000000 0.033321 0.000000 0.006772
# 5 0.005163 0.001125 -0.000756 0.000000 0.048527 0.000000
# 6 0.000000 0.000000 0.000000 0.006772 0.000000 0.031011
#
#
# Mechanical properties :
#
#
# Convention : Reuss Voigt Hill
#
# Bulk Modulus (GPa) = 38.35432 53.40886 45.88159
# Shear Modulus (GPa) = 26.37154 29.94022 28.15588
#
# Velocity S-wave (km/s) = 3.35573 3.57558 3.46740
# Velocity P-wave (km/s) = 5.60288 6.31288 5.96845
#
# Compressibility (1/GPa) = 0.02607268
#
# Stress axis : x y z
#
# Youngs Moduli (GPa) = 71.21642 83.68474 47.46340
#
# Poissons Ratio (x) = 0.55392 -0.00789
# Poissons Ratio (y) = 0.47139 0.19180
# Poissons Ratio (z) = -0.01184 0.33816
#
# Static dielectric constant tensor:
#      x y z
#    x 1.907150 0.000000 -0.031370 
#    y 0.000000 1.962530 0.000000 
#    z -0.031370 0.000000 2.003560 
# 
# From -- ./inp_files/36402.got.cif
#   From: 2010.05.17/outbox.cif.g08.bks.cpg/sg11_19_cif.got.tgz:36402.got - 2010.06.03 12:22:45.
