data_PCOD9165884
_publ_section_title
;
Structure prediction by ZEFSAII (Michael W. Deem and Ramdas Pophale) SiO2 
 PCOD9165884
Probable space group: P 21/M
;
_chemical_formula_sum "Si O2"
_cell_formula_units_Z 24
_cell_length_a 16.548073
_cell_length_b 18.163103
_cell_length_c 10.938371
_cell_angle_alpha 90.000000
_cell_angle_beta 159.349538
_cell_angle_gamma 90.000000
_cell_volume 1159.454269
_symmetry_space_group_name_H-M "P 21/M"
_symmetry_group_IT_number 11
_symmetry_cell_setting 'monoclinic'
loop_
_space_group_symop_operation_xyz
x,y,z
-x,1/2+y,-z
-x,-y,-z
x,1/2-y,z
loop_
_atom_site_type_symbol
_atom_site_label
_atom_site_fract_x
_atom_site_fract_y
_atom_site_fract_z
Si Si1 0.949013 0.250000 0.327147
Si Si2 0.294251 0.121545 0.870861
Si Si3 0.438821 0.750000 0.029140
Si Si4 0.756465 0.409416 0.833172
Si Si5 0.295815 0.096972 0.602769
Si Si6 0.665936 0.250000 0.393690
Si Si7 0.567127 0.007861 0.785653
Si Si8 0.774579 0.250000 0.811120
O O1 0.085188 0.177825 0.562377
O O2 0.711170 0.250000 0.061284
O O3 0.934903 0.250000 0.159819
O O4 0.314079 0.078254 0.771347
O O5 0.511773 0.176383 0.192335
O O6 0.279144 0.060766 0.953785
O O7 0.597907 0.678476 0.254082
O O8 0.287366 0.750000 0.687571
O O9 0.634895 0.470938 0.579737
O O10 0.705299 0.434343 0.899056
O O11 0.652625 0.328575 0.659615
O O12 0.026927 0.405022 0.188933
O O13 0.445604 0.046490 0.727230
O O14 0.837870 0.250000 0.754794
#
# Coordination Sequence:
#
# PCOD9165884 Si02
#       8
#     2   4   2   4   4   2   4   2
#     4  11  22  41  73  97 127 168 231 267 320 383
#     4  10  21  41  65  93 129 171 210 272 321 386
#     4  10  23  44  66 101 125 169 226 278 312 390
#     4  11  24  41  66  94 130 173 215 269 323 392
#     4  11  22  42  66  93 126 172 218 263 326 384
#     4   9  20  39  66  87 129 167 214 260 333 372
#     4  11  24  42  61  98 135 168 213 264 333 390
#     4  12  19  42  69  87 123 178 209 269 321 371
#
# _framework density 20.699392
#
# number of rings (size 3 to 8) (size 9 to 14) (size 15 to 20)
#    0.000    1.333    3.333    3.000    0.000    0.667 
#    6.000    1.667    3.667    0.000    0.000    0.000 
#    0.000    0.000    0.000    0.000    0.000    0.000 
#
# Total GULP energy -133886.056520 kJ/mol
# GULP energy per Si atom -5578.585688 kJ/mol
# Density = 2.065228 g / cm^3
# Si number density = 20.699392 Si / 1000 Ang^3
#
#
#
# Elastic Constant Matrix: (Units=GPa)
#
#
# Indices 1 2 3 4 5 6 
#
# 1 86.8975 39.0098 42.9804 0.0000 -5.9826 0.0000
# 2 39.0098 95.8754 21.9436 0.0000 -4.3963 0.0000
# 3 42.9804 21.9436 74.0893 0.0000 -9.0568 0.0000
# 4 0.0000 0.0000 0.0000 21.0202 0.0000 -5.5299
# 5 -5.9826 -4.3963 -9.0568 0.0000 27.9252 0.0000
# 6 0.0000 0.0000 0.0000 -5.5299 0.0000 40.0292
#
#
#
# Elastic Compliance Matrix: (Units=1/GPa)
#
#
# Indices 1 2 3 4 5 6 
#
# 1 0.018438 -0.005419 -0.009073 0.000000 0.000155 0.000000
# 2 -0.005419 0.012795 -0.000564 0.000000 0.000670 0.000000
# 3 -0.009073 -0.000564 0.019450 0.000000 0.004276 0.000000
# 4 0.000000 0.000000 0.000000 0.049368 0.000000 0.006820
# 5 0.000155 0.000670 0.004276 0.000000 0.037335 0.000000
# 6 0.000000 0.000000 0.000000 0.006820 0.000000 0.025924
#
#
# Mechanical properties :
#
#
# Convention : Reuss Voigt Hill
#
# Bulk Modulus (GPa) = 48.60845 51.63665 50.12255
# Shear Modulus (GPa) = 24.96524 27.99014 26.47769
#
# Velocity S-wave (km/s) = 3.47664 3.68124 3.58040
# Velocity P-wave (km/s) = 6.29683 6.56269 6.43113
#
# Compressibility (1/GPa) = 0.02057255
#
# Stress axis : x y z
#
# Youngs Moduli (GPa) = 54.23469 78.15681 51.41338
#
# Poissons Ratio (x) = 0.42350 0.46646
# Poissons Ratio (y) = 0.29388 0.02901
# Poissons Ratio (z) = 0.49205 0.04409
#
# Static dielectric constant tensor:
#      x y z
#    x 1.737800 0.000000 -0.047640 
#    y 0.000000 1.747890 0.000000 
#    z -0.047640 0.000000 1.772650 
# 
# From -- ./inp_files/41894.got.cif
#   From: 2010.05.17/outbox.cif.g08.bks.cpg/sg11_21_cif.got.tgz:41894.got - 2010.06.03 12:22:45.
