data_PCOD9165603
_publ_section_title
;
Structure prediction by ZEFSAII (Michael W. Deem and Ramdas Pophale) SiO2 
 PCOD9165603
Probable space group: P 21/M
;
_chemical_formula_sum "Si O2"
_cell_formula_units_Z 28
_cell_length_a 27.647786
_cell_length_b 8.578559
_cell_length_c 9.600461
_cell_angle_alpha 90.000000
_cell_angle_beta 42.069706
_cell_angle_gamma 90.000000
_cell_volume 1525.681125
_symmetry_space_group_name_H-M "P 21/M"
_symmetry_group_IT_number 11
_symmetry_cell_setting 'monoclinic'
loop_
_space_group_symop_operation_xyz
x,y,z
-x,1/2+y,-z
-x,-y,-z
x,1/2-y,z
loop_
_atom_site_type_symbol
_atom_site_label
_atom_site_fract_x
_atom_site_fract_y
_atom_site_fract_z
Si Si1 0.703688 0.427217 0.623315
Si Si2 0.562505 0.438098 0.769939
Si Si3 0.920180 0.062822 0.146777
Si Si4 0.818625 0.426858 0.129139
Si Si5 0.429268 0.938071 0.568961
Si Si6 0.193488 0.432377 0.389377
Si Si7 0.266120 0.436905 0.951749
O O1 0.691516 0.250000 0.703082
O O2 0.634304 0.490339 0.694545
O O3 0.762553 0.415624 0.376222
O O4 0.734085 0.536965 0.676919
O O5 0.563029 0.250000 0.767026
O O6 0.560569 0.488252 0.614040
O O7 0.500000 0.500000 0.000000
O O8 0.919824 0.250000 0.140591
O O9 0.887448 0.006251 0.067053
O O10 0.869042 0.013506 0.385834
O O11 0.000000 0.000000 0.000000
O O12 0.834380 0.250000 0.046334
O O13 0.777310 0.516181 0.095068
O O14 0.429241 0.750000 0.577613
O O15 0.500000 0.000000 0.500000
O O16 0.347993 0.994722 0.783790
O O17 0.176060 0.250000 0.419645
O O18 0.215194 0.489479 0.189461
O O19 0.273037 0.250000 0.944226
#
# Coordination Sequence:
#
# PCOD9165603 Si02
#       7
#     4   4   4   4   4   4   4
#     4   9  18  36  56  78 106 144 191 236 286 340
#     4  10  22  38  55  78 109 143 188 241 291 344
#     4  10  21  39  64  92 121 152 189 232 282 340
#     4   9  18  36  60  84 112 148 188 232 281 335
#     4  11  24  42  59  80 114 153 195 245 297 348
#     4  10  22  37  56  86 119 150 189 236 281 334
#     4  11  23  38  58  86 118 153 196 240 286 343
#
# _framework density 18.352459
#
# number of rings (size 3 to 8) (size 9 to 14) (size 15 to 20)
#    0.000    2.000    1.429    2.571    2.000    6.857 
#    0.000    0.714    0.000    0.000    0.000    0.000 
#    0.000    0.000    0.000    0.000    0.000    0.000 
#
# Total GULP energy -155997.731171 kJ/mol
# GULP energy per Si atom -5571.347542 kJ/mol
# Density = 1.831069 g / cm^3
# Si number density = 18.352459 Si / 1000 Ang^3
#
#
#
# Elastic Constant Matrix: (Units=GPa)
#
#
# Indices 1 2 3 4 5 6 
#
# 1 126.3111 24.0840 59.1146 0.0000 -21.9719 0.0000
# 2 24.0840 35.3544 24.4778 0.0000 -2.3064 0.0000
# 3 59.1146 24.4778 87.7862 0.0000 -1.9515 0.0000
# 4 0.0000 0.0000 0.0000 27.9228 0.0000 -1.4303
# 5 -21.9719 -2.3064 -1.9515 0.0000 31.7804 0.0000
# 6 0.0000 0.0000 0.0000 -1.4303 0.0000 31.4384
#
#
#
# Elastic Compliance Matrix: (Units=1/GPa)
#
#
# Indices 1 2 3 4 5 6 
#
# 1 0.013968 -0.003171 -0.008324 0.000000 0.008916 0.000000
# 2 -0.003171 0.035892 -0.007874 0.000000 -0.000071 0.000000
# 3 -0.008324 -0.007874 0.019077 0.000000 -0.005155 0.000000
# 4 0.000000 0.000000 0.000000 0.035897 0.000000 0.001633
# 5 0.008916 -0.000071 -0.005155 0.000000 0.037308 0.000000
# 6 0.000000 0.000000 0.000000 0.001633 0.000000 0.031883
#
#
# Mechanical properties :
#
#
# Convention : Reuss Voigt Hill
#
# Bulk Modulus (GPa) = 33.11243 51.64494 42.37868
# Shear Modulus (GPa) = 22.43870 27.68002 25.05936
#
# Velocity S-wave (km/s) = 3.50044 3.88783 3.69921
# Velocity P-wave (km/s) = 5.86678 6.95380 6.43329
#
# Compressibility (1/GPa) = 0.03020014
#
# Stress axis : x y z
#
# Youngs Moduli (GPa) = 71.59258 27.86119 52.41784
#
# Poissons Ratio (x) = 0.08834 0.43631
# Poissons Ratio (y) = 0.22699 0.41276
# Poissons Ratio (z) = 0.59591 0.21939
#
# Static dielectric constant tensor:
#      x y z
#    x 1.603240 0.000000 0.048590 
#    y 0.000000 1.639830 0.000000 
#    z 0.048590 0.000000 1.553470 
# 
# From -- ./inp_files/28243.got.cif
#   From: 2010.05.17/outbox.cif.g08.bks.cpg/sg11_15_cif.got.tgz:28243.got - 2010.06.03 12:22:45.
