data_PCOD9165697
_publ_section_title
;
Structure prediction by ZEFSAII (Michael W. Deem and Ramdas Pophale) SiO2 
 PCOD9165697
Probable space group: P 21/M
;
_chemical_formula_sum "Si O2"
_cell_formula_units_Z 32
_cell_length_a 15.186344
_cell_length_b 7.833828
_cell_length_c 24.574549
_cell_angle_alpha 90.000000
_cell_angle_beta 149.448184
_cell_angle_gamma 90.000000
_cell_volume 1486.099126
_symmetry_space_group_name_H-M "P 21/M"
_symmetry_group_IT_number 11
_symmetry_cell_setting 'monoclinic'
loop_
_space_group_symop_operation_xyz
x,y,z
-x,1/2+y,-z
-x,-y,-z
x,1/2-y,z
loop_
_atom_site_type_symbol
_atom_site_label
_atom_site_fract_x
_atom_site_fract_y
_atom_site_fract_z
Si Si1 0.558506 0.453684 0.090672
Si Si2 0.936196 0.055051 0.307778
Si Si3 0.736383 0.453116 0.980489
Si Si4 0.738043 0.443436 0.579783
Si Si5 0.484361 0.955595 0.235858
Si Si6 0.148942 0.045604 0.620576
Si Si7 0.554954 0.956113 0.658345
Si Si8 0.107285 0.454011 0.221021
O O1 0.570358 0.250000 0.104899
O O2 0.753024 0.523817 0.194261
O O3 0.424461 0.520545 0.063982
O O4 0.500000 0.500000 0.000000
O O5 0.954982 0.250000 0.296937
O O6 0.912376 0.053173 0.359070
O O7 0.099643 0.952077 0.374516
O O8 0.760040 0.250000 0.987056
O O9 0.671901 0.518598 0.886843
O O10 0.915153 0.521236 0.102799
O O11 0.686298 0.250000 0.564966
O O12 0.580732 0.521554 0.460170
O O13 0.814161 0.514650 0.676915
O O14 0.481390 0.750000 0.232364
O O15 0.664687 0.009628 0.303494
O O16 0.481804 0.002257 0.298199
O O17 0.156113 0.250000 0.634775
O O18 0.000000 0.000000 0.500000
O O19 0.548788 0.750000 0.651400
O O20 0.746194 0.016025 0.742962
O O21 0.096375 0.250000 0.210510
#
# Coordination Sequence:
#
# PCOD9165697 Si02
#       8
#     4   4   4   4   4   4   4   4
#     4  11  23  37  57  85 118 156 196 241 292 351
#     4  11  23  38  57  85 118 155 196 236 290 353
#     4  10  21  40  62  86 120 158 199 247 300 357
#     4  11  23  39  61  90 123 157 199 252 305 362
#     4  10  22  39  60  87 120 158 199 247 299 354
#     4  11  22  37  58  85 119 157 197 243 291 348
#     4  10  23  41  61  88 120 157 200 250 307 359
#     4  10  22  41  64  88 118 157 200 251 307 361
#
# _framework density 21.532885
#
# number of rings (size 3 to 8) (size 9 to 14) (size 15 to 20)
#    0.000    1.500    1.250    3.375    0.000   10.500 
#    0.000    0.000    0.000    0.000    0.000    0.000 
#    0.000    0.000    0.000    0.000    0.000    0.000 
#
# Total GULP energy -178540.489765 kJ/mol
# GULP energy per Si atom -5579.390305 kJ/mol
# Density = 2.148387 g / cm^3
# Si number density = 21.532885 Si / 1000 Ang^3
#
#
#
# Elastic Constant Matrix: (Units=GPa)
#
#
# Indices 1 2 3 4 5 6 
#
# 1 89.2152 -2.9219 31.3921 0.0000 -0.8767 0.0000
# 2 -2.9219 36.9827 5.8539 0.0000 3.6580 0.0000
# 3 31.3921 5.8539 148.9109 0.0000 -6.1116 0.0000
# 4 0.0000 0.0000 0.0000 23.3939 0.0000 -9.5898
# 5 -0.8767 3.6580 -6.1116 0.0000 35.8913 0.0000
# 6 0.0000 0.0000 0.0000 -9.5898 0.0000 29.1450
#
#
#
# Elastic Compliance Matrix: (Units=1/GPa)
#
#
# Indices 1 2 3 4 5 6 
#
# 1 0.012179 0.001408 -0.002635 0.000000 -0.000295 0.000000
# 2 0.001408 0.027691 -0.001510 0.000000 -0.003045 0.000000
# 3 -0.002635 -0.001510 0.007386 0.000000 0.001347 0.000000
# 4 0.000000 0.000000 0.000000 0.049411 0.000000 0.016258
# 5 -0.000295 -0.003045 0.001347 0.000000 0.028394 0.000000
# 6 0.000000 0.000000 0.000000 0.016258 0.000000 0.039661
#
#
# Mechanical properties :
#
#
# Convention : Reuss Voigt Hill
#
# Bulk Modulus (GPa) = 23.93370 38.19522 31.06446
# Shear Modulus (GPa) = 27.15570 33.73835 30.44703
#
# Velocity S-wave (km/s) = 3.55509 3.96261 3.76437
# Velocity P-wave (km/s) = 5.29062 6.22198 5.77510
#
# Compressibility (1/GPa) = 0.04178209
#
# Stress axis : x y z
#
# Youngs Moduli (GPa) = 82.10684 36.11253 135.39899
#
# Poissons Ratio (x) = -0.05086 0.35677
# Poissons Ratio (y) = -0.11565 0.20452
# Poissons Ratio (z) = 0.21635 0.05455
#
# Static dielectric constant tensor:
#      x y z
#    x 1.728800 0.000000 0.033490 
#    y 0.000000 1.803290 0.000000 
#    z 0.033490 0.000000 1.725820 
# 
# From -- ./inp_files/55654.got.cif
#   From: 2010.05.17/outbox.cif.g08.bks.cpg/sg11_28_cif.got.tgz:55654.got - 2010.06.03 12:22:45.
