data_PCOD9165077
_publ_section_title
;
Structure prediction by ZEFSAII (Michael W. Deem and Ramdas Pophale) SiO2 
 PCOD9165077
Probable space group: P 21/M
;
_chemical_formula_sum "Si O2"
_cell_formula_units_Z 28
_cell_length_a 9.321023
_cell_length_b 28.805622
_cell_length_c 5.202266
_cell_angle_alpha 90.000000
_cell_angle_beta 73.744671
_cell_angle_gamma 90.000000
_cell_volume 1340.958699
_symmetry_space_group_name_H-M "P 21/M"
_symmetry_group_IT_number 11
_symmetry_cell_setting 'monoclinic'
loop_
_space_group_symop_operation_xyz
x,y,z
-x,1/2+y,-z
-x,-y,-z
x,1/2-y,z
loop_
_atom_site_type_symbol
_atom_site_label
_atom_site_fract_x
_atom_site_fract_y
_atom_site_fract_z
Si Si1 0.378010 0.697249 0.180393
Si Si2 0.125534 0.798956 0.679857
Si Si3 0.103281 0.162803 0.553476
Si Si4 0.150540 0.622939 0.052453
Si Si5 0.564436 0.941502 0.199538
Si Si6 0.367036 0.545585 0.791624
Si Si7 0.705455 0.656224 0.056854
O O1 0.362608 0.750000 0.083194
O O2 0.295731 0.698688 0.497919
O O3 0.285765 0.655869 0.088925
O O4 0.549788 0.683452 0.110127
O O5 0.098799 0.750000 0.829408
O O6 0.092061 0.845347 0.849518
O O7 0.018815 0.800405 0.484899
O O8 0.213434 0.155523 0.259231
O O9 0.195830 0.176347 0.759678
O O10 0.990602 0.120566 0.686018
O O11 0.220284 0.574880 0.929239
O O12 0.438796 0.938855 0.485369
O O13 0.649747 0.990001 0.203256
O O14 0.484398 0.944002 0.962459
O O15 0.666274 0.896394 0.157067
#
# Coordination Sequence:
#
# PCOD9165077 Si02
#       7
#     4   4   4   4   4   4   4
#     4  10  23  38  64  96 121 159 215 267 311 360
#     4  10  22  43  66  90 123 169 218 259 302 378
#     4  11  26  41  63  88 132 172 204 245 324 380
#     4  11  21  43  66  93 124 171 210 260 307 380
#     4  10  21  39  62 102 123 160 205 266 315 369
#     4  10  21  37  69  93 126 159 213 257 316 372
#     4  12  23  43  63  93 133 165 202 266 317 371
#
# _framework density 20.880583000000001
#
# number of rings (size 3 to 8) (size 9 to 14) (size 15 to 20)
#    0.000    1.429    2.857    2.143    4.000    1.714 
#    0.000    1.429    0.000    0.000    0.000    0.000 
#    0.000    0.000    0.000    0.000    0.000    0.000 
#
# Total GULP energy -156238.213638 kJ/mol
# GULP energy per Si atom -5579.936201 kJ/mol
# Density = 2.083306 g / cm^3
# Si number density = 20.880583 Si / 1000 Ang^3
#
#
#
# Elastic Constant Matrix: (Units=GPa)
#
#
# Indices 1 2 3 4 5 6 
#
# 1 95.5144 4.4561 32.3402 0.0000 -9.4165 0.0000
# 2 4.4561 50.2610 24.1372 0.0000 -12.4675 0.0000
# 3 32.3402 24.1372 100.2698 0.0000 -13.6063 0.0000
# 4 0.0000 0.0000 0.0000 20.4031 0.0000 3.4602
# 5 -9.4165 -12.4675 -13.6063 0.0000 36.6543 0.0000
# 6 0.0000 0.0000 0.0000 3.4602 0.0000 5.3435
#
#
#
# Elastic Compliance Matrix: (Units=1/GPa)
#
#
# Indices 1 2 3 4 5 6 
#
# 1 0.011927 0.001322 -0.003884 0.000000 0.002072 0.000000
# 2 0.001322 0.023943 -0.005306 0.000000 0.006514 0.000000
# 3 -0.003884 -0.005306 0.012766 0.000000 0.001936 0.000000
# 4 0.000000 0.000000 0.000000 0.055059 0.000000 -0.035653
# 5 0.002072 0.006514 0.001936 0.000000 0.030749 0.000000
# 6 0.000000 0.000000 0.000000 -0.035653 0.000000 0.210230
#
#
# Mechanical properties :
#
#
# Convention : Reuss Voigt Hill
#
# Bulk Modulus (GPa) = 30.39555 40.87911 35.63733
# Shear Modulus (GPa) = 13.46345 24.82094 19.14220
#
# Velocity S-wave (km/s) = 2.54201 3.45151 3.03107
# Velocity P-wave (km/s) = 4.81708 5.95852 5.41794
#
# Compressibility (1/GPa) = 0.03289955
#
# Stress axis : x y z
#
# Youngs Moduli (GPa) = 83.84131 41.76603 78.33433
#
# Poissons Ratio (x) = -0.05520 0.30425
# Poissons Ratio (y) = -0.11081 0.41564
# Poissons Ratio (z) = 0.32563 0.22161
#
# Static dielectric constant tensor:
#      x y z
#    x 1.765110 0.000000 0.026670 
#    y 0.000000 1.699460 0.000000 
#    z 0.026670 0.000000 1.798720 
# 
# From -- ./inp_files/3195.got.cif
#   From: 2010.05.17/outbox.cif.g08.bks.cpg/sg11_2_cif.got.tgz:3195.got - 2010.06.03 12:22:45.
