data_PCOD9165766
_publ_section_title
;
Structure prediction by ZEFSAII (Michael W. Deem and Ramdas Pophale) SiO2 
 PCOD9165766
Probable space group: P 21/M
;
_chemical_formula_sum "Si O2"
_cell_formula_units_Z 24
_cell_length_a 11.888052
_cell_length_b 18.355855
_cell_length_c 5.342912
_cell_angle_alpha 90.000000
_cell_angle_beta 120.335725
_cell_angle_gamma 90.000000
_cell_volume 1006.270616
_symmetry_space_group_name_H-M "P 21/M"
_symmetry_group_IT_number 11
_symmetry_cell_setting 'monoclinic'
loop_
_space_group_symop_operation_xyz
x,y,z
-x,1/2+y,-z
-x,-y,-z
x,1/2-y,z
loop_
_atom_site_type_symbol
_atom_site_label
_atom_site_fract_x
_atom_site_fract_y
_atom_site_fract_z
Si Si1 0.670760 0.250000 0.422868
Si Si2 0.481786 0.878459 0.485106
Si Si3 0.651687 0.500465 0.975487
Si Si4 0.906153 0.949896 0.042007
Si Si5 0.294328 0.387555 0.575889
Si Si6 0.056098 0.171724 0.587533
Si Si7 0.844382 0.250000 0.105857
O O1 0.585774 0.322233 0.400291
O O2 0.741076 0.250000 0.227023
O O3 0.777160 0.250000 0.764806
O O4 0.565770 0.938608 0.732070
O O5 0.589040 0.843423 0.419570
O O6 0.388565 0.923339 0.189745
O O7 0.805375 0.506331 0.098398
O O8 0.646187 0.535661 0.249190
O O9 0.812128 0.906697 0.750443
O O10 0.987762 0.893862 0.294075
O O11 0.000000 0.000000 0.000000
O O12 0.204806 0.345816 0.675391
O O13 0.056712 0.250000 0.721275
O O14 0.947059 0.183479 0.253431
#
# Coordination Sequence:
#
# PCOD9165766 Si02
#       7
#     2   4   4   4   4   4   2
#     4  12  28  45  69 103 131 182 224 277 338 404
#     4  10  23  41  67  92 134 169 226 276 332 405
#     4   9  21  42  62  94 128 176 216 281 335 394
#     4  10  22  37  64  97 125 171 220 280 334 403
#     4  10  21  40  64  96 122 177 221 270 341 392
#     4   9  23  41  63  88 135 170 219 275 334 403
#     4  10  28  45  65  99 135 182 218 275 348 390
#
# _framework density 23.850441
#
# number of rings (size 3 to 8) (size 9 to 14) (size 15 to 20)
#    0.500    1.667    0.000    0.500    8.167    4.667 
#   12.000    0.000    0.000    0.000    0.000    0.000 
#    0.000    0.000    0.000    0.000    0.000    0.000 
#
# Total GULP energy -133835.257301 kJ/mol
# GULP energy per Si atom -5576.469054 kJ/mol
# Density = 2.379616 g / cm^3
# Si number density = 23.850441 Si / 1000 Ang^3
#
#
#
# Elastic Constant Matrix: (Units=GPa)
#
#
# Indices 1 2 3 4 5 6 
#
# 1 100.9921 31.2582 -11.9168 0.0000 -9.3554 0.0000
# 2 31.2582 60.6358 -9.7167 0.0000 11.9659 0.0000
# 3 -11.9168 -9.7167 55.8506 0.0000 5.6490 0.0000
# 4 0.0000 0.0000 0.0000 22.6765 0.0000 11.8004
# 5 -9.3554 11.9659 5.6490 0.0000 25.1686 0.0000
# 6 0.0000 0.0000 0.0000 11.8004 0.0000 14.6564
#
#
#
# Elastic Compliance Matrix: (Units=1/GPa)
#
#
# Indices 1 2 3 4 5 6 
#
# 1 0.013468 -0.008648 0.000457 0.000000 0.009015 0.000000
# 2 -0.008648 0.024737 0.004065 0.000000 -0.015888 0.000000
# 3 0.000457 0.004065 0.019327 0.000000 -0.006101 0.000000
# 4 0.000000 0.000000 0.000000 0.075899 0.000000 -0.061109
# 5 0.009015 -0.015888 -0.006101 0.000000 0.052006 0.000000
# 6 0.000000 0.000000 0.000000 -0.061109 0.000000 0.117431
#
#
# Mechanical properties :
#
#
# Convention : Reuss Voigt Hill
#
# Bulk Modulus (GPa) = 20.29247 26.30311 23.29779
# Shear Modulus (GPa) = 15.26504 26.35719 20.81112
#
# Velocity S-wave (km/s) = 2.53263 3.32792 2.95713
# Velocity P-wave (km/s) = 4.13267 5.08124 4.63130
#
# Compressibility (1/GPa) = 0.04927936
#
# Stress axis : x y z
#
# Youngs Moduli (GPa) = 74.25211 40.42521 51.74166
#
# Poissons Ratio (x) = 0.34962 -0.02365
# Poissons Ratio (y) = 0.64217 -0.21035
# Poissons Ratio (z) = -0.03394 -0.16434
#
# Static dielectric constant tensor:
#      x y z
#    x 1.947370 0.000000 0.006780 
#    y 0.000000 1.916340 0.000000 
#    z 0.006780 0.000000 1.850100 
# 
# From -- ./inp_files/4958.got.cif
#   From: 2010.05.17/outbox.cif.g08.bks.cpg/sg11_3_cif.got.tgz:4958.got - 2010.06.03 12:22:45.
