data_PCOD9165795
_publ_section_title
;
Structure prediction by ZEFSAII (Michael W. Deem and Ramdas Pophale) SiO2 
 PCOD9165795
Probable space group: P 21/M
;
_chemical_formula_sum "Si O2"
_cell_formula_units_Z 26
_cell_length_a 20.431068
_cell_length_b 7.406011
_cell_length_c 15.944818
_cell_angle_alpha 90.000000
_cell_angle_beta 30.761135
_cell_angle_gamma 90.000000
_cell_volume 1233.976087
_symmetry_space_group_name_H-M "P 21/M"
_symmetry_group_IT_number 11
_symmetry_cell_setting 'monoclinic'
loop_
_space_group_symop_operation_xyz
x,y,z
-x,1/2+y,-z
-x,-y,-z
x,1/2-y,z
loop_
_atom_site_type_symbol
_atom_site_label
_atom_site_fract_x
_atom_site_fract_y
_atom_site_fract_z
Si Si1 0.205025 0.530956 0.957207
Si Si2 0.119652 0.544724 0.428492
Si Si3 0.702087 0.750000 0.847551
Si Si4 0.670083 0.957857 0.534858
Si Si5 0.393716 0.529425 0.904641
Si Si6 0.644686 0.035783 0.369603
Si Si7 0.067381 0.030829 0.677369
O O1 0.203347 0.750000 0.954648
O O2 0.062242 0.468509 0.135077
O O3 0.299075 0.488484 0.930911
O O4 0.262423 0.466099 0.805930
O O5 0.160027 0.750000 0.368772
O O6 0.231657 0.406203 0.285557
O O7 0.070189 0.525395 0.577640
O O8 0.000000 0.500000 0.500000
O O9 0.649464 0.589616 0.969398
O O10 0.672080 0.750000 0.559716
O O11 0.536803 0.026719 0.718994
O O12 0.802436 0.036727 0.422960
O O13 0.666066 0.962795 0.438854
O O14 0.389064 0.750000 0.923544
O O15 0.662164 0.250000 0.356410
O O16 0.500000 0.000000 0.500000
O O17 0.064601 0.250000 0.683281
#
# Coordination Sequence:
#
# PCOD9165795 Si02
#       7
#     4   4   2   4   4   4   4
#     4   9  19  36  62  92 126 169 223 272 318 388
#     4  12  24  43  68  99 135 172 221 278 339 401
#     4  12  24  40  68  96 124 170 224 276 334 390
#     4  10  22  40  64  93 134 177 215 271 338 396
#     4  10  21  40  65  95 131 172 222 276 331 393
#     4  11  21  36  61  94 130 173 223 271 325 388
#     4  10  21  42  67  91 129 179 219 273 340 397
#
# _framework density 21.070101999999999
#
# number of rings (size 3 to 8) (size 9 to 14) (size 15 to 20)
#    0.000    1.538    3.077    1.846    1.077    2.462 
#    1.385    0.769    0.000    0.000    0.000    0.000 
#    0.000    0.000    0.000    0.000    0.000    0.000 
#
# Total GULP energy -144772.832606 kJ/mol
# GULP energy per Si atom -5568.185869 kJ/mol
# Density = 2.102215 g / cm^3
# Si number density = 21.070102 Si / 1000 Ang^3
#
#
#
# Elastic Constant Matrix: (Units=GPa)
#
#
# Indices 1 2 3 4 5 6 
#
# 1 308.5155 45.1439 484.0394 0.0000 -85.3321 0.0000
# 2 45.1439 134.1285 135.0816 0.0000 -20.7460 0.0000
# 3 484.0394 135.0816 1022.7126 0.0000 -133.7002 0.0000
# 4 0.0000 0.0000 0.0000 31.3157 0.0000 20.7919
# 5 -85.3321 -20.7460 -133.7002 0.0000 58.0552 0.0000
# 6 0.0000 0.0000 0.0000 20.7919 0.0000 9.0600
#
#
#
# Elastic Compliance Matrix: (Units=1/GPa)
#
#
# Indices 1 2 3 4 5 6 
#
# 1 0.015667 0.002763 -0.006639 0.000000 0.008725 0.000000
# 2 0.002763 0.009104 -0.002223 0.000000 0.002194 0.000000
# 3 -0.006639 -0.002223 0.004341 0.000000 -0.000556 0.000000
# 4 0.000000 0.000000 0.000000 -0.060977 0.000000 0.139935
# 5 0.008725 0.002194 -0.000556 0.000000 0.029554 0.000000
# 6 0.000000 0.000000 0.000000 0.139935 0.000000 -0.210763
#
#
# Mechanical properties :
#
#
# Convention : Reuss Voigt Hill
#
# Bulk Modulus (GPa) = 59.12698 310.43182 184.77940
# Shear Modulus (GPa) = -25.60984 73.09229 23.74123
#
# Velocity S-wave (km/s) = -3.49012 5.89622 3.36039
# Velocity P-wave (km/s) = 3.44698 13.92862 10.14614
#
# Compressibility (1/GPa) = 0.01691275
#
# Stress axis : x y z
#
# Youngs Moduli (GPa) = 63.82938 109.84069 230.35731
#
# Poissons Ratio (x) = -0.30348 1.52939
# Poissons Ratio (y) = -0.17636 0.51215
# Poissons Ratio (z) = 0.42378 0.24421
#
# Static dielectric constant tensor:
#      x y z
#    x 1.724640 0.000000 -0.028760 
#    y 0.000000 1.776930 0.000000 
#    z -0.028760 0.000000 1.733890 
# 
# From -- ./inp_files/54204.got.cif
#   From: 2010.05.17/outbox.cif.g08.bks.cpg/sg11_28_cif.got.tgz:54204.got - 2010.06.03 12:22:45.
