data_PCOD9165056
_publ_section_title
;
Structure prediction by ZEFSAII (Michael W. Deem and Ramdas Pophale) SiO2 
 PCOD9165056
Probable space group: P 21/M
;
_chemical_formula_sum "Si O2"
_cell_formula_units_Z 30
_cell_length_a 9.296861
_cell_length_b 15.513974
_cell_length_c 18.102143
_cell_angle_alpha 90.000000
_cell_angle_beta 153.145897
_cell_angle_gamma 90.000000
_cell_volume 1179.393927
_symmetry_space_group_name_H-M "P 21/M"
_symmetry_group_IT_number 11
_symmetry_cell_setting 'monoclinic'
loop_
_space_group_symop_operation_xyz
x,y,z
-x,1/2+y,-z
-x,-y,-z
x,1/2-y,z
loop_
_atom_site_type_symbol
_atom_site_label
_atom_site_fract_x
_atom_site_fract_y
_atom_site_fract_z
Si Si1 0.222497 0.973771 0.948500
Si Si2 0.096862 0.750000 0.485559
Si Si3 0.582786 0.620391 0.320283
Si Si4 0.369750 0.955040 0.743018
Si Si5 0.945036 0.930988 0.671463
Si Si6 0.069885 0.150306 0.071837
Si Si7 0.659429 0.379414 0.522843
Si Si8 0.096754 0.842819 0.213673
O O1 0.214980 0.945289 0.859776
O O2 0.983605 0.909940 0.881962
O O3 0.088532 0.070585 0.889776
O O4 0.520302 0.978734 0.140542
O O5 0.869348 0.676158 0.420543
O O6 0.288540 0.825982 0.526801
O O7 0.664433 0.520595 0.341021
O O8 0.446229 0.642741 0.338475
O O9 0.257528 0.642050 0.124823
O O10 0.640976 0.889217 0.842033
O O11 0.102647 0.903578 0.666362
O O12 0.686855 0.875571 0.597984
O O13 0.764520 0.020542 0.568115
O O14 0.124745 0.250000 0.113932
O O15 0.888794 0.341401 0.691427
O O16 0.970987 0.750000 0.129508
#
# Coordination Sequence:
#
# PCOD9165056 Si02
#       8
#     4   2   4   4   4   4   4   4
#     4  10  21  37  63  94 126 163 200 251 313 382
#     4  12  20  38  64  88 116 162 220 262 292 364
#     4  11  20  35  63  92 121 153 207 270 304 359
#     4  11  20  38  63  95 123 163 201 249 320 383
#     4  10  22  42  60  83 126 164 202 252 308 366
#     4  11  21  38  58  91 132 163 197 254 321 379
#     4  10  23  40  60  85 120 163 207 263 306 349
#     4  11  19  36  62  92 123 156 210 265 307 353
#
# _framework density 25.436793000000002
#
# number of rings (size 3 to 8) (size 9 to 14) (size 15 to 20)
#    0.000    1.333    6.000    1.200    0.000    0.000 
#    2.400    2.000    0.000    0.000    0.000    0.000 
#    0.000    0.000    0.000    0.000    0.000    0.000 
#
# Total GULP energy -167229.691714 kJ/mol
# GULP energy per Si atom -5574.323057 kJ/mol
# Density = 2.537890 g / cm^3
# Si number density = 25.436793 Si / 1000 Ang^3
#
#
#
# Elastic Constant Matrix: (Units=GPa)
#
#
# Indices 1 2 3 4 5 6 
#
# 1 142.4190 32.2361 34.9994 0.0000 27.3559 0.0000
# 2 32.2361 128.6911 17.1658 0.0000 13.1285 0.0000
# 3 34.9994 17.1658 42.1322 0.0000 1.9587 0.0000
# 4 0.0000 0.0000 0.0000 44.3355 0.0000 29.6233
# 5 27.3559 13.1285 1.9587 0.0000 45.1786 0.0000
# 6 0.0000 0.0000 0.0000 29.6233 0.0000 49.6193
#
#
#
# Elastic Compliance Matrix: (Units=1/GPa)
#
#
# Indices 1 2 3 4 5 6 
#
# 1 0.010240 -0.000947 -0.007861 0.000000 -0.005585 0.000000
# 2 -0.000947 0.008539 -0.002609 0.000000 -0.001795 0.000000
# 3 -0.007861 -0.002609 0.031135 0.000000 0.004168 0.000000
# 4 0.000000 0.000000 0.000000 0.037523 0.000000 -0.022402
# 5 -0.005585 -0.001795 0.004168 0.000000 0.025857 0.000000
# 6 0.000000 0.000000 0.000000 -0.022402 0.000000 0.033528
#
#
# Mechanical properties :
#
#
# Convention : Reuss Voigt Hill
#
# Bulk Modulus (GPa) = 36.92843 53.56053 45.24448
# Shear Modulus (GPa) = 27.98260 43.08275 35.53267
#
# Velocity S-wave (km/s) = 3.32035 4.11995 3.74157
# Velocity P-wave (km/s) = 5.40822 6.61317 6.04081
#
# Compressibility (1/GPa) = 0.02707941
#
# Stress axis : x y z
#
# Youngs Moduli (GPa) = 97.65149 117.11206 32.11864
#
# Poissons Ratio (x) = 0.11088 0.25250
# Poissons Ratio (y) = 0.09246 0.08380
# Poissons Ratio (z) = 0.76768 0.30554
#
# Static dielectric constant tensor:
#      x y z
#    x 2.000880 0.000000 -0.064720 
#    y 0.000000 1.960020 0.000000 
#    z -0.064720 0.000000 2.195420 
# 
# From -- ./inp_files/63969.got.cif
#   From: 2010.05.17/outbox.cif.g08.bks.cpg/sg11_32_cif.got.tgz:63969.got - 2010.06.03 12:22:45.
