data_PCOD9165228
_publ_section_title
;
Structure prediction by ZEFSAII (Michael W. Deem and Ramdas Pophale) SiO2 
 PCOD9165228
Probable space group: P 21/M
;
_chemical_formula_sum "Si O2"
_cell_formula_units_Z 32
_cell_length_a 12.775621
_cell_length_b 8.555020
_cell_length_c 19.324128
_cell_angle_alpha 90.000000
_cell_angle_beta 49.645104
_cell_angle_gamma 90.000000
_cell_volume 1609.479471
_symmetry_space_group_name_H-M "P 21/M"
_symmetry_group_IT_number 11
_symmetry_cell_setting 'monoclinic'
loop_
_space_group_symop_operation_xyz
x,y,z
-x,1/2+y,-z
-x,-y,-z
x,1/2-y,z
loop_
_atom_site_type_symbol
_atom_site_label
_atom_site_fract_x
_atom_site_fract_y
_atom_site_fract_z
Si Si1 0.077909 0.068928 0.031380
Si Si2 0.129716 0.066512 0.646169
Si Si3 0.412120 0.438957 0.472461
Si Si4 0.433333 0.562209 0.736000
Si Si5 0.323571 0.441072 0.011681
Si Si6 0.840111 0.568581 0.208249
Si Si7 0.427512 0.562266 0.183889
Si Si8 0.822696 0.563200 0.783706
O O1 0.097496 0.250000 0.010293
O O2 0.223423 0.003292 0.992550
O O3 0.972323 0.037915 0.138599
O O4 0.000000 0.000000 0.000000
O O5 0.107494 0.250000 0.641314
O O6 0.253654 0.005864 0.545471
O O7 0.191758 0.054365 0.697213
O O8 0.980374 0.988798 0.708953
O O9 0.500000 0.500000 0.500000
O O10 0.410574 0.250000 0.478039
O O11 0.480078 0.480043 0.370035
O O12 0.419455 0.750000 0.744944
O O13 0.284217 0.486555 0.786577
O O14 0.506257 0.501151 0.773852
O O15 0.322165 0.250000 0.014274
O O16 0.251125 0.494627 0.113422
O O17 0.474991 0.489203 0.922773
O O18 0.873577 0.750000 0.179616
O O19 0.427901 0.750000 0.185734
O O20 0.275370 0.500143 0.234826
O O21 0.818555 0.750000 0.786308
#
# Coordination Sequence:
#
# PCOD9165228 Si02
#       8
#     4   4   4   4   4   4   4   4
#     4  11  21  35  53  81 120 160 201 244 298 358
#     4  10  21  38  60  89 120 153 194 242 296 357
#     4  10  21  38  62  91 123 155 195 244 300 361
#     4  11  23  39  61  90 122 158 199 248 300 359
#     4   9  20  37  58  83 115 154 198 245 292 347
#     4  11  21  35  57  85 120 158 196 241 297 357
#     4  11  23  41  62  86 119 159 200 247 301 358
#     4  11  22  40  63  88 118 155 202 252 297 350
#
# _framework density 19.882207000000001
#
# number of rings (size 3 to 8) (size 9 to 14) (size 15 to 20)
#    0.000    1.500    2.500    3.000    0.000    2.500 
#    0.000    4.375    0.000    0.000    0.000    0.000 
#    0.000    0.000    0.000    0.000    0.000    0.000 
#
# Total GULP energy -178672.306585 kJ/mol
# GULP energy per Si atom -5583.509581 kJ/mol
# Density = 1.983695 g / cm^3
# Si number density = 19.882207 Si / 1000 Ang^3
#
#
#
# Elastic Constant Matrix: (Units=GPa)
#
#
# Indices 1 2 3 4 5 6 
#
# 1 124.9008 17.9656 28.6250 0.0000 -23.5033 0.0000
# 2 17.9656 20.8578 -1.9401 0.0000 -2.7864 0.0000
# 3 28.6250 -1.9401 77.2174 0.0000 -14.7425 0.0000
# 4 0.0000 0.0000 0.0000 21.7912 0.0000 -1.2205
# 5 -23.5033 -2.7864 -14.7425 0.0000 28.1341 0.0000
# 6 0.0000 0.0000 0.0000 -1.2205 0.0000 30.6634
#
#
#
# Elastic Compliance Matrix: (Units=1/GPa)
#
#
# Indices 1 2 3 4 5 6 
#
# 1 0.011337 -0.009127 -0.003107 0.000000 0.006939 0.000000
# 2 -0.009127 0.056330 0.004898 0.000000 0.000521 0.000000
# 3 -0.003107 0.004898 0.015359 0.000000 0.005938 0.000000
# 4 0.000000 0.000000 0.000000 0.045993 0.000000 0.001831
# 5 0.006939 0.000521 0.005938 0.000000 0.044504 0.000000
# 6 0.000000 0.000000 0.000000 0.001831 0.000000 0.032685
#
#
# Mechanical properties :
#
#
# Convention : Reuss Voigt Hill
#
# Bulk Modulus (GPa) = 14.62968 34.69743 24.66356
# Shear Modulus (GPa) = 20.52002 28.00611 24.26306
#
# Velocity S-wave (km/s) = 3.21608 3.75721 3.49713
# Velocity P-wave (km/s) = 4.60055 6.02590 5.36081
#
# Compressibility (1/GPa) = 0.06835418
#
# Stress axis : x y z
#
# Youngs Moduli (GPa) = 88.20667 17.75244 65.10835
#
# Poissons Ratio (x) = 0.16203 0.20231
# Poissons Ratio (y) = 0.80507 -0.31892
# Poissons Ratio (z) = 0.27408 -0.08696
#
# Static dielectric constant tensor:
#      x y z
#    x 1.693550 0.000000 0.006850 
#    y 0.000000 1.599460 0.000000 
#    z 0.006850 0.000000 1.758890 
# 
# From -- ./inp_files/45332.got.cif
#   From: 2010.05.17/outbox.cif.g08.bks.cpg/sg11_23_cif.got.tgz:45332.got - 2010.06.03 12:22:45.
