data_PCOD9165814
_publ_section_title
;
Structure prediction by ZEFSAII (Michael W. Deem and Ramdas Pophale) SiO2 
 PCOD9165814
Probable space group: P 21/M
;
_chemical_formula_sum "Si O2"
_cell_formula_units_Z 32
_cell_length_a 13.395113
_cell_length_b 17.777462
_cell_length_c 11.758120
_cell_angle_alpha 90.000000
_cell_angle_beta 34.628460
_cell_angle_gamma 90.000000
_cell_volume 1591.092459
_symmetry_space_group_name_H-M "P 21/M"
_symmetry_group_IT_number 11
_symmetry_cell_setting 'monoclinic'
loop_
_space_group_symop_operation_xyz
x,y,z
-x,1/2+y,-z
-x,-y,-z
x,1/2-y,z
loop_
_atom_site_type_symbol
_atom_site_label
_atom_site_fract_x
_atom_site_fract_y
_atom_site_fract_z
Si Si1 0.201707 0.160617 0.684695
Si Si2 0.403176 0.661127 0.742879
Si Si3 0.921974 0.564410 0.414626
Si Si4 0.143754 0.333896 0.312117
Si Si5 0.914025 0.159971 0.131077
Si Si6 0.342352 0.564054 0.023342
Si Si7 0.514911 0.896028 0.099741
Si Si8 0.828645 0.393324 0.459004
O O1 0.170955 0.250000 0.693521
O O2 0.410046 0.147992 0.492809
O O3 0.125778 0.113296 0.650935
O O4 0.096246 0.140513 0.897670
O O5 0.391457 0.750000 0.780995
O O6 0.241455 0.642464 0.812169
O O7 0.392947 0.614074 0.867777
O O8 0.846314 0.605535 0.596443
O O9 0.846258 0.481026 0.474569
O O10 0.131972 0.559666 0.229717
O O11 0.141580 0.250000 0.362636
O O12 0.968121 0.349010 0.405488
O O13 0.312964 0.345459 0.074237
O O14 0.911251 0.250000 0.154769
O O15 0.880175 0.118737 0.280516
O O16 0.419152 0.480516 0.936566
O O17 0.419071 0.599238 0.066974
O O18 0.369748 0.869916 0.325742
#
# Coordination Sequence:
#
# PCOD9165814 Si02
#       8
#     4   4   4   4   4   4   4   4
#     4  10  21  40  66  95 128 165 210 269 323 365
#     4  10  21  40  66  96 128 166 216 269 316 368
#     4  12  22  42  69  96 127 167 209 269 323 373
#     4  12  26  43  66  97 128 164 214 261 317 388
#     4  10  23  42  63  90 126 168 215 262 311 376
#     4  11  21  41  68  95 130 166 210 258 324 378
#     4  11  24  42  65  94 131 171 203 259 320 383
#     4  12  25  44  66  92 132 174 212 257 317 383
#
# _framework density 20.111968000000001
#
# number of rings (size 3 to 8) (size 9 to 14) (size 15 to 20)
#    0.000    1.000    3.750    4.125    0.000    4.500 
#    0.000    2.500    0.000    0.000    0.000    0.000 
#    0.000    0.000    0.000    0.000    0.000    0.000 
#
# Total GULP energy -179074.585121 kJ/mol
# GULP energy per Si atom -5596.080785 kJ/mol
# Density = 2.006619 g / cm^3
# Si number density = 20.111968 Si / 1000 Ang^3
#
#
#
# Elastic Constant Matrix: (Units=GPa)
#
#
# Indices 1 2 3 4 5 6 
#
# 1 29.1113 30.0552 28.7313 0.0000 12.8462 0.0000
# 2 30.0552 58.7177 36.3689 0.0000 7.3332 0.0000
# 3 28.7313 36.3689 152.1952 0.0000 -2.7060 0.0000
# 4 0.0000 0.0000 0.0000 50.2016 0.0000 26.5380
# 5 12.8462 7.3332 -2.7060 0.0000 35.7197 0.0000
# 6 0.0000 0.0000 0.0000 26.5380 0.0000 41.7057
#
#
#
# Elastic Compliance Matrix: (Units=1/GPa)
#
#
# Indices 1 2 3 4 5 6 
#
# 1 0.097785 -0.040948 -0.009163 0.000000 -0.027455 0.000000
# 2 -0.040948 0.037876 -0.001199 0.000000 0.006860 0.000000
# 3 -0.009163 -0.001199 0.008661 0.000000 0.004198 0.000000
# 4 0.000000 0.000000 0.000000 0.030016 0.000000 -0.019100
# 5 -0.027455 0.006860 0.004198 0.000000 0.036779 0.000000
# 6 0.000000 0.000000 0.000000 -0.019100 0.000000 0.036131
#
#
# Mechanical properties :
#
#
# Convention : Reuss Voigt Hill
#
# Bulk Modulus (GPa) = 23.97908 47.81498 35.89703
# Shear Modulus (GPa) = 13.74495 35.18332 24.46413
#
# Velocity S-wave (km/s) = 2.61707 4.18709 3.49147
# Velocity P-wave (km/s) = 4.59138 6.87034 5.84304
#
# Compressibility (1/GPa) = 0.04170301
#
# Stress axis : x y z
#
# Youngs Moduli (GPa) = 10.22651 26.40183 115.45496
#
# Poissons Ratio (x) = 1.08110 1.05790
# Poissons Ratio (y) = 0.41876 0.13841
# Poissons Ratio (z) = 0.09370 0.03165
#
# Static dielectric constant tensor:
#      x y z
#    x 1.673830 0.000000 -0.018920 
#    y 0.000000 1.689800 0.000000 
#    z -0.018920 0.000000 1.716950 
# 
# From -- ./inp_files/39936.got.cif
#   From: 2010.05.17/outbox.cif.g08.bks.cpg/sg11_20_cif.got.tgz:39936.got - 2010.06.03 12:22:45.
