data_PCOD9165336
_publ_section_title
;
Structure prediction by ZEFSAII (Michael W. Deem and Ramdas Pophale) SiO2 
 PCOD9165336
Probable space group: P 21/M
;
_chemical_formula_sum "Si O2"
_cell_formula_units_Z 32
_cell_length_a 11.158910
_cell_length_b 21.125433
_cell_length_c 8.465073
_cell_angle_alpha 90.000000
_cell_angle_beta 55.411108
_cell_angle_gamma 90.000000
_cell_volume 1642.812369
_symmetry_space_group_name_H-M "P 21/M"
_symmetry_group_IT_number 11
_symmetry_cell_setting 'monoclinic'
loop_
_space_group_symop_operation_xyz
x,y,z
-x,1/2+y,-z
-x,-y,-z
x,1/2-y,z
loop_
_atom_site_type_symbol
_atom_site_label
_atom_site_fract_x
_atom_site_fract_y
_atom_site_fract_z
Si Si1 0.007717 0.323353 0.823304
Si Si2 0.784924 0.567105 0.197925
Si Si3 0.391468 0.495138 0.227749
Si Si4 0.808262 0.442269 0.400573
Si Si5 0.435632 0.380739 0.412773
Si Si6 0.175761 0.322850 0.396905
Si Si7 0.743902 0.322253 0.238159
Si Si8 0.861884 0.934522 0.781365
O O1 0.058502 0.250000 0.818503
O O2 0.095829 0.379415 0.844306
O O3 0.037182 0.333448 0.615804
O O4 0.843675 0.326944 0.007052
O O5 0.799263 0.502616 0.288400
O O6 0.634422 0.598660 0.368153
O O7 0.804890 0.552359 0.999763
O O8 0.329180 0.552806 0.378045
O O9 0.462751 0.445204 0.295373
O O10 0.240353 0.468799 0.268396
O O11 0.500000 0.500000 0.000000
O O12 0.800883 0.376084 0.314081
O O13 0.967672 0.448773 0.357756
O O14 0.311256 0.345673 0.403302
O O15 0.578088 0.339462 0.324731
O O16 0.191743 0.250000 0.350844
O O17 0.160681 0.361683 0.248905
O O18 0.757215 0.250000 0.287174
#
# Coordination Sequence:
#
# PCOD9165336 Si02
#       8
#     4   4   4   4   4   4   4   4
#     4   9  19  37  60  88 119 154 199 244 298 359
#     4  10  21  38  62  91 115 157 208 245 300 353
#     4  10  24  39  60  88 122 155 194 247 307 365
#     4  11  24  40  61  89 123 160 198 256 304 361
#     4   9  21  38  61  84 117 154 198 243 294 362
#     4   9  19  38  59  82 116 156 194 240 296 359
#     4  11  23  38  62  91 119 157 204 252 301 355
#     4  11  22  37  59  92 119 153 199 250 300 358
#
# _framework density 19.478791999999999
#
# number of rings (size 3 to 8) (size 9 to 14) (size 15 to 20)
#    0.000    2.000    1.250    1.875    3.500    3.500 
#    0.000    0.000    0.000    0.750    0.000    0.000 
#    0.000    0.000    0.000    0.000    0.000    0.000 
#
# Total GULP energy -178484.163470 kJ/mol
# GULP energy per Si atom -5577.630108 kJ/mol
# Density = 1.943446 g / cm^3
# Si number density = 19.478792 Si / 1000 Ang^3
#
#
#
# Elastic Constant Matrix: (Units=GPa)
#
#
# Indices 1 2 3 4 5 6 
#
# 1 50.1811 23.4980 14.7983 0.0000 -12.9674 0.0000
# 2 23.4980 75.5161 19.0620 0.0000 -14.7241 0.0000
# 3 14.7983 19.0620 77.8895 0.0000 -26.6366 0.0000
# 4 0.0000 0.0000 0.0000 26.2384 0.0000 -2.0565
# 5 -12.9674 -14.7241 -26.6366 0.0000 23.3378 0.0000
# 6 0.0000 0.0000 0.0000 -2.0565 0.0000 20.3321
#
#
#
# Elastic Compliance Matrix: (Units=1/GPa)
#
#
# Indices 1 2 3 4 5 6 
#
# 1 0.025363 -0.005875 0.000280 0.000000 0.010706 0.000000
# 2 -0.005875 0.016485 -0.000784 0.000000 0.006242 0.000000
# 3 0.000280 -0.000784 0.021095 0.000000 0.023738 0.000000
# 4 0.000000 0.000000 0.000000 0.038417 0.000000 0.003886
# 5 0.010706 0.006242 0.023738 0.000000 0.079829 0.000000
# 6 0.000000 0.000000 0.000000 0.003886 0.000000 0.049576
#
#
# Mechanical properties :
#
#
# Convention : Reuss Voigt Hill
#
# Bulk Modulus (GPa) = 19.92590 35.36703 27.64646
# Shear Modulus (GPa) = 19.21219 23.73024 21.47121
#
# Velocity S-wave (km/s) = 3.14397 3.49415 3.32367
# Velocity P-wave (km/s) = 4.84057 5.87153 5.38080
#
# Compressibility (1/GPa) = 0.05018594
#
# Stress axis : x y z
#
# Youngs Moduli (GPa) = 39.42768 60.66030 47.40407
#
# Poissons Ratio (x) = 0.35640 -0.01329
# Poissons Ratio (y) = 0.23165 0.03715
# Poissons Ratio (z) = -0.01105 0.04754
#
# Static dielectric constant tensor:
#      x y z
#    x 1.672980 0.000000 -0.015220 
#    y 0.000000 1.696760 0.000000 
#    z -0.015220 0.000000 1.687020 
# 
# From -- ./inp_files/19367.got.cif
#   From: 2010.05.17/outbox.cif.g08.bks.cpg/sg11_10_cif.got.tgz:19367.got - 2010.06.03 12:22:45.
