data_PCOD9165181
_publ_section_title
;
Structure prediction by ZEFSAII (Michael W. Deem and Ramdas Pophale) SiO2 
 PCOD9165181
Probable space group: P 21/M
;
_chemical_formula_sum "Si O2"
_cell_formula_units_Z 28
_cell_length_a 16.689869
_cell_length_b 16.340436
_cell_length_c 5.339620
_cell_angle_alpha 90.000000
_cell_angle_beta 68.208620
_cell_angle_gamma 90.000000
_cell_volume 1352.160752
_symmetry_space_group_name_H-M "P 21/M"
_symmetry_group_IT_number 11
_symmetry_cell_setting 'monoclinic'
loop_
_space_group_symop_operation_xyz
x,y,z
-x,1/2+y,-z
-x,-y,-z
x,1/2-y,z
loop_
_atom_site_type_symbol
_atom_site_label
_atom_site_fract_x
_atom_site_fract_y
_atom_site_fract_z
Si Si1 0.301863 0.527604 0.576469
Si Si2 0.531345 0.954120 0.718884
Si Si3 0.124294 0.346182 0.567641
Si Si4 0.786230 0.346643 0.668491
Si Si5 0.173044 0.064580 0.995385
Si Si6 0.614049 0.340883 0.215077
Si Si7 0.049845 0.566452 0.267692
O O1 0.364782 0.459039 0.389495
O O2 0.230823 0.577356 0.501776
O O3 0.260373 0.486829 0.869956
O O4 0.363519 0.601178 0.581788
O O5 0.477027 0.870433 0.788042
O O6 0.500000 0.000000 0.500000
O O7 0.500000 0.000000 0.000000
O O8 0.130499 0.250000 0.518213
O O9 0.172772 0.373828 0.762810
O O10 0.025088 0.372907 0.730923
O O11 0.157434 0.393505 0.280555
O O12 0.796774 0.250000 0.570437
O O13 0.873651 0.377151 0.704905
O O14 0.697998 0.345884 0.936067
O O15 0.099121 0.996330 0.028853
O O16 0.607375 0.250000 0.315561
O O17 0.000000 0.500000 0.500000
#
# Coordination Sequence:
#
# PCOD9165181 Si02
#       7
#     4   4   4   4   4   4   4
#     4  11  21  38  64  90 128 166 212 255 316 380
#     4  10  21  38  62  89 120 161 203 242 304 379
#     4  11  24  43  63  89 126 169 214 270 323 372
#     4  11  21  36  60  92 128 162 206 266 321 370
#     4  11  23  40  66  92 123 166 216 262 314 384
#     4  10  21  38  59  91 126 158 200 260 316 368
#     4  10  21  40  61  89 123 164 214 260 313 384
#
# _framework density 20.707598000000001
#
# number of rings (size 3 to 8) (size 9 to 14) (size 15 to 20)
#    0.000    1.429    2.857    3.429    0.000    1.143 
#    0.000    4.286    0.000    0.000    0.000    0.000 
#    0.000    0.000    0.000    0.000    0.000    0.000 
#
# Total GULP energy -155890.817973 kJ/mol
# GULP energy per Si atom -5567.529213 kJ/mol
# Density = 2.066047 g / cm^3
# Si number density = 20.707598 Si / 1000 Ang^3
#
#
#
# Elastic Constant Matrix: (Units=GPa)
#
#
# Indices 1 2 3 4 5 6 
#
# 1 55.1538 41.9663 15.7840 0.0000 -7.5832 0.0000
# 2 41.9663 107.1792 20.7846 0.0000 -14.3131 0.0000
# 3 15.7840 20.7846 79.5420 0.0000 -8.4704 0.0000
# 4 0.0000 0.0000 0.0000 28.5813 0.0000 -0.3361
# 5 -7.5832 -14.3131 -8.4704 0.0000 33.5009 0.0000
# 6 0.0000 0.0000 0.0000 -0.3361 0.0000 34.5420
#
#
#
# Elastic Compliance Matrix: (Units=1/GPa)
#
#
# Indices 1 2 3 4 5 6 
#
# 1 0.026396 -0.009676 -0.002583 0.000000 0.001188 0.000000
# 2 -0.009676 0.013829 -0.001333 0.000000 0.003381 0.000000
# 3 -0.002583 -0.001333 0.013678 0.000000 0.002304 0.000000
# 4 0.000000 0.000000 0.000000 0.034992 0.000000 0.000340
# 5 0.001188 0.003381 0.002304 0.000000 0.032146 0.000000
# 6 0.000000 0.000000 0.000000 0.000340 0.000000 0.028954
#
#
# Mechanical properties :
#
#
# Convention : Reuss Voigt Hill
#
# Bulk Modulus (GPa) = 37.42738 44.32719 40.87729
# Shear Modulus (GPa) = 26.86938 30.21420 28.54179
#
# Velocity S-wave (km/s) = 3.60608 3.82394 3.71661
# Velocity P-wave (km/s) = 5.95414 6.39918 6.18067
#
# Compressibility (1/GPa) = 0.02671841
#
# Stress axis : x y z
#
# Youngs Moduli (GPa) = 37.88453 72.31252 73.10827
#
# Poissons Ratio (x) = 0.69969 0.18885
# Poissons Ratio (y) = 0.36657 0.09749
# Poissons Ratio (z) = 0.09786 0.09642
#
# Static dielectric constant tensor:
#      x y z
#    x 0.933500 0.000000 -0.534010 
#    y 0.000000 1.771270 0.000000 
#    z -0.534010 0.000000 1.462010 
# 
# From -- ./inp_files/8012.got.cif
#   From: 2010.05.17/outbox.cif.g08.bks.cpg/sg11_5_cif.got.tgz:8012.got - 2010.06.03 12:22:45.
