data_PCOD9165460
_publ_section_title
;
Structure prediction by ZEFSAII (Michael W. Deem and Ramdas Pophale) SiO2 
 PCOD9165460
Probable space group: P 21/M
;
_chemical_formula_sum "Si O2"
_cell_formula_units_Z 32
_cell_length_a 9.476408
_cell_length_b 14.582222
_cell_length_c 20.402209
_cell_angle_alpha 90.000000
_cell_angle_beta 34.240640
_cell_angle_gamma 90.000000
_cell_volume 1586.347473
_symmetry_space_group_name_H-M "P 21/M"
_symmetry_group_IT_number 11
_symmetry_cell_setting 'monoclinic'
loop_
_space_group_symop_operation_xyz
x,y,z
-x,1/2+y,-z
-x,-y,-z
x,1/2-y,z
loop_
_atom_site_type_symbol
_atom_site_label
_atom_site_fract_x
_atom_site_fract_y
_atom_site_fract_z
Si Si1 0.044545 0.392674 0.495701
Si Si2 0.527016 0.648302 0.295583
Si Si3 0.179650 0.647512 0.734498
Si Si4 0.979427 0.141946 0.662696
Si Si5 0.447333 0.041644 0.844447
Si Si6 0.246597 0.036132 0.063987
Si Si7 0.541693 0.148247 0.232374
Si Si8 0.216098 0.454888 0.693083
O O1 0.253628 0.356494 0.366802
O O2 0.000000 0.500000 0.500000
O O3 0.772615 0.347884 0.595768
O O4 0.127245 0.373236 0.538214
O O5 0.631934 0.750000 0.262368
O O6 0.626782 0.600533 0.191058
O O7 0.577656 0.588570 0.340032
O O8 0.233674 0.750000 0.691013
O O9 0.296571 0.635410 0.762762
O O10 0.272552 0.561573 0.655703
O O11 0.880786 0.627527 0.856568
O O12 0.915371 0.250000 0.693807
O O13 0.727846 0.078989 0.754083
O O14 0.141735 0.105536 0.660355
O O15 0.288267 0.051539 0.971279
O O16 0.430796 0.936346 0.827397
O O17 0.969857 0.036623 0.834579
O O18 0.500000 0.000000 0.000000
O O19 0.598804 0.250000 0.184432
#
# Coordination Sequence:
#
# PCOD9165460 Si02
#       8
#     4   4   4   4   4   4   4   4
#     4  11  20  39  66  89 118 164 202 255 304 361
#     4  11  22  37  60  93 125 157 207 257 305 362
#     4   9  20  38  62  88 121 163 201 247 303 360
#     4  11  22  37  62  91 122 162 206 247 308 373
#     4  11  19  39  61  89 118 161 205 256 301 361
#     4  10  21  39  61  83 122 161 203 251 302 363
#     4  11  21  38  63  90 123 158 200 253 310 363
#     4  10  21  41  59  88 126 161 192 265 303 355
#
# _framework density 20.172124
#
# number of rings (size 3 to 8) (size 9 to 14) (size 15 to 20)
#    0.750    0.750    5.000    2.625    0.000    3.000 
#    0.000    7.500    0.000    1.500    0.000    0.000 
#    0.000    0.000    0.000    0.000    0.000    0.000 
#
# Total GULP energy -178442.587178 kJ/mol
# GULP energy per Si atom -5576.330849 kJ/mol
# Density = 2.012621 g / cm^3
# Si number density = 20.172124 Si / 1000 Ang^3
#
#
#
# Elastic Constant Matrix: (Units=GPa)
#
#
# Indices 1 2 3 4 5 6 
#
# 1 72.4805 23.1125 -6.2800 0.0000 -2.3568 0.0000
# 2 23.1125 146.6808 -6.8822 0.0000 1.7088 0.0000
# 3 -6.2800 -6.8822 19.1978 0.0000 -1.7726 0.0000
# 4 0.0000 0.0000 0.0000 14.0374 0.0000 -0.2208
# 5 -2.3568 1.7088 -1.7726 0.0000 23.0109 0.0000
# 6 0.0000 0.0000 0.0000 -0.2208 0.0000 26.8658
#
#
#
# Elastic Compliance Matrix: (Units=1/GPa)
#
#
# Indices 1 2 3 4 5 6 
#
# 1 0.014928 -0.002174 0.004290 0.000000 0.002021 0.000000
# 2 -0.002174 0.007253 0.001832 0.000000 -0.000620 0.000000
# 3 0.004290 0.001832 0.054566 0.000000 0.004507 0.000000
# 4 0.000000 0.000000 0.000000 0.071248 0.000000 0.000586
# 5 0.002021 -0.000620 0.004507 0.000000 0.044058 0.000000
# 6 0.000000 0.000000 0.000000 0.000586 0.000000 0.037227
#
#
# Mechanical properties :
#
#
# Convention : Reuss Voigt Hill
#
# Bulk Modulus (GPa) = 11.81452 28.69552 20.25502
# Shear Modulus (GPa) = 20.03224 28.01007 24.02116
#
# Velocity S-wave (km/s) = 3.15471 3.73037 3.45455
# Velocity P-wave (km/s) = 4.37484 5.72804 5.09655
#
# Compressibility (1/GPa) = 0.08464161
#
# Stress axis : x y z
#
# Youngs Moduli (GPa) = 66.98993 137.86807 18.32656
#
# Poissons Ratio (x) = 0.29978 -0.07863
# Poissons Ratio (y) = 0.14566 -0.03357
# Poissons Ratio (z) = -0.28740 -0.25253
#
# Static dielectric constant tensor:
#      x y z
#    x 1.709420 0.000000 -0.020540 
#    y 0.000000 1.750690 0.000000 
#    z -0.020540 0.000000 1.725020 
# 
# From -- ./inp_files/63809.got.cif
#   From: 2010.05.17/outbox.cif.g08.bks.cpg/sg11_32_cif.got.tgz:63809.got - 2010.06.03 12:22:45.
