data_PCOD9165798
_publ_section_title
;
Structure prediction by ZEFSAII (Michael W. Deem and Ramdas Pophale) SiO2 
 PCOD9165798
Probable space group: P 21/M
;
_chemical_formula_sum "Si O2"
_cell_formula_units_Z 30
_cell_length_a 10.677822
_cell_length_b 19.765953
_cell_length_c 10.317895
_cell_angle_alpha 90.000000
_cell_angle_beta 141.349230
_cell_angle_gamma 90.000000
_cell_volume 1360.109745
_symmetry_space_group_name_H-M "P 21/M"
_symmetry_group_IT_number 11
_symmetry_cell_setting 'monoclinic'
loop_
_space_group_symop_operation_xyz
x,y,z
-x,1/2+y,-z
-x,-y,-z
x,1/2-y,z
loop_
_atom_site_type_symbol
_atom_site_label
_atom_site_fract_x
_atom_site_fract_y
_atom_site_fract_z
Si Si1 0.353324 0.174996 0.453906
Si Si2 0.429751 0.510211 0.796969
Si Si3 0.082056 0.250000 0.917444
Si Si4 0.471190 0.640889 0.139869
Si Si5 0.677046 0.632720 0.035582
Si Si6 0.036583 0.962856 0.356915
Si Si7 0.218593 0.877496 0.276871
Si Si8 0.063001 0.596976 0.877460
O O1 0.309263 0.250000 0.362142
O O2 0.417545 0.180172 0.656601
O O3 0.549194 0.143402 0.545548
O O4 0.154018 0.130772 0.285227
O O5 0.483049 0.437613 0.781732
O O6 0.193600 0.521984 0.596588
O O7 0.500000 0.500000 0.000000
O O8 0.549467 0.577156 0.852194
O O9 0.235583 0.190935 0.983118
O O10 0.917164 0.310021 0.822351
O O11 0.550371 0.655173 0.059586
O O12 0.231057 0.646845 0.952492
O O13 0.864210 0.590834 0.246265
O O14 0.173408 0.926448 0.358938
O O15 0.951724 0.030607 0.222838
O O16 0.146405 0.915629 0.088622
#
# Coordination Sequence:
#
# PCOD9165798 Si02
#       8
#     4   4   2   4   4   4   4   4
#     4  11  24  42  65  93 130 180 217 273 332 387
#     4  10  21  40  65  99 130 171 212 269 327 385
#     4  10  22  46  66  90 130 178 210 272 332 394
#     4  10  22  41  65  96 136 163 222 272 319 399
#     4  10  23  41  68  96 133 173 214 273 332 389
#     4  11  22  41  68 100 131 171 222 271 334 391
#     4  10  24  43  65  94 134 169 226 275 321 394
#     4  11  23  40  67  99 127 178 218 270 333 387
#
# _framework density 22.057044000000001
#
# number of rings (size 3 to 8) (size 9 to 14) (size 15 to 20)
#    0.000    1.600    3.333    0.400    1.867    7.467 
#    0.000    2.667    0.000    0.000    0.000    0.000 
#    0.000    0.000    0.000    0.000    0.000    0.000 
#
# Total GULP energy -167158.823011 kJ/mol
# GULP energy per Si atom -5571.960767 kJ/mol
# Density = 2.200684 g / cm^3
# Si number density = 22.057044 Si / 1000 Ang^3
#
#
#
# Elastic Constant Matrix: (Units=GPa)
#
#
# Indices 1 2 3 4 5 6 
#
# 1 90.8492 -5.5695 15.5968 0.0000 25.0128 0.0000
# 2 -5.5695 67.6040 15.1536 0.0000 4.7500 0.0000
# 3 15.5968 15.1536 79.9995 0.0000 22.4662 0.0000
# 4 0.0000 0.0000 0.0000 16.6954 0.0000 6.2021
# 5 25.0128 4.7500 22.4662 0.0000 40.2501 0.0000
# 6 0.0000 0.0000 0.0000 6.2021 0.0000 30.6766
#
#
#
# Elastic Compliance Matrix: (Units=1/GPa)
#
#
# Indices 1 2 3 4 5 6 
#
# 1 0.013502 0.001841 -0.000669 0.000000 -0.008235 0.000000
# 2 0.001841 0.015701 -0.002954 0.000000 -0.001348 0.000000
# 3 -0.000669 -0.002954 0.015387 0.000000 -0.007825 0.000000
# 4 0.000000 0.000000 0.000000 0.064760 0.000000 -0.013093
# 5 -0.008235 -0.001348 -0.007825 0.000000 0.034488 0.000000
# 6 0.000000 0.000000 0.000000 -0.013093 0.000000 0.035245
#
#
# Mechanical properties :
#
#
# Convention : Reuss Voigt Hill
#
# Bulk Modulus (GPa) = 24.37487 32.09050 28.23268
# Shear Modulus (GPa) = 25.46813 31.74255 28.60534
#
# Velocity S-wave (km/s) = 3.40170 3.79768 3.60513
# Velocity P-wave (km/s) = 5.14816 5.81466 5.49153
#
# Compressibility (1/GPa) = 0.04102585
#
# Stress axis : x y z
#
# Youngs Moduli (GPa) = 74.06270 63.69180 64.98813
#
# Poissons Ratio (x) = -0.11724 0.04344
# Poissons Ratio (y) = -0.13633 0.19200
# Poissons Ratio (z) = 0.04951 0.18817
#
# Static dielectric constant tensor:
#      x y z
#    x 1.858620 0.000000 -0.012510 
#    y 0.000000 0.090960 0.000000 
#    z -0.012510 0.000000 1.825280 
# 
# From -- ./inp_files/36456.got.cif
#   From: 2010.05.17/outbox.cif.g08.bks.cpg/sg11_19_cif.got.tgz:36456.got - 2010.06.03 12:22:45.
