data_PCOD9165174
_publ_section_title
;
Structure prediction by ZEFSAII (Michael W. Deem and Ramdas Pophale) SiO2 
 PCOD9165174
Probable space group: P 21/M
;
_chemical_formula_sum "Si O2"
_cell_formula_units_Z 28
_cell_length_a 14.982865
_cell_length_b 7.619788
_cell_length_c 13.130298
_cell_angle_alpha 90.000000
_cell_angle_beta 123.076361
_cell_angle_gamma 90.000000
_cell_volume 1256.108950
_symmetry_space_group_name_H-M "P 21/M"
_symmetry_group_IT_number 11
_symmetry_cell_setting 'monoclinic'
loop_
_space_group_symop_operation_xyz
x,y,z
-x,1/2+y,-z
-x,-y,-z
x,1/2-y,z
loop_
_atom_site_type_symbol
_atom_site_label
_atom_site_fract_x
_atom_site_fract_y
_atom_site_fract_z
Si Si1 0.891190 0.960765 0.990010
Si Si2 0.574910 0.041737 0.950904
Si Si3 0.289555 0.465736 0.277903
Si Si4 0.255696 0.451335 0.480275
Si Si5 0.124137 0.038695 0.588022
Si Si6 0.816111 0.955718 0.153609
Si Si7 0.509193 0.453769 0.323088
O O1 0.880917 0.750000 0.989423
O O2 0.791267 0.023136 0.860472
O O3 0.882968 0.030257 0.100214
O O4 0.000000 0.000000 0.000000
O O5 0.582005 0.250000 0.943258
O O6 0.526599 0.967007 0.816678
O O7 0.500000 0.000000 0.000000
O O8 0.692706 0.970593 0.046099
O O9 0.291401 0.250000 0.279238
O O10 0.250486 0.528323 0.363760
O O11 0.409728 0.521771 0.327279
O O12 0.218915 0.250000 0.446615
O O13 0.188211 0.532073 0.530240
O O14 0.379539 0.452592 0.588695
O O15 0.141205 0.250000 0.598981
O O16 0.164275 0.968721 0.722087
O O17 0.000000 0.000000 0.500000
O O18 0.844102 0.750000 0.178647
O O19 0.526343 0.250000 0.359365
#
# Coordination Sequence:
#
# PCOD9165174 Si02
#       7
#     4   4   4   4   4   4   4
#     4  10  21  38  60  86 119 157 200 252 304 359
#     4  12  24  38  61  91 122 158 199 245 296 359
#     4   9  19  37  60  85 120 160 195 244 305 355
#     4  10  21  38  59  87 120 157 202 248 299 357
#     4  10  23  40  61  85 115 155 196 243 295 352
#     4  10  21  41  62  85 121 159 197 247 305 356
#     4  11  21  38  61  88 122 159 197 243 302 361
#
# _framework density 22.291058
#
# number of rings (size 3 to 8) (size 9 to 14) (size 15 to 20)
#    0.000    1.714    1.429    3.000    2.000    2.857 
#    0.000    1.429    0.000    0.000    0.000    0.000 
#    0.000    0.000    0.000    0.000    0.000    0.000 
#
# Total GULP energy -156546.595232 kJ/mol
# GULP energy per Si atom -5590.949830 kJ/mol
# Density = 2.224032 g / cm^3
# Si number density = 22.291058 Si / 1000 Ang^3
#
#
#
# Elastic Constant Matrix: (Units=GPa)
#
#
# Indices 1 2 3 4 5 6 
#
# 1 151.2963 -3.1602 33.1624 0.0000 -41.3714 0.0000
# 2 -3.1602 49.9404 3.8717 0.0000 -11.7217 0.0000
# 3 33.1624 3.8717 84.3949 0.0000 -34.2022 0.0000
# 4 0.0000 0.0000 0.0000 10.3870 0.0000 8.6850
# 5 -41.3714 -11.7217 -34.2022 0.0000 43.3544 0.0000
# 6 0.0000 0.0000 0.0000 8.6850 0.0000 22.2313
#
#
#
# Elastic Compliance Matrix: (Units=1/GPa)
#
#
# Indices 1 2 3 4 5 6 
#
# 1 0.009311 0.002877 0.000184 0.000000 0.009809 0.000000
# 2 0.002877 0.022502 0.002081 0.000000 0.010471 0.000000
# 3 0.000184 0.002081 0.017611 0.000000 0.014632 0.000000
# 4 0.000000 0.000000 0.000000 0.142979 0.000000 -0.055857
# 5 0.009809 0.010471 0.014632 0.000000 0.046800 0.000000
# 6 0.000000 0.000000 0.000000 -0.055857 0.000000 0.066803
#
#
# Mechanical properties :
#
#
# Convention : Reuss Voigt Hill
#
# Bulk Modulus (GPa) = 16.74798 39.26439 28.00618
# Shear Modulus (GPa) = 15.84159 31.97839 23.90999
#
# Velocity S-wave (km/s) = 2.66873 3.79170 3.27865
# Velocity P-wave (km/s) = 4.12623 6.06811 5.18882
#
# Compressibility (1/GPa) = 0.05970870
#
# Stress axis : x y z
#
# Youngs Moduli (GPa) = 107.39485 44.43997 56.78328
#
# Poissons Ratio (x) = -0.12786 -0.01047
# Poissons Ratio (y) = -0.30900 -0.11814
# Poissons Ratio (z) = -0.01979 -0.09246
#
# Static dielectric constant tensor:
#      x y z
#    x 1.791100 0.000000 -0.043900 
#    y 0.000000 1.921560 0.000000 
#    z -0.043900 0.000000 1.795770 
# 
# From -- ./inp_files/37872.got.cif
#   From: 2010.05.17/outbox.cif.g08.bks.cpg/sg11_19_cif.got.tgz:37872.got - 2010.06.03 12:22:45.
