data_PCOD9165579
_publ_section_title
;
Structure prediction by ZEFSAII (Michael W. Deem and Ramdas Pophale) SiO2 
 PCOD9165579
Probable space group: P 21/M
;
_chemical_formula_sum "Si O2"
_cell_formula_units_Z 24
_cell_length_a 12.498583
_cell_length_b 15.897800
_cell_length_c 8.186358
_cell_angle_alpha 90.000000
_cell_angle_beta 142.016318
_cell_angle_gamma 90.000000
_cell_volume 1001.087778
_symmetry_space_group_name_H-M "P 21/M"
_symmetry_group_IT_number 11
_symmetry_cell_setting 'monoclinic'
loop_
_space_group_symop_operation_xyz
x,y,z
-x,1/2+y,-z
-x,-y,-z
x,1/2-y,z
loop_
_atom_site_type_symbol
_atom_site_label
_atom_site_fract_x
_atom_site_fract_y
_atom_site_fract_z
Si Si1 0.827027 0.443656 0.526295
Si Si2 0.802159 0.156732 0.921640
Si Si3 0.298128 0.990125 0.965314
Si Si4 0.613408 0.553295 0.502678
Si Si5 0.898349 0.843179 0.989783
Si Si6 0.525756 0.155672 0.296691
O O1 0.795780 0.489597 0.319833
O O2 0.684528 0.368577 0.365545
O O3 0.770162 0.499335 0.613454
O O4 0.018784 0.408038 0.782722
O O5 0.801441 0.250000 0.002900
O O6 0.966711 0.155489 0.998777
O O7 0.805681 0.072828 0.036387
O O8 0.481178 0.936691 0.193874
O O9 0.378758 0.083812 0.094564
O O10 0.500000 0.500000 0.500000
O O11 0.632107 0.344769 0.598299
O O12 0.897764 0.750000 0.057807
O O13 0.711295 0.868694 0.697475
O O14 0.462976 0.250000 0.193091
#
# Coordination Sequence:
#
# PCOD9165579 Si02
#       6
#     4   4   4   4   4   4
#     4  10  21  39  63  92 131 172 211 268 336 388
#     4   9  19  36  62  91 126 171 220 270 323 388
#     4  11  21  37  63  98 132 171 214 266 339 395
#     4  11  22  40  65  91 121 168 221 265 316 389
#     4  10  22  43  67  93 124 167 220 270 316 383
#     4   9  17  33  57  89 130 177 224 271 319 381
#
# _framework density 23.973921000000001
#
# number of rings (size 3 to 8) (size 9 to 14) (size 15 to 20)
#    0.000    2.000    0.000    7.500    0.000    2.000 
#    0.000   11.667    0.000    0.000    0.000    2.333 
#    0.000    0.000    0.000    0.000    0.000    0.000 
#
# Total GULP energy -133868.764959 kJ/mol
# GULP energy per Si atom -5577.865207 kJ/mol
# Density = 2.391936 g / cm^3
# Si number density = 23.973921 Si / 1000 Ang^3
#
#
#
# Elastic Constant Matrix: (Units=GPa)
#
#
# Indices 1 2 3 4 5 6 
#
# 1 72.2583 22.9855 23.4076 0.0000 19.2826 0.0000
# 2 22.9855 167.1285 41.6425 0.0000 -9.6077 0.0000
# 3 23.4076 41.6425 71.1819 0.0000 9.8276 0.0000
# 4 0.0000 0.0000 0.0000 27.5578 0.0000 6.5820
# 5 19.2826 -9.6077 9.8276 0.0000 42.7894 0.0000
# 6 0.0000 0.0000 0.0000 6.5820 0.0000 20.0639
#
#
#
# Elastic Compliance Matrix: (Units=1/GPa)
#
#
# Indices 1 2 3 4 5 6 
#
# 1 0.017653 -0.001963 -0.003612 0.000000 -0.007566 0.000000
# 2 -0.001963 0.007514 -0.004240 0.000000 0.003545 0.000000
# 3 -0.003612 -0.004240 0.018200 0.000000 -0.003504 0.000000
# 4 0.000000 0.000000 0.000000 0.039372 0.000000 -0.012916
# 5 -0.007566 0.003545 -0.003504 0.000000 0.028381 0.000000
# 6 0.000000 0.000000 0.000000 -0.012916 0.000000 0.054078
#
#
# Mechanical properties :
#
#
# Convention : Reuss Voigt Hill
#
# Bulk Modulus (GPa) = 42.12691 54.07110 48.09901
# Shear Modulus (GPa) = 25.94177 32.91774 29.42976
#
# Velocity S-wave (km/s) = 3.29307 3.70951 3.50748
# Velocity P-wave (km/s) = 5.66297 6.39925 6.04233
#
# Compressibility (1/GPa) = 0.02373779
#
# Stress axis : x y z
#
# Youngs Moduli (GPa) = 56.64824 133.09345 54.94397
#
# Poissons Ratio (x) = 0.26123 0.19846
# Poissons Ratio (y) = 0.11119 0.23294
# Poissons Ratio (z) = 0.20462 0.56426
#
# Static dielectric constant tensor:
#      x y z
#    x 2.038190 0.000000 0.006480 
#    y 0.000000 2.015040 0.000000 
#    z 0.006480 0.000000 1.915150 
# 
# From -- ./inp_files/22326.got.cif
#   From: 2010.05.17/outbox.cif.g08.bks.cpg/sg11_12_cif.got.tgz:22326.got - 2010.06.03 12:22:45.
