data_PCOD9165971
_publ_section_title
;
Structure prediction by ZEFSAII (Michael W. Deem and Ramdas Pophale) SiO2 
 PCOD9165971
Probable space group: P 21/M
;
_chemical_formula_sum "Si O2"
_cell_formula_units_Z 16
_cell_length_a 5.165886
_cell_length_b 12.311102
_cell_length_c 10.010702
_cell_angle_alpha 90.000000
_cell_angle_beta 89.592842
_cell_angle_gamma 90.000000
_cell_volume 636.642043
_symmetry_space_group_name_H-M "P 21/M"
_symmetry_group_IT_number 11
_symmetry_cell_setting 'monoclinic'
loop_
_space_group_symop_operation_xyz
x,y,z
-x,1/2+y,-z
-x,-y,-z
x,1/2-y,z
loop_
_atom_site_type_symbol
_atom_site_label
_atom_site_fract_x
_atom_site_fract_y
_atom_site_fract_z
Si Si1 0.863232 0.369318 0.721736
Si Si2 0.777055 0.627279 0.048777
Si Si3 0.304981 0.750000 0.647812
Si Si4 0.193248 0.250000 0.532670
Si Si5 0.450471 0.449185 0.209488
O O1 0.734748 0.250000 0.709119
O O2 0.117237 0.351569 0.628915
O O3 0.705289 0.475648 0.685884
O O4 0.948379 0.378934 0.876704
O O5 0.683782 0.750000 0.073034
O O6 0.611633 0.536867 0.124654
O O7 0.751997 0.606755 0.891909
O O8 0.023294 0.750000 0.583384
O O9 0.365423 0.857726 0.732069
O O10 0.530119 0.750000 0.534664
#
# Coordination Sequence:
#
# PCOD9165971 Si02
#       5
#     4   4   2   2   4
#     4   9  22  42  68  96 129 185 225 285 333 420
#     4  10  21  42  68 102 132 177 228 288 354 415
#     4  12  28  47  65 108 140 182 236 283 334 405
#     4  10  28  47  69  98 142 188 236 275 336 407
#     4  11  23  40  70  99 139 175 227 289 353 402
#
# _framework density 25.131862999999999
#
# number of rings (size 3 to 8) (size 9 to 14) (size 15 to 20)
#    0.750    1.000    1.250    1.500    7.000    2.000 
#    0.000    0.000    0.000    0.000    0.000    0.000 
#    0.000    0.000    0.000    0.000    0.000    0.000 
#
# Total GULP energy -89430.376191 kJ/mol
# GULP energy per Si atom -5589.398512 kJ/mol
# Density = 2.507466 g / cm^3
# Si number density = 25.131863 Si / 1000 Ang^3
#
#
#
# Elastic Constant Matrix: (Units=GPa)
#
#
# Indices 1 2 3 4 5 6 
#
# 1 60.9316 30.3409 25.2218 0.0000 10.3339 0.0000
# 2 30.3409 142.3269 31.5099 0.0000 17.7658 0.0000
# 3 25.2218 31.5099 85.6349 0.0000 35.1446 0.0000
# 4 0.0000 0.0000 0.0000 -2.4448 0.0000 -5.9666
# 5 10.3339 17.7658 35.1446 0.0000 45.3773 0.0000
# 6 0.0000 0.0000 0.0000 -5.9666 0.0000 25.3633
#
#
#
# Elastic Compliance Matrix: (Units=1/GPa)
#
#
# Indices 1 2 3 4 5 6 
#
# 1 0.019964 -0.003235 -0.004901 0.000000 0.000516 0.000000
# 2 -0.003235 0.008218 -0.001544 0.000000 -0.001285 0.000000
# 3 -0.004901 -0.001544 0.019032 0.000000 -0.013020 0.000000
# 4 0.000000 0.000000 0.000000 -0.259850 0.000000 -0.061128
# 5 0.000516 -0.001285 -0.013020 0.000000 0.032507 0.000000
# 6 0.000000 0.000000 0.000000 -0.061128 0.000000 0.025047
#
#
# Mechanical properties :
#
#
# Convention : Reuss Voigt Hill
#
# Bulk Modulus (GPa) = 35.90134 51.44874 43.67504
# Shear Modulus (GPa) = -39.54577 27.11388 -6.21595
#
# Velocity S-wave (km/s) = -3.97108 3.28817 -1.57439
# Velocity P-wave (km/s) = 2.59032 5.91033 3.75648
#
# Compressibility (1/GPa) = 0.02785411
#
# Stress axis : x y z
#
# Youngs Moduli (GPa) = 50.08978 121.68559 52.54171
#
# Poissons Ratio (x) = 0.39368 0.25753
# Poissons Ratio (y) = 0.16205 0.08110
# Poissons Ratio (z) = 0.24551 0.18782
#
# Static dielectric constant tensor:
#      x y z
#    x 2.054770 0.000000 0.003190 
#    y 0.000000 1.971980 0.000000 
#    z 0.003190 0.000000 2.018720 
# 
# From -- ./inp_files/3755.got.cif
#   From: 2010.05.17/outbox.cif.g08.bks.cpg/sg11_2_cif.got.tgz:3755.got - 2010.06.03 12:22:45.
