data_PCOD9165253
_publ_section_title
;
Structure prediction by ZEFSAII (Michael W. Deem and Ramdas Pophale) SiO2 
 PCOD9165253
Probable space group: P 21/M
;
_chemical_formula_sum "Si O2"
_cell_formula_units_Z 28
_cell_length_a 9.658618
_cell_length_b 8.777321
_cell_length_c 26.188956
_cell_angle_alpha 90.000000
_cell_angle_beta 39.867855
_cell_angle_gamma 90.000000
_cell_volume 1423.200682
_symmetry_space_group_name_H-M "P 21/M"
_symmetry_group_IT_number 11
_symmetry_cell_setting 'monoclinic'
loop_
_space_group_symop_operation_xyz
x,y,z
-x,1/2+y,-z
-x,-y,-z
x,1/2-y,z
loop_
_atom_site_type_symbol
_atom_site_label
_atom_site_fract_x
_atom_site_fract_y
_atom_site_fract_z
Si Si1 0.219365 0.067928 0.915417
Si Si2 0.926384 0.566988 0.249143
Si Si3 0.440734 0.431460 0.571485
Si Si4 0.187223 0.427158 0.334025
Si Si5 0.856647 0.928856 0.496038
Si Si6 0.345927 0.071163 0.172445
Si Si7 0.665885 0.067381 0.227635
O O1 0.211543 0.250000 0.916089
O O2 0.424912 0.013164 0.890538
O O3 0.255565 0.002329 0.848232
O O4 0.000000 0.000000 0.000000
O O5 0.934000 0.750000 0.244798
O O6 0.785384 0.521551 0.339032
O O7 0.798235 0.503483 0.236653
O O8 0.165607 0.499806 0.186899
O O9 0.500000 0.500000 0.500000
O O10 0.443360 0.250000 0.566588
O O11 0.629108 0.488094 0.555631
O O12 0.126248 0.250000 0.360689
O O13 0.251620 0.442663 0.256798
O O14 0.407461 0.461382 0.302860
O O15 0.995030 0.535288 0.405940
O O16 0.825769 0.750000 0.511762
O O17 0.000000 0.000000 0.500000
O O18 0.377195 0.250000 0.153192
O O19 0.692587 0.250000 0.218939
#
# Coordination Sequence:
#
# PCOD9165253 Si02
#       7
#     4   4   4   4   4   4   4
#     4  11  22  40  66  94 124 154 188 231 278 337
#     4  11  23  38  57  85 118 154 196 243 293 346
#     4  11  24  40  58  81 113 153 199 247 298 351
#     4   9  19  36  57  80 108 144 192 242 289 344
#     4  12  24  36  53  77 108 146 192 244 297 346
#     4  10  21  38  61  87 115 151 190 230 280 340
#     4  10  21  38  61  88 117 154 195 237 289 346
#
# _framework density 19.673964000000002
#
# number of rings (size 3 to 8) (size 9 to 14) (size 15 to 20)
#    0.000    1.429    0.000    6.857    0.000   10.286 
#    0.000    0.714    0.000    0.000    0.000    0.000 
#    0.000    0.000    0.000    0.000    0.000    0.000 
#
# Total GULP energy -156603.865671 kJ/mol
# GULP energy per Si atom -5592.995203 kJ/mol
# Density = 1.962919 g / cm^3
# Si number density = 19.673964 Si / 1000 Ang^3
#
#
#
# Elastic Constant Matrix: (Units=GPa)
#
#
# Indices 1 2 3 4 5 6 
#
# 1 104.8081 23.9114 17.3393 0.0000 -22.5267 0.0000
# 2 23.9114 78.2539 36.0814 0.0000 -12.6604 0.0000
# 3 17.3393 36.0814 80.3782 0.0000 -21.1788 0.0000
# 4 0.0000 0.0000 0.0000 31.2428 0.0000 -1.1633
# 5 -22.5267 -12.6604 -21.1788 0.0000 28.3941 0.0000
# 6 0.0000 0.0000 0.0000 -1.1633 0.0000 36.3337
#
#
#
# Elastic Compliance Matrix: (Units=1/GPa)
#
#
# Indices 1 2 3 4 5 6 
#
# 1 0.011918 -0.002639 0.000989 0.000000 0.009016 0.000000
# 2 -0.002639 0.016813 -0.006913 0.000000 0.000246 0.000000
# 3 0.000989 -0.006913 0.018328 0.000000 0.011373 0.000000
# 4 0.000000 0.000000 0.000000 0.032046 0.000000 0.001026
# 5 0.009016 0.000246 0.011373 0.000000 0.050965 0.000000
# 6 0.000000 0.000000 0.000000 0.001026 0.000000 0.027555
#
#
# Mechanical properties :
#
#
# Convention : Reuss Voigt Hill
#
# Bulk Modulus (GPa) = 33.40821 46.45604 39.93213
# Shear Modulus (GPa) = 27.06716 31.60133 29.33424
#
# Velocity S-wave (km/s) = 3.71318 4.01215 3.86556
# Velocity P-wave (km/s) = 5.94991 6.71769 6.34542
#
# Compressibility (1/GPa) = 0.02993276
#
# Stress axis : x y z
#
# Youngs Moduli (GPa) = 83.91013 59.47939 54.56269
#
# Poissons Ratio (x) = 0.15697 -0.05399
# Poissons Ratio (y) = 0.22144 0.37718
# Poissons Ratio (z) = -0.08303 0.41117
#
# Static dielectric constant tensor:
#      x y z
#    x 1.695780 0.000000 0.018240 
#    y 0.000000 1.653510 0.000000 
#    z 0.018240 0.000000 1.690070 
# 
# From -- ./inp_files/28523.got.cif
#   From: 2010.05.17/outbox.cif.g08.bks.cpg/sg11_15_cif.got.tgz:28523.got - 2010.06.03 12:22:45.
