data_PCOD9165443
_publ_section_title
;
Structure prediction by ZEFSAII (Michael W. Deem and Ramdas Pophale) SiO2 
 PCOD9165443
Probable space group: P 21/M
;
_chemical_formula_sum "Si O2"
_cell_formula_units_Z 24
_cell_length_a 15.181037
_cell_length_b 8.710020
_cell_length_c 10.404290
_cell_angle_alpha 90.000000
_cell_angle_beta 80.547995
_cell_angle_gamma 90.000000
_cell_volume 1357.051892
_symmetry_space_group_name_H-M "P 21/M"
_symmetry_group_IT_number 11
_symmetry_cell_setting 'monoclinic'
loop_
_space_group_symop_operation_xyz
x,y,z
-x,1/2+y,-z
-x,-y,-z
x,1/2-y,z
loop_
_atom_site_type_symbol
_atom_site_label
_atom_site_fract_x
_atom_site_fract_y
_atom_site_fract_z
Si Si1 0.068521 0.065935 0.880754
Si Si2 0.928536 0.934877 0.417453
Si Si3 0.271200 0.065408 0.814842
Si Si4 0.267369 0.567003 0.533053
Si Si5 0.542043 0.933722 0.118593
Si Si6 0.554267 0.566565 0.608160
O O1 0.062936 0.250000 0.887006
O O2 0.050956 0.020008 0.736193
O O3 0.171793 0.022860 0.884528
O O4 0.000000 0.000000 0.000000
O O5 0.926392 0.750000 0.423238
O O6 0.830502 0.000276 0.472254
O O7 0.000000 0.000000 0.500000
O O8 0.271110 0.250000 0.790422
O O9 0.352508 0.030796 0.890263
O O10 0.287459 0.982390 0.675394
O O11 0.268010 0.750000 0.521443
O O12 0.344678 0.493423 0.428516
O O13 0.532510 0.750000 0.123848
O O14 0.491865 0.005372 0.252416
O O15 0.500000 0.000000 0.000000
O O16 0.500000 0.500000 0.500000
O O17 0.552213 0.750000 0.604036
#
# Coordination Sequence:
#
# PCOD9165443 Si02
#       6
#     4   4   4   4   4   4
#     4   9  19  36  58  84 111 146 190 235 282 339
#     4  10  21  39  60  85 119 154 190 240 294 347
#     4   9  19  37  59  81 113 153 194 238 288 346
#     4  11  21  35  60  90 116 150 196 241 291 349
#     4  11  23  40  60  84 119 158 195 241 295 349
#     4  12  23  38  61  89 118 152 196 243 291 348
#
# _framework density 17.685396999999998
#
# number of rings (size 3 to 8) (size 9 to 14) (size 15 to 20)
#    0.000    1.667    1.667    5.000    0.000    4.000 
#    3.000    0.000    0.000    0.000    0.000    0.000 
#    0.000    0.000    0.000    0.000    0.000    0.000 
#
# Total GULP energy -134042.906430 kJ/mol
# GULP energy per Si atom -5585.121101 kJ/mol
# Density = 1.764514 g / cm^3
# Si number density = 17.685397 Si / 1000 Ang^3
#
#
#
# Elastic Constant Matrix: (Units=GPa)
#
#
# Indices 1 2 3 4 5 6 
#
# 1 170.9726 69.0211 104.3756 0.0000 5.2785 0.0000
# 2 69.0211 94.0302 54.6369 0.0000 4.3794 0.0000
# 3 104.3756 54.6369 130.9671 0.0000 -3.9546 0.0000
# 4 0.0000 0.0000 0.0000 33.6653 0.0000 -1.3263
# 5 5.2785 4.3794 -3.9546 0.0000 36.4756 0.0000
# 6 0.0000 0.0000 0.0000 -1.3263 0.0000 33.6768
#
#
#
# Elastic Compliance Matrix: (Units=1/GPa)
#
#
# Indices 1 2 3 4 5 6 
#
# 1 0.012890 -0.004419 -0.008497 0.000000 -0.002256 0.000000
# 2 -0.004419 0.015753 -0.003098 0.000000 -0.001588 0.000000
# 3 -0.008497 -0.003098 0.015800 0.000000 0.003315 0.000000
# 4 0.000000 0.000000 0.000000 0.029750 0.000000 0.001172
# 5 -0.002256 -0.001588 0.003315 0.000000 0.028292 0.000000
# 6 0.000000 0.000000 0.000000 0.001172 0.000000 0.029740
#
#
# Mechanical properties :
#
#
# Convention : Reuss Voigt Hill
#
# Bulk Modulus (GPa) = 80.55370 94.67079 87.61224
# Shear Modulus (GPa) = 29.69269 31.95931 30.82600
#
# Velocity S-wave (km/s) = 4.10193 4.25561 4.17948
# Velocity P-wave (km/s) = 8.25115 8.82007 8.54035
#
# Compressibility (1/GPa) = 0.01241408
#
# Stress axis : x y z
#
# Youngs Moduli (GPa) = 77.57927 63.48167 63.29122
#
# Poissons Ratio (x) = 0.28054 0.53781
# Poissons Ratio (y) = 0.34284 0.19606
# Poissons Ratio (z) = 0.65922 0.19665
#
# Static dielectric constant tensor:
#      x y z
#    x 1.613790 0.000000 -0.002930 
#    y 0.000000 1.591240 0.000000 
#    z -0.002930 0.000000 1.570390 
# 
# From -- ./inp_files/20390.got.cif
#   From: 2010.05.17/outbox.cif.g08.bks.cpg/sg11_11_cif.got.tgz:20390.got - 2010.06.03 12:22:45.
