data_PCOD9165508
_publ_section_title
;
Structure prediction by ZEFSAII (Michael W. Deem and Ramdas Pophale) SiO2 
 PCOD9165508
Probable space group: P 21/M
;
_chemical_formula_sum "Si O2"
_cell_formula_units_Z 32
_cell_length_a 13.528296
_cell_length_b 25.472191
_cell_length_c 5.146035
_cell_angle_alpha 90.000000
_cell_angle_beta 90.375695
_cell_angle_gamma 90.000000
_cell_volume 1773.261556
_symmetry_space_group_name_H-M "P 21/M"
_symmetry_group_IT_number 11
_symmetry_cell_setting 'monoclinic'
loop_
_space_group_symop_operation_xyz
x,y,z
-x,1/2+y,-z
-x,-y,-z
x,1/2-y,z
loop_
_atom_site_type_symbol
_atom_site_label
_atom_site_fract_x
_atom_site_fract_y
_atom_site_fract_z
Si Si1 0.968549 0.057552 0.590699
Si Si2 0.748452 0.186868 0.471224
Si Si3 0.119105 0.688110 0.021281
Si Si4 0.472894 0.437833 0.968016
Si Si5 0.233792 0.982451 0.536019
Si Si6 0.046022 0.391437 0.090131
Si Si7 0.242342 0.054089 0.026916
Si Si8 0.412071 0.597402 0.538950
O O1 0.852031 0.058159 0.539227
O O2 0.022783 0.096107 0.390172
O O3 0.000000 0.000000 0.500000
O O4 0.995258 0.067170 0.889650
O O5 0.726796 0.250000 0.467176
O O6 0.807106 0.172378 0.209803
O O7 0.651452 0.150654 0.490597
O O8 0.823423 0.177074 0.710871
O O9 0.104516 0.750000 0.001827
O O10 0.013709 0.660312 0.989266
O O11 0.521564 0.416078 0.707708
O O12 0.500000 0.500000 0.000000
O O13 0.354936 0.431395 0.967298
O O14 0.520447 0.405888 0.206108
O O15 0.333828 0.950151 0.565299
O O16 0.240546 0.023634 0.300745
O O17 0.210920 0.013526 0.799688
O O18 0.162267 0.399274 0.041451
#
# Coordination Sequence:
#
# PCOD9165508 Si02
#       8
#     4   4   4   4   4   4   4   4
#     4  12  22  34  51  80 115 150 180 224 279 345
#     4  10  22  41  63  91 116 142 187 242 298 347
#     4  10  21  39  62  87 115 147 187 235 288 354
#     4  12  23  38  55  80 115 155 198 233 278 338
#     4  12  21  33  52  78 110 147 186 219 277 335
#     4  12  22  37  54  78 116 152 188 227 286 333
#     4  12  23  35  51  76 112 153 186 230 264 327
#     4  12  22  37  60  81 111 151 189 240 289 340
#
# _framework density 18.045843999999999
#
# number of rings (size 3 to 8) (size 9 to 14) (size 15 to 20)
#    0.000    0.500    5.000    5.250    0.000    0.000 
#    0.000    0.000    0.000    1.500    0.000    0.000 
#    0.000    0.000    0.000    0.000    0.000    0.000 
#
# Total GULP energy -178853.694727 kJ/mol
# GULP energy per Si atom -5589.177960 kJ/mol
# Density = 1.800477 g / cm^3
# Si number density = 18.045844 Si / 1000 Ang^3
#
#
#
# Elastic Constant Matrix: (Units=GPa)
#
#
# Indices 1 2 3 4 5 6 
#
# 1 129.3202 23.2983 -1.0311 0.0000 -7.6127 0.0000
# 2 23.2983 51.8312 -6.9476 0.0000 -2.4318 0.0000
# 3 -1.0311 -6.9476 57.5985 0.0000 -2.6018 0.0000
# 4 0.0000 0.0000 0.0000 14.2785 0.0000 5.8203
# 5 -7.6127 -2.4318 -2.6018 0.0000 22.9775 0.0000
# 6 0.0000 0.0000 0.0000 5.8203 0.0000 20.3332
#
#
#
# Elastic Compliance Matrix: (Units=1/GPa)
#
#
# Indices 1 2 3 4 5 6 
#
# 1 0.008550 -0.003756 -0.000191 0.000000 0.002414 0.000000
# 2 -0.003756 0.021388 0.002572 0.000000 0.001311 0.000000
# 3 -0.000191 0.002572 0.017769 0.000000 0.002221 0.000000
# 4 0.000000 0.000000 0.000000 0.079286 0.000000 -0.022695
# 5 0.002414 0.001311 0.002221 0.000000 0.044711 0.000000
# 6 0.000000 0.000000 0.000000 -0.022695 0.000000 0.055677
#
#
# Mechanical properties :
#
#
# Convention : Reuss Voigt Hill
#
# Bulk Modulus (GPa) = 22.24351 29.93212 26.08781
# Shear Modulus (GPa) = 20.39854 26.41319 23.40586
#
# Velocity S-wave (km/s) = 3.36575 3.82995 3.60533
# Velocity P-wave (km/s) = 5.23997 6.01504 5.64083
#
# Compressibility (1/GPa) = 0.04495693
#
# Stress axis : x y z
#
# Youngs Moduli (GPa) = 116.96034 46.75575 56.27878
#
# Poissons Ratio (x) = 0.17559 0.01074
# Poissons Ratio (y) = 0.43925 -0.14474
# Poissons Ratio (z) = 0.02233 -0.12025
#
# Static dielectric constant tensor:
#      x y z
#    x 1.637650 0.000000 -0.004950 
#    y 0.000000 1.620430 0.000000 
#    z -0.004950 0.000000 1.626810 
# 
# From -- ./inp_files/5371.got.cif
#   From: 2010.05.17/outbox.cif.g08.bks.cpg/sg11_3_cif.got.tgz:5371.got - 2010.06.03 12:22:45.
