data_PCOD9165953
_publ_section_title
;
Structure prediction by ZEFSAII (Michael W. Deem and Ramdas Pophale) SiO2 
 PCOD9165953
Probable space group: P 21/M
;
_chemical_formula_sum "Si O2"
_cell_formula_units_Z 20
_cell_length_a 9.821936
_cell_length_b 8.576920
_cell_length_c 12.174273
_cell_angle_alpha 90.000000
_cell_angle_beta 104.416660
_cell_angle_gamma 90.000000
_cell_volume 993.289780
_symmetry_space_group_name_H-M "P 21/M"
_symmetry_group_IT_number 11
_symmetry_cell_setting 'monoclinic'
loop_
_space_group_symop_operation_xyz
x,y,z
-x,1/2+y,-z
-x,-y,-z
x,1/2-y,z
loop_
_atom_site_type_symbol
_atom_site_label
_atom_site_fract_x
_atom_site_fract_y
_atom_site_fract_z
Si Si1 0.843649 0.063430 0.476598
Si Si2 0.727396 0.438039 0.214919
Si Si3 0.138284 0.436805 0.967334
Si Si4 0.372650 0.063599 0.401635
Si Si5 0.411549 0.060017 0.157695
O O1 0.842540 0.250000 0.483721
O O2 0.761745 0.020066 0.347794
O O3 0.767253 0.993357 0.566832
O O4 0.000000 0.000000 0.500000
O O5 0.732209 0.250000 0.208199
O O6 0.839748 0.507108 0.152946
O O7 0.568236 0.491504 0.155166
O O8 0.133851 0.250000 0.969745
O O9 0.280185 0.491991 0.058457
O O10 0.000000 0.500000 0.000000
O O11 0.378514 0.250000 0.403013
O O12 0.386309 0.011547 0.278601
O O13 0.500000 0.000000 0.500000
O O14 0.413010 0.250000 0.155215
#
# Coordination Sequence:
#
# PCOD9165953 Si02
#       5
#     4   4   4   4   4
#     4  11  24  41  62  91 127 165 203 252 309 365
#     4  10  21  42  65  86 119 161 201 248 305 361
#     4  11  24  41  62  90 121 157 202 252 304 361
#     4  11  21  39  64  93 125 162 204 248 304 367
#     4   9  20  40  64  87 119 160 198 244 305 359
#
# _framework density 20.135110999999998
#
# number of rings (size 3 to 8) (size 9 to 14) (size 15 to 20)
#    0.000    1.600    2.000    2.400    2.800    1.600 
#    0.000    4.000    0.000    0.000    0.000    0.000 
#    0.000    0.000    0.000    0.000    0.000    0.000 
#
# Total GULP energy -111787.443374 kJ/mol
# GULP energy per Si atom -5589.372169 kJ/mol
# Density = 2.008928 g / cm^3
# Si number density = 20.135111 Si / 1000 Ang^3
#
#
#
# Elastic Constant Matrix: (Units=GPa)
#
#
# Indices 1 2 3 4 5 6 
#
# 1 129.8611 16.6560 15.7744 0.0000 -21.7951 0.0000
# 2 16.6560 30.8819 15.8626 0.0000 -4.7852 0.0000
# 3 15.7744 15.8626 61.2843 0.0000 -18.9538 0.0000
# 4 0.0000 0.0000 0.0000 28.0131 0.0000 -3.3393
# 5 -21.7951 -4.7852 -18.9538 0.0000 43.4098 0.0000
# 6 0.0000 0.0000 0.0000 -3.3393 0.0000 36.6297
#
#
#
# Elastic Compliance Matrix: (Units=1/GPa)
#
#
# Indices 1 2 3 4 5 6 
#
# 1 0.008911 -0.004202 0.000040 0.000000 0.004028 0.000000
# 2 -0.004202 0.039329 -0.009723 0.000000 -0.002020 0.000000
# 3 0.000040 -0.009723 0.021386 0.000000 0.008286 0.000000
# 4 0.000000 0.000000 0.000000 0.036090 0.000000 0.003290
# 5 0.004028 -0.002020 0.008286 0.000000 0.028454 0.000000
# 6 0.000000 0.000000 0.000000 0.003290 0.000000 0.027600
#
#
# Mechanical properties :
#
#
# Convention : Reuss Voigt Hill
#
# Bulk Modulus (GPa) = 23.89151 35.40148 29.64650
# Shear Modulus (GPa) = 24.57093 33.19282 28.88188
#
# Velocity S-wave (km/s) = 3.49707 4.06458 3.79146
# Velocity P-wave (km/s) = 5.31012 6.29666 5.82432
#
# Compressibility (1/GPa) = 0.04185587
#
# Stress axis : x y z
#
# Youngs Moduli (GPa) = 112.22445 25.42647 46.75859
#
# Poissons Ratio (x) = 0.10685 -0.00187
# Poissons Ratio (y) = 0.47160 0.45462
# Poissons Ratio (z) = -0.00448 0.24722
#
# Static dielectric constant tensor:
#      x y z
#    x 1.702770 0.000000 0.010460 
#    y 0.000000 1.691590 0.000000 
#    z 0.010460 0.000000 1.708680 
# 
# From -- ./inp_files/15917.got.cif
#   From: 2010.05.17/outbox.cif.g08.bks.cpg/sg11_8_cif.got.tgz:15917.got - 2010.06.03 12:22:45.
