data_PCOD9165620
_publ_section_title
;
Structure prediction by ZEFSAII (Michael W. Deem and Ramdas Pophale) SiO2 
 PCOD9165620
Probable space group: P 21/M
;
_chemical_formula_sum "Si O2"
_cell_formula_units_Z 28
_cell_length_a 12.388071
_cell_length_b 22.612863
_cell_length_c 5.346782
_cell_angle_alpha 90.000000
_cell_angle_beta 108.244683
_cell_angle_gamma 90.000000
_cell_volume 1422.495957
_symmetry_space_group_name_H-M "P 21/M"
_symmetry_group_IT_number 11
_symmetry_cell_setting 'monoclinic'
loop_
_space_group_symop_operation_xyz
x,y,z
-x,1/2+y,-z
-x,-y,-z
x,1/2-y,z
loop_
_atom_site_type_symbol
_atom_site_label
_atom_site_fract_x
_atom_site_fract_y
_atom_site_fract_z
Si Si1 0.504206 0.066093 0.620167
Si Si2 0.608921 0.680174 0.715626
Si Si3 0.927082 0.873365 0.397400
Si Si4 0.256720 0.976657 0.121156
Si Si5 0.111539 0.961184 0.515550
Si Si6 0.682647 0.587472 0.116896
Si Si7 0.128938 0.183812 0.157936
O O1 0.470467 0.128322 0.458378
O O2 0.636937 0.067716 0.787897
O O3 0.413414 0.061573 0.777126
O O4 0.500000 0.000000 0.500000
O O5 0.574360 0.750000 0.689243
O O6 0.735838 0.677336 0.689133
O O7 0.637997 0.652636 0.009647
O O8 0.810315 0.911678 0.314530
O O9 0.937082 0.855399 0.692354
O O10 0.046845 0.900407 0.408005
O O11 0.895223 0.828939 0.149392
O O12 0.183014 0.977168 0.320585
O O13 0.186130 0.960544 0.820773
O O14 0.302594 0.043686 0.108373
O O15 0.000000 0.000000 0.500000
O O16 0.097013 0.250000 0.193130
#
# Coordination Sequence:
#
# PCOD9165620 Si02
#       7
#     4   4   4   4   4   4   4
#     4  12  24  41  68 100 139 174 221 279 344 407
#     4  10  23  40  64  97 138 176 218 274 348 414
#     4  11  22  38  66  92 135 165 218 273 339 395
#     4  12  26  40  65  98 138 177 223 270 331 403
#     4  12  26  41  64  94 134 178 218 269 333 396
#     4  11  23  39  66  97 135 175 218 279 347 403
#     4  10  21  39  64  97 127 167 217 280 343 399
#
# _framework density 19.683710000000001
#
# number of rings (size 3 to 8) (size 9 to 14) (size 15 to 20)
#    0.000    0.857    4.286    3.000    6.000    1.143 
#    0.000    0.000    0.000    5.143    0.000    0.000 
#    0.000    0.000    0.000    0.000    0.000    0.000 
#
# Total GULP energy -155908.364469 kJ/mol
# GULP energy per Si atom -5568.155874 kJ/mol
# Density = 1.963891 g / cm^3
# Si number density = 19.683710 Si / 1000 Ang^3
#
#
#
# Elastic Constant Matrix: (Units=GPa)
#
#
# Indices 1 2 3 4 5 6 
#
# 1 114.9228 50.9792 52.4709 0.0000 -16.6539 0.0000
# 2 50.9792 99.3502 30.7205 0.0000 7.0058 0.0000
# 3 52.4709 30.7205 93.9219 0.0000 3.4467 0.0000
# 4 0.0000 0.0000 0.0000 21.5254 0.0000 8.6308
# 5 -16.6539 7.0058 3.4467 0.0000 47.9068 0.0000
# 6 0.0000 0.0000 0.0000 8.6308 0.0000 3.9962
#
#
#
# Elastic Compliance Matrix: (Units=1/GPa)
#
#
# Indices 1 2 3 4 5 6 
#
# 1 0.015706 -0.006401 -0.006934 0.000000 0.006895 0.000000
# 2 -0.006401 0.013898 -0.000816 0.000000 -0.004199 0.000000
# 3 -0.006934 -0.000816 0.014911 0.000000 -0.003364 0.000000
# 4 0.000000 0.000000 0.000000 0.346601 0.000000 -0.748565
# 5 0.006895 -0.004199 -0.003364 0.000000 0.024127 0.000000
# 6 0.000000 0.000000 0.000000 -0.748565 0.000000 1.866934
#
#
# Mechanical properties :
#
#
# Convention : Reuss Voigt Hill
#
# Bulk Modulus (GPa) = 61.67482 64.05956 62.86719
# Shear Modulus (GPa) = 2.15900 26.28730 14.22315
#
# Velocity S-wave (km/s) = 1.04844 3.65839 2.69101
# Velocity P-wave (km/s) = 5.73294 7.10354 6.45472
#
# Compressibility (1/GPa) = 0.01621407
#
# Stress axis : x y z
#
# Youngs Moduli (GPa) = 63.66995 71.95056 67.06485
#
# Poissons Ratio (x) = 0.46058 0.46500
# Poissons Ratio (y) = 0.40758 0.05470
# Poissons Ratio (z) = 0.44146 0.05869
#
# Static dielectric constant tensor:
#      x y z
#    x 1.703180 0.000000 0.048290 
#    y 0.000000 1.616940 0.000000 
#    z 0.048290 0.000000 1.797280 
# 
# From -- ./inp_files/5083.got.cif
#   From: 2010.05.17/outbox.cif.g08.bks.cpg/sg11_3_cif.got.tgz:5083.got - 2010.06.03 12:22:45.
