data_PCOD9165816
_publ_section_title
;
Structure prediction by ZEFSAII (Michael W. Deem and Ramdas Pophale) SiO2 
 PCOD9165816
Probable space group: P 21/M
;
_chemical_formula_sum "Si O2"
_cell_formula_units_Z 20
_cell_length_a 6.777795
_cell_length_b 26.354090
_cell_length_c 5.129539
_cell_angle_alpha 90.000000
_cell_angle_beta 104.380722
_cell_angle_gamma 90.000000
_cell_volume 887.542578
_symmetry_space_group_name_H-M "P 21/M"
_symmetry_group_IT_number 11
_symmetry_cell_setting 'monoclinic'
loop_
_space_group_symop_operation_xyz
x,y,z
-x,1/2+y,-z
-x,-y,-z
x,1/2-y,z
loop_
_atom_site_type_symbol
_atom_site_label
_atom_site_fract_x
_atom_site_fract_y
_atom_site_fract_z
Si Si1 0.238655 0.135533 0.202479
Si Si2 0.053648 0.189740 0.653442
Si Si3 0.052889 0.443110 0.439605
Si Si4 0.480304 0.463538 0.749348
Si Si5 0.691885 0.379846 0.552105
O O1 0.190308 0.165017 0.924345
O O2 0.130534 0.079819 0.189796
O O3 0.478418 0.129856 0.338450
O O4 0.134725 0.167377 0.405477
O O5 0.065153 0.250000 0.655896
O O6 0.823257 0.170596 0.641791
O O7 0.261475 0.436457 0.670258
O O8 0.000000 0.500000 0.500000
O O9 0.851645 0.412692 0.440706
O O10 0.500000 0.500000 0.500000
O O11 0.638760 0.417348 0.775042
O O12 0.500000 0.500000 0.000000
#
# Coordination Sequence:
#
# PCOD9165816 Si02
#       5
#     4   4   4   4   4
#     4  10  25  44  66 100 136 169 226 281 333 409
#     4  11  25  46  71  98 129 174 230 289 347 401
#     4  10  21  40  66  96 136 179 222 261 325 402
#     4  11  24  39  62  96 135 180 221 265 326 394
#     4  10  24  44  68  99 139 177 225 276 336 400
#
# _framework density 22.534127999999999
#
# number of rings (size 3 to 8) (size 9 to 14) (size 15 to 20)
#    0.000    1.600    2.000    0.600    2.800   15.200 
#    0.000    0.000    0.000    0.000    0.000    0.000 
#    0.000    0.000    0.000    0.000    0.000    0.000 
#
# Total GULP energy -111701.748653 kJ/mol
# GULP energy per Si atom -5585.087433 kJ/mol
# Density = 2.248284 g / cm^3
# Si number density = 22.534128 Si / 1000 Ang^3
#
#
#
# Elastic Constant Matrix: (Units=GPa)
#
#
# Indices 1 2 3 4 5 6 
#
# 1 156.2109 43.5296 27.1948 0.0000 14.5747 0.0000
# 2 43.5296 149.4331 28.6488 0.0000 -9.2450 0.0000
# 3 27.1948 28.6488 100.8891 0.0000 -21.7620 0.0000
# 4 0.0000 0.0000 0.0000 31.7824 0.0000 0.2992
# 5 14.5747 -9.2450 -21.7620 0.0000 30.7680 0.0000
# 6 0.0000 0.0000 0.0000 0.2992 0.0000 36.9053
#
#
#
# Elastic Compliance Matrix: (Units=1/GPa)
#
#
# Indices 1 2 3 4 5 6 
#
# 1 0.008163 -0.002213 -0.003009 0.000000 -0.006660 0.000000
# 2 -0.002213 0.007695 -0.001019 0.000000 0.002640 0.000000
# 3 -0.003009 -0.001019 0.013280 0.000000 0.010511 0.000000
# 4 0.000000 0.000000 0.000000 0.031466 0.000000 -0.000255
# 5 -0.006660 0.002640 0.010511 0.000000 0.043884 0.000000
# 6 0.000000 0.000000 0.000000 -0.000255 0.000000 0.027098
#
#
# Mechanical properties :
#
#
# Convention : Reuss Voigt Hill
#
# Bulk Modulus (GPa) = 60.03694 67.25328 63.64511
# Shear Modulus (GPa) = 33.41767 40.36847 36.89307
#
# Velocity S-wave (km/s) = 3.85513 4.23713 4.05063
# Velocity P-wave (km/s) = 6.82030 7.33809 7.08393
#
# Compressibility (1/GPa) = 0.01665641
#
# Stress axis : x y z
#
# Youngs Moduli (GPa) = 122.49660 129.94790 75.30350
#
# Poissons Ratio (x) = 0.28761 0.22656
# Poissons Ratio (y) = 0.27112 0.07675
# Poissons Ratio (z) = 0.36854 0.13244
#
# Static dielectric constant tensor:
#      x y z
#    x 1.879490 0.000000 -0.068660 
#    y 0.000000 1.871220 0.000000 
#    z -0.068660 0.000000 1.952400 
# 
# From -- ./inp_files/858.got.cif
#   From: 2010.05.17/outbox.cif.g08.bks.cpg/sg11_1_cif.got.tgz:858.got - 2010.06.03 12:22:45.
