data_PCOD9165669
_publ_section_title
;
Structure prediction by ZEFSAII (Michael W. Deem and Ramdas Pophale) SiO2 
 PCOD9165669
Probable space group: P 21/M
;
_chemical_formula_sum "Si O2"
_cell_formula_units_Z 28
_cell_length_a 8.716227
_cell_length_b 15.100123
_cell_length_c 12.126683
_cell_angle_alpha 90.000000
_cell_angle_beta 123.035065
_cell_angle_gamma 90.000000
_cell_volume 1338.041933
_symmetry_space_group_name_H-M "P 21/M"
_symmetry_group_IT_number 11
_symmetry_cell_setting 'monoclinic'
loop_
_space_group_symop_operation_xyz
x,y,z
-x,1/2+y,-z
-x,-y,-z
x,1/2-y,z
loop_
_atom_site_type_symbol
_atom_site_label
_atom_site_fract_x
_atom_site_fract_y
_atom_site_fract_z
Si Si1 0.054942 0.885995 0.111426
Si Si2 0.999684 0.912704 0.845598
Si Si3 0.799427 0.486028 0.464363
Si Si4 0.274246 0.656602 0.396396
Si Si5 0.659235 0.041193 0.179796
Si Si6 0.702088 0.652629 0.558681
Si Si7 0.340032 0.354939 0.933213
O O1 0.222278 0.848033 0.247853
O O2 0.064986 0.991270 0.137050
O O3 0.056168 0.865418 0.982048
O O4 0.862371 0.856936 0.091403
O O5 0.835546 0.868881 0.712914
O O6 0.170588 0.926424 0.829524
O O7 0.814010 0.424302 0.575970
O O8 0.688458 0.444474 0.320479
O O9 0.722544 0.578557 0.474779
O O10 0.000000 0.500000 0.500000
O O11 0.201577 0.750000 0.411351
O O12 0.488732 0.651637 0.504888
O O13 0.485339 0.099101 0.073753
O O14 0.651071 0.933551 0.156774
O O15 0.749395 0.750000 0.535052
O O16 0.380324 0.250000 0.923472
#
# Coordination Sequence:
#
# PCOD9165669 Si02
#       7
#     4   4   4   4   4   4   4
#     4  10  21  39  70  93 123 171 217 269 320 379
#     4  10  21  42  65  95 127 166 217 266 325 385
#     4  12  23  43  67  92 133 174 215 269 327 390
#     4  11  25  43  66  98 131 175 223 268 327 390
#     4  10  23  41  65  96 130 174 215 261 331 391
#     4  11  25  42  65  99 132 171 220 272 331 389
#     4  10  22  41  63  95 132 169 218 269 321 384
#
# _framework density 20.926100999999999
#
# number of rings (size 3 to 8) (size 9 to 14) (size 15 to 20)
#    0.000    1.429    2.857    1.714    2.000    6.857 
#    0.000    1.429    0.000    0.000    0.000    0.000 
#    0.000    0.000    0.000    0.000    0.000    0.000 
#
# Total GULP energy -156225.385256 kJ/mol
# GULP energy per Si atom -5579.478045 kJ/mol
# Density = 2.087847 g / cm^3
# Si number density = 20.926101 Si / 1000 Ang^3
#
#
#
# Elastic Constant Matrix: (Units=GPa)
#
#
# Indices 1 2 3 4 5 6 
#
# 1 31.5832 31.6591 29.0883 0.0000 1.1108 0.0000
# 2 31.6591 106.0916 8.5919 0.0000 3.4990 0.0000
# 3 29.0883 8.5919 136.2011 0.0000 2.4573 0.0000
# 4 0.0000 0.0000 0.0000 -4.4627 0.0000 12.7445
# 5 1.1108 3.4990 2.4573 0.0000 31.3041 0.0000
# 6 0.0000 0.0000 0.0000 12.7445 0.0000 25.5142
#
#
#
# Elastic Compliance Matrix: (Units=1/GPa)
#
#
# Indices 1 2 3 4 5 6 
#
# 1 0.059033 -0.016702 -0.011566 0.000000 0.000680 0.000000
# 2 -0.016702 0.014232 0.002691 0.000000 -0.001209 0.000000
# 3 -0.011566 0.002691 0.009654 0.000000 -0.000648 0.000000
# 4 0.000000 0.000000 0.000000 -0.092348 0.000000 0.046128
# 5 0.000680 -0.001209 -0.000648 0.000000 0.032107 0.000000
# 6 0.000000 0.000000 0.000000 0.046128 0.000000 0.016152
#
#
# Mechanical properties :
#
#
# Convention : Reuss Voigt Hill
#
# Bulk Modulus (GPa) = 31.48136 45.83938 38.66037
# Shear Modulus (GPa) = 49.71502 24.10691 36.91097
#
# Velocity S-wave (km/s) = 4.87945 3.39780 4.20440
# Velocity P-wave (km/s) = 6.84266 6.11116 6.48723
#
# Compressibility (1/GPa) = 0.03176483
#
# Stress axis : x y z
#
# Youngs Moduli (GPa) = 16.93962 70.26498 103.58167
#
# Poissons Ratio (x) = 1.17356 1.19806
# Poissons Ratio (y) = 0.28292 -0.27874
# Poissons Ratio (z) = 0.19593 -0.18909
#
# Static dielectric constant tensor:
#      x y z
#    x 1.683680 0.000000 0.033940 
#    y 0.000000 1.803490 0.000000 
#    z 0.033940 0.000000 1.830500 
# 
# From -- ./inp_files/31954.got.cif
#   From: 2010.05.17/outbox.cif.g08.bks.cpg/sg11_16_cif.got.tgz:31954.got - 2010.06.03 12:22:45.
