data_PCOD9165401
_publ_section_title
;
Structure prediction by ZEFSAII (Michael W. Deem and Ramdas Pophale) SiO2 
 PCOD9165401
Probable space group: P 21/M
;
_chemical_formula_sum "Si O2"
_cell_formula_units_Z 28
_cell_length_a 24.287680
_cell_length_b 10.735897
_cell_length_c 4.946435
_cell_angle_alpha 90.000000
_cell_angle_beta 77.189848
_cell_angle_gamma 90.000000
_cell_volume 1257.680486
_symmetry_space_group_name_H-M "P 21/M"
_symmetry_group_IT_number 11
_symmetry_cell_setting 'monoclinic'
loop_
_space_group_symop_operation_xyz
x,y,z
-x,1/2+y,-z
-x,-y,-z
x,1/2-y,z
loop_
_atom_site_type_symbol
_atom_site_label
_atom_site_fract_x
_atom_site_fract_y
_atom_site_fract_z
Si Si1 0.769664 0.501987 0.584088
Si Si2 0.499892 0.616687 0.192095
Si Si3 0.645445 0.250000 0.966215
Si Si4 0.403441 0.974836 0.672008
Si Si5 0.721542 0.250000 0.394093
Si Si6 0.121179 0.893587 0.295410
Si Si7 0.045106 0.605702 0.881190
Si Si8 0.289601 0.106205 0.823041
O O1 0.754925 0.371605 0.451894
O O2 0.830747 0.484899 0.650674
O O3 0.758945 0.597303 0.351601
O O4 0.729324 0.539854 0.878226
O O5 0.501539 0.750000 0.053313
O O6 0.557319 0.592302 0.294696
O O7 0.444451 0.602537 0.433293
O O8 0.500000 0.500000 0.000000
O O9 0.612340 0.375734 0.077340
O O10 0.700694 0.250000 0.107117
O O11 0.665310 0.250000 0.638281
O O12 0.343824 0.031949 0.646017
O O13 0.142021 0.750000 0.289201
O O14 0.067372 0.903701 0.551640
O O15 0.099210 0.914073 0.017272
O O16 0.026033 0.750000 0.948076
O O17 0.000000 0.500000 0.000000
O O18 0.303211 0.250000 0.862486
#
# Coordination Sequence:
#
# PCOD9165401 Si02
#       8
#     4   4   2   4   2   4   4   4
#     4  12  23  43  68 100 131 169 218 277 325 391
#     4  11  27  44  67  95 125 164 215 272 333 397
#     4  12  24  40  70 100 130 160 216 272 324 390
#     4  11  25  44  65  90 126 165 213 266 328 395
#     4  12  22  40  68 106 124 160 212 276 330 368
#     4  10  21  38  65  96 131 168 221 280 327 375
#     4  10  21  39  63  96 134 178 226 274 327 385
#     4  12  27  45  66  93 135 179 214 260 331 410
#
# _framework density 22.263207000000001
#
# number of rings (size 3 to 8) (size 9 to 14) (size 15 to 20)
#    0.000    0.857    4.286    2.143    5.000    1.143 
#    0.000    4.286    0.000    0.000    0.000    0.000 
#    0.000    0.000    0.000    0.000    0.000    0.000 
#
# Total GULP energy -156572.588541 kJ/mol
# GULP energy per Si atom -5591.878162 kJ/mol
# Density = 2.221254 g / cm^3
# Si number density = 22.263207 Si / 1000 Ang^3
#
#
#
# Elastic Constant Matrix: (Units=GPa)
#
#
# Indices 1 2 3 4 5 6 
#
# 1 71.4323 29.1158 -6.7450 0.0000 2.5327 0.0000
# 2 29.1158 128.5836 1.4622 0.0000 -7.6339 0.0000
# 3 -6.7450 1.4622 41.0586 0.0000 9.2683 0.0000
# 4 0.0000 0.0000 0.0000 24.8786 0.0000 4.8787
# 5 2.5327 -7.6339 9.2683 0.0000 28.1596 0.0000
# 6 0.0000 0.0000 0.0000 4.8787 0.0000 26.5132
#
#
#
# Elastic Compliance Matrix: (Units=1/GPa)
#
#
# Indices 1 2 3 4 5 6 
#
# 1 0.016059 -0.003896 0.003610 0.000000 -0.003689 0.000000
# 2 -0.003896 0.008876 -0.001705 0.000000 0.003318 0.000000
# 3 0.003610 -0.001705 0.027208 0.000000 -0.009742 0.000000
# 4 0.000000 0.000000 0.000000 0.041700 0.000000 -0.007673
# 5 -0.003689 0.003318 -0.009742 0.000000 0.039950 0.000000
# 6 0.000000 0.000000 0.000000 -0.007673 0.000000 0.039129
#
#
# Mechanical properties :
#
#
# Convention : Reuss Voigt Hill
#
# Bulk Modulus (GPa) = 20.76448 32.08228 26.42338
# Shear Modulus (GPa) = 25.91236 30.39306 28.15271
#
# Velocity S-wave (km/s) = 3.41531 3.69883 3.55989
# Velocity P-wave (km/s) = 4.98994 5.71695 5.36577
#
# Compressibility (1/GPa) = 0.04815916
#
# Stress axis : x y z
#
# Youngs Moduli (GPa) = 62.27016 112.66743 36.75355
#
# Poissons Ratio (x) = 0.43899 -0.13266
# Poissons Ratio (y) = 0.24263 0.06267
# Poissons Ratio (z) = -0.22477 0.19211
#
# Static dielectric constant tensor:
#      x y z
#    x 1.872120 0.000000 0.031840 
#    y 0.000000 1.773300 0.000000 
#    z 0.031840 0.000000 1.815540 
# 
# From -- ./inp_files/8777.got.cif
#   From: 2010.05.17/outbox.cif.g08.bks.cpg/sg11_5_cif.got.tgz:8777.got - 2010.06.03 12:22:45.
