data_PCOD9165234
_publ_section_title
;
Structure prediction by ZEFSAII (Michael W. Deem and Ramdas Pophale) SiO2 
 PCOD9165234
Probable space group: P 21/M
;
_chemical_formula_sum "Si O2"
_cell_formula_units_Z 32
_cell_length_a 16.606770
_cell_length_b 14.618882
_cell_length_c 12.600609
_cell_angle_alpha 90.000000
_cell_angle_beta 27.750038
_cell_angle_gamma 90.000000
_cell_volume 1424.353968
_symmetry_space_group_name_H-M "P 21/M"
_symmetry_group_IT_number 11
_symmetry_cell_setting 'monoclinic'
loop_
_space_group_symop_operation_xyz
x,y,z
-x,1/2+y,-z
-x,-y,-z
x,1/2-y,z
loop_
_atom_site_type_symbol
_atom_site_label
_atom_site_fract_x
_atom_site_fract_y
_atom_site_fract_z
Si Si1 0.417027 0.149336 0.423540
Si Si2 0.587327 0.356363 0.791429
Si Si3 0.985332 0.352981 0.381017
Si Si4 0.750618 0.350142 0.189093
Si Si5 0.357893 0.358288 0.252164
Si Si6 0.013666 0.640761 0.375003
Si Si7 0.583762 0.047459 0.571586
Si Si8 0.186224 0.994336 0.032003
O O1 0.331404 0.250000 0.534853
O O2 0.589958 0.154143 0.292860
O O3 0.447023 0.135158 0.262406
O O4 0.332388 0.052058 0.550855
O O5 0.541891 0.250000 0.816720
O O6 0.779022 0.354310 0.615240
O O7 0.592706 0.418587 0.681521
O O8 0.460816 0.393456 0.030363
O O9 0.047037 0.250000 0.287579
O O10 0.028815 0.375139 0.452204
O O11 0.066277 0.421892 0.203382
O O12 0.833165 0.250000 0.095132
O O13 0.669554 0.378513 0.395180
O O14 0.864350 0.432008 0.009434
O O15 0.344794 0.250000 0.246320
O O16 0.159300 0.389204 0.486217
O O17 0.050183 0.750000 0.318516
O O18 0.165156 0.576880 0.154855
O O19 0.379059 0.032846 0.789291
#
# Coordination Sequence:
#
# PCOD9165234 Si02
#       8
#     4   4   4   4   4   4   4   4
#     4   9  19  35  58  89 122 151 195 255 302 349
#     4  10  22  39  61  89 123 167 210 252 301 360
#     4  10  23  39  58  88 130 170 202 248 310 366
#     4  10  22  42  67  91 119 157 207 260 306 362
#     4   9  19  36  60  90 122 161 208 249 299 362
#     4  10  21  38  60  89 130 171 203 246 304 369
#     4  11  23  39  64  89 118 160 213 255 301 360
#     4  11  22  38  60  94 119 158 205 253 310 364
#
# _framework density 22.466325999999999
#
# number of rings (size 3 to 8) (size 9 to 14) (size 15 to 20)
#    0.000    2.000    0.000    3.375    5.250    3.000 
#    0.000    1.250    2.750    0.000    0.000    0.000 
#    0.000    0.000    0.000    0.000    0.000    0.000 
#
# Total GULP energy -178611.436146 kJ/mol
# GULP energy per Si atom -5581.607380 kJ/mol
# Density = 2.241519 g / cm^3
# Si number density = 22.466326 Si / 1000 Ang^3
#
#
#
# Elastic Constant Matrix: (Units=GPa)
#
#
# Indices 1 2 3 4 5 6 
#
# 1 42.7318 -7.1638 4.2612 0.0000 9.1220 0.0000
# 2 -7.1638 78.7050 15.5732 0.0000 4.2263 0.0000
# 3 4.2612 15.5732 59.6649 0.0000 10.8859 0.0000
# 4 0.0000 0.0000 0.0000 49.8408 0.0000 -10.5800
# 5 9.1220 4.2263 10.8859 0.0000 23.7995 0.0000
# 6 0.0000 0.0000 0.0000 -10.5800 0.0000 48.1652
#
#
#
# Elastic Compliance Matrix: (Units=1/GPa)
#
#
# Indices 1 2 3 4 5 6 
#
# 1 0.026181 0.003092 -0.000814 0.000000 -0.010212 0.000000
# 2 0.003092 0.013779 -0.003442 0.000000 -0.002058 0.000000
# 3 -0.000814 -0.003442 0.019146 0.000000 -0.007834 0.000000
# 4 0.000000 0.000000 0.000000 0.021045 0.000000 0.004623
# 5 -0.010212 -0.002058 -0.007834 0.000000 0.049881 0.000000
# 6 0.000000 0.000000 0.000000 0.004623 0.000000 0.021777
#
#
# Mechanical properties :
#
#
# Convention : Reuss Voigt Hill
#
# Bulk Modulus (GPa) = 17.61193 22.93809 20.27501
# Shear Modulus (GPa) = 28.89136 35.58984 32.24060
#
# Velocity S-wave (km/s) = 3.58995 3.98445 3.79233
# Velocity P-wave (km/s) = 5.00399 5.60356 5.31224
#
# Compressibility (1/GPa) = 0.05677971
#
# Stress axis : x y z
#
# Youngs Moduli (GPa) = 38.19518 72.57592 52.22989
#
# Poissons Ratio (x) = -0.22444 0.04251
# Poissons Ratio (y) = -0.11812 0.17976
# Poissons Ratio (z) = 0.03109 0.24979
#
# Static dielectric constant tensor:
#      x y z
#    x 1.846360 0.000000 -0.027490 
#    y 0.000000 1.898390 0.000000 
#    z -0.027490 0.000000 1.824180 
# 
# From -- ./inp_files/41646.got.cif
#   From: 2010.05.17/outbox.cif.g08.bks.cpg/sg11_21_cif.got.tgz:41646.got - 2010.06.03 12:22:45.
