data_PCOD9165151
_publ_section_title
;
Structure prediction by ZEFSAII (Michael W. Deem and Ramdas Pophale) SiO2 
 PCOD9165151
Probable space group: P 21/M
;
_chemical_formula_sum "Si O2"
_cell_formula_units_Z 28
_cell_length_a 5.473558
_cell_length_b 15.754604
_cell_length_c 14.787120
_cell_angle_alpha 90.000000
_cell_angle_beta 70.059340
_cell_angle_gamma 90.000000
_cell_volume 1198.698814
_symmetry_space_group_name_H-M "P 21/M"
_symmetry_group_IT_number 11
_symmetry_cell_setting 'monoclinic'
loop_
_space_group_symop_operation_xyz
x,y,z
-x,1/2+y,-z
-x,-y,-z
x,1/2-y,z
loop_
_atom_site_type_symbol
_atom_site_label
_atom_site_fract_x
_atom_site_fract_y
_atom_site_fract_z
Si Si1 0.810218 0.419215 0.120349
Si Si2 0.726327 0.904456 0.053301
Si Si3 0.698789 0.888547 0.551349
Si Si4 0.350783 0.338372 0.244384
Si Si5 0.967528 0.008514 0.282673
Si Si6 0.749674 0.075993 0.500511
Si Si7 0.866971 0.150953 0.838920
O O1 0.720009 0.492961 0.063416
O O2 0.611117 0.343433 0.153964
O O3 0.793972 0.466182 0.218921
O O4 0.098825 0.389782 0.057714
O O5 0.433953 0.869000 0.094821
O O6 0.920347 0.869741 0.108710
O O7 0.602835 0.842943 0.653284
O O8 0.509113 0.873542 0.491261
O O9 0.003669 0.870968 0.498449
O O10 0.699991 0.992033 0.565677
O O11 0.206156 0.250000 0.244332
O O12 0.198274 0.423971 0.244903
O O13 0.834055 0.033877 0.393261
O O14 0.063612 0.913506 0.251890
O O15 0.885943 0.250000 0.813787
#
# Coordination Sequence:
#
# PCOD9165151 Si02
#       7
#     4   4   4   4   4   4   4
#     4  10  21  38  59  83 116 158 201 243 301 356
#     4  10  23  39  62  82 116 155 202 249 300 358
#     4   9  18  34  53  84 107 150 186 229 273 352
#     4  11  22  36  56  88 124 159 197 243 296 359
#     4  10  21  38  60  87 118 157 198 248 296 355
#     4   9  17  33  60  78 109 144 191 225 288 334
#     4  11  23  40  61  86 115 154 203 255 300 349
#
# _framework density 23.358661999999999
#
# number of rings (size 3 to 8) (size 9 to 14) (size 15 to 20)
#    0.000    2.000    2.857    0.429    2.000    3.429 
#    0.000    0.714    0.000    0.000    0.000    5.000 
#    0.000    0.000    0.000    0.000    0.000    0.000 
#
# Total GULP energy -156196.409645 kJ/mol
# GULP energy per Si atom -5578.443202 kJ/mol
# Density = 2.330550 g / cm^3
# Si number density = 23.358662 Si / 1000 Ang^3
#
#
#
# Elastic Constant Matrix: (Units=GPa)
#
#
# Indices 1 2 3 4 5 6 
#
# 1 143.5733 21.6585 9.2818 0.0000 -10.4254 0.0000
# 2 21.6585 132.8432 24.5339 0.0000 -6.7421 0.0000
# 3 9.2818 24.5339 72.4879 0.0000 -9.4176 0.0000
# 4 0.0000 0.0000 0.0000 -3.3415 0.0000 3.6069
# 5 -10.4254 -6.7421 -9.4176 0.0000 32.4845 0.0000
# 6 0.0000 0.0000 0.0000 3.6069 0.0000 6.3063
#
#
#
# Elastic Compliance Matrix: (Units=1/GPa)
#
#
# Indices 1 2 3 4 5 6 
#
# 1 0.007288 -0.001026 -0.000322 0.000000 0.002033 0.000000
# 2 -0.001026 0.008200 -0.002562 0.000000 0.000630 0.000000
# 3 -0.000322 -0.002562 0.015194 0.000000 0.003770 0.000000
# 4 0.000000 0.000000 0.000000 -0.185034 0.000000 0.105830
# 5 0.002033 0.000630 0.003770 0.000000 0.032660 0.000000
# 6 0.000000 0.000000 0.000000 0.105830 0.000000 0.098043
#
#
# Mechanical properties :
#
#
# Convention : Reuss Voigt Hill
#
# Bulk Modulus (GPa) = 43.74022 51.09474 47.41748
# Shear Modulus (GPa) = -609.10930 26.65188 -291.22871
#
# Velocity S-wave (km/s) = -16.16570 3.38151 -11.17800
# Velocity P-wave (km/s) = 18.15692 6.09653 12.09351
#
# Compressibility (1/GPa) = 0.02286225
#
# Stress axis : x y z
#
# Youngs Moduli (GPa) = 137.20760 121.95055 65.81733
#
# Poissons Ratio (x) = 0.12507 0.02119
# Poissons Ratio (y) = 0.14072 0.16864
# Poissons Ratio (z) = 0.04418 0.31246
#
# Static dielectric constant tensor:
#      x y z
#    x 2.021850 0.000000 0.013090 
#    y 0.000000 1.747210 0.000000 
#    z 0.013090 0.000000 1.943570 
# 
# From -- ./inp_files/7938.got.cif
#   From: 2010.05.17/outbox.cif.g08.bks.cpg/sg11_4_cif.got.tgz:7938.got - 2010.06.03 12:22:45.
