data_PCOD9165398
_publ_section_title
;
Structure prediction by ZEFSAII (Michael W. Deem and Ramdas Pophale) SiO2 
 PCOD9165398
Probable space group: P 21/M
;
_chemical_formula_sum "Si O2"
_cell_formula_units_Z 30
_cell_length_a 17.996307
_cell_length_b 15.213355
_cell_length_c 4.961766
_cell_angle_alpha 90.000000
_cell_angle_beta 104.699640
_cell_angle_gamma 90.000000
_cell_volume 1313.990111
_symmetry_space_group_name_H-M "P 21/M"
_symmetry_group_IT_number 11
_symmetry_cell_setting 'monoclinic'
loop_
_space_group_symop_operation_xyz
x,y,z
-x,1/2+y,-z
-x,-y,-z
x,1/2-y,z
loop_
_atom_site_type_symbol
_atom_site_label
_atom_site_fract_x
_atom_site_fract_y
_atom_site_fract_z
Si Si1 0.231992 0.384361 0.205551
Si Si2 0.110987 0.250000 0.805146
Si Si3 0.669601 0.650407 0.206805
Si Si4 0.875910 0.465967 0.893327
Si Si5 0.556902 0.997496 0.302537
Si Si6 0.219638 0.650011 0.837494
Si Si7 0.324190 0.648930 0.435477
Si Si8 0.991074 0.916440 0.295518
O O1 0.262139 0.343729 0.510654
O O2 0.197124 0.477444 0.264809
O O3 0.169411 0.324795 0.994682
O O4 0.299026 0.391728 0.042006
O O5 0.052014 0.329178 0.644215
O O6 0.643328 0.750000 0.123807
O O7 0.607711 0.589180 0.295351
O O8 0.845813 0.416064 0.129010
O O9 0.924642 0.400385 0.752948
O O10 0.936115 0.543100 0.014848
O O11 0.500000 0.000000 0.500000
O O12 0.614784 0.078690 0.403992
O O13 0.500000 0.000000 0.000000
O O14 0.194440 0.750000 0.864837
O O15 0.292574 0.634153 0.104821
O O16 0.250707 0.643344 0.565393
O O17 0.352996 0.750000 0.479500
O O18 0.000000 0.000000 0.500000
#
# Coordination Sequence:
#
# PCOD9165398 Si02
#       8
#     4   2   4   4   4   4   4   4
#     4  11  23  41  71  95 128 175 227 283 335 383
#     4  10  22  44  66  96 132 182 228 282 356 400
#     4  12  24  43  68 103 130 169 227 279 322 396
#     4  10  23  39  59  89 128 169 221 276 335 395
#     4  12  26  42  66  98 136 174 208 256 333 395
#     4  10  21  38  65  93 120 162 219 268 318 368
#     4  10  22  42  65  93 126 165 212 259 313 384
#     4  10  24  42  59  91 133 179 224 274 349 418
#
# _framework density 22.831223000000001
#
# number of rings (size 3 to 8) (size 9 to 14) (size 15 to 20)
#    0.000    1.333    1.333    3.200    6.533    1.067 
#    3.600    0.000    0.000    0.000    0.000    0.000 
#    0.000    0.000    0.000    0.000    0.000    0.000 
#
# Total GULP energy -167018.620717 kJ/mol
# GULP energy per Si atom -5567.287357 kJ/mol
# Density = 2.277926 g / cm^3
# Si number density = 22.831223 Si / 1000 Ang^3
#
#
#
# Elastic Constant Matrix: (Units=GPa)
#
#
# Indices 1 2 3 4 5 6 
#
# 1 78.0077 39.5711 8.9704 0.0000 3.4227 0.0000
# 2 39.5711 115.8749 2.9446 0.0000 20.2472 0.0000
# 3 8.9704 2.9446 81.8147 0.0000 -6.7763 0.0000
# 4 0.0000 0.0000 0.0000 26.6871 0.0000 8.0295
# 5 3.4227 20.2472 -6.7763 0.0000 18.7245 0.0000
# 6 0.0000 0.0000 0.0000 8.0295 0.0000 19.1888
#
#
#
# Elastic Compliance Matrix: (Units=1/GPa)
#
#
# Indices 1 2 3 4 5 6 
#
# 1 0.015826 -0.005901 -0.001272 0.000000 0.003028 0.000000
# 2 -0.005901 0.012994 -0.000923 0.000000 -0.013306 0.000000
# 3 -0.001272 -0.000923 0.012883 0.000000 0.005893 0.000000
# 4 0.000000 0.000000 0.000000 0.042869 0.000000 -0.017938
# 5 0.003028 -0.013306 0.005893 0.000000 0.069373 0.000000
# 6 0.000000 0.000000 0.000000 -0.017938 0.000000 0.059620
#
#
# Mechanical properties :
#
#
# Convention : Reuss Voigt Hill
#
# Bulk Modulus (GPa) = 39.19842 42.07441 40.63642
# Shear Modulus (GPa) = 20.98542 27.86748 24.42645
#
# Velocity S-wave (km/s) = 3.03505 3.49748 3.27444
# Velocity P-wave (km/s) = 5.43029 5.89731 5.66861
#
# Compressibility (1/GPa) = 0.02551123
#
# Stress axis : x y z
#
# Youngs Moduli (GPa) = 63.18597 76.96037 77.61879
#
# Poissons Ratio (x) = 0.45418 0.09873
# Poissons Ratio (y) = 0.37289 0.07161
# Poissons Ratio (z) = 0.08037 0.07101
#
# Static dielectric constant tensor:
#      x y z
#    x 1.903740 0.000000 0.041520 
#    y 0.000000 1.881340 0.000000 
#    z 0.041520 0.000000 1.832390 
# 
# From -- ./inp_files/8124.got.cif
#   From: 2010.05.17/outbox.cif.g08.bks.cpg/sg11_5_cif.got.tgz:8124.got - 2010.06.03 12:22:45.
