data_PCOD9165091
_publ_section_title
;
Structure prediction by ZEFSAII (Michael W. Deem and Ramdas Pophale) SiO2 
 PCOD9165091
Probable space group: P 21/M
;
_chemical_formula_sum "Si O2"
_cell_formula_units_Z 28
_cell_length_a 30.616837
_cell_length_b 8.908258
_cell_length_c 9.791898
_cell_angle_alpha 90.000000
_cell_angle_beta 142.573747
_cell_angle_gamma 90.000000
_cell_volume 1623.071501
_symmetry_space_group_name_H-M "P 21/M"
_symmetry_group_IT_number 11
_symmetry_cell_setting 'monoclinic'
loop_
_space_group_symop_operation_xyz
x,y,z
-x,1/2+y,-z
-x,-y,-z
x,1/2-y,z
loop_
_atom_site_type_symbol
_atom_site_label
_atom_site_fract_x
_atom_site_fract_y
_atom_site_fract_z
Si Si1 0.000103 0.429247 0.151441
Si Si2 0.282766 0.070908 0.368314
Si Si3 0.146039 0.570025 0.532820
Si Si4 0.723068 0.431646 0.944676
Si Si5 0.561424 0.428933 0.560985
Si Si6 0.436331 0.929986 0.754157
Si Si7 0.159727 0.930038 0.245571
O O1 0.005478 0.250000 0.154637
O O2 0.071739 0.494741 0.396806
O O3 0.920591 0.464280 0.010215
O O4 0.000000 0.500000 0.000000
O O5 0.287665 0.250000 0.377633
O O6 0.266868 0.007329 0.177327
O O7 0.359384 0.000266 0.600940
O O8 0.220702 0.015965 0.315495
O O9 0.136882 0.750000 0.515198
O O10 0.159893 0.531709 0.407792
O O11 0.213713 0.528740 0.794105
O O12 0.723036 0.250000 0.926167
O O13 0.643422 0.474414 0.799804
O O14 0.500000 0.500000 0.500000
O O15 0.557220 0.250000 0.565469
O O16 0.551644 0.464477 0.376445
O O17 0.433666 0.750000 0.762914
O O18 0.500000 0.000000 0.000000
O O19 0.170854 0.750000 0.262003
#
# Coordination Sequence:
#
# PCOD9165091 Si02
#       7
#     4   4   4   4   4   4   4
#     4   9  17  30  50  75 104 135 169 211 261 308
#     4  11  22  35  53  78 105 137 175 213 255 303
#     4   9  18  33  55  79 102 133 174 215 261 310
#     4   9  19  37  55  73 103 140 171 207 258 311
#     4   9  19  34  53  77 104 134 169 207 251 301
#     4  10  21  38  57  78 105 137 172 211 256 306
#     4   9  18  33  52  76 105 138 172 210 258 309
#
# _framework density 17.251244
#
# number of rings (size 3 to 8) (size 9 to 14) (size 15 to 20)
#    0.000    2.571    0.000    3.857    0.000    7.429 
#    0.000    2.143    0.000    0.000    0.000    0.000 
#    0.000    0.000    0.000    0.000    0.000    0.000 
#
# Total GULP energy -156113.378531 kJ/mol
# GULP energy per Si atom -5575.477805 kJ/mol
# Density = 1.721198 g / cm^3
# Si number density = 17.251244 Si / 1000 Ang^3
#
#
#
# Elastic Constant Matrix: (Units=GPa)
#
#
# Indices 1 2 3 4 5 6 
#
# 1 110.8738 54.6099 78.6521 0.0000 34.8551 0.0000
# 2 54.6099 52.4273 61.6901 0.0000 16.4477 0.0000
# 3 78.6521 61.6901 176.7635 0.0000 31.6344 0.0000
# 4 0.0000 0.0000 0.0000 30.3650 0.0000 5.4556
# 5 34.8551 16.4477 31.6344 0.0000 19.7737 0.0000
# 6 0.0000 0.0000 0.0000 5.4556 0.0000 31.7790
#
#
#
# Elastic Compliance Matrix: (Units=1/GPa)
#
#
# Indices 1 2 3 4 5 6 
#
# 1 0.030774 -0.020496 0.000164 0.000000 -0.037459 0.000000
# 2 -0.020496 0.048342 -0.009837 0.000000 0.011656 0.000000
# 3 0.000164 -0.009837 0.010656 0.000000 -0.009153 0.000000
# 4 0.000000 0.000000 0.000000 0.033981 0.000000 -0.005834
# 5 -0.037459 0.011656 -0.009153 0.000000 0.121549 0.000000
# 6 0.000000 0.000000 0.000000 -0.005834 0.000000 0.032469
#
#
# Mechanical properties :
#
#
# Convention : Reuss Voigt Hill
#
# Bulk Modulus (GPa) = 33.97617 81.10763 57.54190
# Shear Modulus (GPa) = 14.37103 26.05773 20.21438
#
# Velocity S-wave (km/s) = 2.88938 3.89071 3.42682
# Velocity P-wave (km/s) = 5.55599 8.20372 7.00607
#
# Compressibility (1/GPa) = 0.02943240
#
# Stress axis : x y z
#
# Youngs Moduli (GPa) = 32.49461 20.68576 93.84625
#
# Poissons Ratio (x) = 0.42399 -0.01538
# Poissons Ratio (y) = 0.66602 0.92320
# Poissons Ratio (z) = -0.00532 0.20349
#
# Static dielectric constant tensor:
#      x y z
#    x 1.566790 0.000000 0.012840 
#    y 0.000000 1.576140 0.000000 
#    z 0.012840 0.000000 1.603340 
# 
# From -- ./inp_files/28601.got.cif
#   From: 2010.05.17/outbox.cif.g08.bks.cpg/sg11_15_cif.got.tgz:28601.got - 2010.06.03 12:22:45.
