data_PCOD9165734
_publ_section_title
;
Structure prediction by ZEFSAII (Michael W. Deem and Ramdas Pophale) SiO2 
 PCOD9165734
Probable space group: P 21/M
;
_chemical_formula_sum "Si O2"
_cell_formula_units_Z 20
_cell_length_a 11.309910
_cell_length_b 14.358363
_cell_length_c 7.950775
_cell_angle_alpha 90.000000
_cell_angle_beta 141.963227
_cell_angle_gamma 90.000000
_cell_volume 795.558368
_symmetry_space_group_name_H-M "P 21/M"
_symmetry_group_IT_number 11
_symmetry_cell_setting 'monoclinic'
loop_
_space_group_symop_operation_xyz
x,y,z
-x,1/2+y,-z
-x,-y,-z
x,1/2-y,z
loop_
_atom_site_type_symbol
_atom_site_label
_atom_site_fract_x
_atom_site_fract_y
_atom_site_fract_z
Si Si1 0.338846 0.642684 0.032533
Si Si2 0.159200 0.944835 0.500808
Si Si3 0.748262 0.644388 0.965909
Si Si4 0.745718 0.853879 0.341482
Si Si5 0.773712 0.474909 0.777610
O O1 0.284253 0.750000 0.955273
O O2 0.260668 0.587843 0.783187
O O3 0.568979 0.638263 0.270893
O O4 0.262234 0.600949 0.119896
O O5 0.285155 0.939791 0.472189
O O6 0.970226 0.883602 0.256126
O O7 0.123016 0.055964 0.483498
O O8 0.732588 0.750000 0.886096
O O9 0.663353 0.639960 0.058955
O O10 0.684968 0.568431 0.759075
O O11 0.831446 0.750000 0.453882
O O12 0.000000 0.500000 0.000000
#
# Coordination Sequence:
#
# PCOD9165734 Si02
#       5
#     4   4   4   4   4
#     4  11  24  43  64  93 132 169 207 265 319 370
#     4  11  22  41  68  93 123 170 218 253 315 376
#     4  10  21  40  63  93 127 165 215 263 313 376
#     4  10  22  40  65  94 129 169 212 260 318 375
#     4  10  24  39  64  94 125 163 210 261 314 374
#
# _framework density 25.139575000000001
#
# number of rings (size 3 to 8) (size 9 to 14) (size 15 to 20)
#    0.000    1.600    2.000    1.800    2.800    5.600 
#    0.000    0.000    0.000    0.000    0.000    0.000 
#    0.000    0.000    0.000    0.000    0.000    0.000 
#
# Total GULP energy -111944.820006 kJ/mol
# GULP energy per Si atom -5597.241000 kJ/mol
# Density = 2.508236 g / cm^3
# Si number density = 25.139575 Si / 1000 Ang^3
#
#
#
# Elastic Constant Matrix: (Units=GPa)
#
#
# Indices 1 2 3 4 5 6 
#
# 1 158.9815 49.5293 14.4413 0.0000 -24.1785 0.0000
# 2 49.5293 175.1028 23.0498 0.0000 -21.2561 0.0000
# 3 14.4413 23.0498 49.9078 0.0000 -19.1505 0.0000
# 4 0.0000 0.0000 0.0000 14.5635 0.0000 -1.6232
# 5 -24.1785 -21.2561 -19.1505 0.0000 54.2812 0.0000
# 6 0.0000 0.0000 0.0000 -1.6232 0.0000 31.9381
#
#
#
# Elastic Compliance Matrix: (Units=1/GPa)
#
#
# Indices 1 2 3 4 5 6 
#
# 1 0.007222 -0.001700 -0.000377 0.000000 0.002418 0.000000
# 2 -0.001700 0.006604 -0.002147 0.000000 0.001072 0.000000
# 3 -0.000377 -0.002147 0.024000 0.000000 0.007458 0.000000
# 4 0.000000 0.000000 0.000000 0.069056 0.000000 0.003510
# 5 0.002418 0.001072 0.007458 0.000000 0.022551 0.000000
# 6 0.000000 0.000000 0.000000 0.003510 0.000000 0.031489
#
#
# Mechanical properties :
#
#
# Convention : Reuss Voigt Hill
#
# Bulk Modulus (GPa) = 34.03853 62.00364 48.02108
# Shear Modulus (GPa) = 27.90789 39.95470 33.93129
#
# Velocity S-wave (km/s) = 3.33546 3.99095 3.67783
# Velocity P-wave (km/s) = 5.32944 6.77895 6.09742
#
# Compressibility (1/GPa) = 0.02937847
#
# Stress axis : x y z
#
# Youngs Moduli (GPa) = 138.47522 151.41432 41.66733
#
# Poissons Ratio (x) = 0.25733 0.01570
# Poissons Ratio (y) = 0.23534 0.08947
# Poissons Ratio (z) = 0.05217 0.32512
#
# Static dielectric constant tensor:
#      x y z
#    x 2.039480 0.000000 0.040730 
#    y 0.000000 1.949050 0.000000 
#    z 0.040730 0.000000 2.056820 
# 
# From -- ./inp_files/12236.got.cif
#   From: 2010.05.17/outbox.cif.g08.bks.cpg/sg11_7_cif.got.tgz:12236.got - 2010.06.03 12:22:45.
