data_PCOD9165967
_publ_section_title
;
Structure prediction by ZEFSAII (Michael W. Deem and Ramdas Pophale) SiO2 
 PCOD9165967
Probable space group: P 21/M
;
_chemical_formula_sum "Si O2"
_cell_formula_units_Z 28
_cell_length_a 9.415083
_cell_length_b 9.346756
_cell_length_c 24.997676
_cell_angle_alpha 90.000000
_cell_angle_beta 40.855699
_cell_angle_gamma 90.000000
_cell_volume 1439.017749
_symmetry_space_group_name_H-M "P 21/M"
_symmetry_group_IT_number 11
_symmetry_cell_setting 'monoclinic'
loop_
_space_group_symop_operation_xyz
x,y,z
-x,1/2+y,-z
-x,-y,-z
x,1/2-y,z
loop_
_atom_site_type_symbol
_atom_site_label
_atom_site_fract_x
_atom_site_fract_y
_atom_site_fract_z
Si Si1 0.699234 0.584319 0.418063
Si Si2 0.834086 0.419985 0.007572
Si Si3 0.683940 0.418037 0.316152
Si Si4 0.201454 0.082818 0.416840
Si Si5 0.019069 0.581492 0.156886
Si Si6 0.622771 0.079805 0.854556
Si Si7 0.176233 0.586578 0.319878
O O1 0.500000 0.500000 0.500000
O O2 0.641979 0.750000 0.425679
O O3 0.758033 0.508300 0.345993
O O4 0.914737 0.580107 0.392396
O O5 0.830272 0.250000 0.020179
O O6 0.908181 0.438006 0.924819
O O7 0.595900 0.488706 0.080477
O O8 0.000000 0.500000 0.000000
O O9 0.731202 0.250000 0.308423
O O10 0.425092 0.435276 0.385328
O O11 0.812881 0.484572 0.229777
O O12 0.148739 0.250000 0.429698
O O13 0.249199 0.021764 0.344338
O O14 0.000000 0.000000 0.500000
O O15 0.967312 0.750000 0.179876
O O16 0.211652 0.545267 0.144148
O O17 0.573730 0.250000 0.872662
O O18 0.734328 0.057164 0.764934
O O19 0.239089 0.750000 0.315936
#
# Coordination Sequence:
#
# PCOD9165967 Si02
#       7
#     4   4   4   4   4   4   4
#     4  11  22  39  62  91 125 162 206 256 307 365
#     4  11  25  42  65  97 130 166 206 251 305 368
#     4  11  24  40  61  92 125 160 207 259 309 366
#     4  11  25  42  60  88 124 164 211 260 311 370
#     4  10  22  43  67  92 124 165 208 250 309 372
#     4  10  21  42  67  93 125 162 206 255 309 368
#     4  10  22  40  63  89 122 163 205 254 309 366
#
# _framework density 19.457716000000001
#
# number of rings (size 3 to 8) (size 9 to 14) (size 15 to 20)
#    0.000    1.429    1.429    3.000    2.000    9.143 
#    0.000    0.000    0.000    0.000    0.000    0.000 
#    0.000    0.000    0.000    0.000    0.000    0.000 
#
# Total GULP energy -156510.702599 kJ/mol
# GULP energy per Si atom -5589.667950 kJ/mol
# Density = 1.941343 g / cm^3
# Si number density = 19.457716 Si / 1000 Ang^3
#
#
#
# Elastic Constant Matrix: (Units=GPa)
#
#
# Indices 1 2 3 4 5 6 
#
# 1 73.5129 51.8758 16.1307 0.0000 6.9305 0.0000
# 2 51.8758 98.6764 52.6473 0.0000 -11.8359 0.0000
# 3 16.1307 52.6473 92.7518 0.0000 -8.2432 0.0000
# 4 0.0000 0.0000 0.0000 38.3553 0.0000 -0.5191
# 5 6.9305 -11.8359 -8.2432 0.0000 22.8425 0.0000
# 6 0.0000 0.0000 0.0000 -0.5191 0.0000 29.7775
#
#
#
# Elastic Compliance Matrix: (Units=1/GPa)
#
#
# Indices 1 2 3 4 5 6 
#
# 1 0.027397 -0.018722 0.004402 0.000000 -0.016425 0.000000
# 2 -0.018722 0.027837 -0.011114 0.000000 0.016093 0.000000
# 3 0.004402 -0.011114 0.016214 0.000000 -0.001244 0.000000
# 4 0.000000 0.000000 0.000000 0.026078 0.000000 0.000455
# 5 -0.016425 0.016093 -0.001244 0.000000 0.056651 0.000000
# 6 0.000000 0.000000 0.000000 0.000455 0.000000 0.033590
#
#
# Mechanical properties :
#
#
# Convention : Reuss Voigt Hill
#
# Bulk Modulus (GPa) = 48.59063 56.24984 52.42024
# Shear Modulus (GPa) = 20.36700 27.81424 24.09062
#
# Velocity S-wave (km/s) = 3.23883 3.78494 3.52248
# Velocity P-wave (km/s) = 6.24607 6.93343 6.59871
#
# Compressibility (1/GPa) = 0.02058010
#
# Stress axis : x y z
#
# Youngs Moduli (GPa) = 36.50040 35.92371 61.67527
#
# Poissons Ratio (x) = 0.67256 -0.27152
# Poissons Ratio (y) = 0.68336 0.68548
# Poissons Ratio (z) = -0.16069 0.39927
#
# Static dielectric constant tensor:
#      x y z
#    x 1.690140 0.000000 0.019750 
#    y 0.000000 1.610940 0.000000 
#    z 0.019750 0.000000 1.684770 
# 
# From -- ./inp_files/70811.got.cif
#   From: 2010.05.17/outbox.cif.g08.bks.cpg/sg11_36_cif.got.tgz:70811.got - 2010.06.03 12:22:45.
