data_PCOD9165020
_publ_section_title
;
Structure prediction by ZEFSAII (Michael W. Deem and Ramdas Pophale) SiO2 
 PCOD9165020
Probable space group: P 21/M
;
_chemical_formula_sum "Si O2"
_cell_formula_units_Z 28
_cell_length_a 22.079365
_cell_length_b 8.944230
_cell_length_c 14.893687
_cell_angle_alpha 90.000000
_cell_angle_beta 151.326806
_cell_angle_gamma 90.000000
_cell_volume 1411.249606
_symmetry_space_group_name_H-M "P 21/M"
_symmetry_group_IT_number 11
_symmetry_cell_setting 'monoclinic'
loop_
_space_group_symop_operation_xyz
x,y,z
-x,1/2+y,-z
-x,-y,-z
x,1/2-y,z
loop_
_atom_site_type_symbol
_atom_site_label
_atom_site_fract_x
_atom_site_fract_y
_atom_site_fract_z
Si Si1 0.893514 0.929511 0.922680
Si Si2 0.363182 0.927240 0.718815
Si Si3 0.655427 0.571563 0.491391
Si Si4 0.545355 0.574968 0.651283
Si Si5 0.664432 0.927486 0.127848
Si Si6 0.152889 0.425924 0.938321
Si Si7 0.882313 0.072047 0.295325
O O1 0.904288 0.750000 0.936503
O O2 0.759283 0.965033 0.702270
O O3 0.900390 0.977796 0.035067
O O4 0.000000 0.000000 0.000000
O O5 0.339796 0.750000 0.692316
O O6 0.310583 0.997815 0.559224
O O7 0.312995 0.005905 0.743435
O O8 0.515460 0.950978 0.914918
O O9 0.647735 0.750000 0.471912
O O10 0.524768 0.505611 0.358175
O O11 0.500000 0.500000 0.500000
O O12 0.511371 0.750000 0.606583
O O13 0.695494 0.564256 0.855789
O O14 0.688274 0.750000 0.157290
O O15 0.754608 0.007525 0.174007
O O16 0.121369 0.250000 0.883676
O O17 0.110905 0.520781 0.798956
O O18 0.884440 0.250000 0.305946
O O19 0.000000 0.000000 0.500000
#
# Coordination Sequence:
#
# PCOD9165020 Si02
#       7
#     4   4   4   4   4   4   4
#     4  10  23  42  61  84 118 160 201 246 297 354
#     4  10  21  37  61  93 125 161 201 249 308 365
#     4  11  22  38  58  88 125 161 202 250 304 363
#     4  11  21  36  61  91 125 161 200 249 307 367
#     4  10  21  40  63  89 123 161 202 253 308 365
#     4  10  22  43  64  88 125 162 199 254 312 362
#     4  12  26  43  65  92 121 160 209 259 311 371
#
# _framework density 19.840572000000002
#
# number of rings (size 3 to 8) (size 9 to 14) (size 15 to 20)
#    0.000    1.429    1.429    3.857    0.000    9.143 
#    0.000    2.857    0.000    0.000    0.000    0.000 
#    0.000    0.000    0.000    0.000    0.000    0.000 
#
# Total GULP energy -156603.065443 kJ/mol
# GULP energy per Si atom -5592.966623 kJ/mol
# Density = 1.979541 g / cm^3
# Si number density = 19.840572 Si / 1000 Ang^3
#
#
#
# Elastic Constant Matrix: (Units=GPa)
#
#
# Indices 1 2 3 4 5 6 
#
# 1 156.3888 57.6799 39.8680 0.0000 -21.3972 0.0000
# 2 57.6799 99.8468 45.5698 0.0000 -13.1424 0.0000
# 3 39.8680 45.5698 43.1156 0.0000 -18.8521 0.0000
# 4 0.0000 0.0000 0.0000 29.5194 0.0000 -1.4434
# 5 -21.3972 -13.1424 -18.8521 0.0000 38.3367 0.0000
# 6 0.0000 0.0000 0.0000 -1.4434 0.0000 40.5249
#
#
#
# Elastic Compliance Matrix: (Units=1/GPa)
#
#
# Indices 1 2 3 4 5 6 
#
# 1 0.008802 -0.002884 -0.004299 0.000000 0.001810 0.000000
# 2 -0.002884 0.020884 -0.021629 0.000000 -0.005087 0.000000
# 3 -0.004299 -0.021629 0.058266 0.000000 0.018838 0.000000
# 4 0.000000 0.000000 0.000000 0.033935 0.000000 0.001209
# 5 0.001810 -0.005087 0.018838 0.000000 0.034615 0.000000
# 6 0.000000 0.000000 0.000000 0.001209 0.000000 0.024719
#
#
# Mechanical properties :
#
#
# Convention : Reuss Voigt Hill
#
# Bulk Modulus (GPa) = 32.97508 65.06518 49.02013
# Shear Modulus (GPa) = 20.08402 32.09177 26.08789
#
# Velocity S-wave (km/s) = 3.18507 4.02616 3.63006
# Velocity P-wave (km/s) = 5.49385 7.38095 6.50618
#
# Compressibility (1/GPa) = 0.03032593
#
# Stress axis : x y z
#
# Youngs Moduli (GPa) = 113.61491 47.88424 17.16269
#
# Poissons Ratio (x) = 0.13812 0.07378
# Poissons Ratio (y) = 0.32771 0.37122
# Poissons Ratio (z) = 0.48840 1.03571
#
# Static dielectric constant tensor:
#      x y z
#    x 1.693940 0.000000 0.005910 
#    y 0.000000 1.658180 0.000000 
#    z 0.005910 0.000000 1.704250 
# 
# From -- ./inp_files/37926.got.cif
#   From: 2010.05.17/outbox.cif.g08.bks.cpg/sg11_19_cif.got.tgz:37926.got - 2010.06.03 12:22:45.
