data_PCOD9165959
_publ_section_title
;
Structure prediction by ZEFSAII (Michael W. Deem and Ramdas Pophale) SiO2 
 PCOD9165959
Probable space group: P 21/M
;
_chemical_formula_sum "Si O2"
_cell_formula_units_Z 30
_cell_length_a 6.226963
_cell_length_b 14.605476
_cell_length_c 17.427874
_cell_angle_alpha 90.000000
_cell_angle_beta 112.416276
_cell_angle_gamma 90.000000
_cell_volume 1465.257935
_symmetry_space_group_name_H-M "P 21/M"
_symmetry_group_IT_number 11
_symmetry_cell_setting 'monoclinic'
loop_
_space_group_symop_operation_xyz
x,y,z
-x,1/2+y,-z
-x,-y,-z
x,1/2-y,z
loop_
_atom_site_type_symbol
_atom_site_label
_atom_site_fract_x
_atom_site_fract_y
_atom_site_fract_z
Si Si1 0.033401 0.645653 0.299429
Si Si2 0.280419 0.119184 0.887107
Si Si3 0.706138 0.250000 0.989294
Si Si4 0.114297 0.994418 0.598286
Si Si5 0.998756 0.643528 0.713876
Si Si6 0.925010 0.605674 0.987375
Si Si7 0.623086 0.499517 0.717608
Si Si8 0.557801 0.435524 0.146803
O O1 0.087085 0.750000 0.327407
O O2 0.825106 0.643893 0.209428
O O3 0.962050 0.581974 0.361063
O O4 0.243248 0.592992 0.285603
O O5 0.514821 0.171504 0.937978
O O6 0.330665 0.010763 0.893564
O O7 0.090870 0.139848 0.926821
O O8 0.899397 0.169595 0.033565
O O9 0.036100 0.905577 0.636659
O O10 0.393376 0.992232 0.634679
O O11 0.000000 0.000000 0.500000
O O12 0.942394 0.750000 0.700972
O O13 0.239570 0.628651 0.793030
O O14 0.799633 0.583216 0.726991
O O15 0.662235 0.613330 0.920262
O O16 0.000000 0.500000 0.000000
O O17 0.540367 0.507311 0.793814
#
# Coordination Sequence:
#
# PCOD9165959 Si02
#       8
#     4   4   2   4   4   4   4   4
#     4  11  23  39  66  98 128 168 216 264 323 390
#     4  12  23  44  64  92 132 170 224 283 321 386
#     4  12  28  40  62  96 132 176 220 284 334 378
#     4  10  23  45  68  96 135 167 207 264 326 392
#     4  10  23  41  66  96 128 171 216 268 322 386
#     4  12  27  42  64  92 130 182 226 274 337 386
#     4  10  21  42  65  93 126 169 216 257 329 384
#     4  11  23  43  63  89 128 174 222 273 322 380
#
# _framework density 20.474211
#
# number of rings (size 3 to 8) (size 9 to 14) (size 15 to 20)
#    0.000    1.067    6.000    1.600    0.933    5.333 
#    2.400    1.333    0.000    0.000    0.000    0.000 
#    0.000    0.000    0.000    0.000    0.000    0.000 
#
# Total GULP energy -167266.948612 kJ/mol
# GULP energy per Si atom -5575.564954 kJ/mol
# Density = 2.042761 g / cm^3
# Si number density = 20.474211 Si / 1000 Ang^3
#
#
#
# Elastic Constant Matrix: (Units=GPa)
#
#
# Indices 1 2 3 4 5 6 
#
# 1 74.8814 26.0934 24.8627 0.0000 8.7400 0.0000
# 2 26.0934 149.2844 18.8118 0.0000 -3.9799 0.0000
# 3 24.8627 18.8118 101.1574 0.0000 3.9294 0.0000
# 4 0.0000 0.0000 0.0000 9.5635 0.0000 19.6777
# 5 8.7400 -3.9799 3.9294 0.0000 18.8553 0.0000
# 6 0.0000 0.0000 0.0000 19.6777 0.0000 3.2875
#
#
#
# Elastic Compliance Matrix: (Units=1/GPa)
#
#
# Indices 1 2 3 4 5 6 
#
# 1 0.016196 -0.002624 -0.003206 0.000000 -0.007393 0.000000
# 2 -0.002624 0.007341 -0.000834 0.000000 0.002940 0.000000
# 3 -0.003206 -0.000834 0.010866 0.000000 -0.000955 0.000000
# 4 0.000000 0.000000 0.000000 -0.009240 0.000000 0.055310
# 5 -0.007393 0.002940 -0.000955 0.000000 0.057282 0.000000
# 6 0.000000 0.000000 0.000000 0.055310 0.000000 -0.026881
#
#
# Mechanical properties :
#
#
# Convention : Reuss Voigt Hill
#
# Bulk Modulus (GPa) = 47.45045 51.65100 49.55073
# Shear Modulus (GPa) = 65.86234 23.37828 44.62031
#
# Velocity S-wave (km/s) = 5.67788 3.38278 4.67341
# Velocity P-wave (km/s) = 8.13698 6.36708 7.30582
#
# Compressibility (1/GPa) = 0.02107462
#
# Stress axis : x y z
#
# Youngs Moduli (GPa) = 61.74324 136.22494 92.03281
#
# Poissons Ratio (x) = 0.35747 0.29501
# Poissons Ratio (y) = 0.16202 0.07679
# Poissons Ratio (z) = 0.19792 0.11366
#
# Static dielectric constant tensor:
#      x y z
#    x 1.765950 0.000000 -0.029150 
#    y 0.000000 1.671270 0.000000 
#    z -0.029150 0.000000 1.729490 
# 
# From -- ./inp_files/57088.got.cif
#   From: 2010.05.17/outbox.cif.g08.bks.cpg/sg11_29_cif.got.tgz:57088.got - 2010.06.03 12:22:45.
