data_PCOD9165084
_publ_section_title
;
Structure prediction by ZEFSAII (Michael W. Deem and Ramdas Pophale) SiO2 
 PCOD9165084
Probable space group: P 21/M
;
_chemical_formula_sum "Si O2"
_cell_formula_units_Z 32
_cell_length_a 12.026648
_cell_length_b 8.849800
_cell_length_c 19.973196
_cell_angle_alpha 90.000000
_cell_angle_beta 121.058686
_cell_angle_gamma 90.000000
_cell_volume 1821.057349
_symmetry_space_group_name_H-M "P 21/M"
_symmetry_group_IT_number 11
_symmetry_cell_setting 'monoclinic'
loop_
_space_group_symop_operation_xyz
x,y,z
-x,1/2+y,-z
-x,-y,-z
x,1/2-y,z
loop_
_atom_site_type_symbol
_atom_site_label
_atom_site_fract_x
_atom_site_fract_y
_atom_site_fract_z
Si Si1 0.359613 0.431107 0.745239
Si Si2 0.090126 0.067288 0.226676
Si Si3 0.925935 0.932920 0.541400
Si Si4 0.103693 0.569950 0.082787
Si Si5 0.374402 0.076213 0.331372
Si Si6 0.627375 0.575884 0.832196
Si Si7 0.357771 0.069349 0.587646
Si Si8 0.920247 0.568385 0.285948
O O1 0.378196 0.250000 0.752573
O O2 0.489104 0.511185 0.811293
O O3 0.341131 0.473727 0.661054
O O4 0.229564 0.468565 0.744840
O O5 0.090571 0.250000 0.223939
O O6 0.229511 0.019346 0.302594
O O7 0.083208 0.000914 0.150055
O O8 0.974578 0.003979 0.235354
O O9 0.933724 0.750000 0.542739
O O10 0.773867 0.977045 0.490408
O O11 0.000000 0.000000 0.500000
O O12 0.994744 0.999465 0.627693
O O13 0.092638 0.750000 0.082021
O O14 0.249493 0.521466 0.107486
O O15 0.000000 0.500000 0.000000
O O16 0.383097 0.250000 0.355449
O O17 0.375726 0.070631 0.250296
O O18 0.504592 0.993348 0.394682
O O19 0.644834 0.750000 0.857028
O O20 0.364698 0.250000 0.587408
O O21 0.932698 0.750000 0.288849
#
# Coordination Sequence:
#
# PCOD9165084 Si02
#       8
#     4   4   4   4   4   4   4   4
#     4   9  17  31  49  73 105 139 179 224 266 315
#     4  10  21  38  56  80 110 141 179 220 264 323
#     4  11  21  34  50  73 104 140 181 231 279 324
#     4  11  21  36  60  88 115 144 174 214 262 311
#     4   8  16  30  49  72  99 131 171 219 265 314
#     4   9  17  30  50  80 110 137 175 219 260 310
#     4   9  17  30  48  71  99 131 174 227 273 315
#     4  11  22  36  53  77 107 144 185 225 272 326
#
# _framework density 17.572208
#
# number of rings (size 3 to 8) (size 9 to 14) (size 15 to 20)
#    0.000    2.250    1.250    3.375    0.000    5.500 
#    0.000    0.625    0.000    0.750    0.000    0.000 
#    0.000    0.000    0.000    0.000    0.000    0.000 
#
# Total GULP energy -178495.299691 kJ/mol
# GULP energy per Si atom -5577.978115 kJ/mol
# Density = 1.753221 g / cm^3
# Si number density = 17.572208 Si / 1000 Ang^3
#
#
#
# Elastic Constant Matrix: (Units=GPa)
#
#
# Indices 1 2 3 4 5 6 
#
# 1 100.9987 47.0435 43.1987 0.0000 18.5856 0.0000
# 2 47.0435 77.3452 41.3352 0.0000 14.4593 0.0000
# 3 43.1987 41.3352 79.7534 0.0000 21.6466 0.0000
# 4 0.0000 0.0000 0.0000 26.8083 0.0000 5.5605
# 5 18.5856 14.4593 21.6466 0.0000 23.7762 0.0000
# 6 0.0000 0.0000 0.0000 5.5605 0.0000 28.6322
#
#
#
# Elastic Compliance Matrix: (Units=1/GPa)
#
#
# Indices 1 2 3 4 5 6 
#
# 1 0.015369 -0.006503 -0.003675 0.000000 -0.004713 0.000000
# 2 -0.006503 0.020823 -0.006924 0.000000 -0.001277 0.000000
# 3 -0.003675 -0.006924 0.021511 0.000000 -0.012501 0.000000
# 4 0.000000 0.000000 0.000000 0.038868 0.000000 -0.007548
# 5 -0.004713 -0.001277 -0.012501 0.000000 0.057901 0.000000
# 6 0.000000 0.000000 0.000000 -0.007548 0.000000 0.036392
#
#
# Mechanical properties :
#
#
# Convention : Reuss Voigt Hill
#
# Bulk Modulus (GPa) = 42.55337 57.91689 50.23513
# Shear Modulus (GPa) = 21.46854 24.27802 22.87328
#
# Velocity S-wave (km/s) = 3.49912 3.72104 3.61179
# Velocity P-wave (km/s) = 6.37134 7.17582 6.78551
#
# Compressibility (1/GPa) = 0.02349990
#
# Stress axis : x y z
#
# Youngs Moduli (GPa) = 65.06480 48.02388 46.48862
#
# Poissons Ratio (x) = 0.31229 0.17086
# Poissons Ratio (y) = 0.42310 0.32186
# Poissons Ratio (z) = 0.23913 0.33249
#
# Static dielectric constant tensor:
#      x y z
#    x 1.620270 0.000000 0.002390 
#    y 0.000000 1.605620 0.000000 
#    z 0.002390 0.000000 1.590470 
# 
# From -- ./inp_files/64468.got.cif
#   From: 2010.05.17/outbox.cif.g08.bks.cpg/sg11_33_cif.got.tgz:64468.got - 2010.06.03 12:22:45.
