data_PCOD9165450
_publ_section_title
;
Structure prediction by ZEFSAII (Michael W. Deem and Ramdas Pophale) SiO2 
 PCOD9165450
Probable space group: P 21/M
;
_chemical_formula_sum "Si O2"
_cell_formula_units_Z 24
_cell_length_a 13.488935
_cell_length_b 8.649792
_cell_length_c 10.163354
_cell_angle_alpha 90.000000
_cell_angle_beta 79.285698
_cell_angle_gamma 90.000000
_cell_volume 1165.151227
_symmetry_space_group_name_H-M "P 21/M"
_symmetry_group_IT_number 11
_symmetry_cell_setting 'monoclinic'
loop_
_space_group_symop_operation_xyz
x,y,z
-x,1/2+y,-z
-x,-y,-z
x,1/2-y,z
loop_
_atom_site_type_symbol
_atom_site_label
_atom_site_fract_x
_atom_site_fract_y
_atom_site_fract_z
Si Si1 0.416249 0.935808 0.247621
Si Si2 0.248794 0.435979 0.092841
Si Si3 0.355552 0.436954 0.803316
Si Si4 0.019334 0.436369 0.141161
Si Si5 0.300855 0.565025 0.532019
Si Si6 0.916997 0.565623 0.420570
O O1 0.413847 0.750000 0.239582
O O2 0.530243 0.986016 0.189244
O O3 0.384626 0.979962 0.403700
O O4 0.332172 0.000685 0.171096
O O5 0.252800 0.250000 0.096025
O O6 0.134118 0.481272 0.151686
O O7 0.279809 0.484924 0.937652
O O8 0.353533 0.250000 0.795128
O O9 0.326890 0.503640 0.669574
O O10 0.011496 0.250000 0.143422
O O11 0.944711 0.506771 0.267555
O O12 0.000000 0.500000 0.000000
O O13 0.293632 0.750000 0.536417
O O14 0.193471 0.495888 0.516147
O O15 0.917977 0.750000 0.424062
O O16 0.000000 0.500000 0.500000
#
# Coordination Sequence:
#
# PCOD9165450 Si02
#       6
#     4   4   4   4   4   4
#     4  10  22  38  59  87 120 155 195 241 292 349
#     4  10  22  38  59  86 117 153 196 240 290 349
#     4  10  21  39  60  87 121 156 194 240 291 349
#     4  11  23  40  62  91 123 160 203 249 300 358
#     4  11  23  39  60  89 119 154 199 244 294 357
#     4  12  25  42  63  88 119 158 201 252 307 362
#
# _framework density 20.598182999999999
#
# number of rings (size 3 to 8) (size 9 to 14) (size 15 to 20)
#    0.000    1.333    0.000    5.500    0.000    8.000 
#    0.000    0.000    0.000    0.000    0.000    0.000 
#    0.000    0.000    0.000    0.000    0.000    0.000 
#
# Total GULP energy -134290.249927 kJ/mol
# GULP energy per Si atom -5595.427080 kJ/mol
# Density = 2.055130 g / cm^3
# Si number density = 20.598183 Si / 1000 Ang^3
#
#
#
# Elastic Constant Matrix: (Units=GPa)
#
#
# Indices 1 2 3 4 5 6 
#
# 1 58.9485 5.0060 -29.1022 0.0000 -2.7608 0.0000
# 2 5.0060 35.6389 7.3544 0.0000 -5.9262 0.0000
# 3 -29.1022 7.3544 52.0791 0.0000 -0.8942 0.0000
# 4 0.0000 0.0000 0.0000 35.2028 0.0000 10.5042
# 5 -2.7608 -5.9262 -0.8942 0.0000 43.7662 0.0000
# 6 0.0000 0.0000 0.0000 10.5042 0.0000 30.9003
#
#
#
# Elastic Compliance Matrix: (Units=1/GPa)
#
#
# Indices 1 2 3 4 5 6 
#
# 1 0.024867 -0.006383 0.014814 0.000000 0.001007 0.000000
# 2 -0.006383 0.031197 -0.007909 0.000000 0.003660 0.000000
# 3 0.014814 -0.007909 0.028605 0.000000 0.000448 0.000000
# 4 0.000000 0.000000 0.000000 0.031614 0.000000 -0.010747
# 5 0.001007 0.003660 0.000448 0.000000 0.023417 0.000000
# 6 0.000000 0.000000 0.000000 -0.010747 0.000000 0.036015
#
#
# Mechanical properties :
#
#
# Convention : Reuss Voigt Hill
#
# Bulk Modulus (GPa) = 11.66679 12.57585 12.12132
# Shear Modulus (GPa) = 24.60151 32.86774 28.73462
#
# Velocity S-wave (km/s) = 3.45969 3.99891 3.73903
# Velocity P-wave (km/s) = 4.65140 5.23834 4.95358
#
# Compressibility (1/GPa) = 0.08571336
#
# Stress axis : x y z
#
# Youngs Moduli (GPa) = 40.21415 32.05486 34.95944
#
# Poissons Ratio (x) = 0.20459 -0.51790
# Poissons Ratio (y) = 0.25667 0.27650
# Poissons Ratio (z) = -0.59575 0.25353
#
# Static dielectric constant tensor:
#      x y z
#    x 1.717320 0.000000 -0.009250 
#    y 0.000000 1.692990 0.000000 
#    z -0.009250 0.000000 1.714170 
# 
# From -- ./inp_files/20418.got.cif
#   From: 2010.05.17/outbox.cif.g08.bks.cpg/sg11_11_cif.got.tgz:20418.got - 2010.06.03 12:22:45.
