data_PCOD9165256
_publ_section_title
;
Structure prediction by ZEFSAII (Michael W. Deem and Ramdas Pophale) SiO2 
 PCOD9165256
Probable space group: P 21/M
;
_chemical_formula_sum "Si O2"
_cell_formula_units_Z 28
_cell_length_a 15.125142
_cell_length_b 14.071408
_cell_length_c 9.742162
_cell_angle_alpha 90.000000
_cell_angle_beta 136.899569
_cell_angle_gamma 90.000000
_cell_volume 1416.741468
_symmetry_space_group_name_H-M "P 21/M"
_symmetry_group_IT_number 11
_symmetry_cell_setting 'monoclinic'
loop_
_space_group_symop_operation_xyz
x,y,z
-x,1/2+y,-z
-x,-y,-z
x,1/2-y,z
loop_
_atom_site_type_symbol
_atom_site_label
_atom_site_fract_x
_atom_site_fract_y
_atom_site_fract_z
Si Si1 0.554004 0.860849 0.924471
Si Si2 0.362392 0.150415 0.582864
Si Si3 0.335076 0.989729 0.755809
Si Si4 0.128303 0.361835 0.991240
Si Si5 0.413640 0.087092 0.349546
Si Si6 0.034151 0.976358 0.383841
Si Si7 0.949682 0.855929 0.799860
O O1 0.587223 0.750000 0.984603
O O2 0.539037 0.874079 0.743185
O O3 0.423325 0.896139 0.852896
O O4 0.655060 0.939102 0.101489
O O5 0.401734 0.250000 0.694434
O O6 0.395450 0.056973 0.704725
O O7 0.414386 0.149735 0.487970
O O8 0.205949 0.148442 0.399094
O O9 0.188657 0.964259 0.555027
O O10 0.166133 0.250000 0.034311
O O11 0.045841 0.388249 0.765399
O O12 0.258532 0.424403 0.149741
O O13 0.040746 0.377928 0.027545
O O14 0.500000 0.000000 0.500000
O O15 0.999092 0.063947 0.242864
O O16 0.000000 0.000000 0.500000
O O17 0.001610 0.750000 0.831794
#
# Coordination Sequence:
#
# PCOD9165256 Si02
#       7
#     4   4   4   4   4   4   4
#     4  11  22  38  59  85 119 157 198 242 292 354
#     4   9  16  32  57  84 113 147 189 235 283 340
#     4  10  22  38  57  86 117 157 200 240 295 351
#     4  10  21  38  61  87 116 157 199 238 291 358
#     4  11  20  35  59  89 118 149 191 246 290 345
#     4  11  22  36  59  88 118 155 193 248 299 344
#     4   8  17  34  56  81 111 149 194 235 281 342
#
# _framework density 19.763660999999999
#
# number of rings (size 3 to 8) (size 9 to 14) (size 15 to 20)
#    0.000    2.000    1.429    3.857    0.000    1.714 
#    0.000    0.000    0.000    1.714    0.000    0.000 
#    0.000    0.000    0.000    0.000    0.000    0.000 
#
# Total GULP energy -155934.437084 kJ/mol
# GULP energy per Si atom -5569.087039 kJ/mol
# Density = 1.971868 g / cm^3
# Si number density = 19.763661 Si / 1000 Ang^3
#
#
#
# Elastic Constant Matrix: (Units=GPa)
#
#
# Indices 1 2 3 4 5 6 
#
# 1 61.1128 26.4261 28.3276 0.0000 -16.1854 0.0000
# 2 26.4261 68.4267 21.6510 0.0000 -2.1945 0.0000
# 3 28.3276 21.6510 94.4313 0.0000 -8.9972 0.0000
# 4 0.0000 0.0000 0.0000 23.2319 0.0000 -3.7182
# 5 -16.1854 -2.1945 -8.9972 0.0000 38.0845 0.0000
# 6 0.0000 0.0000 0.0000 -3.7182 0.0000 4.8634
#
#
#
# Elastic Compliance Matrix: (Units=1/GPa)
#
#
# Indices 1 2 3 4 5 6 
#
# 1 0.024097 -0.007550 -0.004668 0.000000 0.008703 0.000000
# 2 -0.007550 0.018123 -0.002145 0.000000 -0.002671 0.000000
# 3 -0.004668 -0.002145 0.012564 0.000000 0.000861 0.000000
# 4 0.000000 0.000000 0.000000 0.049046 0.000000 0.037497
# 5 0.008703 -0.002671 0.000861 0.000000 0.030005 0.000000
# 6 0.000000 0.000000 0.000000 0.037497 0.000000 0.234285
#
#
# Mechanical properties :
#
#
# Convention : Reuss Voigt Hill
#
# Bulk Modulus (GPa) = 38.37682 41.86447 40.12065
# Shear Modulus (GPa) = 12.32950 23.07368 17.70159
#
# Velocity S-wave (km/s) = 2.50040 3.42055 2.99601
# Velocity P-wave (km/s) = 5.27220 6.06867 5.68440
#
# Compressibility (1/GPa) = 0.02605739
#
# Stress axis : x y z
#
# Youngs Moduli (GPa) = 41.49956 55.17883 79.59314
#
# Poissons Ratio (x) = 0.41659 0.37157
# Poissons Ratio (y) = 0.31331 0.17072
# Poissons Ratio (z) = 0.19373 0.11835
#
# Static dielectric constant tensor:
#      x y z
#    x 1.703260 0.000000 -0.021130 
#    y 0.000000 1.755570 0.000000 
#    z -0.021130 0.000000 1.722750 
# 
# From -- ./inp_files/22271.got.cif
#   From: 2010.05.17/outbox.cif.g08.bks.cpg/sg11_12_cif.got.tgz:22271.got - 2010.06.03 12:22:45.
