data_PCOD9165102
_publ_section_title
;
Structure prediction by ZEFSAII (Michael W. Deem and Ramdas Pophale) SiO2 
 PCOD9165102
Probable space group: P 21/M
;
_chemical_formula_sum "Si O2"
_cell_formula_units_Z 24
_cell_length_a 12.752077
_cell_length_b 13.459068
_cell_length_c 16.076455
_cell_angle_alpha 90.000000
_cell_angle_beta 24.278002
_cell_angle_gamma 90.000000
_cell_volume 1134.492723
_symmetry_space_group_name_H-M "P 21/M"
_symmetry_group_IT_number 11
_symmetry_cell_setting 'monoclinic'
loop_
_space_group_symop_operation_xyz
x,y,z
-x,1/2+y,-z
-x,-y,-z
x,1/2-y,z
loop_
_atom_site_type_symbol
_atom_site_label
_atom_site_fract_x
_atom_site_fract_y
_atom_site_fract_z
Si Si1 0.761037 0.010847 0.421379
Si Si2 0.706335 0.637667 0.229030
Si Si3 0.085918 0.863640 0.096947
Si Si4 0.070442 0.020249 0.354442
Si Si5 0.737658 0.571983 0.018950
Si Si6 0.513413 0.361671 0.966817
O O1 0.483924 0.051674 0.602901
O O2 0.825208 0.024542 0.472590
O O3 0.971358 0.079785 0.223955
O O4 0.849632 0.902252 0.325677
O O5 0.610693 0.750000 0.314870
O O6 0.971496 0.628955 0.086490
O O7 0.724370 0.621363 0.117723
O O8 0.159428 0.750000 0.060722
O O9 0.293738 0.951269 0.955209
O O10 0.250785 0.933634 0.186026
O O11 0.261236 0.112695 0.202579
O O12 0.000000 0.000000 0.500000
O O13 0.561721 0.617972 0.075102
O O14 0.591268 0.250000 0.923119
#
# Coordination Sequence:
#
# PCOD9165102 Si02
#       6
#     4   4   4   4   4   4
#     4   9  21  36  57  79 116 146 187 235 279 331
#     4  11  20  34  59  86 114 149 188 232 282 338
#     4   9  20  38  56  80 115 154 190 229 282 335
#     4  10  21  38  57  85 113 147 189 236 285 340
#     4   9  20  36  58  84 115 144 186 235 280 332
#     4  10  21  38  58  86 115 148 188 235 288 342
#
# _framework density 21.15483
#
# number of rings (size 3 to 8) (size 9 to 14) (size 15 to 20)
#    1.000    1.333    0.000    2.500    0.000    4.667 
#    0.000    0.833    0.000    2.000    0.000    0.000 
#    0.000    0.000    0.000    0.000    0.000    0.000 
#
# Total GULP energy -133794.891540 kJ/mol
# GULP energy per Si atom -5574.787148 kJ/mol
# Density = 2.110668 g / cm^3
# Si number density = 21.154830 Si / 1000 Ang^3
#
#
#
# Elastic Constant Matrix: (Units=GPa)
#
#
# Indices 1 2 3 4 5 6 
#
# 1 77.8950 -8.0232 12.6983 0.0000 17.4151 0.0000
# 2 -8.0232 70.8142 -2.9841 0.0000 -3.1335 0.0000
# 3 12.6983 -2.9841 30.3952 0.0000 8.5535 0.0000
# 4 0.0000 0.0000 0.0000 16.5417 0.0000 2.5497
# 5 17.4151 -3.1335 8.5535 0.0000 27.2987 0.0000
# 6 0.0000 0.0000 0.0000 2.5497 0.0000 14.7219
#
#
#
# Elastic Compliance Matrix: (Units=1/GPa)
#
#
# Indices 1 2 3 4 5 6 
#
# 1 0.015513 0.001214 -0.003966 0.000000 -0.008515 0.000000
# 2 0.001214 0.014318 0.000717 0.000000 0.000644 0.000000
# 3 -0.003966 0.000717 0.037169 0.000000 -0.009034 0.000000
# 4 0.000000 0.000000 0.000000 0.062111 0.000000 -0.010757
# 5 -0.008515 0.000644 -0.009034 0.000000 0.044968 0.000000
# 6 0.000000 0.000000 0.000000 -0.010757 0.000000 0.069789
#
#
# Mechanical properties :
#
#
# Convention : Reuss Voigt Hill
#
# Bulk Modulus (GPa) = 15.89051 20.27627 18.08339
# Shear Modulus (GPa) = 18.59324 23.54001 21.06662
#
# Velocity S-wave (km/s) = 2.96786 3.33941 3.15910
# Velocity P-wave (km/s) = 4.39000 4.94716 4.67688
#
# Compressibility (1/GPa) = 0.06293065
#
# Stress axis : x y z
#
# Youngs Moduli (GPa) = 64.46249 69.84351 26.90390
#
# Poissons Ratio (x) = -0.08477 0.10669
# Poissons Ratio (y) = -0.07824 -0.01930
# Poissons Ratio (z) = 0.25563 -0.05010
#
# Static dielectric constant tensor:
#      x y z
#    x 1.796900 0.000000 0.002290 
#    y 0.000000 1.762380 0.000000 
#    z 0.002290 0.000000 1.773930 
# 
# From -- ./inp_files/50312.got.cif
#   From: 2010.05.17/outbox.cif.g08.bks.cpg/sg11_26_cif.got.tgz:50312.got - 2010.06.03 12:22:45.
