data_PCOD9165018
_publ_section_title
;
Structure prediction by ZEFSAII (Michael W. Deem and Ramdas Pophale) SiO2 
 PCOD9165018
Probable space group: P 21/M
;
_chemical_formula_sum "Si O2"
_cell_formula_units_Z 24
_cell_length_a 15.451599
_cell_length_b 8.711119
_cell_length_c 15.098992
_cell_angle_alpha 90.000000
_cell_angle_beta 139.958388
_cell_angle_gamma 90.000000
_cell_volume 1307.490209
_symmetry_space_group_name_H-M "P 21/M"
_symmetry_group_IT_number 11
_symmetry_cell_setting 'monoclinic'
loop_
_space_group_symop_operation_xyz
x,y,z
-x,1/2+y,-z
-x,-y,-z
x,1/2-y,z
loop_
_atom_site_type_symbol
_atom_site_label
_atom_site_fract_x
_atom_site_fract_y
_atom_site_fract_z
Si Si1 0.081323 0.564856 0.147140
Si Si2 0.883257 0.433035 0.346869
Si Si3 0.889033 0.566130 0.155780
Si Si4 0.384644 0.564978 0.347339
Si Si5 0.589735 0.933788 0.150369
Si Si6 0.617118 0.065423 0.858905
O O1 0.078427 0.750000 0.139197
O O2 0.236179 0.515063 0.262541
O O3 0.005678 0.520696 0.178063
O O4 0.000000 0.500000 0.000000
O O5 0.883845 0.250000 0.351381
O O6 0.904540 0.487914 0.262797
O O7 0.737461 0.495005 0.262299
O O8 0.000000 0.500000 0.500000
O O9 0.890574 0.750000 0.167842
O O10 0.747590 0.515234 0.002268
O O11 0.500000 0.500000 0.500000
O O12 0.389188 0.750000 0.354395
O O13 0.401935 0.519683 0.258028
O O14 0.599157 0.750000 0.147877
O O15 0.510641 0.968061 0.179282
O O16 0.500000 0.000000 0.000000
O O17 0.639793 0.250000 0.879409
#
# Coordination Sequence:
#
# PCOD9165018 Si02
#       6
#     4   4   4   4   4   4
#     4  10  21  37  61  91 122 158 202 252 301 362
#     4  12  26  44  64  89 125 166 205 259 318 369
#     4  11  22  37  62  94 123 157 206 255 305 369
#     4  10  22  40  59  86 124 160 199 247 301 361
#     4  11  22  38  63  95 125 160 207 254 306 367
#     4  10  21  38  62  89 122 161 203 248 302 365
#
# _framework density 18.355778999999998
#
# number of rings (size 3 to 8) (size 9 to 14) (size 15 to 20)
#    0.000    1.333    3.333    2.500    0.000    4.000 
#    0.000    3.333    0.000    0.000    0.000    0.000 
#    0.000    0.000    0.000    0.000    0.000    0.000 
#
# Total GULP energy -134159.541300 kJ/mol
# GULP energy per Si atom -5589.980888 kJ/mol
# Density = 1.831400 g / cm^3
# Si number density = 18.355779 Si / 1000 Ang^3
#
#
#
# Elastic Constant Matrix: (Units=GPa)
#
#
# Indices 1 2 3 4 5 6 
#
# 1 208.0553 77.0422 117.1218 0.0000 5.0998 0.0000
# 2 77.0422 67.8192 62.2838 0.0000 0.2365 0.0000
# 3 117.1218 62.2838 195.5177 0.0000 5.0416 0.0000
# 4 0.0000 0.0000 0.0000 39.1986 0.0000 -0.8078
# 5 5.0998 0.2365 5.0416 0.0000 33.0235 0.0000
# 6 0.0000 0.0000 0.0000 -0.8078 0.0000 26.3202
#
#
#
# Elastic Compliance Matrix: (Units=1/GPa)
#
#
# Indices 1 2 3 4 5 6 
#
# 1 0.009553 -0.007938 -0.003170 0.000000 -0.000934 0.000000
# 2 -0.007938 0.027463 -0.004036 0.000000 0.001645 0.000000
# 3 -0.003170 -0.004036 0.008319 0.000000 -0.000752 0.000000
# 4 0.000000 0.000000 0.000000 0.025527 0.000000 0.000783
# 5 -0.000934 0.001645 -0.000752 0.000000 0.030529 0.000000
# 6 0.000000 0.000000 0.000000 0.000783 0.000000 0.038018
#
#
# Mechanical properties :
#
#
# Convention : Reuss Voigt Hill
#
# Bulk Modulus (GPa) = 66.45632 109.36532 87.91082
# Shear Modulus (GPa) = 28.61848 34.03808 31.32828
#
# Velocity S-wave (km/s) = 3.95283 4.31089 4.13574
# Velocity P-wave (km/s) = 7.55753 9.19177 8.41442
#
# Compressibility (1/GPa) = 0.01504748
#
# Stress axis : x y z
#
# Youngs Moduli (GPa) = 104.67758 36.41210 120.21278
#
# Poissons Ratio (x) = 0.28904 0.38106
# Poissons Ratio (y) = 0.83092 0.48518
# Poissons Ratio (z) = 0.33182 0.14696
#
# Static dielectric constant tensor:
#      x y z
#    x 1.638030 0.000000 0.003070 
#    y 0.000000 1.623570 0.000000 
#    z 0.003070 0.000000 1.577200 
# 
# From -- ./inp_files/51518.got.cif
#   From: 2010.05.17/outbox.cif.g08.bks.cpg/sg11_26_cif.got.tgz:51518.got - 2010.06.03 12:22:45.
