data_PCOD9165569
_publ_section_title
;
Structure prediction by ZEFSAII (Michael W. Deem and Ramdas Pophale) SiO2 
 PCOD9165569
Probable space group: P 21/M
;
_chemical_formula_sum "Si O2"
_cell_formula_units_Z 28
_cell_length_a 9.463121
_cell_length_b 7.975324
_cell_length_c 27.709456
_cell_angle_alpha 90.000000
_cell_angle_beta 141.714025
_cell_angle_gamma 90.000000
_cell_volume 1295.725378
_symmetry_space_group_name_H-M "P 21/M"
_symmetry_group_IT_number 11
_symmetry_cell_setting 'monoclinic'
loop_
_space_group_symop_operation_xyz
x,y,z
-x,1/2+y,-z
-x,-y,-z
x,1/2-y,z
loop_
_atom_site_type_symbol
_atom_site_label
_atom_site_fract_x
_atom_site_fract_y
_atom_site_fract_z
Si Si1 0.259744 0.557648 0.076224
Si Si2 0.304231 0.451183 0.984200
Si Si3 0.282923 0.952128 0.334216
Si Si4 0.525769 0.056594 0.238080
Si Si5 0.955373 0.547248 0.629874
Si Si6 0.796987 0.547759 0.481954
Si Si7 0.880893 0.054558 0.809008
O O1 0.262710 0.750000 0.093171
O O2 0.395929 0.454767 0.152363
O O3 0.359091 0.535831 0.049709
O O4 0.000000 0.500000 0.000000
O O5 0.291731 0.250000 0.988585
O O6 0.067032 0.514158 0.896574
O O7 0.500000 0.500000 0.000000
O O8 0.289024 0.750000 0.331404
O O9 0.544358 0.013019 0.399977
O O10 0.134680 0.017589 0.249149
O O11 0.177072 0.991756 0.357822
O O12 0.539687 0.250000 0.257498
O O13 0.781161 0.990251 0.300025
O O14 0.367866 0.962295 0.234037
O O15 0.955141 0.750000 0.630297
O O16 0.846664 0.490655 0.550095
O O17 0.790660 0.750000 0.481054
O O18 0.000000 0.500000 0.500000
O O19 0.942127 0.250000 0.820943
#
# Coordination Sequence:
#
# PCOD9165569 Si02
#       7
#     4   4   4   4   4   4   4
#     4  12  24  41  64  90 120 158 204 254 307 361
#     4  11  24  41  61  88 123 161 204 252 305 362
#     4  10  22  39  61  90 122 159 202 246 297 358
#     4  11  23  39  61  89 120 158 205 249 302 364
#     4  10  23  40  59  90 125 158 198 247 298 355
#     4  10  21  39  63  91 124 158 199 245 294 356
#     4  10  22  40  60  86 119 157 203 251 299 358
#
# _framework density 21.609515999999999
#
# number of rings (size 3 to 8) (size 9 to 14) (size 15 to 20)
#    0.000    1.429    1.429    3.429    2.000    3.429 
#    0.000    0.000    0.000    0.000    0.000    0.000 
#    0.000    0.000    0.000    0.000    0.000    0.000 
#
# Total GULP energy -156510.970515 kJ/mol
# GULP energy per Si atom -5589.677518 kJ/mol
# Density = 2.156033 g / cm^3
# Si number density = 21.609516 Si / 1000 Ang^3
#
#
#
# Elastic Constant Matrix: (Units=GPa)
#
#
# Indices 1 2 3 4 5 6 
#
# 1 91.5769 -18.2210 7.1365 0.0000 -14.9404 0.0000
# 2 -18.2210 28.6420 -1.9656 0.0000 2.0245 0.0000
# 3 7.1365 -1.9656 81.5554 0.0000 -13.3086 0.0000
# 4 0.0000 0.0000 0.0000 13.5996 0.0000 -0.7681
# 5 -14.9404 2.0245 -13.3086 0.0000 43.3410 0.0000
# 6 0.0000 0.0000 0.0000 -0.7681 0.0000 36.9524
#
#
#
# Elastic Compliance Matrix: (Units=1/GPa)
#
#
# Indices 1 2 3 4 5 6 
#
# 1 0.013222 0.008102 -0.000294 0.000000 0.004089 0.000000
# 2 0.008102 0.040023 0.000428 0.000000 0.001055 0.000000
# 3 -0.000294 0.000428 0.012926 0.000000 0.003848 0.000000
# 4 0.000000 0.000000 0.000000 0.073618 0.000000 0.001530
# 5 0.004089 0.001055 0.003848 0.000000 0.025615 0.000000
# 6 0.000000 0.000000 0.000000 0.001530 0.000000 0.027094
#
#
# Mechanical properties :
#
#
# Convention : Reuss Voigt Hill
#
# Bulk Modulus (GPa) = 12.10057 19.51937 15.80997
# Shear Modulus (GPa) = 24.56127 33.10022 28.83075
#
# Velocity S-wave (km/s) = 3.37500 3.91799 3.65659
# Velocity P-wave (km/s) = 4.56063 5.43323 5.01594
#
# Compressibility (1/GPa) = 0.08264073
#
# Stress axis : x y z
#
# Youngs Moduli (GPa) = 75.63221 24.98581 77.36625
#
# Poissons Ratio (x) = -0.20244 0.02278
# Poissons Ratio (y) = -0.61277 -0.03309
# Poissons Ratio (z) = 0.02227 -0.01069
#
# Static dielectric constant tensor:
#      x y z
#    x 1.828990 0.000000 -0.005170 
#    y 0.000000 1.805210 0.000000 
#    z -0.005170 0.000000 1.801410 
# 
# From -- ./inp_files/28367.got.cif
#   From: 2010.05.17/outbox.cif.g08.bks.cpg/sg11_15_cif.got.tgz:28367.got - 2010.06.03 12:22:45.
