data_PCOD9165497
_publ_section_title
;
Structure prediction by ZEFSAII (Michael W. Deem and Ramdas Pophale) SiO2 
 PCOD9165497
Probable space group: P 21/M
;
_chemical_formula_sum "Si O2"
_cell_formula_units_Z 32
_cell_length_a 9.812600
_cell_length_b 25.498936
_cell_length_c 15.220642
_cell_angle_alpha 90.000000
_cell_angle_beta 24.900463
_cell_angle_gamma 90.000000
_cell_volume 1603.488039
_symmetry_space_group_name_H-M "P 21/M"
_symmetry_group_IT_number 11
_symmetry_cell_setting 'monoclinic'
loop_
_space_group_symop_operation_xyz
x,y,z
-x,1/2+y,-z
-x,-y,-z
x,1/2-y,z
loop_
_atom_site_type_symbol
_atom_site_label
_atom_site_fract_x
_atom_site_fract_y
_atom_site_fract_z
Si Si1 0.509020 0.190491 0.420376
Si Si2 0.621394 0.852743 0.811798
Si Si3 0.152281 0.807574 0.958093
Si Si4 0.104980 0.619806 0.248512
Si Si5 0.722117 0.042773 0.997754
Si Si6 0.757618 0.912091 0.190826
Si Si7 0.393667 0.423118 0.925309
Si Si8 0.150265 0.872133 0.630835
O O1 0.384577 0.250000 0.499516
O O2 0.774172 0.189710 0.187985
O O3 0.674689 0.171121 0.412398
O O4 0.231424 0.149437 0.555624
O O5 0.494043 0.817089 0.807891
O O6 0.968808 0.847976 0.652355
O O7 0.358637 0.844965 0.044025
O O8 0.556864 0.913673 0.822753
O O9 0.025618 0.750000 0.054899
O O10 0.921436 0.855635 0.117187
O O11 0.101817 0.566433 0.191928
O O12 0.273431 0.605430 0.241532
O O13 0.985212 0.046647 0.921589
O O14 0.588512 0.985030 0.066186
O O15 0.419147 0.912783 0.439719
O O16 0.698907 0.915712 0.121710
O O17 0.118295 0.400000 0.151101
#
# Coordination Sequence:
#
# PCOD9165497 Si02
#       8
#     4   4   4   4   4   4   4   4
#     4  11  22  40  62  88 118 156 201 245 305 358
#     4   8  20  37  59  84 120 145 206 240 284 366
#     4  10  21  39  62  83 117 160 194 251 307 347
#     4   9  20  38  60  86 113 160 194 240 296 351
#     4   9  19  40  61  86 120 165 195 238 304 349
#     4  11  22  39  59  89 120 157 204 236 301 357
#     4  11  22  39  63  85 132 153 195 258 283 347
#     4  11  22  38  60  92 118 156 198 249 288 354
#
# _framework density 19.956495
#
# number of rings (size 3 to 8) (size 9 to 14) (size 15 to 20)
#    0.750    1.250    2.500    0.750    1.750    3.000 
#    0.000    3.125    0.000    0.000    0.000    0.000 
#    0.000    0.000    0.000    0.000    0.000    0.000 
#
# Total GULP energy -178406.421621 kJ/mol
# GULP energy per Si atom -5575.200676 kJ/mol
# Density = 1.991107 g / cm^3
# Si number density = 19.956495 Si / 1000 Ang^3
#
#
#
# Elastic Constant Matrix: (Units=GPa)
#
#
# Indices 1 2 3 4 5 6 
#
# 1 123.1165 0.6926 12.8833 0.0000 -10.0560 0.0000
# 2 0.6926 66.8160 3.4754 0.0000 -3.4342 0.0000
# 3 12.8833 3.4754 38.3219 0.0000 -8.9755 0.0000
# 4 0.0000 0.0000 0.0000 13.1718 0.0000 0.6355
# 5 -10.0560 -3.4342 -8.9755 0.0000 24.3628 0.0000
# 6 0.0000 0.0000 0.0000 0.6355 0.0000 4.1756
#
#
#
# Elastic Compliance Matrix: (Units=1/GPa)
#
#
# Indices 1 2 3 4 5 6 
#
# 1 0.008581 0.000169 -0.002260 0.000000 0.002733 0.000000
# 2 0.000169 0.015111 -0.000998 0.000000 0.001832 0.000000
# 3 -0.002260 -0.000998 0.029214 0.000000 0.009689 0.000000
# 4 0.000000 0.000000 0.000000 0.076481 0.000000 -0.011640
# 5 0.002733 0.001832 0.009689 0.000000 0.046002 0.000000
# 6 0.000000 0.000000 0.000000 -0.011640 0.000000 0.241260
#
#
# Mechanical properties :
#
#
# Convention : Reuss Voigt Hill
#
# Bulk Modulus (GPa) = 21.40034 29.15076 25.27555
# Shear Modulus (GPa) = 11.40501 22.42225 16.91363
#
# Velocity S-wave (km/s) = 2.39319 3.35559 2.91439
# Velocity P-wave (km/s) = 4.28757 5.44538 4.90078
#
# Compressibility (1/GPa) = 0.04672823
#
# Stress axis : x y z
#
# Youngs Moduli (GPa) = 116.53412 66.17780 34.22965
#
# Poissons Ratio (x) = -0.01119 0.07736
# Poissons Ratio (y) = -0.01970 0.03417
# Poissons Ratio (z) = 0.26337 0.06605
#
# Static dielectric constant tensor:
#      x y z
#    x 1.730080 0.000000 -0.002020 
#    y 0.000000 1.696700 0.000000 
#    z -0.002020 0.000000 1.717790 
# 
# From -- ./inp_files/48451.got.cif
#   From: 2010.05.17/outbox.cif.g08.bks.cpg/sg11_25_cif.got.tgz:48451.got - 2010.06.03 12:22:45.
