data_PCOD9165454
_publ_section_title
;
Structure prediction by ZEFSAII (Michael W. Deem and Ramdas Pophale) SiO2 
 PCOD9165454
Probable space group: P 21/M
;
_chemical_formula_sum "Si O2"
_cell_formula_units_Z 28
_cell_length_a 12.061742
_cell_length_b 14.344609
_cell_length_c 8.747856
_cell_angle_alpha 90.000000
_cell_angle_beta 66.066988
_cell_angle_gamma 90.000000
_cell_volume 1383.427013
_symmetry_space_group_name_H-M "P 21/M"
_symmetry_group_IT_number 11
_symmetry_cell_setting 'monoclinic'
loop_
_space_group_symop_operation_xyz
x,y,z
-x,1/2+y,-z
-x,-y,-z
x,1/2-y,z
loop_
_atom_site_type_symbol
_atom_site_label
_atom_site_fract_x
_atom_site_fract_y
_atom_site_fract_z
Si Si1 0.395998 0.988708 0.682855
Si Si2 0.780543 0.140185 0.732728
Si Si3 0.328260 0.138342 0.963126
Si Si4 0.034279 0.358655 0.762043
Si Si5 0.543811 0.139142 0.067956
Si Si6 0.166494 0.966443 0.604918
Si Si7 0.947799 0.861360 0.887431
O O1 0.439145 0.916400 0.786540
O O2 0.274134 0.955935 0.666558
O O3 0.500000 0.000000 0.500000
O O4 0.367215 0.084057 0.789256
O O5 0.775897 0.250000 0.689728
O O6 0.793434 0.075950 0.577928
O O7 0.899505 0.128573 0.771210
O O8 0.659559 0.119671 0.895405
O O9 0.332770 0.250000 0.936656
O O10 0.422246 0.113916 0.044096
O O11 0.189753 0.112780 0.078765
O O12 0.067262 0.250000 0.728389
O O13 0.126701 0.425696 0.622587
O O14 0.036561 0.382540 0.940901
O O15 0.541765 0.250000 0.097752
O O16 0.047612 0.913220 0.732533
O O17 0.962221 0.750000 0.860746
#
# Coordination Sequence:
#
# PCOD9165454 Si02
#       7
#     4   4   4   4   4   4   4
#     4  12  26  42  66  98 128 165 220 269 318 386
#     4  10  22  40  63  93 126 165 213 267 319 376
#     4  10  22  43  66  91 131 173 211 263 324 386
#     4  10  21  39  60  88 127 169 213 258 316 386
#     4  10  23  45  70  93 126 171 212 260 324 381
#     4  12  23  38  64  94 131 168 212 268 325 376
#     4  10  21  39  65  96 127 167 213 264 327 391
#
# _framework density 20.239592999999999
#
# number of rings (size 3 to 8) (size 9 to 14) (size 15 to 20)
#    0.000    1.429    1.429    3.429    2.000    2.857 
#    2.571    0.000    0.000    0.000    0.000    0.000 
#    0.000    0.000    0.000    0.000    0.000    0.000 
#
# Total GULP energy -156724.960118 kJ/mol
# GULP energy per Si atom -5597.320004 kJ/mol
# Density = 2.019353 g / cm^3
# Si number density = 20.239593 Si / 1000 Ang^3
#
#
#
# Elastic Constant Matrix: (Units=GPa)
#
#
# Indices 1 2 3 4 5 6 
#
# 1 169.8166 52.8725 85.0551 0.0000 4.0164 0.0000
# 2 52.8725 75.5326 69.5137 0.0000 -0.6788 0.0000
# 3 85.0551 69.5137 129.9682 0.0000 -4.6154 0.0000
# 4 0.0000 0.0000 0.0000 28.2314 0.0000 -1.6270
# 5 4.0164 -0.6788 -4.6154 0.0000 24.3208 0.0000
# 6 0.0000 0.0000 0.0000 -1.6270 0.0000 23.6743
#
#
#
# Elastic Compliance Matrix: (Units=1/GPa)
#
#
# Indices 1 2 3 4 5 6 
#
# 1 0.009019 -0.001619 -0.005126 0.000000 -0.002507 0.000000
# 2 -0.001619 0.026454 -0.013143 0.000000 -0.001488 0.000000
# 3 -0.005126 -0.013143 0.018218 0.000000 0.003937 0.000000
# 4 0.000000 0.000000 0.000000 0.035562 0.000000 0.002444
# 5 -0.002507 -0.001488 0.003937 0.000000 0.042237 0.000000
# 6 0.000000 0.000000 0.000000 0.002444 0.000000 0.042408
#
#
# Mechanical properties :
#
#
# Convention : Reuss Voigt Hill
#
# Bulk Modulus (GPa) = 71.85348 87.79999 79.82673
# Shear Modulus (GPa) = 22.90296 26.43703 24.66999
#
# Velocity S-wave (km/s) = 3.36756 3.61806 3.49506
# Velocity P-wave (km/s) = 7.12033 7.80566 7.47086
#
# Compressibility (1/GPa) = 0.01391721
#
# Stress axis : x y z
#
# Youngs Moduli (GPa) = 110.87321 37.80080 54.89106
#
# Poissons Ratio (x) = 0.06119 0.28136
# Poissons Ratio (y) = 0.17947 0.72142
# Poissons Ratio (z) = 0.56831 0.49681
#
# Static dielectric constant tensor:
#      x y z
#    x 1.703770 0.000000 0.001380 
#    y 0.000000 1.742180 0.000000 
#    z 0.001380 0.000000 1.656870 
# 
# From -- ./inp_files/17903.got.cif
#   From: 2010.05.17/outbox.cif.g08.bks.cpg/sg11_9_cif.got.tgz:17903.got - 2010.06.03 12:22:45.
