data_PCOD9165329
_publ_section_title
;
Structure prediction by ZEFSAII (Michael W. Deem and Ramdas Pophale) SiO2 
 PCOD9165329
Probable space group: P 21/M
;
_chemical_formula_sum "Si O2"
_cell_formula_units_Z 24
_cell_length_a 22.007120
_cell_length_b 8.901965
_cell_length_c 18.603769
_cell_angle_alpha 90.000000
_cell_angle_beta 162.447061
_cell_angle_gamma 90.000000
_cell_volume 1099.163905
_symmetry_space_group_name_H-M "P 21/M"
_symmetry_group_IT_number 11
_symmetry_cell_setting 'monoclinic'
loop_
_space_group_symop_operation_xyz
x,y,z
-x,1/2+y,-z
-x,-y,-z
x,1/2-y,z
loop_
_atom_site_type_symbol
_atom_site_label
_atom_site_fract_x
_atom_site_fract_y
_atom_site_fract_z
Si Si1 0.440472 0.076360 0.081268
Si Si2 0.187850 0.067776 0.666814
Si Si3 0.020873 0.427178 0.945661
Si Si4 0.239132 0.925904 0.071389
Si Si5 0.982574 0.923759 0.306941
Si Si6 0.348827 0.426291 0.552282
O O1 0.505820 0.250000 0.153117
O O2 0.587636 0.979760 0.296580
O O3 0.380152 0.026393 0.932923
O O4 0.225477 0.073844 0.881334
O O5 0.175683 0.250000 0.650410
O O6 0.000000 0.000000 0.500000
O O7 0.153809 0.997119 0.550031
O O8 0.031572 0.250000 0.964507
O O9 0.827892 0.477761 0.681675
O O10 0.000000 0.500000 0.000000
O O11 0.209379 0.487523 0.112152
O O12 0.209238 0.750000 0.049896
O O13 0.454491 0.947460 0.276438
O O14 0.074452 0.985411 0.828455
O O15 0.026122 0.750000 0.339909
O O16 0.297712 0.250000 0.494920
#
# Coordination Sequence:
#
# PCOD9165329 Si02
#       6
#     4   4   4   4   4   4
#     4   8  15  27  45  73 110 151 194 238 284 336
#     4   9  15  23  39  68 107 149 194 242 287 335
#     4  12  26  44  66  90 119 152 190 238 291 352
#     4  10  21  39  63  90 121 156 196 241 290 347
#     4   9  16  27  46  75 111 151 195 239 286 340
#     4  10  21  38  62  90 120 155 195 240 291 347
#
# _framework density 21.834779000000001
#
# number of rings (size 3 to 8) (size 9 to 14) (size 15 to 20)
#    0.000    2.333    0.000    4.500    0.000    7.333 
#    0.000    0.000    0.000    1.000    0.000    0.000 
#    0.000    0.000    0.000    0.000    0.000    0.000 
#
# Total GULP energy -134200.637467 kJ/mol
# GULP energy per Si atom -5591.693228 kJ/mol
# Density = 2.178508 g / cm^3
# Si number density = 21.834779 Si / 1000 Ang^3
#
#
#
# Elastic Constant Matrix: (Units=GPa)
#
#
# Indices 1 2 3 4 5 6 
#
# 1 109.6024 36.5463 14.8019 0.0000 -11.1911 0.0000
# 2 36.5463 118.9898 11.9453 0.0000 -10.9402 0.0000
# 3 14.8019 11.9453 43.7482 0.0000 6.9170 0.0000
# 4 0.0000 0.0000 0.0000 34.2116 0.0000 -13.4078
# 5 -11.1911 -10.9402 6.9170 0.0000 28.4330 0.0000
# 6 0.0000 0.0000 0.0000 -13.4078 0.0000 26.2132
#
#
#
# Elastic Compliance Matrix: (Units=1/GPa)
#
#
# Indices 1 2 3 4 5 6 
#
# 1 0.010910 -0.002601 -0.003642 0.000000 0.004179 0.000000
# 2 -0.002601 0.009735 -0.002297 0.000000 0.003281 0.000000
# 3 -0.003642 -0.002297 0.026087 0.000000 -0.008663 0.000000
# 4 0.000000 0.000000 0.000000 0.036558 0.000000 0.018699
# 5 0.004179 0.003281 -0.008663 0.000000 0.040185 0.000000
# 6 0.000000 0.000000 0.000000 0.018699 0.000000 0.047713
#
#
# Mechanical properties :
#
#
# Convention : Reuss Voigt Hill
#
# Bulk Modulus (GPa) = 33.72363 44.32527 39.02445
# Shear Modulus (GPa) = 25.23312 31.70804 28.47058
#
# Velocity S-wave (km/s) = 3.40316 3.81488 3.61489
# Velocity P-wave (km/s) = 5.56061 6.30467 5.94429
#
# Compressibility (1/GPa) = 0.02965280
#
# Stress axis : x y z
#
# Youngs Moduli (GPa) = 91.66146 102.72040 38.33298
#
# Poissons Ratio (x) = 0.26717 0.13960
# Poissons Ratio (y) = 0.23841 0.08805
# Poissons Ratio (z) = 0.33381 0.23594
#
# Static dielectric constant tensor:
#      x y z
#    x 1.870070 0.000000 0.050230 
#    y 0.000000 1.719790 0.000000 
#    z 0.050230 0.000000 1.800890 
# 
# From -- ./inp_files/61889.got.cif
#   From: 2010.05.17/outbox.cif.g08.bks.cpg/sg11_31_cif.got.tgz:61889.got - 2010.06.03 12:22:45.
