data_PCOD9165109
_publ_section_title
;
Structure prediction by ZEFSAII (Michael W. Deem and Ramdas Pophale) SiO2 
 PCOD9165109
Probable space group: P 21/M
;
_chemical_formula_sum "Si O2"
_cell_formula_units_Z 32
_cell_length_a 12.630938
_cell_length_b 8.573641
_cell_length_c 20.770838
_cell_angle_alpha 90.000000
_cell_angle_beta 126.499224
_cell_angle_gamma 90.000000
_cell_volume 1808.164721
_symmetry_space_group_name_H-M "P 21/M"
_symmetry_group_IT_number 11
_symmetry_cell_setting 'monoclinic'
loop_
_space_group_symop_operation_xyz
x,y,z
-x,1/2+y,-z
-x,-y,-z
x,1/2-y,z
loop_
_atom_site_type_symbol
_atom_site_label
_atom_site_fract_x
_atom_site_fract_y
_atom_site_fract_z
Si Si1 0.677784 0.564788 0.261977
Si Si2 0.151658 0.562949 0.789198
Si Si3 0.611128 0.938571 0.876793
Si Si4 0.643666 0.562529 0.032407
Si Si5 0.357800 0.937394 0.470561
Si Si6 0.146887 0.060989 0.292847
Si Si7 0.686777 0.939024 0.766483
Si Si8 0.385670 0.562177 0.625903
O O1 0.675742 0.750000 0.256840
O O2 0.791285 0.498249 0.257546
O O3 0.537776 0.499481 0.185486
O O4 0.686712 0.512098 0.339366
O O5 0.155244 0.750000 0.789943
O O6 0.248032 0.502997 0.880051
O O7 0.002298 0.510776 0.748199
O O8 0.604341 0.750000 0.872926
O O9 0.691263 0.991068 0.842442
O O10 0.666403 0.984550 0.966191
O O11 0.642617 0.750000 0.036056
O O12 0.500000 0.500000 0.000000
O O13 0.360344 0.750000 0.468536
O O14 0.336617 0.983168 0.537548
O O15 0.500000 0.000000 0.500000
O O16 0.245877 0.002147 0.383402
O O17 0.149727 0.250000 0.294169
O O18 0.204296 0.006433 0.244611
O O19 0.692697 0.750000 0.769118
O O20 0.540745 0.980739 0.688035
O O21 0.378428 0.750000 0.629392
#
# Coordination Sequence:
#
# PCOD9165109 Si02
#       8
#     4   4   4   4   4   4   4   4
#     4  11  21  33  54  82 111 141 183 234 278 329
#     4  11  23  38  56  78 113 154 188 227 281 340
#     4   9  18  33  55  80 109 142 179 225 282 334
#     4  11  21  34  56  83 111 145 187 234 279 328
#     4  11  21  35  58  86 116 148 185 232 278 329
#     4  10  21  38  58  81 111 150 191 230 278 335
#     4   8  14  31  55  78 106 141 180 219 271 330
#     4   9  18  34  56  80 111 146 180 223 279 333
#
# _framework density 17.697503000000001
#
# number of rings (size 3 to 8) (size 9 to 14) (size 15 to 20)
#    0.000    2.000    2.500    3.000    0.000    2.500 
#    0.000    1.250    0.000    0.000    0.000    0.000 
#    0.000    0.000    0.000    0.000    0.000    0.000 
#
# Total GULP energy -178572.544464 kJ/mol
# GULP energy per Si atom -5580.392014 kJ/mol
# Density = 1.765722 g / cm^3
# Si number density = 17.697503 Si / 1000 Ang^3
#
#
#
# Elastic Constant Matrix: (Units=GPa)
#
#
# Indices 1 2 3 4 5 6 
#
# 1 181.1524 32.6321 94.2906 0.0000 -18.3351 0.0000
# 2 32.6321 25.9751 25.2901 0.0000 -5.6842 0.0000
# 3 94.2906 25.2901 115.3860 0.0000 -12.3026 0.0000
# 4 0.0000 0.0000 0.0000 28.2310 0.0000 -4.5052
# 5 -18.3351 -5.6842 -12.3026 0.0000 32.3671 0.0000
# 6 0.0000 0.0000 0.0000 -4.5052 0.0000 15.5361
#
#
#
# Elastic Compliance Matrix: (Units=1/GPa)
#
#
# Indices 1 2 3 4 5 6 
#
# 1 0.010449 -0.005793 -0.007031 0.000000 0.002229 0.000000
# 2 -0.005793 0.052853 -0.006473 0.000000 0.003540 0.000000
# 3 -0.007031 -0.006473 0.015931 0.000000 0.000935 0.000000
# 4 0.000000 0.000000 0.000000 0.037141 0.000000 0.010770
# 5 0.002229 0.003540 0.000935 0.000000 0.033136 0.000000
# 6 0.000000 0.000000 0.000000 0.010770 0.000000 0.067490
#
#
# Mechanical properties :
#
#
# Convention : Reuss Voigt Hill
#
# Bulk Modulus (GPa) = 24.60730 69.65989 47.13360
# Shear Modulus (GPa) = 18.57766 26.58022 22.57894
#
# Velocity S-wave (km/s) = 3.24347 3.87966 3.57575
# Velocity P-wave (km/s) = 5.28785 7.71466 6.61352
#
# Compressibility (1/GPa) = 0.04063835
#
# Stress axis : x y z
#
# Youngs Moduli (GPa) = 95.69956 18.92036 62.77114
#
# Poissons Ratio (x) = 0.10961 0.44137
# Poissons Ratio (y) = 0.55443 0.40629
# Poissons Ratio (z) = 0.67291 0.12246
#
# Static dielectric constant tensor:
#      x y z
#    x 1.608400 0.000000 -0.032820 
#    y 0.000000 1.672640 0.000000 
#    z -0.032820 0.000000 1.586610 
# 
# From -- ./inp_files/64440.got.cif
#   From: 2010.05.17/outbox.cif.g08.bks.cpg/sg11_33_cif.got.tgz:64440.got - 2010.06.03 12:22:45.
