data_PCOD9165057
_publ_section_title
;
Structure prediction by ZEFSAII (Michael W. Deem and Ramdas Pophale) SiO2 
 PCOD9165057
Probable space group: P 21/M
;
_chemical_formula_sum "Si O2"
_cell_formula_units_Z 28
_cell_length_a 11.588600
_cell_length_b 14.907091
_cell_length_c 9.705469
_cell_angle_alpha 90.000000
_cell_angle_beta 122.998414
_cell_angle_gamma 90.000000
_cell_volume 1406.175773
_symmetry_space_group_name_H-M "P 21/M"
_symmetry_group_IT_number 11
_symmetry_cell_setting 'monoclinic'
loop_
_space_group_symop_operation_xyz
x,y,z
-x,1/2+y,-z
-x,-y,-z
x,1/2-y,z
loop_
_atom_site_type_symbol
_atom_site_label
_atom_site_fract_x
_atom_site_fract_y
_atom_site_fract_z
Si Si1 0.639344 0.851009 0.436708
Si Si2 0.218430 0.849834 0.278428
Si Si3 0.837243 0.412841 0.462977
Si Si4 0.952680 0.896813 0.627269
Si Si5 0.446825 0.998441 0.810782
Si Si6 0.056013 0.354300 0.070738
Si Si7 0.333132 0.038455 0.267471
O O1 0.592107 0.750000 0.426999
O O2 0.803944 0.851011 0.517463
O O3 0.622662 0.911369 0.563184
O O4 0.572173 0.902249 0.265310
O O5 0.263593 0.750000 0.264702
O O6 0.208379 0.854972 0.436718
O O7 0.307432 0.933807 0.284659
O O8 0.065662 0.864088 0.117218
O O9 0.918808 0.497963 0.581927
O O10 0.701388 0.451402 0.300925
O O11 0.937801 0.369491 0.416393
O O12 0.000121 0.878466 0.813522
O O13 0.555896 0.951494 0.779958
O O14 0.500000 0.000000 0.000000
O O15 0.100595 0.250000 0.101567
O O16 0.187383 0.417081 0.131515
#
# Coordination Sequence:
#
# PCOD9165057 Si02
#       7
#     4   4   4   4   4   4   4
#     4  10  21  42  70  94 119 164 216 259 308 368
#     4  11  23  37  59  94 125 159 207 258 316 367
#     4  10  21  38  57  90 119 161 197 253 305 373
#     4   9  18  35  65  87 119 153 199 250 318 357
#     4  11  25  42  62  90 127 169 212 250 314 377
#     4  10  21  37  63  95 119 156 208 256 310 369
#     4  11  21  41  65  88 126 166 207 257 309 370
#
# _framework density 19.912161000000001
#
# number of rings (size 3 to 8) (size 9 to 14) (size 15 to 20)
#    0.000    1.714    4.286    2.571    2.000    4.000 
#    0.000    4.286    0.000    0.000    0.000    0.000 
#    0.000    0.000    0.000    0.000    0.000    0.000 
#
# Total GULP energy -156438.869081 kJ/mol
# GULP energy per Si atom -5587.102467 kJ/mol
# Density = 1.986684 g / cm^3
# Si number density = 19.912161 Si / 1000 Ang^3
#
#
#
# Elastic Constant Matrix: (Units=GPa)
#
#
# Indices 1 2 3 4 5 6 
#
# 1 114.6793 24.3149 39.4543 0.0000 -12.0111 0.0000
# 2 24.3149 112.7726 47.3422 0.0000 3.5312 0.0000
# 3 39.4543 47.3422 139.5461 0.0000 -3.1585 0.0000
# 4 0.0000 0.0000 0.0000 16.7036 0.0000 -1.0765
# 5 -12.0111 3.5312 -3.1585 0.0000 21.1776 0.0000
# 6 0.0000 0.0000 0.0000 -1.0765 0.0000 -4.6441
#
#
#
# Elastic Compliance Matrix: (Units=1/GPa)
#
#
# Indices 1 2 3 4 5 6 
#
# 1 0.010438 -0.001456 -0.002325 0.000000 0.005816 0.000000
# 2 -0.001456 0.010652 -0.003272 0.000000 -0.003090 0.000000
# 3 -0.002325 -0.003272 0.008946 0.000000 0.000561 0.000000
# 4 0.000000 0.000000 0.000000 0.058986 0.000000 -0.013672
# 5 0.005816 -0.003090 0.000561 0.000000 0.051117 0.000000
# 6 0.000000 0.000000 0.000000 -0.013672 0.000000 -0.212156
#
#
# Mechanical properties :
#
#
# Convention : Reuss Voigt Hill
#
# Bulk Modulus (GPa) = 62.78035 65.46899 64.12467
# Shear Modulus (GPa) = -95.05784 23.70651 -35.67566
#
# Velocity S-wave (km/s) = -6.91681 3.45418 -4.23738
# Velocity P-wave (km/s) = 5.67385 6.98991 2.88672
#
# Compressibility (1/GPa) = 0.01592855
#
# Stress axis : x y z
#
# Youngs Moduli (GPa) = 95.80431 93.88166 111.77855
#
# Poissons Ratio (x) = 0.13673 0.25993
# Poissons Ratio (y) = 0.13953 0.36572
# Poissons Ratio (z) = 0.22278 0.30717
#
# Static dielectric constant tensor:
#      x y z
#    x 1.707260 0.000000 0.019110 
#    y 0.000000 1.745290 0.000000 
#    z 0.019110 0.000000 1.676920 
# 
# From -- ./inp_files/18146.got.cif
#   From: 2010.05.17/outbox.cif.g08.bks.cpg/sg11_10_cif.got.tgz:18146.got - 2010.06.03 12:22:45.
