data_PCOD9165777
_publ_section_title
;
Structure prediction by ZEFSAII (Michael W. Deem and Ramdas Pophale) SiO2 
 PCOD9165777
Probable space group: P 21/M
;
_chemical_formula_sum "Si O2"
_cell_formula_units_Z 28
_cell_length_a 12.740742
_cell_length_b 14.187521
_cell_length_c 8.901186
_cell_angle_alpha 90.000000
_cell_angle_beta 117.476590
_cell_angle_gamma 90.000000
_cell_volume 1427.481093
_symmetry_space_group_name_H-M "P 21/M"
_symmetry_group_IT_number 11
_symmetry_cell_setting 'monoclinic'
loop_
_space_group_symop_operation_xyz
x,y,z
-x,1/2+y,-z
-x,-y,-z
x,1/2-y,z
loop_
_atom_site_type_symbol
_atom_site_label
_atom_site_fract_x
_atom_site_fract_y
_atom_site_fract_z
Si Si1 0.970754 0.932297 0.119039
Si Si2 0.189318 0.974474 0.741804
Si Si3 0.730708 0.644895 0.847347
Si Si4 0.358820 0.360064 0.880770
Si Si5 0.186357 0.639318 0.445732
Si Si6 0.378430 0.637788 0.066356
Si Si7 0.631777 0.031734 0.625038
O O1 0.085566 0.878701 0.254515
O O2 0.915918 0.993505 0.218790
O O3 0.864577 0.864904 0.995066
O O4 0.000000 0.000000 0.000000
O O5 0.150511 0.914929 0.573280
O O6 0.263069 0.068841 0.748320
O O7 0.281275 0.911813 0.898385
O O8 0.707794 0.750000 0.774901
O O9 0.704648 0.562796 0.712793
O O10 0.651651 0.628393 0.945138
O O11 0.332564 0.250000 0.831441
O O12 0.490217 0.381525 0.910798
O O13 0.202208 0.750000 0.482206
O O14 0.305773 0.590683 0.464370
O O15 0.361165 0.750000 0.056522
O O16 0.368172 0.595276 0.225516
O O17 0.500000 0.000000 0.500000
#
# Coordination Sequence:
#
# PCOD9165777 Si02
#       7
#     4   4   4   4   4   4   4
#     4  11  21  44  71  91 124 168 214 269 327 378
#     4  11  22  40  65  94 128 166 215 263 323 387
#     4  10  21  40  65  92 121 164 213 263 321 385
#     4   9  19  35  63  92 122 165 210 259 317 379
#     4  12  26  43  65  97 133 172 215 270 328 386
#     4  11  21  38  61  91 128 172 216 259 317 390
#     4  12  25  41  63  94 132 172 212 270 324 381
#
# _framework density 19.614971000000001
#
# number of rings (size 3 to 8) (size 9 to 14) (size 15 to 20)
#    0.000    1.143    4.286    3.000    2.000    1.714 
#    0.000    2.857    0.000    0.000    0.000    0.000 
#    0.000    0.000    0.000    0.000    0.000    0.000 
#
# Total GULP energy -156547.885176 kJ/mol
# GULP energy per Si atom -5590.995899 kJ/mol
# Density = 1.957033 g / cm^3
# Si number density = 19.614971 Si / 1000 Ang^3
#
#
#
# Elastic Constant Matrix: (Units=GPa)
#
#
# Indices 1 2 3 4 5 6 
#
# 1 74.4830 27.4208 2.2197 0.0000 1.0671 0.0000
# 2 27.4208 122.2947 18.7350 0.0000 -5.8308 0.0000
# 3 2.2197 18.7350 54.1645 0.0000 8.4750 0.0000
# 4 0.0000 0.0000 0.0000 18.2188 0.0000 5.0896
# 5 1.0671 -5.8308 8.4750 0.0000 24.8332 0.0000
# 6 0.0000 0.0000 0.0000 5.0896 0.0000 17.0932
#
#
#
# Elastic Compliance Matrix: (Units=1/GPa)
#
#
# Indices 1 2 3 4 5 6 
#
# 1 0.014721 -0.003521 0.000891 0.000000 -0.001763 0.000000
# 2 -0.003521 0.009727 -0.003804 0.000000 0.003734 0.000000
# 3 0.000891 -0.003804 0.021009 0.000000 -0.008102 0.000000
# 4 0.000000 0.000000 0.000000 0.059868 0.000000 -0.017826
# 5 -0.001763 0.003734 -0.008102 0.000000 0.043986 0.000000
# 6 0.000000 0.000000 0.000000 -0.017826 0.000000 0.063811
#
#
# Mechanical properties :
#
#
# Convention : Reuss Voigt Hill
#
# Bulk Modulus (GPa) = 30.68675 38.63258 34.65966
# Shear Modulus (GPa) = 21.10995 25.53348 23.32172
#
# Velocity S-wave (km/s) = 3.28413 3.61187 3.45189
# Velocity P-wave (km/s) = 5.48263 6.09363 5.79619
#
# Compressibility (1/GPa) = 0.03258736
#
# Stress axis : x y z
#
# Youngs Moduli (GPa) = 67.93051 102.80303 47.59783
#
# Poissons Ratio (x) = 0.36199 -0.04239
# Poissons Ratio (y) = 0.23920 0.18109
# Poissons Ratio (z) = -0.06050 0.39111
#
# Static dielectric constant tensor:
#      x y z
#    x 1.685370 0.000000 -0.001480 
#    y 0.000000 1.678090 0.000000 
#    z -0.001480 0.000000 1.673780 
# 
# From -- ./inp_files/17782.got.cif
#   From: 2010.05.17/outbox.cif.g08.bks.cpg/sg11_9_cif.got.tgz:17782.got - 2010.06.03 12:22:45.
