data_PCOD9165503
_publ_section_title
;
Structure prediction by ZEFSAII (Michael W. Deem and Ramdas Pophale) SiO2 
 PCOD9165503
Probable space group: P 21/M
;
_chemical_formula_sum "Si O2"
_cell_formula_units_Z 32
_cell_length_a 15.934540
_cell_length_b 15.056153
_cell_length_c 22.659632
_cell_angle_alpha 90.000000
_cell_angle_beta 162.655592
_cell_angle_gamma 90.000000
_cell_volume 1620.652566
_symmetry_space_group_name_H-M "P 21/M"
_symmetry_group_IT_number 11
_symmetry_cell_setting 'monoclinic'
loop_
_space_group_symop_operation_xyz
x,y,z
-x,1/2+y,-z
-x,-y,-z
x,1/2-y,z
loop_
_atom_site_type_symbol
_atom_site_label
_atom_site_fract_x
_atom_site_fract_y
_atom_site_fract_z
Si Si1 0.816604 0.527680 0.077226
Si Si2 0.240327 0.149125 0.531223
Si Si3 0.849556 0.655628 0.997893
Si Si4 0.262230 0.644681 0.720341
Si Si5 0.831704 0.149004 0.469940
Si Si6 0.758413 0.032018 0.529940
Si Si7 0.253191 0.648620 0.036941
Si Si8 0.124877 0.408057 0.108644
O O1 0.934266 0.575160 0.096689
O O2 0.753817 0.426181 0.017834
O O3 0.037695 0.536274 0.277852
O O4 0.533573 0.581929 0.903492
O O5 0.261241 0.250000 0.522031
O O6 0.934815 0.135387 0.355384
O O7 0.298102 0.070270 0.524906
O O8 0.461984 0.141053 0.733545
O O9 0.927115 0.750000 0.077450
O O10 0.509708 0.649671 0.764535
O O11 0.945367 0.652875 0.994829
O O12 0.339459 0.750000 0.767532
O O13 0.086364 0.624550 0.541988
O O14 0.923924 0.250000 0.545266
O O15 0.895304 0.080732 0.564613
O O16 0.459290 0.079382 0.340364
O O17 0.225942 0.750000 0.997494
O O18 0.014207 0.626066 0.925078
O O19 0.000000 0.500000 0.000000
#
# Coordination Sequence:
#
# PCOD9165503 Si02
#       8
#     4   4   4   4   4   4   4   4
#     4  11  22  36  56  86 125 151 184 230 292 355
#     4  10  21  39  62  86 110 149 200 241 280 336
#     4   9  17  33  57  82 108 144 188 236 282 328
#     4   9  19  38  63  87 114 148 191 241 287 335
#     4   8  16  32  55  82 109 141 189 238 276 324
#     4  11  23  35  58  87 119 153 188 232 291 347
#     4  11  23  40  61  84 113 152 197 243 285 332
#     4  11  19  39  62  81 109 148 196 243 281 332
#
# _framework density 19.745132999999999
#
# number of rings (size 3 to 8) (size 9 to 14) (size 15 to 20)
#    0.000    2.000    2.500    3.000    0.000    5.000 
#    0.000    0.000    0.000    3.000    0.000    0.000 
#    0.000    0.000    0.000    0.000    0.000    0.000 
#
# Total GULP energy -178514.594785 kJ/mol
# GULP energy per Si atom -5578.581087 kJ/mol
# Density = 1.970019 g / cm^3
# Si number density = 19.745133 Si / 1000 Ang^3
#
#
#
# Elastic Constant Matrix: (Units=GPa)
#
#
# Indices 1 2 3 4 5 6 
#
# 1 27.8424 20.8442 26.8299 0.0000 -4.1077 0.0000
# 2 20.8442 123.7703 46.9888 0.0000 -20.5231 0.0000
# 3 26.8299 46.9888 73.6666 0.0000 -15.6869 0.0000
# 4 0.0000 0.0000 0.0000 9.1365 0.0000 5.4165
# 5 -4.1077 -20.5231 -15.6869 0.0000 30.0553 0.0000
# 6 0.0000 0.0000 0.0000 5.4165 0.0000 20.3025
#
#
#
# Elastic Compliance Matrix: (Units=1/GPa)
#
#
# Indices 1 2 3 4 5 6 
#
# 1 0.056300 -0.002739 -0.019708 0.000000 -0.004462 0.000000
# 2 -0.002739 0.011287 -0.005220 0.000000 0.004608 0.000000
# 3 -0.019708 -0.005220 0.025594 0.000000 0.007100 0.000000
# 4 0.000000 0.000000 0.000000 0.130016 0.000000 -0.034687
# 5 -0.004462 0.004608 0.007100 0.000000 0.039515 0.000000
# 6 0.000000 0.000000 0.000000 -0.034687 0.000000 0.058509
#
#
# Mechanical properties :
#
#
# Convention : Reuss Voigt Hill
#
# Bulk Modulus (GPa) = 26.42286 46.06722 36.24504
# Shear Modulus (GPa) = 12.84782 20.60661 16.72722
#
# Velocity S-wave (km/s) = 2.55362 3.23403 2.91375
# Velocity P-wave (km/s) = 4.70166 6.10957 5.45126
#
# Compressibility (1/GPa) = 0.03784601
#
# Stress axis : x y z
#
# Youngs Moduli (GPa) = 17.76195 88.59894 39.07136
#
# Poissons Ratio (x) = 0.24271 0.77001
# Poissons Ratio (y) = 0.04866 0.20397
# Poissons Ratio (z) = 0.35005 0.46252
#
# Static dielectric constant tensor:
#      x y z
#    x 1.736170 0.000000 0.039680 
#    y 0.000000 1.756770 0.000000 
#    z 0.039680 0.000000 1.662550 
# 
# From -- ./inp_files/65793.got.cif
#   From: 2010.05.17/outbox.cif.g08.bks.cpg/sg11_33_cif.got.tgz:65793.got - 2010.06.03 12:22:45.
