data_PCOD9165906
_publ_section_title
;
Structure prediction by ZEFSAII (Michael W. Deem and Ramdas Pophale) SiO2 
 PCOD9165906
Probable space group: P 21/M
;
_chemical_formula_sum "Si O2"
_cell_formula_units_Z 24
_cell_length_a 5.141290
_cell_length_b 22.389328
_cell_length_c 10.196357
_cell_angle_alpha 90.000000
_cell_angle_beta 53.319418
_cell_angle_gamma 90.000000
_cell_volume 941.284100
_symmetry_space_group_name_H-M "P 21/M"
_symmetry_group_IT_number 11
_symmetry_cell_setting 'monoclinic'
loop_
_space_group_symop_operation_xyz
x,y,z
-x,1/2+y,-z
-x,-y,-z
x,1/2-y,z
loop_
_atom_site_type_symbol
_atom_site_label
_atom_site_fract_x
_atom_site_fract_y
_atom_site_fract_z
Si Si1 0.202129 0.883151 0.728114
Si Si2 0.091683 0.379126 0.558088
Si Si3 0.418378 0.318331 0.704671
Si Si4 0.069186 0.498214 0.278251
Si Si5 0.367421 0.316436 0.030551
Si Si6 0.736097 0.432923 0.025158
O O1 0.579297 0.868971 0.622127
O O2 0.082786 0.911979 0.900503
O O3 0.967761 0.826882 0.789113
O O4 0.147167 0.938725 0.647177
O O5 0.189651 0.352406 0.671246
O O6 0.776259 0.346895 0.597653
O O7 0.018821 0.449409 0.595725
O O8 0.430919 0.250000 0.657236
O O9 0.318621 0.318515 0.887748
O O10 0.438426 0.474455 0.164388
O O11 0.049918 0.531892 0.143346
O O12 0.503682 0.250000 0.018580
O O13 0.583592 0.373081 0.007213
#
# Coordination Sequence:
#
# PCOD9165906 Si02
#       6
#     4   4   4   4   4   4
#     4  11  25  40  65 102 137 178 224 287 352 401
#     4  12  26  44  71 102 140 181 228 283 351 410
#     4  11  26  48  71  97 134 184 236 282 338 411
#     4  10  22  40  66  98 137 180 227 279 335 416
#     4  10  23  43  67  95 129 179 236 283 335 409
#     4  10  21  41  66  99 134 178 230 280 342 400
#
# _framework density 25.497083
#
# number of rings (size 3 to 8) (size 9 to 14) (size 15 to 20)
#    0.000    1.333    1.667    2.500    7.000    2.667 
#    0.000    0.000    0.000    0.000    0.000    0.000 
#    0.000    0.000    0.000    0.000    0.000    0.000 
#
# Total GULP energy -134418.816679 kJ/mol
# GULP energy per Si atom -5600.784028 kJ/mol
# Density = 2.543905 g / cm^3
# Si number density = 25.497083 Si / 1000 Ang^3
#
#
#
# Elastic Constant Matrix: (Units=GPa)
#
#
# Indices 1 2 3 4 5 6 
#
# 1 77.7333 47.9050 17.6907 0.0000 9.9161 0.0000
# 2 47.9050 168.3785 36.9038 0.0000 -3.1198 0.0000
# 3 17.6907 36.9038 82.8233 0.0000 -17.1030 0.0000
# 4 0.0000 0.0000 0.0000 26.5104 0.0000 7.0969
# 5 9.9161 -3.1198 -17.1030 0.0000 43.3886 0.0000
# 6 0.0000 0.0000 0.0000 7.0969 0.0000 34.9817
#
#
#
# Elastic Compliance Matrix: (Units=1/GPa)
#
#
# Indices 1 2 3 4 5 6 
#
# 1 0.016792 -0.004268 -0.002766 0.000000 -0.005235 0.000000
# 2 -0.004268 0.007689 -0.002393 0.000000 0.000585 0.000000
# 3 -0.002766 -0.002393 0.015051 0.000000 0.006393 0.000000
# 4 0.000000 0.000000 0.000000 0.039887 0.000000 -0.008092
# 5 -0.005235 0.000585 0.006393 0.000000 0.026806 0.000000
# 6 0.000000 0.000000 0.000000 -0.008092 0.000000 0.030228
#
#
# Mechanical properties :
#
#
# Convention : Reuss Voigt Hill
#
# Bulk Modulus (GPa) = 48.36302 59.32601 53.84451
# Shear Modulus (GPa) = 30.82590 36.07185 33.44887
#
# Velocity S-wave (km/s) = 3.48084 3.76539 3.62590
# Velocity P-wave (km/s) = 5.92994 6.49788 6.22040
#
# Compressibility (1/GPa) = 0.02067696
#
# Stress axis : x y z
#
# Youngs Moduli (GPa) = 59.55140 130.05974 66.43950
#
# Poissons Ratio (x) = 0.55513 0.18377
# Poissons Ratio (y) = 0.25418 0.15902
# Poissons Ratio (z) = 0.16472 0.31129
#
# Static dielectric constant tensor:
#      x y z
#    x 1.992310 0.000000 0.047330 
#    y 0.000000 1.987100 0.000000 
#    z 0.047330 0.000000 2.071310 
# 
# From -- ./inp_files/5322.got.cif
#   From: 2010.05.17/outbox.cif.g08.bks.cpg/sg11_3_cif.got.tgz:5322.got - 2010.06.03 12:22:45.
