data_PCOD9165690
_publ_section_title
;
Structure prediction by ZEFSAII (Michael W. Deem and Ramdas Pophale) SiO2 
 PCOD9165690
Probable space group: P 21/M
;
_chemical_formula_sum "Si O2"
_cell_formula_units_Z 20
_cell_length_a 9.061621
_cell_length_b 17.590786
_cell_length_c 8.526098
_cell_angle_alpha 90.000000
_cell_angle_beta 127.576046
_cell_angle_gamma 90.000000
_cell_volume 1077.122764
_symmetry_space_group_name_H-M "P 21/M"
_symmetry_group_IT_number 11
_symmetry_cell_setting 'monoclinic'
loop_
_space_group_symop_operation_xyz
x,y,z
-x,1/2+y,-z
-x,-y,-z
x,1/2-y,z
loop_
_atom_site_type_symbol
_atom_site_label
_atom_site_fract_x
_atom_site_fract_y
_atom_site_fract_z
Si Si1 0.993867 0.010911 0.181836
Si Si2 0.708839 0.577845 0.211134
Si Si3 0.618050 0.031340 0.433939
Si Si4 0.569427 0.163212 0.193026
Si Si5 0.002556 0.338246 0.374622
O O1 0.014785 0.099531 0.243545
O O2 0.815325 0.974808 0.153030
O O3 0.169137 0.967620 0.371881
O O4 0.000000 0.000000 0.000000
O O5 0.616578 0.523562 0.281725
O O6 0.859361 0.629738 0.401323
O O7 0.555467 0.627989 0.025263
O O8 0.544264 0.112146 0.330088
O O9 0.500000 0.000000 0.500000
O O10 0.517644 0.250000 0.184932
O O11 0.788309 0.158908 0.292491
O O12 0.045594 0.250000 0.364082
#
# Coordination Sequence:
#
# PCOD9165690 Si02
#       5
#     4   4   4   4   4
#     4  11  22  39  63  91 120 164 205 241 299 361
#     4  11  21  41  62  88 121 161 206 238 303 363
#     4  11  22  39  63  91 122 159 204 250 291 364
#     4  11  22  38  63  92 120 158 199 251 307 349
#     4  10  21  40  61  90 123 154 198 255 302 351
#
# _framework density 18.567985
#
# number of rings (size 3 to 8) (size 9 to 14) (size 15 to 20)
#    0.000    1.200    4.000    3.600    2.800    0.000 
#    0.000   12.000    0.000    0.000    0.000    0.000 
#    0.000    0.000    0.000    0.000    0.000    0.000 
#
# Total GULP energy -111737.540174 kJ/mol
# GULP energy per Si atom -5586.877009 kJ/mol
# Density = 1.852572 g / cm^3
# Si number density = 18.567985 Si / 1000 Ang^3
#
#
#
# Elastic Constant Matrix: (Units=GPa)
#
#
# Indices 1 2 3 4 5 6 
#
# 1 95.4024 48.0905 42.0162 0.0000 -20.0236 0.0000
# 2 48.0905 155.1379 89.1638 0.0000 -20.1322 0.0000
# 3 42.0162 89.1638 121.7428 0.0000 -9.3268 0.0000
# 4 0.0000 0.0000 0.0000 23.1727 0.0000 7.2783
# 5 -20.0236 -20.1322 -9.3268 0.0000 39.2448 0.0000
# 6 0.0000 0.0000 0.0000 7.2783 0.0000 22.1775
#
#
#
# Elastic Compliance Matrix: (Units=1/GPa)
#
#
# Indices 1 2 3 4 5 6 
#
# 1 0.013886 -0.001876 -0.003004 0.000000 0.005409 0.000000
# 2 -0.001876 0.011985 -0.007876 0.000000 0.003319 0.000000
# 3 -0.003004 -0.007876 0.014863 0.000000 -0.002041 0.000000
# 4 0.000000 0.000000 0.000000 0.048114 0.000000 -0.015790
# 5 0.005409 0.003319 -0.002041 0.000000 0.029458 0.000000
# 6 0.000000 0.000000 0.000000 -0.015790 0.000000 0.050273
#
#
# Mechanical properties :
#
#
# Convention : Reuss Voigt Hill
#
# Bulk Modulus (GPa) = 65.69647 81.20267 73.44957
# Shear Modulus (GPa) = 25.10505 29.78650 27.44578
#
# Velocity S-wave (km/s) = 3.68103 4.00957 3.84881
# Velocity P-wave (km/s) = 7.31608 8.07856 7.70676
#
# Compressibility (1/GPa) = 0.01522152
#
# Stress axis : x y z
#
# Youngs Moduli (GPa) = 72.01645 83.44024 67.28312
#
# Poissons Ratio (x) = 0.15654 0.20211
# Poissons Ratio (y) = 0.13511 0.52990
# Poissons Ratio (z) = 0.21633 0.65715
#
# Static dielectric constant tensor:
#      x y z
#    x 1.660210 0.000000 0.020720 
#    y 0.000000 1.643340 0.000000 
#    z 0.020720 0.000000 1.641200 
# 
# From -- ./inp_files/12803.got.cif
#   From: 2010.05.17/outbox.cif.g08.bks.cpg/sg11_7_cif.got.tgz:12803.got - 2010.06.03 12:22:45.
