data_PCOD9165390
_publ_section_title
;
Structure prediction by ZEFSAII (Michael W. Deem and Ramdas Pophale) SiO2 
 PCOD9165390
Probable space group: P 21/M
;
_chemical_formula_sum "Si O2"
_cell_formula_units_Z 32
_cell_length_a 13.339181
_cell_length_b 13.250727
_cell_length_c 20.196251
_cell_angle_alpha 90.000000
_cell_angle_beta 24.757141
_cell_angle_gamma 90.000000
_cell_volume 1494.920927
_symmetry_space_group_name_H-M "P 21/M"
_symmetry_group_IT_number 11
_symmetry_cell_setting 'monoclinic'
loop_
_space_group_symop_operation_xyz
x,y,z
-x,1/2+y,-z
-x,-y,-z
x,1/2-y,z
loop_
_atom_site_type_symbol
_atom_site_label
_atom_site_fract_x
_atom_site_fract_y
_atom_site_fract_z
Si Si1 0.768121 0.037604 0.836626
Si Si2 0.121672 0.868214 0.366930
Si Si3 0.998362 0.438556 0.828850
Si Si4 0.651739 0.493705 0.656446
Si Si5 0.191194 0.634608 0.924536
Si Si6 0.829270 0.367673 0.426284
Si Si7 0.502972 0.862907 0.504562
Si Si8 0.940480 0.135802 0.142092
O O1 0.943511 0.940414 0.722381
O O2 0.808426 0.110309 0.750523
O O3 0.837117 0.090867 0.864004
O O4 0.500000 0.000000 0.000000
O O5 0.106745 0.750000 0.390458
O O6 0.867009 0.924335 0.529403
O O7 0.309230 0.924119 0.302685
O O8 0.271505 0.434308 0.640091
O O9 0.932326 0.551970 0.890789
O O10 0.966199 0.375598 0.914991
O O11 0.407115 0.555694 0.800041
O O12 0.688678 0.421369 0.570764
O O13 0.281250 0.750000 0.865111
O O14 0.044887 0.616108 0.944651
O O15 0.888842 0.250000 0.405468
O O16 0.667577 0.366513 0.457255
O O17 0.607613 0.750000 0.444939
O O18 0.338714 0.873819 0.668159
O O19 0.015141 0.250000 0.112227
#
# Coordination Sequence:
#
# PCOD9165390 Si02
#       8
#     4   4   4   4   4   4   4   4
#     4  11  25  41  61  91 128 171 219 265 324 388
#     4  10  22  40  62  88 118 162 221 272 311 370
#     4  12  23  40  65  92 133 173 214 270 329 382
#     4  10  21  40  63  90 123 164 215 261 326 384
#     4  11  24  40  61  94 134 170 206 262 331 395
#     4  10  21  40  68  96 126 164 214 271 325 387
#     4  10  21  38  64  98 125 162 217 265 321 391
#     4  10  22  39  63  93 125 166 213 260 322 389
#
# _framework density 21.405816000000002
#
# number of rings (size 3 to 8) (size 9 to 14) (size 15 to 20)
#    0.000    1.500    1.250    3.375    3.500    1.500 
#    0.000    8.125    0.000    0.000    0.000    0.000 
#    0.000    0.000    0.000    0.000    0.000    0.000 
#
# Total GULP energy -178915.012942 kJ/mol
# GULP energy per Si atom -5591.094154 kJ/mol
# Density = 2.135710 g / cm^3
# Si number density = 21.405816 Si / 1000 Ang^3
#
#
#
# Elastic Constant Matrix: (Units=GPa)
#
#
# Indices 1 2 3 4 5 6 
#
# 1 90.3416 9.2977 21.8075 0.0000 32.4756 0.0000
# 2 9.2977 111.5859 -3.2673 0.0000 14.7565 0.0000
# 3 21.8075 -3.2673 55.0570 0.0000 12.7222 0.0000
# 4 0.0000 0.0000 0.0000 20.6365 0.0000 1.2198
# 5 32.4756 14.7565 12.7222 0.0000 35.6545 0.0000
# 6 0.0000 0.0000 0.0000 1.2198 0.0000 28.9265
#
#
#
# Elastic Compliance Matrix: (Units=1/GPa)
#
#
# Indices 1 2 3 4 5 6 
#
# 1 0.017054 0.000396 -0.003383 0.000000 -0.014490 0.000000
# 2 0.000396 0.009621 0.001545 0.000000 -0.004894 0.000000
# 3 -0.003383 0.001545 0.020740 0.000000 -0.004959 0.000000
# 4 0.000000 0.000000 0.000000 0.048579 0.000000 -0.002049
# 5 -0.014490 -0.004894 -0.004959 0.000000 0.045040 0.000000
# 6 0.000000 0.000000 0.000000 -0.002049 0.000000 0.034657
#
#
# Mechanical properties :
#
#
# Convention : Reuss Voigt Hill
#
# Bulk Modulus (GPa) = 22.45597 34.74002 28.59800
# Shear Modulus (GPa) = 25.85065 32.31995 29.08530
#
# Velocity S-wave (km/s) = 3.47889 3.88992 3.69013
# Velocity P-wave (km/s) = 5.16239 6.03653 5.61649
#
# Compressibility (1/GPa) = 0.04453159
#
# Stress axis : x y z
#
# Youngs Moduli (GPa) = 58.63795 103.93783 48.21494
#
# Poissons Ratio (x) = -0.04118 0.16311
# Poissons Ratio (y) = -0.02323 -0.07449
# Poissons Ratio (z) = 0.19837 -0.16057
#
# Static dielectric constant tensor:
#      x y z
#    x 1.746030 0.000000 0.025990 
#    y 0.000000 1.804890 0.000000 
#    z 0.025990 0.000000 1.764940 
# 
# From -- ./inp_files/59437.got.cif
#   From: 2010.05.17/outbox.cif.g08.bks.cpg/sg11_30_cif.got.tgz:59437.got - 2010.06.03 12:22:45.
