data_PCOD9165087
_publ_section_title
;
Structure prediction by ZEFSAII (Michael W. Deem and Ramdas Pophale) SiO2 
 PCOD9165087
Probable space group: P 21/M
;
_chemical_formula_sum "Si O2"
_cell_formula_units_Z 32
_cell_length_a 15.064382
_cell_length_b 9.691233
_cell_length_c 23.667927
_cell_angle_alpha 90.000000
_cell_angle_beta 28.569189
_cell_angle_gamma 90.000000
_cell_volume 1652.410682
_symmetry_space_group_name_H-M "P 21/M"
_symmetry_group_IT_number 11
_symmetry_cell_setting 'monoclinic'
loop_
_space_group_symop_operation_xyz
x,y,z
-x,1/2+y,-z
-x,-y,-z
x,1/2-y,z
loop_
_atom_site_type_symbol
_atom_site_label
_atom_site_fract_x
_atom_site_fract_y
_atom_site_fract_z
Si Si1 0.833804 0.586037 0.762215
Si Si2 0.564272 0.477358 0.815739
Si Si3 0.746134 0.414350 0.493615
Si Si4 0.708808 0.091160 0.121314
Si Si5 0.613888 0.418574 0.301942
Si Si6 0.156407 0.602505 0.432082
Si Si7 0.029535 0.081381 0.860233
Si Si8 0.215423 0.092981 0.083847
O O1 0.838515 0.750000 0.752496
O O2 0.712540 0.531380 0.778269
O O3 0.747934 0.556085 0.871488
O O4 0.049906 0.542355 0.642060
O O5 0.450022 0.579245 0.837904
O O6 0.683052 0.394014 0.703962
O O7 0.402994 0.407230 0.942389
O O8 0.714190 0.250000 0.499003
O O9 0.579117 0.514096 0.569462
O O10 0.762344 0.429339 0.552287
O O11 0.748997 0.250000 0.108960
O O12 0.644885 0.039289 0.218203
O O13 0.897096 0.035859 0.987283
O O14 0.616671 0.250000 0.305577
O O15 0.779766 0.498080 0.240796
O O16 0.061704 0.750000 0.490311
O O17 0.000000 0.500000 0.500000
O O18 0.046870 0.250000 0.849493
O O19 0.919681 0.020415 0.867910
O O20 0.136950 0.250000 0.126069
#
# Coordination Sequence:
#
# PCOD9165087 Si02
#       8
#     4   4   4   4   4   4   4   4
#     4  10  21  38  60  83 116 159 199 238 284 336
#     4  11  19  35  57  89 120 155 189 234 285 341
#     4  10  21  38  56  82 116 155 194 234 283 344
#     4   9  19  32  53  86 121 152 186 226 281 346
#     4  11  21  36  58  88 117 150 189 238 291 346
#     4  11  22  35  54  82 118 157 194 234 283 339
#     4  10  21  39  60  84 113 152 192 239 293 347
#     4  10  22  40  60  86 115 150 197 247 289 335
#
# _framework density 19.365645000000001
#
# number of rings (size 3 to 8) (size 9 to 14) (size 15 to 20)
#    0.000    1.750    2.500    2.250    0.000    1.500 
#    0.000    3.750    0.000    0.000    0.000    0.000 
#    0.000    0.000    0.000    0.000    0.000    0.000 
#
# Total GULP energy -178255.440836 kJ/mol
# GULP energy per Si atom -5570.482526 kJ/mol
# Density = 1.932157 g / cm^3
# Si number density = 19.365645 Si / 1000 Ang^3
#
#
#
# Elastic Constant Matrix: (Units=GPa)
#
#
# Indices 1 2 3 4 5 6 
#
# 1 31.9033 16.9669 20.8622 0.0000 -3.8568 0.0000
# 2 16.9669 63.3079 24.4168 0.0000 -20.5533 0.0000
# 3 20.8622 24.4168 75.8666 0.0000 -10.3974 0.0000
# 4 0.0000 0.0000 0.0000 23.8221 0.0000 -6.4084
# 5 -3.8568 -20.5533 -10.3974 0.0000 39.9280 0.0000
# 6 0.0000 0.0000 0.0000 -6.4084 0.0000 8.8181
#
#
#
# Elastic Compliance Matrix: (Units=1/GPa)
#
#
# Indices 1 2 3 4 5 6 
#
# 1 0.041447 -0.008511 -0.009032 0.000000 -0.002729 0.000000
# 2 -0.008511 0.022686 -0.003602 0.000000 0.009918 0.000000
# 3 -0.009032 -0.003602 0.017059 0.000000 0.001716 0.000000
# 4 0.000000 0.000000 0.000000 0.052179 0.000000 0.037920
# 5 -0.002729 0.009918 0.001716 0.000000 0.030333 0.000000
# 6 0.000000 0.000000 0.000000 0.037920 0.000000 0.140961
#
#
# Mechanical properties :
#
#
# Convention : Reuss Voigt Hill
#
# Bulk Modulus (GPa) = 25.70509 32.84108 29.27308
# Shear Modulus (GPa) = 13.89190 21.76909 17.83050
#
# Velocity S-wave (km/s) = 2.68124 3.35641 3.03764
# Velocity P-wave (km/s) = 4.78412 5.65826 5.23945
#
# Compressibility (1/GPa) = 0.03890281
#
# Stress axis : x y z
#
# Youngs Moduli (GPa) = 24.12692 44.08067 58.61967
#
# Poissons Ratio (x) = 0.37515 0.52948
# Poissons Ratio (y) = 0.20534 0.21113
# Poissons Ratio (z) = 0.21793 0.15876
#
# Static dielectric constant tensor:
#      x y z
#    x 1.651290 0.000000 0.004700 
#    y 0.000000 1.676670 0.000000 
#    z 0.004700 0.000000 1.715760 
# 
# From -- ./inp_files/69000.got.cif
#   From: 2010.05.17/outbox.cif.g08.bks.cpg/sg11_35_cif.got.tgz:69000.got - 2010.06.03 12:22:45.
