data_PCOD9165294
_publ_section_title
;
Structure prediction by ZEFSAII (Michael W. Deem and Ramdas Pophale) SiO2 
 PCOD9165294
Probable space group: P 21/M
;
_chemical_formula_sum "Si O2"
_cell_formula_units_Z 30
_cell_length_a 14.692560
_cell_length_b 9.170897
_cell_length_c 11.902194
_cell_angle_alpha 90.000000
_cell_angle_beta 104.163836
_cell_angle_gamma 90.000000
_cell_volume 1554.994710
_symmetry_space_group_name_H-M "P 21/M"
_symmetry_group_IT_number 11
_symmetry_cell_setting 'monoclinic'
loop_
_space_group_symop_operation_xyz
x,y,z
-x,1/2+y,-z
-x,-y,-z
x,1/2-y,z
loop_
_atom_site_type_symbol
_atom_site_label
_atom_site_fract_x
_atom_site_fract_y
_atom_site_fract_z
Si Si1 0.646146 0.472579 0.538131
Si Si2 0.811390 0.919807 0.735271
Si Si3 0.683676 0.915396 0.910607
Si Si4 0.805195 0.922542 0.169265
Si Si5 0.987184 0.073210 0.118564
Si Si6 0.501778 0.423602 0.878763
Si Si7 0.485756 0.250000 0.541380
Si Si8 0.671216 0.416335 0.287871
O O1 0.742267 0.490124 0.635647
O O2 0.568906 0.374379 0.575772
O O3 0.594359 0.625001 0.503795
O O4 0.668567 0.413061 0.420954
O O5 0.807335 0.750000 0.699044
O O6 0.766951 0.927362 0.846693
O O7 0.919752 0.961488 0.780589
O O8 0.644340 0.750000 0.889738
O O9 0.602667 0.030207 0.861478
O O10 0.726361 0.933993 0.047242
O O11 0.822384 0.750000 0.191973
O O12 0.760791 0.000977 0.263717
O O13 0.896435 0.004937 0.150772
O O14 0.980419 0.250000 0.105601
O O15 0.000000 0.000000 0.000000
O O16 0.490524 0.250000 0.881995
O O17 0.419518 0.493471 0.780489
O O18 0.500000 0.500000 0.000000
O O19 0.666599 0.250000 0.242909
#
# Coordination Sequence:
#
# PCOD9165294 Si02
#       8
#     4   4   4   4   4   4   2   4
#     4  11  24  43  66  99 131 174 223 270 324 389
#     4  10  22  41  67  94 130 167 211 271 330 388
#     4  10  21  38  61  90 129 166 211 264 325 388
#     4  11  23  42  65  95 128 170 217 270 332 392
#     4  11  22  42  68  98 132 172 219 274 336 393
#     4  12  25  38  57  89 127 169 214 261 317 389
#     4  10  24  42  66  92 130 174 224 266 318 382
#     4  12  26  43  64  90 133 178 219 268 330 398
#
# _framework density 19.292670999999999
#
# number of rings (size 3 to 8) (size 9 to 14) (size 15 to 20)
#    0.000    1.067    4.000    2.400    5.600    0.533 
#    2.400    0.667    0.000    0.000    0.000    0.000 
#    0.000    0.000    0.000    0.000    0.000    0.000 
#
# Total GULP energy -167122.561643 kJ/mol
# GULP energy per Si atom -5570.752055 kJ/mol
# Density = 1.924876 g / cm^3
# Si number density = 19.292671 Si / 1000 Ang^3
#
#
#
# Elastic Constant Matrix: (Units=GPa)
#
#
# Indices 1 2 3 4 5 6 
#
# 1 106.7462 53.7488 12.8486 0.0000 25.7107 0.0000
# 2 53.7488 147.8912 23.4110 0.0000 12.2492 0.0000
# 3 12.8486 23.4110 61.4640 0.0000 18.6587 0.0000
# 4 0.0000 0.0000 0.0000 7.6299 0.0000 -3.3021
# 5 25.7107 12.2492 18.6587 0.0000 20.8412 0.0000
# 6 0.0000 0.0000 0.0000 -3.3021 0.0000 -2.8039
#
#
#
# Elastic Compliance Matrix: (Units=1/GPa)
#
#
# Indices 1 2 3 4 5 6 
#
# 1 0.016614 -0.005020 0.005171 0.000000 -0.022175 0.000000
# 2 -0.005020 0.008804 -0.003588 0.000000 0.004231 0.000000
# 3 0.005171 -0.003588 0.024514 0.000000 -0.026217 0.000000
# 4 0.000000 0.000000 0.000000 0.086815 0.000000 -0.102241
# 5 -0.022175 0.004231 -0.026217 0.000000 0.096323 0.000000
# 6 0.000000 0.000000 0.000000 -0.102241 0.000000 -0.236237
#
#
# Mechanical properties :
#
#
# Convention : Reuss Voigt Hill
#
# Bulk Modulus (GPa) = 23.22509 55.12425 39.17467
# Shear Modulus (GPa) = 276.83885 20.20630 148.52258
#
# Velocity S-wave (km/s) = 11.99191 3.23980 8.78357
# Velocity P-wave (km/s) = 14.27605 6.52915 11.10034
#
# Compressibility (1/GPa) = 0.04305689
#
# Stress axis : x y z
#
# Youngs Moduli (GPa) = 60.18882 113.58762 40.79258
#
# Poissons Ratio (x) = 0.57022 -0.21093
# Poissons Ratio (y) = 0.30215 0.14638
# Poissons Ratio (z) = -0.31122 0.40759
#
# Static dielectric constant tensor:
#      x y z
#    x 1.662190 0.000000 -0.027450 
#    y 0.000000 1.691490 0.000000 
#    z -0.027450 0.000000 1.681080 
# 
# From -- ./inp_files/38331.got.cif
#   From: 2010.05.17/outbox.cif.g08.bks.cpg/sg11_20_cif.got.tgz:38331.got - 2010.06.03 12:22:45.
