data_PCOD9165863
_publ_section_title
;
Structure prediction by ZEFSAII (Michael W. Deem and Ramdas Pophale) SiO2 
 PCOD9165863
Probable space group: P 21/M
;
_chemical_formula_sum "Si O2"
_cell_formula_units_Z 32
_cell_length_a 12.805166
_cell_length_b 8.358898
_cell_length_c 14.616812
_cell_angle_alpha 90.000000
_cell_angle_beta 89.530200
_cell_angle_gamma 90.000000
_cell_volume 1564.488230
_symmetry_space_group_name_H-M "P 21/M"
_symmetry_group_IT_number 11
_symmetry_cell_setting 'monoclinic'
loop_
_space_group_symop_operation_xyz
x,y,z
-x,1/2+y,-z
-x,-y,-z
x,1/2-y,z
loop_
_atom_site_type_symbol
_atom_site_label
_atom_site_fract_x
_atom_site_fract_y
_atom_site_fract_z
Si Si1 0.889235 0.432861 0.528040
Si Si2 0.831184 0.558545 0.237338
Si Si3 0.335972 0.553875 0.488887
Si Si4 0.951749 0.565119 0.707596
Si Si5 0.116314 0.441715 0.972288
Si Si6 0.390485 0.941741 0.685593
Si Si7 0.389817 0.557376 0.282742
Si Si8 0.202003 0.941273 0.150812
O O1 0.888359 0.250000 0.501013
O O2 0.782518 0.505201 0.492148
O O3 0.889162 0.454408 0.637214
O O4 0.000000 0.500000 0.500000
O O5 0.841203 0.750000 0.245862
O O6 0.717837 0.505072 0.272378
O O7 0.926515 0.478701 0.292070
O O8 0.851802 0.513459 0.131226
O O9 0.336455 0.750000 0.486059
O O10 0.399258 0.504440 0.578410
O O11 0.364713 0.499277 0.386613
O O12 0.937668 0.750000 0.682964
O O13 0.898682 0.527071 0.804314
O O14 0.116747 0.250000 0.977589
O O15 0.197957 0.512046 0.044934
O O16 0.000000 0.500000 0.000000
O O17 0.387346 0.750000 0.686333
O O18 0.492783 0.001180 0.737426
O O19 0.387670 0.750000 0.284429
O O20 0.303212 0.506942 0.208973
O O21 0.190224 0.750000 0.159622
#
# Coordination Sequence:
#
# PCOD9165863 Si02
#       8
#     4   4   4   4   4   4   4   4
#     4  11  21  36  55  82 122 165 207 251 306 370
#     4  11  24  42  63  88 123 165 203 247 308 376
#     4   9  19  37  59  84 119 160 204 251 300 356
#     4  12  23  36  58  88 123 160 200 251 307 365
#     4  11  23  39  64  94 125 158 200 252 308 373
#     4  11  23  39  62  92 123 158 205 261 307 358
#     4  10  21  41  64  86 120 166 207 250 305 367
#     4  11  22  39  64  91 121 159 202 250 306 365
#
# _framework density 20.453975
#
# number of rings (size 3 to 8) (size 9 to 14) (size 15 to 20)
#    0.000    1.250    2.500    4.125    0.000    3.500 
#    0.000    3.125    0.000    0.000    0.000    0.000 
#    0.000    0.000    0.000    0.000    0.000    0.000 
#
# Total GULP energy -178790.676280 kJ/mol
# GULP energy per Si atom -5587.208634 kJ/mol
# Density = 2.040742 g / cm^3
# Si number density = 20.453975 Si / 1000 Ang^3
#
#
#
# Elastic Constant Matrix: (Units=GPa)
#
#
# Indices 1 2 3 4 5 6 
#
# 1 129.9808 13.8122 30.9583 0.0000 20.1242 0.0000
# 2 13.8122 29.1735 5.1213 0.0000 3.1817 0.0000
# 3 30.9583 5.1213 82.6062 0.0000 15.4280 0.0000
# 4 0.0000 0.0000 0.0000 26.7438 0.0000 0.0397
# 5 20.1242 3.1817 15.4280 0.0000 28.6014 0.0000
# 6 0.0000 0.0000 0.0000 0.0397 0.0000 27.7205
#
#
#
# Elastic Compliance Matrix: (Units=1/GPa)
#
#
# Indices 1 2 3 4 5 6 
#
# 1 0.009397 -0.003492 -0.002383 0.000000 -0.004938 0.000000
# 2 -0.003492 0.036185 -0.000714 0.000000 -0.001183 0.000000
# 3 -0.002383 -0.000714 0.014139 0.000000 -0.005871 0.000000
# 4 0.000000 0.000000 0.000000 0.037392 0.000000 -0.000054
# 5 -0.004938 -0.001183 -0.005871 0.000000 0.041736 0.000000
# 6 0.000000 0.000000 0.000000 -0.000054 0.000000 0.036074
#
#
# Mechanical properties :
#
#
# Convention : Reuss Voigt Hill
#
# Bulk Modulus (GPa) = 21.48495 37.94936 29.71716
# Shear Modulus (GPa) = 24.55609 29.40439 26.98024
#
# Velocity S-wave (km/s) = 3.46866 3.79567 3.63584
# Velocity P-wave (km/s) = 5.15451 6.14844 5.67328
#
# Compressibility (1/GPa) = 0.04654421
#
# Stress axis : x y z
#
# Youngs Moduli (GPa) = 106.42236 27.63550 70.72439
#
# Poissons Ratio (x) = 0.09650 0.16853
# Poissons Ratio (y) = 0.37163 0.05047
# Poissons Ratio (z) = 0.25359 0.01972
#
# Static dielectric constant tensor:
#      x y z
#    x 1.725810 0.000000 -0.002900 
#    y 0.000000 1.708840 0.000000 
#    z -0.002900 0.000000 1.784250 
# 
# From -- ./inp_files/49323.got.cif
#   From: 2010.05.17/outbox.cif.g08.bks.cpg/sg11_25_cif.got.tgz:49323.got - 2010.06.03 12:22:45.
