data_PCOD9165963
_publ_section_title
;
Structure prediction by ZEFSAII (Michael W. Deem and Ramdas Pophale) SiO2 
 PCOD9165963
Probable space group: P 21/M
;
_chemical_formula_sum "Si O2"
_cell_formula_units_Z 14
_cell_length_a 6.168243
_cell_length_b 14.641154
_cell_length_c 6.653095
_cell_angle_alpha 90.000000
_cell_angle_beta 103.956537
_cell_angle_gamma 90.000000
_cell_volume 583.104823
_symmetry_space_group_name_H-M "P 21/M"
_symmetry_group_IT_number 11
_symmetry_cell_setting 'monoclinic'
loop_
_space_group_symop_operation_xyz
x,y,z
-x,1/2+y,-z
-x,-y,-z
x,1/2-y,z
loop_
_atom_site_type_symbol
_atom_site_label
_atom_site_fract_x
_atom_site_fract_y
_atom_site_fract_z
Si Si1 0.334457 0.441220 0.100021
Si Si2 0.565029 0.250000 0.769199
Si Si3 0.396972 0.250000 0.291257
Si Si4 0.927980 0.750000 0.447429
Si Si5 0.121825 0.904445 0.240461
O O1 0.430221 0.343405 0.182363
O O2 0.259273 0.501175 0.278576
O O3 0.500000 0.500000 0.000000
O O4 0.107415 0.423965 0.926084
O O5 0.547633 0.250000 0.521886
O O6 0.299060 0.250000 0.745602
O O7 0.714711 0.337457 0.849520
O O8 0.151007 0.250000 0.340258
O O9 0.049661 0.844360 0.416370
#
# Coordination Sequence:
#
# PCOD9165963 Si02
#       5
#     4   2   2   2   4
#     4  11  24  43  66  95 130 172 220 264 314 397
#     4   9  20  41  63  93 129 166 205 269 324 378
#     4  10  24  43  63  93 129 170 212 273 333 365
#     4   9  20  40  64  92 130 162 211 270 315 383
#     4  10  21  42  66  93 124 176 211 261 326 379
#
# _framework density 24.009406999999999
#
# number of rings (size 3 to 8) (size 9 to 14) (size 15 to 20)
#    0.857    1.143    0.000    3.429    0.000    4.571 
#   20.571    0.000    0.000    0.000    0.000    0.000 
#    0.000    0.000    0.000    0.000    0.000    0.000 
#
# Total GULP energy -78067.279031 kJ/mol
# GULP energy per Si atom -5576.234217 kJ/mol
# Density = 2.395476 g / cm^3
# Si number density = 24.009407 Si / 1000 Ang^3
#
#
#
# Elastic Constant Matrix: (Units=GPa)
#
#
# Indices 1 2 3 4 5 6 
#
# 1 109.2163 66.9258 30.1466 0.0000 -7.9016 0.0000
# 2 66.9258 188.0555 38.1454 0.0000 -19.7387 0.0000
# 3 30.1466 38.1454 50.5180 0.0000 -16.9912 0.0000
# 4 0.0000 0.0000 0.0000 7.2424 0.0000 -29.7214
# 5 -7.9016 -19.7387 -16.9912 0.0000 40.1336 0.0000
# 6 0.0000 0.0000 0.0000 -29.7214 0.0000 41.9958
#
#
#
# Elastic Compliance Matrix: (Units=1/GPa)
#
#
# Indices 1 2 3 4 5 6 
#
# 1 0.012743 -0.003601 -0.005407 0.000000 -0.001551 0.000000
# 2 -0.003601 0.007352 -0.002827 0.000000 0.001710 0.000000
# 3 -0.005407 -0.002827 0.028371 0.000000 0.009556 0.000000
# 4 0.000000 0.000000 0.000000 -0.072506 0.000000 -0.051314
# 5 -0.001551 0.001710 0.009556 0.000000 0.029498 0.000000
# 6 0.000000 0.000000 0.000000 -0.051314 0.000000 -0.012504
#
#
# Mechanical properties :
#
#
# Convention : Reuss Voigt Hill
#
# Bulk Modulus (GPa) = 40.33133 68.69169 54.51151
# Shear Modulus (GPa) = 200.88200 32.04585 116.46393
#
# Velocity S-wave (km/s) = 9.15695 3.65735 6.97230
# Velocity P-wave (km/s) = 11.34170 6.81963 9.35792
#
# Compressibility (1/GPa) = 0.02479462
#
# Stress axis : x y z
#
# Youngs Moduli (GPa) = 78.47383 136.01465 35.24777
#
# Poissons Ratio (x) = 0.48980 0.19059
# Poissons Ratio (y) = 0.28259 0.09966
# Poissons Ratio (z) = 0.42432 0.38457
#
# Static dielectric constant tensor:
#      x y z
#    x 1.989420 0.000000 -0.063170 
#    y 0.000000 1.936010 0.000000 
#    z -0.063170 0.000000 1.931000 
# 
# From -- ./inp_files/9857.got.cif
#   From: 2010.05.17/outbox.cif.g08.bks.cpg/sg11_5_cif.got.tgz:9857.got - 2010.06.03 12:22:45.
