data_PCOD9165528
_publ_section_title
;
Structure prediction by ZEFSAII (Michael W. Deem and Ramdas Pophale) SiO2 
 PCOD9165528
Probable space group: P 21/M
;
_chemical_formula_sum "Si O2"
_cell_formula_units_Z 28
_cell_length_a 29.962756
_cell_length_b 8.698079
_cell_length_c 9.554656
_cell_angle_alpha 90.000000
_cell_angle_beta 37.056609
_cell_angle_gamma 90.000000
_cell_volume 1500.555356
_symmetry_space_group_name_H-M "P 21/M"
_symmetry_group_IT_number 11
_symmetry_cell_setting 'monoclinic'
loop_
_space_group_symop_operation_xyz
x,y,z
-x,1/2+y,-z
-x,-y,-z
x,1/2-y,z
loop_
_atom_site_type_symbol
_atom_site_label
_atom_site_fract_x
_atom_site_fract_y
_atom_site_fract_z
Si Si1 0.932415 0.566737 0.079705
Si Si2 0.628034 0.434738 0.027149
Si Si3 0.069406 0.064719 0.240260
Si Si4 0.205148 0.565056 0.074806
Si Si5 0.368203 0.065903 0.673148
Si Si6 0.499321 0.933966 0.157492
Si Si7 0.800150 0.066483 0.586949
O O1 0.938027 0.750000 0.067290
O O2 0.856355 0.516061 0.343371
O O3 0.935450 0.516642 0.910147
O O4 0.000000 0.500000 0.000000
O O5 0.619808 0.250000 0.053791
O O6 0.613859 0.503928 0.216243
O O7 0.571197 0.505868 0.060414
O O8 0.713798 0.469026 0.776153
O O9 0.069191 0.250000 0.247020
O O10 0.143602 0.000456 0.125765
O O11 0.000000 0.000000 0.500000
O O12 0.209584 0.750000 0.053812
O O13 0.184973 0.527202 0.287181
O O14 0.285717 0.493624 0.845464
O O15 0.370557 0.250000 0.665770
O O16 0.427758 0.997308 0.418008
O O17 0.498280 0.750000 0.158334
O O18 0.500000 0.000000 0.000000
O O19 0.809978 0.250000 0.548162
#
# Coordination Sequence:
#
# PCOD9165528 Si02
#       7
#     4   4   4   4   4   4   4
#     4  11  24  39  58  84 116 150 191 237 285 341
#     4  10  21  40  63  89 120 156 197 243 292 350
#     4  11  24  40  58  85 117 153 195 241 291 349
#     4  10  21  39  62  89 118 151 192 241 292 348
#     4  11  22  39  63  90 119 156 199 243 292 352
#     4  12  25  41  60  86 120 158 199 247 299 352
#     4   9  20  38  61  87 116 148 188 234 285 342
#
# _framework density 18.659759000000001
#
# number of rings (size 3 to 8) (size 9 to 14) (size 15 to 20)
#    0.000    1.429    0.000    6.429    0.000   10.286 
#    0.000    2.857    0.000    0.000    0.000    0.000 
#    0.000    0.000    0.000    0.000    0.000    0.000 
#
# Total GULP energy -156595.291016 kJ/mol
# GULP energy per Si atom -5592.688965 kJ/mol
# Density = 1.861729 g / cm^3
# Si number density = 18.659759 Si / 1000 Ang^3
#
#
#
# Elastic Constant Matrix: (Units=GPa)
#
#
# Indices 1 2 3 4 5 6 
#
# 1 198.3190 79.8675 114.0202 0.0000 5.8535 0.0000
# 2 79.8675 119.9030 81.0198 0.0000 4.5283 0.0000
# 3 114.0202 81.0198 172.4860 0.0000 15.9696 0.0000
# 4 0.0000 0.0000 0.0000 38.2212 0.0000 -2.4803
# 5 5.8535 4.5283 15.9696 0.0000 13.4613 0.0000
# 6 0.0000 0.0000 0.0000 -2.4803 0.0000 36.7017
#
#
#
# Elastic Compliance Matrix: (Units=1/GPa)
#
#
# Indices 1 2 3 4 5 6 
#
# 1 0.008826 -0.002736 -0.004807 0.000000 0.002785 0.000000
# 2 -0.002736 0.013177 -0.004584 0.000000 0.002196 0.000000
# 3 -0.004807 -0.004584 0.012124 0.000000 -0.010751 0.000000
# 4 0.000000 0.000000 0.000000 0.026279 0.000000 0.001776
# 5 0.002785 0.002196 -0.010751 0.000000 0.085091 0.000000
# 6 0.000000 0.000000 0.000000 0.001776 0.000000 0.027367
#
#
# Mechanical properties :
#
#
# Convention : Reuss Voigt Hill
#
# Bulk Modulus (GPa) = 101.29160 115.61367 108.45264
# Shear Modulus (GPa) = 24.94907 32.06352 28.50630
#
# Velocity S-wave (km/s) = 3.66054 4.14976 3.91281
# Velocity P-wave (km/s) = 8.50102 9.22248 8.86909
#
# Compressibility (1/GPa) = 0.00987249
#
# Stress axis : x y z
#
# Youngs Moduli (GPa) = 113.30686 75.88859 82.48260
#
# Poissons Ratio (x) = 0.20762 0.39648
# Poissons Ratio (y) = 0.30999 0.37813
# Poissons Ratio (z) = 0.54465 0.34790
#
# Static dielectric constant tensor:
#      x y z
#    x 1.625230 0.000000 -0.000350 
#    y 0.000000 1.622110 0.000000 
#    z -0.000350 0.000000 1.625620 
# 
# From -- ./inp_files/29010.got.cif
#   From: 2010.05.17/outbox.cif.g08.bks.cpg/sg11_15_cif.got.tgz:29010.got - 2010.06.03 12:22:45.
