data_PCOD9165899
_publ_section_title
;
Structure prediction by ZEFSAII (Michael W. Deem and Ramdas Pophale) SiO2 
 PCOD9165899
Probable space group: P 21/M
;
_chemical_formula_sum "Si O2"
_cell_formula_units_Z 32
_cell_length_a 11.974794
_cell_length_b 8.720393
_cell_length_c 15.296313
_cell_angle_alpha 90.000000
_cell_angle_beta 87.039267
_cell_angle_gamma 90.000000
_cell_volume 1595.183956
_symmetry_space_group_name_H-M "P 21/M"
_symmetry_group_IT_number 11
_symmetry_cell_setting 'monoclinic'
loop_
_space_group_symop_operation_xyz
x,y,z
-x,1/2+y,-z
-x,-y,-z
x,1/2-y,z
loop_
_atom_site_type_symbol
_atom_site_label
_atom_site_fract_x
_atom_site_fract_y
_atom_site_fract_z
Si Si1 0.875201 0.935742 0.995450
Si Si2 0.763886 0.936374 0.817489
Si Si3 0.539505 0.427629 0.589428
Si Si4 0.514856 0.566475 0.778181
Si Si5 0.789708 0.426595 0.522336
Si Si6 0.819333 0.567678 0.338997
Si Si7 0.710984 0.934810 0.158995
Si Si8 0.063891 0.432015 0.341818
O O1 0.881674 0.750000 0.995325
O O2 0.817889 0.985228 0.906871
O O3 0.794804 0.982899 0.078629
O O4 0.000000 0.000000 0.000000
O O5 0.760496 0.750000 0.818037
O O6 0.636830 0.988247 0.806251
O O7 0.846129 0.980006 0.735216
O O8 0.500000 0.500000 0.500000
O O9 0.504608 0.250000 0.594386
O O10 0.500143 0.510811 0.678722
O O11 0.674165 0.435773 0.579878
O O12 0.513456 0.750000 0.779701
O O13 0.412998 0.502782 0.839442
O O14 0.826893 0.250000 0.518211
O O15 0.768532 0.485310 0.425551
O O16 0.881741 0.527774 0.567283
O O17 0.807472 0.750000 0.348991
O O18 0.763159 0.520172 0.250402
O O19 0.949030 0.520630 0.332669
O O20 0.703441 0.750000 0.156909
O O21 0.044399 0.250000 0.335811
#
# Coordination Sequence:
#
# PCOD9165899 Si02
#       8
#     4   4   4   4   4   4   4   4
#     4  10  21  41  66  93 125 158 200 250 304 367
#     4   9  20  38  62  90 121 159 198 247 308 361
#     4  11  23  38  59  86 119 160 206 254 301 358
#     4  11  22  39  62  88 121 160 205 250 300 363
#     4  11  23  38  56  83 115 153 199 244 297 357
#     4  11  23  38  56  82 118 157 198 246 300 356
#     4  10  23  41  61  88 123 160 198 249 306 356
#     4  11  21  37  60  85 117 155 197 245 299 358
#
# _framework density 20.060383000000002
#
# number of rings (size 3 to 8) (size 9 to 14) (size 15 to 20)
#    0.000    1.500    1.250    3.750    0.000    5.500 
#    0.000    1.875    0.000    0.000    0.000    0.000 
#    0.000    0.000    0.000    0.000    0.000    0.000 
#
# Total GULP energy -178927.122029 kJ/mol
# GULP energy per Si atom -5591.472563 kJ/mol
# Density = 2.001472 g / cm^3
# Si number density = 20.060383 Si / 1000 Ang^3
#
#
#
# Elastic Constant Matrix: (Units=GPa)
#
#
# Indices 1 2 3 4 5 6 
#
# 1 94.5692 16.2032 40.6870 0.0000 -13.0384 0.0000
# 2 16.2032 21.3504 15.4810 0.0000 -7.4157 0.0000
# 3 40.6870 15.4810 119.9055 0.0000 -10.0045 0.0000
# 4 0.0000 0.0000 0.0000 16.8006 0.0000 -5.1582
# 5 -13.0384 -7.4157 -10.0045 0.0000 38.2493 0.0000
# 6 0.0000 0.0000 0.0000 -5.1582 0.0000 32.8509
#
#
#
# Elastic Compliance Matrix: (Units=1/GPa)
#
#
# Indices 1 2 3 4 5 6 
#
# 1 0.013607 -0.006950 -0.003522 0.000000 0.002370 0.000000
# 2 -0.006950 0.058047 -0.004493 0.000000 0.007710 0.000000
# 3 -0.003522 -0.004493 0.010164 0.000000 0.000587 0.000000
# 4 0.000000 0.000000 0.000000 0.062537 0.000000 0.009819
# 5 0.002370 0.007710 0.000587 0.000000 0.028600 0.000000
# 6 0.000000 0.000000 0.000000 0.009819 0.000000 0.031982
#
#
# Mechanical properties :
#
#
# Convention : Reuss Voigt Hill
#
# Bulk Modulus (GPa) = 19.27196 42.28528 30.77862
# Shear Modulus (GPa) = 19.82835 28.47707 24.15271
#
# Velocity S-wave (km/s) = 3.14735 3.77180 3.47364
# Velocity P-wave (km/s) = 4.77866 6.33194 5.60932
#
# Compressibility (1/GPa) = 0.05188887
#
# Stress axis : x y z
#
# Youngs Moduli (GPa) = 73.49099 17.22729 98.38501
#
# Poissons Ratio (x) = 0.11972 0.34654
# Poissons Ratio (y) = 0.51073 0.44205
# Poissons Ratio (z) = 0.25885 0.07740
#
# Static dielectric constant tensor:
#      x y z
#    x 1.708350 0.000000 -0.007350 
#    y 0.000000 1.679840 0.000000 
#    z -0.007350 0.000000 1.688620 
# 
# From -- ./inp_files/38156.got.cif
#   From: 2010.05.17/outbox.cif.g08.bks.cpg/sg11_20_cif.got.tgz:38156.got - 2010.06.03 12:22:45.
