data_PCOD9165947
_publ_section_title
;
Structure prediction by ZEFSAII (Michael W. Deem and Ramdas Pophale) SiO2 
 PCOD9165947
Probable space group: P 21/M
;
_chemical_formula_sum "Si O2"
_cell_formula_units_Z 26
_cell_length_a 10.334034
_cell_length_b 9.401862
_cell_length_c 14.870599
_cell_angle_alpha 90.000000
_cell_angle_beta 57.088263
_cell_angle_gamma 90.000000
_cell_volume 1212.934528
_symmetry_space_group_name_H-M "P 21/M"
_symmetry_group_IT_number 11
_symmetry_cell_setting 'monoclinic'
loop_
_space_group_symop_operation_xyz
x,y,z
-x,1/2+y,-z
-x,-y,-z
x,1/2-y,z
loop_
_atom_site_type_symbol
_atom_site_label
_atom_site_fract_x
_atom_site_fract_y
_atom_site_fract_z
Si Si1 0.358778 0.414156 0.430578
Si Si2 0.058407 0.515339 0.863698
Si Si3 0.065919 0.250000 0.993070
Si Si4 0.814320 0.585574 0.694005
Si Si5 0.551451 0.420680 0.890069
Si Si6 0.613662 0.090458 0.199672
Si Si7 0.147428 0.918000 0.635013
O O1 0.351220 0.250000 0.463298
O O2 0.252643 0.429621 0.381213
O O3 0.528087 0.442246 0.326017
O O4 0.295094 0.517533 0.530147
O O5 0.045772 0.372087 0.922627
O O6 0.205869 0.594647 0.852430
O O7 0.100934 0.503354 0.744049
O O8 0.920734 0.623689 0.934562
O O9 0.787647 0.750000 0.732360
O O10 0.717554 0.480023 0.794129
O O11 0.996757 0.563164 0.629302
O O12 0.550205 0.250000 0.898991
O O13 0.437408 0.474914 0.853629
O O14 0.500000 0.500000 0.000000
O O15 0.562122 0.250000 0.191405
O O16 0.167956 0.750000 0.646182
#
# Coordination Sequence:
#
# PCOD9165947 Si02
#       7
#     4   4   2   4   4   4   4
#     4   9  20  37  61  88 123 165 200 248 315 362
#     4  11  23  44  63  91 123 163 206 252 307 366
#     4  10  24  42  62  84 122 162 204 248 306 362
#     4   9  20  40  60  86 128 163 199 254 311 358
#     4  11  23  39  60  91 121 159 212 254 302 365
#     4  10  21  42  64  87 126 164 196 253 313 363
#     4  11  22  38  62  93 123 160 208 256 297 365
#
# _framework density 21.435617000000001
#
# number of rings (size 3 to 8) (size 9 to 14) (size 15 to 20)
#    0.000    1.846    1.538    2.769    2.154    6.154 
#    2.769    0.000    0.000    0.000    0.000    0.000 
#    0.000    0.000    0.000    0.000    0.000    0.000 
#
# Total GULP energy -144735.794062 kJ/mol
# GULP energy per Si atom -5566.761310 kJ/mol
# Density = 2.138683 g / cm^3
# Si number density = 21.435617 Si / 1000 Ang^3
#
#
#
# Elastic Constant Matrix: (Units=GPa)
#
#
# Indices 1 2 3 4 5 6 
#
# 1 27.6537 1.0100 -5.2799 0.0000 -8.5110 0.0000
# 2 1.0100 122.3419 46.3221 0.0000 0.0905 0.0000
# 3 -5.2799 46.3221 104.3193 0.0000 1.7509 0.0000
# 4 0.0000 0.0000 0.0000 50.9560 0.0000 -11.4702
# 5 -8.5110 0.0905 1.7509 0.0000 21.8270 0.0000
# 6 0.0000 0.0000 0.0000 -11.4702 0.0000 15.8675
#
#
#
# Elastic Compliance Matrix: (Units=1/GPa)
#
#
# Indices 1 2 3 4 5 6 
#
# 1 0.041600 -0.001263 0.002397 0.000000 0.016034 0.000000
# 2 -0.001263 0.009866 -0.004442 0.000000 -0.000177 0.000000
# 3 0.002397 -0.004442 0.011679 0.000000 0.000016 0.000000
# 4 0.000000 0.000000 0.000000 0.023439 0.000000 0.016943
# 5 0.016034 -0.000177 0.000016 0.000000 0.052067 0.000000
# 6 0.000000 0.000000 0.000000 0.016943 0.000000 0.075270
#
#
# Mechanical properties :
#
#
# Convention : Reuss Voigt Hill
#
# Bulk Modulus (GPa) = 17.68963 37.60216 27.64589
# Shear Modulus (GPa) = 20.88731 31.88094 26.38413
#
# Velocity S-wave (km/s) = 3.12496 3.86072 3.51216
# Velocity P-wave (km/s) = 4.61420 6.11993 5.41961
#
# Compressibility (1/GPa) = 0.05653031
#
# Stress axis : x y z
#
# Youngs Moduli (GPa) = 24.03839 101.35591 85.62066
#
# Poissons Ratio (x) = 0.12801 -0.20525
# Poissons Ratio (y) = 0.03036 0.38032
# Poissons Ratio (z) = -0.05762 0.45022
#
# Static dielectric constant tensor:
#      x y z
#    x 1.851830 0.000000 -0.048490 
#    y 0.000000 1.724520 0.000000 
#    z -0.048490 0.000000 1.795480 
# 
# From -- ./inp_files/42687.got.cif
#   From: 2010.05.17/outbox.cif.g08.bks.cpg/sg11_22_cif.got.tgz:42687.got - 2010.06.03 12:22:45.
