data_PCOD9165221
_publ_section_title
;
Structure prediction by ZEFSAII (Michael W. Deem and Ramdas Pophale) SiO2 
 PCOD9165221
Probable space group: P 21/M
;
_chemical_formula_sum "Si O2"
_cell_formula_units_Z 28
_cell_length_a 15.222393
_cell_length_b 8.398785
_cell_length_c 13.113703
_cell_angle_alpha 90.000000
_cell_angle_beta 123.448846
_cell_angle_gamma 90.000000
_cell_volume 1398.903377
_symmetry_space_group_name_H-M "P 21/M"
_symmetry_group_IT_number 11
_symmetry_cell_setting 'monoclinic'
loop_
_space_group_symop_operation_xyz
x,y,z
-x,1/2+y,-z
-x,-y,-z
x,1/2-y,z
loop_
_atom_site_type_symbol
_atom_site_label
_atom_site_fract_x
_atom_site_fract_y
_atom_site_fract_z
Si Si1 0.094332 0.064655 0.488962
Si Si2 0.326382 0.559835 0.670290
Si Si3 0.491050 0.938506 0.610366
Si Si4 0.294649 0.942592 0.870928
Si Si5 0.911155 0.438124 0.017534
Si Si6 0.936839 0.932583 0.250529
Si Si7 0.669214 0.061520 0.872639
O O1 0.111763 0.250000 0.517741
O O2 0.204119 0.976109 0.571668
O O3 0.000000 0.000000 0.500000
O O4 0.039366 0.032190 0.346009
O O5 0.341443 0.750000 0.682210
O O6 0.395851 0.495509 0.620993
O O7 0.352358 0.503488 0.803313
O O8 0.476798 0.750000 0.592027
O O9 0.500000 0.000000 0.500000
O O10 0.592062 0.975062 0.745530
O O11 0.294075 0.750000 0.873333
O O12 0.173750 0.998968 0.778988
O O13 0.332807 0.994192 0.008775
O O14 0.925455 0.250000 0.051327
O O15 0.788893 0.454310 0.909073
O O16 0.922933 0.548555 0.122648
O O17 0.000000 0.500000 0.000000
O O18 0.950303 0.750000 0.290295
O O19 0.643362 0.250000 0.857100
#
# Coordination Sequence:
#
# PCOD9165221 Si02
#       7
#     4   4   4   4   4   4   4
#     4  12  23  36  57  88 124 162 200 244 302 364
#     4  10  22  40  62  89 122 161 207 255 308 368
#     4  11  25  44  65  88 118 161 209 259 306 359
#     4   9  18  36  61  88 121 155 192 244 306 367
#     4  10  21  38  60  88 121 159 202 251 303 359
#     4  11  21  34  55  85 121 161 200 244 298 359
#     4   9  20  39  63  89 120 158 194 244 310 366
#
# _framework density 20.015678999999999
#
# number of rings (size 3 to 8) (size 9 to 14) (size 15 to 20)
#    0.000    1.714    1.429    4.286    0.000    5.714 
#    0.000    1.429    0.000    0.000    0.000    0.000 
#    0.000    0.000    0.000    0.000    0.000    0.000 
#
# Total GULP energy -156102.695928 kJ/mol
# GULP energy per Si atom -5575.096283 kJ/mol
# Density = 1.997012 g / cm^3
# Si number density = 20.015679 Si / 1000 Ang^3
#
#
#
# Elastic Constant Matrix: (Units=GPa)
#
#
# Indices 1 2 3 4 5 6 
#
# 1 124.7937 16.5664 64.5286 0.0000 -28.1316 0.0000
# 2 16.5664 26.4263 9.7424 0.0000 -12.0225 0.0000
# 3 64.5286 9.7424 105.8772 0.0000 -14.7308 0.0000
# 4 0.0000 0.0000 0.0000 33.9806 0.0000 2.4568
# 5 -28.1316 -12.0225 -14.7308 0.0000 24.1410 0.0000
# 6 0.0000 0.0000 0.0000 2.4568 0.0000 23.8045
#
#
#
# Elastic Compliance Matrix: (Units=1/GPa)
#
#
# Indices 1 2 3 4 5 6 
#
# 1 0.014542 -0.000985 -0.007084 0.000000 0.012133 0.000000
# 2 -0.000985 0.049136 -0.000739 0.000000 0.022872 0.000000
# 3 -0.007084 -0.000739 0.013803 0.000000 -0.000201 0.000000
# 4 0.000000 0.000000 0.000000 0.029650 0.000000 -0.003060
# 5 0.012133 0.022872 -0.000201 0.000000 0.066829 0.000000
# 6 0.000000 0.000000 0.000000 -0.003060 0.000000 0.042325
#
#
# Mechanical properties :
#
#
# Convention : Reuss Voigt Hill
#
# Bulk Modulus (GPa) = 16.70431 48.75245 32.72838
# Shear Modulus (GPa) = 19.69622 27.46922 23.58272
#
# Velocity S-wave (km/s) = 3.14034 3.70859 3.43623
# Velocity P-wave (km/s) = 4.63818 6.53821 5.66837
#
# Compressibility (1/GPa) = 0.05986480
#
# Stress axis : x y z
#
# Youngs Moduli (GPa) = 68.76569 20.35157 72.45041
#
# Poissons Ratio (x) = 0.02004 0.51326
# Poissons Ratio (y) = 0.06773 0.05353
# Poissons Ratio (z) = 0.48716 0.01504
#
# Static dielectric constant tensor:
#      x y z
#    x 1.782440 0.000000 -0.122350 
#    y 0.000000 1.713000 0.000000 
#    z -0.122350 0.000000 1.988910 
# 
# From -- ./inp_files/38458.got.cif
#   From: 2010.05.17/outbox.cif.g08.bks.cpg/sg11_20_cif.got.tgz:38458.got - 2010.06.03 12:22:45.
