data_PCOD9165929
_publ_section_title
;
Structure prediction by ZEFSAII (Michael W. Deem and Ramdas Pophale) SiO2 
 PCOD9165929
Probable space group: P 21/M
;
_chemical_formula_sum "Si O2"
_cell_formula_units_Z 24
_cell_length_a 9.880726
_cell_length_b 18.170587
_cell_length_c 11.203568
_cell_angle_alpha 90.000000
_cell_angle_beta 150.424603
_cell_angle_gamma 90.000000
_cell_volume 992.799535
_symmetry_space_group_name_H-M "P 21/M"
_symmetry_group_IT_number 11
_symmetry_cell_setting 'monoclinic'
loop_
_space_group_symop_operation_xyz
x,y,z
-x,1/2+y,-z
-x,-y,-z
x,1/2-y,z
loop_
_atom_site_type_symbol
_atom_site_label
_atom_site_fract_x
_atom_site_fract_y
_atom_site_fract_z
Si Si1 0.951951 0.164843 0.235637
Si Si2 0.585755 0.560508 0.817432
Si Si3 0.359910 0.670977 0.487488
Si Si4 0.209967 0.059790 0.606924
Si Si5 0.616305 0.665969 0.062280
Si Si6 0.985888 0.632486 0.978256
O O1 0.055113 0.250000 0.316248
O O2 0.144296 0.100018 0.432373
O O3 0.694285 0.163266 0.127445
O O4 0.871877 0.142195 0.039834
O O5 0.336094 0.597726 0.550089
O O6 0.488391 0.486287 0.803213
O O7 0.647780 0.620213 0.966423
O O8 0.848070 0.559646 0.932286
O O9 0.286550 0.750000 0.487534
O O10 0.190406 0.662706 0.236063
O O11 0.690950 0.672128 0.727390
O O12 0.220099 0.125559 0.708660
O O13 0.000000 0.000000 0.500000
O O14 0.692227 0.750000 0.102659
#
# Coordination Sequence:
#
# PCOD9165929 Si02
#       6
#     4   4   4   4   4   4
#     4  11  25  45  71 105 141 190 243 300 366 439
#     4  10  25  43  70 104 141 190 240 298 363 439
#     4  10  21  41  69 103 140 185 238 300 360 428
#     4  12  26  46  71 102 149 192 240 304 371 436
#     4  11  25  44  71 104 140 189 246 300 362 439
#     4  10  25  42  72 105 144 187 245 299 365 432
#
# _framework density 24.174066
#
# number of rings (size 3 to 8) (size 9 to 14) (size 15 to 20)
#    1.000    0.333    1.667    3.000    4.667    0.667 
#    0.000    1.667    0.000    0.000    0.000    0.000 
#    0.000    0.000    0.000    0.000    0.000    0.000 
#
# Total GULP energy -133936.718476 kJ/mol
# GULP energy per Si atom -5580.696603 kJ/mol
# Density = 2.411904 g / cm^3
# Si number density = 24.174066 Si / 1000 Ang^3
#
#
#
# Elastic Constant Matrix: (Units=GPa)
#
#
# Indices 1 2 3 4 5 6 
#
# 1 83.4729 10.1938 0.4205 0.0000 -0.4456 0.0000
# 2 10.1938 462.4310 113.4099 0.0000 -66.3374 0.0000
# 3 0.4205 113.4099 134.2199 0.0000 -33.6895 0.0000
# 4 0.0000 0.0000 0.0000 19.0427 0.0000 -13.0425
# 5 -0.4456 -66.3374 -33.6895 0.0000 53.9380 0.0000
# 6 0.0000 0.0000 0.0000 -13.0425 0.0000 6.9458
#
#
#
# Elastic Compliance Matrix: (Units=1/GPa)
#
#
# Indices 1 2 3 4 5 6 
#
# 1 0.012020 -0.000343 0.000203 0.000000 -0.000196 0.000000
# 2 -0.000343 0.002994 -0.001904 0.000000 0.002491 0.000000
# 3 0.000203 -0.001904 0.010046 0.000000 0.003935 0.000000
# 4 0.000000 0.000000 0.000000 -0.183550 0.000000 -0.344664
# 5 -0.000196 0.002491 0.003935 0.000000 0.024059 0.000000
# 6 0.000000 0.000000 0.000000 -0.344664 0.000000 -0.503225
#
#
# Mechanical properties :
#
#
# Convention : Reuss Voigt Hill
#
# Bulk Modulus (GPa) = 47.68082 103.13024 75.40553
# Shear Modulus (GPa) = -7.97985 53.05859 22.53937
#
# Velocity S-wave (km/s) = -1.81884 4.69001 3.05680
# Velocity P-wave (km/s) = 3.91866 8.49014 6.61205
#
# Compressibility (1/GPa) = 0.02097279
#
# Stress axis : x y z
#
# Youngs Moduli (GPa) = 83.19657 333.97652 99.54087
#
# Poissons Ratio (x) = 0.11448 -0.02020
# Poissons Ratio (y) = 0.02852 0.18950
# Poissons Ratio (z) = -0.01688 0.63581
#
# Static dielectric constant tensor:
#      x y z
#    x 1.957570 0.000000 0.026880 
#    y 0.000000 1.921020 0.000000 
#    z 0.026880 0.000000 1.943170 
# 
# From -- ./inp_files/36171.got.cif
#   From: 2010.05.17/outbox.cif.g08.bks.cpg/sg11_19_cif.got.tgz:36171.got - 2010.06.03 12:22:45.
