data_PCOD9165661
_publ_section_title
;
Structure prediction by ZEFSAII (Michael W. Deem and Ramdas Pophale) SiO2 
 PCOD9165661
Probable space group: P 21/M
;
_chemical_formula_sum "Si O2"
_cell_formula_units_Z 28
_cell_length_a 4.845516
_cell_length_b 27.526531
_cell_length_c 10.031550
_cell_angle_alpha 90.000000
_cell_angle_beta 114.549731
_cell_angle_gamma 90.000000
_cell_volume 1217.055772
_symmetry_space_group_name_H-M "P 21/M"
_symmetry_group_IT_number 11
_symmetry_cell_setting 'monoclinic'
loop_
_space_group_symop_operation_xyz
x,y,z
-x,1/2+y,-z
-x,-y,-z
x,1/2-y,z
loop_
_atom_site_type_symbol
_atom_site_label
_atom_site_fract_x
_atom_site_fract_y
_atom_site_fract_z
Si Si1 0.610911 0.305993 0.840179
Si Si2 0.228133 0.038201 0.923923
Si Si3 0.644968 0.901864 0.325009
Si Si4 0.133504 0.931263 0.638940
Si Si5 0.768168 0.018682 0.650625
Si Si6 0.218087 0.101045 0.184345
Si Si7 0.710043 0.805709 0.956042
O O1 0.524702 0.250000 0.794136
O O2 0.436958 0.346458 0.721780
O O3 0.543693 0.314903 0.983512
O O4 0.972111 0.311085 0.900548
O O5 0.299152 0.070292 0.804548
O O6 0.909033 0.011002 0.828473
O O7 0.177695 0.075571 0.033663
O O8 0.500000 0.000000 0.000000
O O9 0.933894 0.909863 0.479184
O O10 0.366174 0.927724 0.345298
O O11 0.045788 0.905925 0.761264
O O12 0.487763 0.923831 0.690310
O O13 0.046925 0.987730 0.639972
O O14 0.500000 0.000000 0.500000
O O15 0.290029 0.156537 0.163749
O O16 0.689828 0.750000 0.906611
#
# Coordination Sequence:
#
# PCOD9165661 Si02
#       7
#     4   4   4   4   4   4   4
#     4  10  21  40  67 100 127 165 222 280 332 396
#     4  12  24  39  69  95 129 167 236 275 322 390
#     4  11  25  42  66  95 131 186 218 277 340 400
#     4  11  27  42  64  94 142 180 214 272 338 408
#     4  10  24  41  63  93 137 180 221 268 338 400
#     4  12  24  43  65  99 133 170 228 278 332 392
#     4  10  21  39  67  97 129 166 216 282 341 389
#
# _framework density 23.006342
#
# number of rings (size 3 to 8) (size 9 to 14) (size 15 to 20)
#    0.000    1.143    2.857    2.571    6.000    2.286 
#    0.000    1.429    0.000    0.000    0.000    0.000 
#    0.000    0.000    0.000    0.000    0.000    0.000 
#
# Total GULP energy -156334.492550 kJ/mol
# GULP energy per Si atom -5583.374734 kJ/mol
# Density = 2.295398 g / cm^3
# Si number density = 23.006342 Si / 1000 Ang^3
#
#
#
# Elastic Constant Matrix: (Units=GPa)
#
#
# Indices 1 2 3 4 5 6 
#
# 1 67.6006 10.5090 16.3127 0.0000 2.2639 0.0000
# 2 10.5090 130.1860 50.8290 0.0000 -10.5313 0.0000
# 3 16.3127 50.8290 132.6840 0.0000 4.0081 0.0000
# 4 0.0000 0.0000 0.0000 43.9102 0.0000 -3.2026
# 5 2.2639 -10.5313 4.0081 0.0000 47.2286 0.0000
# 6 0.0000 0.0000 0.0000 -3.2026 0.0000 28.7526
#
#
#
# Elastic Compliance Matrix: (Units=1/GPa)
#
#
# Indices 1 2 3 4 5 6 
#
# 1 0.015309 -0.000670 -0.001603 0.000000 -0.000747 0.000000
# 2 -0.000670 0.009321 -0.003561 0.000000 0.002413 0.000000
# 3 -0.001603 -0.003561 0.009143 0.000000 -0.001493 0.000000
# 4 0.000000 0.000000 0.000000 0.022960 0.000000 0.002557
# 5 -0.000747 0.002413 -0.001493 0.000000 0.021874 0.000000
# 6 0.000000 0.000000 0.000000 0.002557 0.000000 0.035064
#
#
# Mechanical properties :
#
#
# Convention : Reuss Voigt Hill
#
# Bulk Modulus (GPa) = 45.24030 53.97465 49.60747
# Shear Modulus (GPa) = 37.67656 40.83292 39.25474
#
# Velocity S-wave (km/s) = 4.05119 4.21747 4.13517
# Velocity P-wave (km/s) = 6.44902 6.87225 6.66399
#
# Compressibility (1/GPa) = 0.02210418
#
# Stress axis : x y z
#
# Youngs Moduli (GPa) = 65.32198 107.28428 109.37227
#
# Poissons Ratio (x) = 0.07193 0.17529
# Poissons Ratio (y) = 0.04380 0.38950
# Poissons Ratio (z) = 0.10469 0.38206
#
# Static dielectric constant tensor:
#      x y z
#    x 1.966640 0.000000 -0.012090 
#    y 0.000000 1.916180 0.000000 
#    z -0.012090 0.000000 1.881240 
# 
# From -- ./inp_files/3350.got.cif
#   From: 2010.05.17/outbox.cif.g08.bks.cpg/sg11_2_cif.got.tgz:3350.got - 2010.06.03 12:22:45.
