data_PCOD9165825
_publ_section_title
;
Structure prediction by ZEFSAII (Michael W. Deem and Ramdas Pophale) SiO2 
 PCOD9165825
Probable space group: P 21/M
;
_chemical_formula_sum "Si O2"
_cell_formula_units_Z 32
_cell_length_a 16.333289
_cell_length_b 14.679405
_cell_length_c 23.723502
_cell_angle_alpha 90.000000
_cell_angle_beta 17.096634
_cell_angle_gamma 90.000000
_cell_volume 1672.187027
_symmetry_space_group_name_H-M "P 21/M"
_symmetry_group_IT_number 11
_symmetry_cell_setting 'monoclinic'
loop_
_space_group_symop_operation_xyz
x,y,z
-x,1/2+y,-z
-x,-y,-z
x,1/2-y,z
loop_
_atom_site_type_symbol
_atom_site_label
_atom_site_fract_x
_atom_site_fract_y
_atom_site_fract_z
Si Si1 0.743847 0.526429 0.708871
Si Si2 0.856397 0.853060 0.741480
Si Si3 0.741932 0.140449 0.031823
Si Si4 0.489256 0.645480 0.357236
Si Si5 0.599690 0.646012 0.027863
Si Si6 0.928599 0.347886 0.191196
Si Si7 0.818811 0.516258 0.064400
Si Si8 0.377072 0.404228 0.602552
O O1 0.843656 0.574311 0.700463
O O2 0.000000 0.500000 0.500000
O O3 0.510572 0.595616 0.837240
O O4 0.594737 0.431066 0.819557
O O5 0.809073 0.750000 0.750538
O O6 0.645231 0.870202 0.931647
O O7 0.157349 0.853317 0.572707
O O8 0.717729 0.250000 0.053917
O O9 0.053880 0.118044 0.802204
O O10 0.729725 0.080456 0.097254
O O11 0.591283 0.750000 0.284990
O O12 0.582453 0.583386 0.243454
O O13 0.588883 0.608029 0.352324
O O14 0.498677 0.750000 0.102051
O O15 0.888614 0.639731 0.872580
O O16 0.011265 0.250000 0.111408
O O17 0.607321 0.343399 0.419972
O O18 0.009582 0.428714 0.095866
O O19 0.000000 0.500000 0.000000
O O20 0.500000 0.500000 0.500000
#
# Coordination Sequence:
#
# PCOD9165825 Si02
#       8
#     4   4   4   4   4   4   4   4
#     4  12  25  45  66  95 132 176 224 276 339 401
#     4  10  22  40  67  96 125 166 219 269 327 396
#     4  12  26  43  65  95 136 179 222 274 338 401
#     4  11  22  39  65  98 129 168 217 273 331 390
#     4  10  21  40  67  98 126 162 219 280 332 391
#     4  11  21  38  65  97 129 164 214 272 325 386
#     4  12  23  39  59  93 132 175 219 263 324 400
#     4  12  21  40  65  96 133 172 215 261 331 402
#
# _framework density 19.136614999999999
#
# number of rings (size 3 to 8) (size 9 to 14) (size 15 to 20)
#    0.000    0.750    5.000    3.000    0.000    1.500 
#    0.000    0.000    0.000    0.000    0.000    0.000 
#    0.000    0.000    0.000    0.000    0.000    0.000 
#
# Total GULP energy -178509.895020 kJ/mol
# GULP energy per Si atom -5578.434219 kJ/mol
# Density = 1.909306 g / cm^3
# Si number density = 19.136615 Si / 1000 Ang^3
#
#
#
# Elastic Constant Matrix: (Units=GPa)
#
#
# Indices 1 2 3 4 5 6 
#
# 1 87.4141 54.3246 28.4590 0.0000 -0.7336 0.0000
# 2 54.3246 177.5857 71.0008 0.0000 14.6245 0.0000
# 3 28.4590 71.0008 115.7818 0.0000 6.0401 0.0000
# 4 0.0000 0.0000 0.0000 18.2175 0.0000 11.5000
# 5 -0.7336 14.6245 6.0401 0.0000 28.0624 0.0000
# 6 0.0000 0.0000 0.0000 11.5000 0.0000 18.9076
#
#
#
# Elastic Compliance Matrix: (Units=1/GPa)
#
#
# Indices 1 2 3 4 5 6 
#
# 1 0.014438 -0.004200 -0.001120 0.000000 0.002807 0.000000
# 2 -0.004200 0.008929 -0.004242 0.000000 -0.003850 0.000000
# 3 -0.001120 -0.004242 0.011529 0.000000 -0.000300 0.000000
# 4 0.000000 0.000000 0.000000 0.089104 0.000000 -0.054195
# 5 0.002807 -0.003850 -0.000300 0.000000 0.037779 0.000000
# 6 0.000000 0.000000 0.000000 -0.054195 0.000000 0.085852
#
#
# Mechanical properties :
#
#
# Convention : Reuss Voigt Hill
#
# Bulk Modulus (GPa) = 63.40275 76.48337 69.94306
# Shear Modulus (GPa) = 18.38146 28.17064 23.27605
#
# Velocity S-wave (km/s) = 3.10262 3.84093 3.49135
# Velocity P-wave (km/s) = 6.78517 7.72814 7.27196
#
# Compressibility (1/GPa) = 0.01577219
#
# Stress axis : x y z
#
# Youngs Moduli (GPa) = 69.26075 111.99230 86.73544
#
# Poissons Ratio (x) = 0.47040 0.09711
# Poissons Ratio (y) = 0.29092 0.36796
# Poissons Ratio (z) = 0.07754 0.47511
#
# Static dielectric constant tensor:
#      x y z
#    x 1.651690 0.000000 -0.014110 
#    y 0.000000 1.732680 0.000000 
#    z -0.014110 0.000000 1.690950 
# 
# From -- ./inp_files/65750.got.cif
#   From: 2010.05.17/outbox.cif.g08.bks.cpg/sg11_33_cif.got.tgz:65750.got - 2010.06.03 12:22:45.
