data_PCOD9165566
_publ_section_title
;
Structure prediction by ZEFSAII (Michael W. Deem and Ramdas Pophale) SiO2 
 PCOD9165566
Probable space group: P 21/M
;
_chemical_formula_sum "Si O2"
_cell_formula_units_Z 26
_cell_length_a 24.504103
_cell_length_b 7.782145
_cell_length_c 9.877000
_cell_angle_alpha 90.000000
_cell_angle_beta 146.118001
_cell_angle_gamma 90.000000
_cell_volume 1050.015793
_symmetry_space_group_name_H-M "P 21/M"
_symmetry_group_IT_number 11
_symmetry_cell_setting 'monoclinic'
loop_
_space_group_symop_operation_xyz
x,y,z
-x,1/2+y,-z
-x,-y,-z
x,1/2-y,z
loop_
_atom_site_type_symbol
_atom_site_label
_atom_site_fract_x
_atom_site_fract_y
_atom_site_fract_z
Si Si1 0.304991 0.563550 0.561172
Si Si2 0.700634 0.541947 0.940480
Si Si3 0.802851 0.947030 0.410762
Si Si4 0.012844 0.058416 0.874489
Si Si5 0.902865 0.542621 0.215588
Si Si6 0.556816 0.250000 0.949213
Si Si7 0.431278 0.549631 0.567878
O O1 0.255983 0.750000 0.441338
O O2 0.233872 0.456947 0.510905
O O3 0.345154 0.502991 0.500477
O O4 0.398246 0.604066 0.849440
O O5 0.689602 0.750000 0.913648
O O6 0.613894 0.464022 0.674533
O O7 0.719478 0.490030 0.135287
O O8 0.802308 0.488522 0.077389
O O9 0.825650 0.750000 0.423282
O O10 0.901600 0.050937 0.591148
O O11 0.049916 0.250000 0.961300
O O12 0.080269 0.970669 0.901067
O O13 0.000000 0.000000 0.000000
O O14 0.898317 0.750000 0.200672
O O15 0.000000 0.500000 0.500000
O O16 0.509753 0.403809 0.758755
O O17 0.460118 0.750000 0.653004
#
# Coordination Sequence:
#
# PCOD9165566 Si02
#       7
#     4   4   4   4   4   2   4
#     4   9  23  40  65  95 126 164 211 265 326 388
#     4  10  22  41  63  92 135 172 219 270 318 389
#     4  11  23  41  66  92 129 177 214 261 334 382
#     4  11  24  40  62  91 132 171 216 269 316 378
#     4  10  21  39  63  91 122 172 216 258 317 370
#     4  10  22  46  70  94 140 158 216 280 326 392
#     4  11  23  40  71 101 125 172 217 268 332 391
#
# _framework density 24.761533
#
# number of rings (size 3 to 8) (size 9 to 14) (size 15 to 20)
#    0.462    1.231    2.308    1.385    3.231    3.077 
#    0.000    0.769    0.000    0.000    0.000    0.000 
#    0.000    0.000    0.000    0.000    0.000    0.000 
#
# Total GULP energy -144779.375568 kJ/mol
# GULP energy per Si atom -5568.437522 kJ/mol
# Density = 2.470517 g / cm^3
# Si number density = 24.761533 Si / 1000 Ang^3
#
#
#
# Elastic Constant Matrix: (Units=GPa)
#
#
# Indices 1 2 3 4 5 6 
#
# 1 111.7905 11.3909 13.8663 0.0000 -19.9996 0.0000
# 2 11.3909 58.3469 11.6478 0.0000 4.6379 0.0000
# 3 13.8663 11.6478 85.8295 0.0000 -11.6733 0.0000
# 4 0.0000 0.0000 0.0000 37.5480 0.0000 -3.4995
# 5 -19.9996 4.6379 -11.6733 0.0000 37.3601 0.0000
# 6 0.0000 0.0000 0.0000 -3.4995 0.0000 1.2408
#
#
#
# Elastic Compliance Matrix: (Units=1/GPa)
#
#
# Indices 1 2 3 4 5 6 
#
# 1 0.010256 -0.002332 -0.000579 0.000000 0.005599 0.000000
# 2 -0.002332 0.018489 -0.002730 0.000000 -0.004397 0.000000
# 3 -0.000579 -0.002730 0.012657 0.000000 0.003984 0.000000
# 4 0.000000 0.000000 0.000000 0.036130 0.000000 0.101902
# 5 0.005599 -0.004397 0.003984 0.000000 0.031554 0.000000
# 6 0.000000 0.000000 0.000000 0.101902 0.000000 1.093369
#
#
# Mechanical properties :
#
#
# Convention : Reuss Voigt Hill
#
# Bulk Modulus (GPa) = 33.20095 36.64188 34.92141
# Shear Modulus (GPa) = 4.08571 29.83390 16.95980
#
# Velocity S-wave (km/s) = 1.28593 3.47486 2.61995
# Velocity P-wave (km/s) = 3.95502 5.56143 4.82554
#
# Compressibility (1/GPa) = 0.03011962
#
# Stress axis : x y z
#
# Youngs Moduli (GPa) = 97.50012 54.08725 79.00843
#
# Poissons Ratio (x) = 0.12612 0.04575
# Poissons Ratio (y) = 0.22735 0.21572
# Poissons Ratio (z) = 0.05646 0.14768
#
# Static dielectric constant tensor:
#      x y z
#    x 2.044080 0.000000 -0.003510 
#    y 0.000000 1.988470 0.000000 
#    z -0.003510 0.000000 1.979540 
# 
# From -- ./inp_files/28132.got.cif
#   From: 2010.05.17/outbox.cif.g08.bks.cpg/sg11_15_cif.got.tgz:28132.got - 2010.06.03 12:22:45.
