data_PCOD9165999
_publ_section_title
;
Structure prediction by ZEFSAII (Michael W. Deem and Ramdas Pophale) SiO2 
 PCOD9165999
Probable space group: P 21/M
;
_chemical_formula_sum "Si O2"
_cell_formula_units_Z 20
_cell_length_a 5.019397
_cell_length_b 19.147478
_cell_length_c 7.365530
_cell_angle_alpha 90.000000
_cell_angle_beta 79.752803
_cell_angle_gamma 90.000000
_cell_volume 696.600899
_symmetry_space_group_name_H-M "P 21/M"
_symmetry_group_IT_number 11
_symmetry_cell_setting 'monoclinic'
loop_
_space_group_symop_operation_xyz
x,y,z
-x,1/2+y,-z
-x,-y,-z
x,1/2-y,z
loop_
_atom_site_type_symbol
_atom_site_label
_atom_site_fract_x
_atom_site_fract_y
_atom_site_fract_z
Si Si1 0.132740 0.671523 0.475939
Si Si2 0.988484 0.060004 0.794240
Si Si3 0.415008 0.672469 0.794248
Si Si4 0.497324 0.521378 0.711432
Si Si5 0.379869 0.327192 0.850393
O O1 0.036661 0.750000 0.438027
O O2 0.161219 0.668568 0.688779
O O3 0.439167 0.667477 0.353436
O O4 0.994436 0.605807 0.396176
O O5 0.146094 0.116169 0.898982
O O6 0.184734 0.993645 0.795407
O O7 0.690426 0.027722 0.808723
O O8 0.531827 0.750000 0.742182
O O9 0.568822 0.601644 0.727788
O O10 0.401921 0.668341 0.012935
O O11 0.500000 0.500000 0.500000
O O12 0.259364 0.250000 0.877190
#
# Coordination Sequence:
#
# PCOD9165999 Si02
#       5
#     4   4   4   4   4
#     4  10  21  43  71 102 140 188 237 291 359 429
#     4  12  23  44  72 102 142 190 232 296 364 415
#     4  10  23  46  71 102 141 189 239 293 361 432
#     4  12  25  44  73 107 145 187 241 302 357 429
#     4  10  22  44  71 104 144 188 242 297 350 428
#
# _framework density 28.710846
#
# number of rings (size 3 to 8) (size 9 to 14) (size 15 to 20)
#    0.000    1.200    4.000    1.200    0.000    1.600 
#    3.600    2.000    0.000    0.000    0.000    0.000 
#    0.000    0.000    0.000    0.000    0.000    0.000 
#
# Total GULP energy -111852.164607 kJ/mol
# GULP energy per Si atom -5592.608230 kJ/mol
# Density = 2.864550 g / cm^3
# Si number density = 28.710846 Si / 1000 Ang^3
#
#
#
# Elastic Constant Matrix: (Units=GPa)
#
#
# Indices 1 2 3 4 5 6 
#
# 1 142.1877 43.2191 29.5106 0.0000 27.0567 0.0000
# 2 43.2191 218.1913 30.0431 0.0000 10.0975 0.0000
# 3 29.5106 30.0431 152.8115 0.0000 39.8283 0.0000
# 4 0.0000 0.0000 0.0000 49.6038 0.0000 15.0183
# 5 27.0567 10.0975 39.8283 0.0000 42.7641 0.0000
# 6 0.0000 0.0000 0.0000 15.0183 0.0000 9.3959
#
#
#
# Elastic Compliance Matrix: (Units=1/GPa)
#
#
# Indices 1 2 3 4 5 6 
#
# 1 0.008419 -0.001431 -0.000058 0.000000 -0.004934 0.000000
# 2 -0.001431 0.004957 -0.000831 0.000000 0.000509 0.000000
# 3 -0.000058 -0.000831 0.008792 0.000000 -0.007955 0.000000
# 4 0.000000 0.000000 0.000000 0.039064 0.000000 -0.062440
# 5 -0.004934 0.000509 -0.007955 0.000000 0.033795 0.000000
# 6 0.000000 0.000000 0.000000 -0.062440 0.000000 0.206233
#
#
# Mechanical properties :
#
#
# Convention : Reuss Voigt Hill
#
# Bulk Modulus (GPa) = 57.05283 79.85958 68.45621
# Shear Modulus (GPa) = 16.03874 47.71395 31.87635
#
# Velocity S-wave (km/s) = 2.36610 4.08104 3.33566
# Velocity P-wave (km/s) = 5.23252 7.07686 6.22339
#
# Compressibility (1/GPa) = 0.01752761
#
# Stress axis : x y z
#
# Youngs Moduli (GPa) = 118.77800 201.71492 113.73847
#
# Poissons Ratio (x) = 0.28870 0.00664
# Poissons Ratio (y) = 0.17000 0.09450
# Poissons Ratio (z) = 0.00694 0.16760
#
# Static dielectric constant tensor:
#      x y z
#    x 2.231610 0.000000 -0.094290 
#    y 0.000000 2.199220 0.000000 
#    z -0.094290 0.000000 2.253970 
# 
# From -- ./inp_files/2392.got.cif
#   From: 2010.05.17/outbox.cif.g08.bks.cpg/sg11_2_cif.got.tgz:2392.got - 2010.06.03 12:22:45.
