data_PCOD9165678
_publ_section_title
;
Structure prediction by ZEFSAII (Michael W. Deem and Ramdas Pophale) SiO2 
 PCOD9165678
Probable space group: P 21/M
;
_chemical_formula_sum "Si O2"
_cell_formula_units_Z 20
_cell_length_a 10.164249
_cell_length_b 11.749300
_cell_length_c 12.892836
_cell_angle_alpha 90.000000
_cell_angle_beta 36.725607
_cell_angle_gamma 90.000000
_cell_volume 920.714306
_symmetry_space_group_name_H-M "P 21/M"
_symmetry_group_IT_number 11
_symmetry_cell_setting 'monoclinic'
loop_
_space_group_symop_operation_xyz
x,y,z
-x,1/2+y,-z
-x,-y,-z
x,1/2-y,z
loop_
_atom_site_type_symbol
_atom_site_label
_atom_site_fract_x
_atom_site_fract_y
_atom_site_fract_z
Si Si1 0.246419 0.918397 0.770766
Si Si2 0.110703 0.122418 0.403370
Si Si3 0.285387 0.123665 0.624980
Si Si4 0.061058 0.049675 0.209437
Si Si5 0.373479 0.624378 0.918144
O O1 0.467687 0.875369 0.574305
O O2 0.037312 0.890103 0.831185
O O3 0.247164 0.881817 0.887974
O O4 0.273111 0.055316 0.740926
O O5 0.035302 0.250000 0.489288
O O6 0.368522 0.112738 0.267738
O O7 0.091256 0.124206 0.290649
O O8 0.000000 0.000000 0.500000
O O9 0.200754 0.250000 0.686012
O O10 0.130316 0.045793 0.651098
O O11 0.277288 0.977310 0.046806
O O12 0.340501 0.750000 0.985689
#
# Coordination Sequence:
#
# PCOD9165678 Si02
#       5
#     4   4   4   4   4
#     4   9  20  35  57  92 121 154 210 250 304 368
#     4  11  26  45  66  93 126 166 214 262 316 376
#     4   9  18  34  58  86 121 163 206 252 309 365
#     4  10  21  40  60  91 120 162 209 258 306 371
#     4  11  22  39  63  91 127 167 206 258 322 378
#
# _framework density 21.722265
#
# number of rings (size 3 to 8) (size 9 to 14) (size 15 to 20)
#    1.200    0.800    0.000    3.600    0.000    4.800 
#    0.000    2.000    0.000    0.000    0.000    0.000 
#    0.000    0.000    0.000    0.000    0.000    0.000 
#
# Total GULP energy -111424.282086 kJ/mol
# GULP energy per Si atom -5571.214104 kJ/mol
# Density = 2.167282 g / cm^3
# Si number density = 21.722265 Si / 1000 Ang^3
#
#
#
# Elastic Constant Matrix: (Units=GPa)
#
#
# Indices 1 2 3 4 5 6 
#
# 1 77.7047 28.2720 2.5275 0.0000 -4.6860 0.0000
# 2 28.2720 143.4520 33.9312 0.0000 -4.2341 0.0000
# 3 2.5275 33.9312 49.5584 0.0000 -15.5175 0.0000
# 4 0.0000 0.0000 0.0000 10.4973 0.0000 8.7161
# 5 -4.6860 -4.2341 -15.5175 0.0000 25.0259 0.0000
# 6 0.0000 0.0000 0.0000 8.7161 0.0000 -38.8202
#
#
#
# Elastic Compliance Matrix: (Units=1/GPa)
#
#
# Indices 1 2 3 4 5 6 
#
# 1 0.014225 -0.003343 0.002755 0.000000 0.003806 0.000000
# 2 -0.003343 0.009246 -0.007280 0.000000 -0.003575 0.000000
# 3 0.002755 -0.007280 0.030772 0.000000 0.018365 0.000000
# 4 0.000000 0.000000 0.000000 0.080294 0.000000 0.018028
# 5 0.003806 -0.003575 0.018365 0.000000 0.051453 0.000000
# 6 0.000000 0.000000 0.000000 0.018028 0.000000 -0.021712
#
#
# Mechanical properties :
#
#
# Convention : Reuss Voigt Hill
#
# Bulk Modulus (GPa) = 25.96803 44.46408 35.21605
# Shear Modulus (GPa) = 25.92689 13.07290 19.49989
#
# Velocity S-wave (km/s) = 3.45855 2.45586 2.99940
# Velocity P-wave (km/s) = 5.28481 5.34373 5.31435
#
# Compressibility (1/GPa) = 0.03850889
#
# Stress axis : x y z
#
# Youngs Moduli (GPa) = 70.29660 108.15321 32.49702
#
# Poissons Ratio (x) = 0.36155 -0.08953
# Poissons Ratio (y) = 0.23500 0.23656
# Poissons Ratio (z) = -0.19368 0.78731
#
# Static dielectric constant tensor:
#      x y z
#    x 1.806420 0.000000 0.008170 
#    y 0.000000 1.838240 0.000000 
#    z 0.008170 0.000000 1.795210 
# 
# From -- ./inp_files/49995.got.cif
#   From: 2010.05.17/outbox.cif.g08.bks.cpg/sg11_25_cif.got.tgz:49995.got - 2010.06.03 12:22:45.
