data_PCOD9165484
_publ_section_title
;
Structure prediction by ZEFSAII (Michael W. Deem and Ramdas Pophale) SiO2 
 PCOD9165484
Probable space group: P 21/M
;
_chemical_formula_sum "Si O2"
_cell_formula_units_Z 28
_cell_length_a 11.113054
_cell_length_b 13.593200
_cell_length_c 9.100116
_cell_angle_alpha 90.000000
_cell_angle_beta 57.479438
_cell_angle_gamma 90.000000
_cell_volume 1159.129397
_symmetry_space_group_name_H-M "P 21/M"
_symmetry_group_IT_number 11
_symmetry_cell_setting 'monoclinic'
loop_
_space_group_symop_operation_xyz
x,y,z
-x,1/2+y,-z
-x,-y,-z
x,1/2-y,z
loop_
_atom_site_type_symbol
_atom_site_label
_atom_site_fract_x
_atom_site_fract_y
_atom_site_fract_z
Si Si1 0.971849 0.368313 0.662442
Si Si2 0.178479 0.134690 0.002738
Si Si3 0.417208 0.368728 0.074387
Si Si4 0.286688 0.508389 0.709197
Si Si5 0.308472 0.132801 0.466795
Si Si6 0.896545 0.364788 0.386110
Si Si7 0.701775 0.368920 0.016671
O O1 0.959970 0.250000 0.666046
O O2 0.922520 0.402186 0.533693
O O3 0.858077 0.400509 0.859093
O O4 0.137636 0.386250 0.582083
O O5 0.189849 0.250000 0.949573
O O6 0.319342 0.103513 0.002140
O O7 0.044918 0.128464 0.199284
O O8 0.173469 0.062454 0.868810
O O9 0.407198 0.250000 0.080858
O O10 0.356601 0.398873 0.272778
O O11 0.584157 0.393790 0.969399
O O12 0.375581 0.428456 0.557026
O O13 0.219016 0.578167 0.631375
O O14 0.339438 0.579355 0.804348
O O15 0.333382 0.250000 0.465728
O O16 0.857758 0.250000 0.419740
O O17 0.700380 0.250000 0.037701
#
# Coordination Sequence:
#
# PCOD9165484 Si02
#       7
#     4   4   4   4   4   4   4
#     4   9  19  38  62  88 117 154 203 253 289 342
#     4  10  21  39  62  89 118 156 205 251 292 350
#     4   9  19  42  67  84 115 165 207 245 291 347
#     4  12  25  35  57  93 132 156 191 242 318 356
#     4  10  21  39  63  89 119 158 205 249 292 352
#     4  10  21  39  61  89 121 156 200 249 299 354
#     4  10  23  41  62  89 122 159 201 246 300 358
#
# _framework density 24.156061000000001
#
# number of rings (size 3 to 8) (size 9 to 14) (size 15 to 20)
#    0.000    2.000    1.429    1.286    4.000    2.857 
#    0.000    1.429    0.000    5.143    0.000    0.000 
#    0.000    0.000    0.000    0.000    0.000    0.000 
#
# Total GULP energy -156635.211749 kJ/mol
# GULP energy per Si atom -5594.114705 kJ/mol
# Density = 2.410108 g / cm^3
# Si number density = 24.156061 Si / 1000 Ang^3
#
#
#
# Elastic Constant Matrix: (Units=GPa)
#
#
# Indices 1 2 3 4 5 6 
#
# 1 45.8156 17.3908 7.2074 0.0000 6.2563 0.0000
# 2 17.3908 98.0528 23.0134 0.0000 11.3206 0.0000
# 3 7.2074 23.0134 87.9915 0.0000 7.0385 0.0000
# 4 0.0000 0.0000 0.0000 36.5767 0.0000 15.0826
# 5 6.2563 11.3206 7.0385 0.0000 39.0222 0.0000
# 6 0.0000 0.0000 0.0000 15.0826 0.0000 27.4467
#
#
#
# Elastic Compliance Matrix: (Units=1/GPa)
#
#
# Indices 1 2 3 4 5 6 
#
# 1 0.023715 -0.003729 -0.000760 0.000000 -0.002583 0.000000
# 2 -0.003729 0.011735 -0.002576 0.000000 -0.002342 0.000000
# 3 -0.000760 -0.002576 0.012207 0.000000 -0.001333 0.000000
# 4 0.000000 0.000000 0.000000 0.035350 0.000000 -0.019426
# 5 -0.002583 -0.002342 -0.001333 0.000000 0.026960 0.000000
# 6 0.000000 0.000000 0.000000 -0.019426 0.000000 0.047109
#
#
# Mechanical properties :
#
#
# Convention : Reuss Voigt Hill
#
# Bulk Modulus (GPa) = 29.82879 36.34255 33.08567
# Shear Modulus (GPa) = 27.41469 32.89233 30.15351
#
# Velocity S-wave (km/s) = 3.37248 3.69407 3.53693
# Velocity P-wave (km/s) = 5.24786 5.76823 5.51418
#
# Compressibility (1/GPa) = 0.03352466
#
# Stress axis : x y z
#
# Youngs Moduli (GPa) = 42.16817 85.21446 81.91719
#
# Poissons Ratio (x) = 0.31779 0.06230
# Poissons Ratio (y) = 0.15726 0.21105
# Poissons Ratio (z) = 0.03207 0.21955
#
# Static dielectric constant tensor:
#      x y z
#    x 1.917570 0.000000 -0.020130 
#    y 0.000000 1.980420 0.000000 
#    z -0.020130 0.000000 1.880020 
# 
# From -- ./inp_files/17909.got.cif
#   From: 2010.05.17/outbox.cif.g08.bks.cpg/sg11_9_cif.got.tgz:17909.got - 2010.06.03 12:22:45.
