data_PCOD9165247
_publ_section_title
;
Structure prediction by ZEFSAII (Michael W. Deem and Ramdas Pophale) SiO2 
 PCOD9165247
Probable space group: P 21/M
;
_chemical_formula_sum "Si O2"
_cell_formula_units_Z 32
_cell_length_a 11.986061
_cell_length_b 7.862422
_cell_length_c 15.372955
_cell_angle_alpha 90.000000
_cell_angle_beta 86.450295
_cell_angle_gamma 90.000000
_cell_volume 1445.959666
_symmetry_space_group_name_H-M "P 21/M"
_symmetry_group_IT_number 11
_symmetry_cell_setting 'monoclinic'
loop_
_space_group_symop_operation_xyz
x,y,z
-x,1/2+y,-z
-x,-y,-z
x,1/2-y,z
loop_
_atom_site_type_symbol
_atom_site_label
_atom_site_fract_x
_atom_site_fract_y
_atom_site_fract_z
Si Si1 0.243070 0.552917 0.480491
Si Si2 0.475334 0.456928 0.215394
Si Si3 0.070160 0.052005 0.360001
Si Si4 0.285938 0.957948 0.848517
Si Si5 0.778059 0.452243 0.807359
Si Si6 0.535450 0.560757 0.593173
Si Si7 0.871939 0.045040 0.987458
Si Si8 0.177939 0.542529 0.671998
O O1 0.278070 0.750000 0.474998
O O2 0.122870 0.537982 0.441287
O O3 0.330446 0.446818 0.419969
O O4 0.240964 0.493730 0.580240
O O5 0.471361 0.250000 0.218413
O O6 0.583879 0.507659 0.154979
O O7 0.354537 0.515694 0.189428
O O8 0.494335 0.522881 0.313651
O O9 0.057084 0.250000 0.382689
O O10 0.950166 0.986489 0.333697
O O11 0.157155 0.032970 0.276724
O O12 0.283358 0.750000 0.848501
O O13 0.233127 0.014055 0.758998
O O14 0.209834 0.017074 0.931958
O O15 0.796096 0.250000 0.799585
O O16 0.830583 0.515748 0.895301
O O17 0.500000 0.500000 0.500000
O O18 0.490035 0.750000 0.602180
O O19 0.863737 0.250000 0.986892
O O20 0.000000 0.000000 0.000000
O O21 0.178338 0.750000 0.673229
#
# Coordination Sequence:
#
# PCOD9165247 Si02
#       8
#     4   4   4   4   4   4   4   4
#     4  11  21  35  55  83 117 152 192 244 300 350
#     4  10  21  38  61  85 114 155 202 241 286 354
#     4  11  21  36  58  84 114 155 203 241 289 358
#     4   9  18  37  61  85 114 151 194 241 290 348
#     4  11  23  38  58  87 122 156 194 246 302 348
#     4  11  22  36  56  83 115 156 204 247 291 348
#     4  10  22  40  64  92 120 153 194 240 296 355
#     4   9  19  34  56  84 114 151 194 243 297 352
#
# _framework density 22.13063
#
# number of rings (size 3 to 8) (size 9 to 14) (size 15 to 20)
#    0.000    1.750    1.250    3.375    0.000    5.000 
#    0.000    2.500    0.000    4.500    0.000    0.000 
#    0.000    0.000    0.000    0.000    0.000    0.000 
#
# Total GULP energy -178839.525258 kJ/mol
# GULP energy per Si atom -5588.735164 kJ/mol
# Density = 2.208026 g / cm^3
# Si number density = 22.130630 Si / 1000 Ang^3
#
#
#
# Elastic Constant Matrix: (Units=GPa)
#
#
# Indices 1 2 3 4 5 6 
#
# 1 95.0263 -8.2165 23.5919 0.0000 -3.5373 0.0000
# 2 -8.2165 31.0268 0.9535 0.0000 2.6777 0.0000
# 3 23.5919 0.9535 113.5508 0.0000 2.4509 0.0000
# 4 0.0000 0.0000 0.0000 10.5486 0.0000 3.9699
# 5 -3.5373 2.6777 2.4509 0.0000 40.5464 0.0000
# 6 0.0000 0.0000 0.0000 3.9699 0.0000 24.0572
#
#
#
# Elastic Compliance Matrix: (Units=1/GPa)
#
#
# Indices 1 2 3 4 5 6 
#
# 1 0.011420 0.003017 -0.002418 0.000000 0.000943 0.000000
# 2 0.003017 0.033218 -0.000865 0.000000 -0.001878 0.000000
# 3 -0.002418 -0.000865 0.009332 0.000000 -0.000718 0.000000
# 4 0.000000 0.000000 0.000000 0.101077 0.000000 -0.016680
# 5 0.000943 -0.001878 -0.000718 0.000000 0.024913 0.000000
# 6 0.000000 0.000000 0.000000 -0.016680 0.000000 0.044320
#
#
# Mechanical properties :
#
#
# Convention : Reuss Voigt Hill
#
# Bulk Modulus (GPa) = 18.71379 30.25130 24.48254
# Shear Modulus (GPa) = 20.60800 29.91546 25.26173
#
# Velocity S-wave (km/s) = 3.05486 3.68063 3.38225
# Velocity P-wave (km/s) = 4.57355 5.63576 5.13221
#
# Compressibility (1/GPa) = 0.05343654
#
# Stress axis : x y z
#
# Youngs Moduli (GPa) = 87.56741 30.10428 107.16004
#
# Poissons Ratio (x) = -0.09083 0.25915
# Poissons Ratio (y) = -0.26420 0.09272
# Poissons Ratio (z) = 0.21177 0.02605
#
# Static dielectric constant tensor:
#      x y z
#    x 1.829140 0.000000 0.005630 
#    y 0.000000 1.474820 0.000000 
#    z 0.005630 0.000000 1.796190 
# 
# From -- ./inp_files/49292.got.cif
#   From: 2010.05.17/outbox.cif.g08.bks.cpg/sg11_25_cif.got.tgz:49292.got - 2010.06.03 12:22:45.
