data_PCOD9165090
_publ_section_title
;
Structure prediction by ZEFSAII (Michael W. Deem and Ramdas Pophale) SiO2 
 PCOD9165090
Probable space group: P 21/M
;
_chemical_formula_sum "Si O2"
_cell_formula_units_Z 32
_cell_length_a 26.293096
_cell_length_b 7.567943
_cell_length_c 19.917620
_cell_angle_alpha 90.000000
_cell_angle_beta 18.092796
_cell_angle_gamma 90.000000
_cell_volume 1230.830435
_symmetry_space_group_name_H-M "P 21/M"
_symmetry_group_IT_number 11
_symmetry_cell_setting 'monoclinic'
loop_
_space_group_symop_operation_xyz
x,y,z
-x,1/2+y,-z
-x,-y,-z
x,1/2-y,z
loop_
_atom_site_type_symbol
_atom_site_label
_atom_site_fract_x
_atom_site_fract_y
_atom_site_fract_z
Si Si1 0.832141 0.539191 0.172820
Si Si2 0.372069 0.551789 0.390632
Si Si3 0.518894 0.461886 0.397019
Si Si4 0.965609 0.461632 0.198556
Si Si5 0.269708 0.458805 0.082420
Si Si6 0.675031 0.954231 0.697890
Si Si7 0.703680 0.965576 0.804910
Si Si8 0.842893 0.459393 0.915900
O O1 0.814918 0.750000 0.192352
O O2 0.653534 0.472453 0.418167
O O3 0.878041 0.473882 0.040086
O O4 0.000000 0.500000 0.000000
O O5 0.385663 0.750000 0.400702
O O6 0.551532 0.465450 0.165224
O O7 0.324576 0.562206 0.370965
O O8 0.200894 0.462460 0.626144
O O9 0.500000 0.500000 0.500000
O O10 0.527964 0.250000 0.378640
O O11 0.678310 0.534190 0.158680
O O12 0.955334 0.250000 0.202709
O O13 0.006997 0.497077 0.223824
O O14 0.299222 0.250000 0.053506
O O15 0.151391 0.483578 0.168449
O O16 0.217666 0.520730 0.222224
O O17 0.720797 0.750000 0.627001
O O18 0.760713 0.019529 0.658834
O O19 0.480089 0.960477 0.958145
O O20 0.699742 0.750000 0.806681
O O21 0.831321 0.250000 0.928549
#
# Coordination Sequence:
#
# PCOD9165090 Si02
#       8
#     4   4   4   4   4   4   4   4
#     4  10  22  38  57  81 106 135 172 214 260 309
#     4   9  19  34  52  77 106 137 176 216 256 309
#     4  10  21  38  57  78 104 135 174 216 257 307
#     4  10  21  39  58  75 102 142 180 211 253 315
#     4   9  18  33  53  76 104 139 174 211 253 306
#     4   9  15  25  46  75 104 136 169 211 263 306
#     4   8  15  28  46  71 104 137 174 213 252 304
#     4  11  23  36  53  79 107 136 172 218 265 306
#
# _framework density 25.998705999999999
#
# number of rings (size 3 to 8) (size 9 to 14) (size 15 to 20)
#    0.000    2.500    1.250    1.500    1.750    4.500 
#    0.000    0.000    0.000    0.750    0.000    0.000 
#    0.000    0.000    0.000    0.000    0.000    0.000 
#
# Total GULP energy -178566.261800 kJ/mol
# GULP energy per Si atom -5580.195681 kJ/mol
# Density = 2.593953 g / cm^3
# Si number density = 25.998706 Si / 1000 Ang^3
#
#
#
# Elastic Constant Matrix: (Units=GPa)
#
#
# Indices 1 2 3 4 5 6 
#
# 1 147.8012 -7.5805 6.3402 0.0000 -16.9711 0.0000
# 2 -7.5805 68.5973 -4.6081 0.0000 8.6700 0.0000
# 3 6.3402 -4.6081 56.2067 0.0000 -20.0685 0.0000
# 4 0.0000 0.0000 0.0000 10.7547 0.0000 -1.5493
# 5 -16.9711 8.6700 -20.0685 0.0000 30.8696 0.0000
# 6 0.0000 0.0000 0.0000 -1.5493 0.0000 27.0149
#
#
#
# Elastic Compliance Matrix: (Units=1/GPa)
#
#
# Indices 1 2 3 4 5 6 
#
# 1 0.007254 0.000296 0.000782 0.000000 0.004413 0.000000
# 2 0.000296 0.015132 -0.000328 0.000000 -0.004300 0.000000
# 3 0.000782 -0.000328 0.023262 0.000000 0.015645 0.000000
# 4 0.000000 0.000000 0.000000 0.093758 0.000000 0.005377
# 5 0.004413 -0.004300 0.015645 0.000000 0.046199 0.000000
# 6 0.000000 0.000000 0.000000 0.005377 0.000000 0.037325
#
#
# Mechanical properties :
#
#
# Convention : Reuss Voigt Hill
#
# Bulk Modulus (GPa) = 21.20969 28.98982 25.09975
# Shear Modulus (GPa) = 21.08398 32.29142 26.68770
#
# Velocity S-wave (km/s) = 2.85083 3.52808 3.20738
# Velocity P-wave (km/s) = 4.36027 5.26984 4.83648
#
# Compressibility (1/GPa) = 0.04714826
#
# Stress axis : x y z
#
# Youngs Moduli (GPa) = 137.85045 66.08479 42.98784
#
# Poissons Ratio (x) = -0.01959 -0.03360
# Poissons Ratio (y) = -0.04086 0.01411
# Poissons Ratio (z) = -0.10776 0.02170
#
# Static dielectric constant tensor:
#      x y z
#    x 2.127200 0.000000 0.061630 
#    y 0.000000 1.969600 0.000000 
#    z 0.061630 0.000000 2.247300 
# 
# From -- ./inp_files/67052.got.cif
#   From: 2010.05.17/outbox.cif.g08.bks.cpg/sg11_34_cif.got.tgz:67052.got - 2010.06.03 12:22:45.
