data_PCOD9165686
_publ_section_title
;
Structure prediction by ZEFSAII (Michael W. Deem and Ramdas Pophale) SiO2 
 PCOD9165686
Probable space group: P 21/M
;
_chemical_formula_sum "Si O2"
_cell_formula_units_Z 20
_cell_length_a 15.270927
_cell_length_b 12.127612
_cell_length_c 12.347296
_cell_angle_alpha 90.000000
_cell_angle_beta 154.525589
_cell_angle_gamma 90.000000
_cell_volume 983.535461
_symmetry_space_group_name_H-M "P 21/M"
_symmetry_group_IT_number 11
_symmetry_cell_setting 'monoclinic'
loop_
_space_group_symop_operation_xyz
x,y,z
-x,1/2+y,-z
-x,-y,-z
x,1/2-y,z
loop_
_atom_site_type_symbol
_atom_site_label
_atom_site_fract_x
_atom_site_fract_y
_atom_site_fract_z
Si Si1 0.410508 0.877184 0.935573
Si Si2 0.898417 0.127154 0.995230
Si Si3 0.997852 0.630107 0.345811
Si Si4 0.785628 0.066173 0.631104
Si Si5 0.639898 0.468307 0.898182
O O1 0.482537 0.750000 0.982837
O O2 0.179304 0.882672 0.633857
O O3 0.500000 0.000000 0.000000
O O4 0.422880 0.882984 0.079160
O O5 0.954923 0.250000 0.089199
O O6 0.817772 0.122948 0.782391
O O7 0.726354 0.084164 0.885080
O O8 0.094580 0.049472 0.223541
O O9 0.902269 0.750000 0.253888
O O10 0.105635 0.624237 0.348447
O O11 0.825124 0.538774 0.154838
O O12 0.551552 0.045049 0.342729
#
# Coordination Sequence:
#
# PCOD9165686 Si02
#       5
#     4   4   4   4   4
#     4  11  23  42  65  93 128 168 211 262 317 378
#     4  10  22  38  59  88 121 161 204 256 311 375
#     4  10  22  39  62  92 125 163 210 258 313 374
#     4  10  21  40  61  86 125 158 206 255 312 371
#     4  11  22  40  62  91 123 162 209 260 314 373
#
# _framework density 20.334803000000001
#
# number of rings (size 3 to 8) (size 9 to 14) (size 15 to 20)
#    0.000    1.600    2.000    2.400    0.000    4.000 
#    0.000    1.000    0.000    0.000    0.000    0.000 
#    0.000    0.000    0.000    0.000    0.000    0.000 
#
# Total GULP energy -111522.522292 kJ/mol
# GULP energy per Si atom -5576.126115 kJ/mol
# Density = 2.028852 g / cm^3
# Si number density = 20.334803 Si / 1000 Ang^3
#
#
#
# Elastic Constant Matrix: (Units=GPa)
#
#
# Indices 1 2 3 4 5 6 
#
# 1 65.4147 10.8749 1.9998 0.0000 1.6981 0.0000
# 2 10.8749 125.3507 12.6986 0.0000 17.4572 0.0000
# 3 1.9998 12.6986 61.2643 0.0000 -2.0238 0.0000
# 4 0.0000 0.0000 0.0000 -3.6681 0.0000 -6.2187
# 5 1.6981 17.4572 -2.0238 0.0000 23.6537 0.0000
# 6 0.0000 0.0000 0.0000 -6.2187 0.0000 10.1207
#
#
#
# Elastic Compliance Matrix: (Units=1/GPa)
#
#
# Indices 1 2 3 4 5 6 
#
# 1 0.015515 -0.001297 -0.000244 0.000000 -0.000178 0.000000
# 2 -0.001297 0.009268 -0.002108 0.000000 -0.006928 0.000000
# 3 -0.000244 -0.002108 0.016867 0.000000 0.003016 0.000000
# 4 0.000000 0.000000 0.000000 -0.133524 0.000000 -0.082045
# 5 -0.000178 -0.006928 0.003016 0.000000 0.047660 0.000000
# 6 0.000000 0.000000 0.000000 -0.082045 0.000000 0.048395
#
#
# Mechanical properties :
#
#
# Convention : Reuss Voigt Hill
#
# Bulk Modulus (GPa) = 29.10809 33.68627 31.39718
# Shear Modulus (GPa) = 218.07353 21.11834 119.59594
#
# Velocity S-wave (km/s) = 10.36698 3.22612 7.67731
# Velocity P-wave (km/s) = 12.55566 5.52077 9.69854
#
# Compressibility (1/GPa) = 0.03435471
#
# Stress axis : x y z
#
# Youngs Moduli (GPa) = 64.45509 107.89341 59.28680
#
# Poissons Ratio (x) = 0.13989 0.01444
# Poissons Ratio (y) = 0.08357 0.12496
# Poissons Ratio (z) = 0.01570 0.22740
#
# Static dielectric constant tensor:
#      x y z
#    x 1.744130 0.000000 -0.001810 
#    y 0.000000 1.818560 0.000000 
#    z -0.001810 0.000000 1.662690 
# 
# From -- ./inp_files/38776.got.cif
#   From: 2010.05.17/outbox.cif.g08.bks.cpg/sg11_20_cif.got.tgz:38776.got - 2010.06.03 12:22:45.
