data_PCOD9165339
_publ_section_title
;
Structure prediction by ZEFSAII (Michael W. Deem and Ramdas Pophale) SiO2 
 PCOD9165339
Probable space group: P 21/M
;
_chemical_formula_sum "Si O2"
_cell_formula_units_Z 20
_cell_length_a 12.240082
_cell_length_b 8.857652
_cell_length_c 9.801862
_cell_angle_alpha 90.000000
_cell_angle_beta 75.742980
_cell_angle_gamma 90.000000
_cell_volume 1029.971632
_symmetry_space_group_name_H-M "P 21/M"
_symmetry_group_IT_number 11
_symmetry_cell_setting 'monoclinic'
loop_
_space_group_symop_operation_xyz
x,y,z
-x,1/2+y,-z
-x,-y,-z
x,1/2-y,z
loop_
_atom_site_type_symbol
_atom_site_label
_atom_site_fract_x
_atom_site_fract_y
_atom_site_fract_z
Si Si1 0.903690 0.069178 0.623481
Si Si2 0.722123 0.068367 0.276877
Si Si3 0.965610 0.930377 0.153379
Si Si4 0.655834 0.432243 0.598449
Si Si5 0.525801 0.068986 0.140275
O O1 0.908274 0.250000 0.608225
O O2 0.779199 0.023294 0.617089
O O3 0.938696 0.029261 0.765890
O O4 0.000000 0.000000 0.500000
O O5 0.736905 0.250000 0.274022
O O6 0.657009 0.028357 0.437321
O O7 0.647492 0.027874 0.167842
O O8 0.844394 0.993257 0.236665
O O9 0.959333 0.750000 0.146644
O O10 0.000000 0.000000 0.000000
O O11 0.643389 0.250000 0.613754
O O12 0.563662 0.511142 0.720567
O O13 0.521094 0.250000 0.131967
O O14 0.500000 0.000000 0.000000
#
# Coordination Sequence:
#
# PCOD9165339 Si02
#       5
#     4   4   4   4   4
#     4  10  21  38  62  91 122 156 196 243 295 355
#     4  10  22  42  65  88 119 159 202 248 300 357
#     4  11  24  39  60  92 126 161 200 245 298 357
#     4  10  21  40  65  90 120 157 196 246 302 355
#     4  11  25  42  62  90 121 157 202 250 301 357
#
# _framework density 19.418011
#
# number of rings (size 3 to 8) (size 9 to 14) (size 15 to 20)
#    0.000    1.600    2.000    1.800    2.800    4.000 
#    0.000    0.000    0.000    0.000    0.000    0.000 
#    0.000    0.000    0.000    0.000    0.000    0.000 
#
# Total GULP energy -111752.185408 kJ/mol
# GULP energy per Si atom -5587.609270 kJ/mol
# Density = 1.937381 g / cm^3
# Si number density = 19.418011 Si / 1000 Ang^3
#
#
#
# Elastic Constant Matrix: (Units=GPa)
#
#
# Indices 1 2 3 4 5 6 
#
# 1 76.4725 19.9678 20.6215 0.0000 22.6010 0.0000
# 2 19.9678 20.5015 29.9007 0.0000 12.0413 0.0000
# 3 20.6215 29.9007 114.1736 0.0000 22.6401 0.0000
# 4 0.0000 0.0000 0.0000 38.1436 0.0000 -6.7250
# 5 22.6010 12.0413 22.6401 0.0000 39.6074 0.0000
# 6 0.0000 0.0000 0.0000 -6.7250 0.0000 29.3841
#
#
#
# Elastic Compliance Matrix: (Units=1/GPa)
#
#
# Indices 1 2 3 4 5 6 
#
# 1 0.019268 -0.018833 0.002816 0.000000 -0.006879 0.000000
# 2 -0.018833 0.104563 -0.022342 0.000000 -0.008271 0.000000
# 3 0.002816 -0.022342 0.014744 0.000000 -0.003243 0.000000
# 4 0.000000 0.000000 0.000000 0.027319 0.000000 0.006252
# 5 -0.006879 -0.008271 -0.003243 0.000000 0.033541 0.000000
# 6 0.000000 0.000000 0.000000 0.006252 0.000000 0.035463
#
#
# Mechanical properties :
#
#
# Convention : Reuss Voigt Hill
#
# Bulk Modulus (GPa) = 16.16651 39.12531 27.64591
# Shear Modulus (GPa) = 15.04960 30.80419 22.92690
#
# Velocity S-wave (km/s) = 2.78696 3.98725 3.43986
# Velocity P-wave (km/s) = 4.32433 6.43353 5.48134
#
# Compressibility (1/GPa) = 0.06185626
#
# Stress axis : x y z
#
# Youngs Moduli (GPa) = 51.90017 9.56363 67.82400
#
# Poissons Ratio (x) = 0.18011 -0.19101
# Poissons Ratio (y) = 0.97745 1.51533
# Poissons Ratio (z) = -0.14616 0.21367
#
# Static dielectric constant tensor:
#      x y z
#    x 1.713870 0.000000 0.035650 
#    y 0.000000 1.651860 0.000000 
#    z 0.035650 0.000000 1.671330 
# 
# From -- ./inp_files/15903.got.cif
#   From: 2010.05.17/outbox.cif.g08.bks.cpg/sg11_8_cif.got.tgz:15903.got - 2010.06.03 12:22:45.
