data_PCOD9165426
_publ_section_title
;
Structure prediction by ZEFSAII (Michael W. Deem and Ramdas Pophale) SiO2 
 PCOD9165426
Probable space group: P 21/M
;
_chemical_formula_sum "Si O2"
_cell_formula_units_Z 20
_cell_length_a 25.502406
_cell_length_b 8.661262
_cell_length_c 15.786910
_cell_angle_alpha 90.000000
_cell_angle_beta 162.354842
_cell_angle_gamma 90.000000
_cell_volume 1057.001430
_symmetry_space_group_name_H-M "P 21/M"
_symmetry_group_IT_number 11
_symmetry_cell_setting 'monoclinic'
loop_
_space_group_symop_operation_xyz
x,y,z
-x,1/2+y,-z
-x,-y,-z
x,1/2-y,z
loop_
_atom_site_type_symbol
_atom_site_label
_atom_site_fract_x
_atom_site_fract_y
_atom_site_fract_z
Si Si1 0.613790 0.923608 0.746458
Si Si2 0.867958 0.567924 0.370444
Si Si3 0.475990 0.929446 0.224739
Si Si4 0.986484 0.575914 0.237419
Si Si5 0.871385 0.937383 0.872841
O O1 0.556172 0.750000 0.683527
O O2 0.500000 0.000000 0.500000
O O3 0.608321 0.043854 0.813551
O O4 0.801077 0.908489 0.995847
O O5 0.880162 0.750000 0.377887
O O6 0.000000 0.500000 0.500000
O O7 0.914680 0.520347 0.538733
O O8 0.667527 0.516201 0.051444
O O9 0.481881 0.750000 0.209690
O O10 0.674494 0.984988 0.544516
O O11 0.062131 0.750000 0.345546
O O12 0.942942 0.513527 0.076010
O O13 0.868708 0.750000 0.871224
O O14 0.000000 0.000000 0.000000
#
# Coordination Sequence:
#
# PCOD9165426 Si02
#       5
#     4   4   4   4   4
#     4  11  20  32  55  87 123 156 194 241 300 361
#     4  12  24  37  57  91 128 163 198 237 297 367
#     4  11  22  39  60  87 123 159 197 246 301 354
#     4  10  21  39  59  86 123 159 197 245 298 353
#     4  10  23  43  65  88 116 154 204 255 301 348
#
# _framework density 18.921451000000001
#
# number of rings (size 3 to 8) (size 9 to 14) (size 15 to 20)
#    0.000    1.200    4.000    3.000    0.000    3.200 
#    0.000    1.000    0.000    0.000    0.000    0.000 
#    0.000    0.000    0.000    0.000    0.000    0.000 
#
# Total GULP energy -111363.770129 kJ/mol
# GULP energy per Si atom -5568.188506 kJ/mol
# Density = 1.887838 g / cm^3
# Si number density = 18.921451 Si / 1000 Ang^3
#
#
#
# Elastic Constant Matrix: (Units=GPa)
#
#
# Indices 1 2 3 4 5 6 
#
# 1 98.0145 23.5627 78.0111 0.0000 -2.8735 0.0000
# 2 23.5627 72.9091 51.0906 0.0000 -14.6366 0.0000
# 3 78.0111 51.0906 135.5654 0.0000 -40.0947 0.0000
# 4 0.0000 0.0000 0.0000 15.2941 0.0000 3.1527
# 5 -2.8735 -14.6366 -40.0947 0.0000 24.4877 0.0000
# 6 0.0000 0.0000 0.0000 3.1527 0.0000 24.7202
#
#
#
# Elastic Compliance Matrix: (Units=1/GPa)
#
#
# Indices 1 2 3 4 5 6 
#
# 1 0.049984 0.006146 -0.054792 0.000000 -0.080174 0.000000
# 2 0.006146 0.019400 -0.013971 0.000000 -0.010558 0.000000
# 3 -0.054792 -0.013971 0.077171 0.000000 0.111575 0.000000
# 4 0.000000 0.000000 0.000000 0.067150 0.000000 -0.008564
# 5 -0.080174 -0.010558 0.111575 0.000000 0.207804 0.000000
# 6 0.000000 0.000000 0.000000 -0.008564 0.000000 0.041545
#
#
# Mechanical properties :
#
#
# Convention : Reuss Voigt Hill
#
# Bulk Modulus (GPa) = 46.89941 67.97976 57.43959
# Shear Modulus (GPa) = 8.39780 23.15539 15.77660
#
# Velocity S-wave (km/s) = 2.10900 3.50203 2.89068
# Velocity P-wave (km/s) = 5.54713 7.23586 6.44703
#
# Compressibility (1/GPa) = 0.02132223
#
# Stress axis : x y z
#
# Youngs Moduli (GPa) = 20.00634 51.54727 12.95823
#
# Poissons Ratio (x) = -0.31682 0.71001
# Poissons Ratio (y) = -0.12296 0.18104
# Poissons Ratio (z) = 1.09619 0.72015
#
# Static dielectric constant tensor:
#      x y z
#    x 1.632110 0.000000 -0.024370 
#    y 0.000000 1.664550 0.000000 
#    z -0.024370 0.000000 1.713360 
# 
# From -- ./inp_files/36933.got.cif
#   From: 2010.05.17/outbox.cif.g08.bks.cpg/sg11_19_cif.got.tgz:36933.got - 2010.06.03 12:22:45.
