data_PCOD9165241
_publ_section_title
;
Structure prediction by ZEFSAII (Michael W. Deem and Ramdas Pophale) SiO2 
 PCOD9165241
Probable space group: P 21/M
;
_chemical_formula_sum "Si O2"
_cell_formula_units_Z 32
_cell_length_a 14.342805
_cell_length_b 16.274943
_cell_length_c 18.573282
_cell_angle_alpha 90.000000
_cell_angle_beta 158.672324
_cell_angle_gamma 90.000000
_cell_volume 1576.837691
_symmetry_space_group_name_H-M "P 21/M"
_symmetry_group_IT_number 11
_symmetry_cell_setting 'monoclinic'
loop_
_space_group_symop_operation_xyz
x,y,z
-x,1/2+y,-z
-x,-y,-z
x,1/2-y,z
loop_
_atom_site_type_symbol
_atom_site_label
_atom_site_fract_x
_atom_site_fract_y
_atom_site_fract_z
Si Si1 0.537921 0.382245 0.396403
Si Si2 0.572864 0.343559 0.578932
Si Si3 0.933847 0.340066 0.567047
Si Si4 0.045092 0.595933 0.021901
Si Si5 0.798481 0.488634 0.202764
Si Si6 0.982250 0.845185 0.538447
Si Si7 0.487254 0.654110 0.251855
Si Si8 0.772465 0.939249 0.580950
O O1 0.657737 0.351460 0.557609
O O2 0.670794 0.344441 0.422299
O O3 0.607390 0.479098 0.445402
O O4 0.236207 0.365143 0.182636
O O5 0.498523 0.250000 0.539757
O O6 0.330332 0.403858 0.418120
O O7 0.791751 0.369655 0.793033
O O8 0.054411 0.250000 0.668636
O O9 0.085013 0.421187 0.699334
O O10 0.908565 0.346658 0.463205
O O11 0.221517 0.609854 0.078400
O O12 0.000000 0.500000 0.000000
O O13 0.890501 0.417856 0.324382
O O14 0.932407 0.459639 0.223816
O O15 0.500000 0.500000 0.000000
O O16 0.013175 0.750000 0.587761
O O17 0.673228 0.862104 0.317854
O O18 0.429923 0.750000 0.212702
O O19 0.674635 0.627819 0.452512
#
# Coordination Sequence:
#
# PCOD9165241 Si02
#       8
#     4   4   4   4   4   4   4   4
#     4  11  22  40  62  87 124 166 205 243 300 369
#     4  11  23  39  60  89 124 160 202 254 304 357
#     4  10  22  41  60  84 123 165 203 248 299 359
#     4  11  21  37  63  92 120 159 203 249 304 366
#     4  10  21  38  60  92 117 156 197 252 310 365
#     4   9  19  39  65  87 115 157 205 255 303 353
#     4   9  17  33  59  88 116 148 198 255 300 351
#     4   9  18  36  59  82 118 156 198 243 303 360
#
# _framework density 20.293783000000001
#
# number of rings (size 3 to 8) (size 9 to 14) (size 15 to 20)
#    0.000    2.000    2.500    2.625    0.000    3.000 
#    6.750    0.000    0.000    0.000    0.000    0.000 
#    0.000    0.000    0.000    0.000    0.000    0.000 
#
# Total GULP energy -178301.830466 kJ/mol
# GULP energy per Si atom -5571.932202 kJ/mol
# Density = 2.024759 g / cm^3
# Si number density = 20.293783 Si / 1000 Ang^3
#
#
#
# Elastic Constant Matrix: (Units=GPa)
#
#
# Indices 1 2 3 4 5 6 
#
# 1 117.9668 33.8981 39.0964 0.0000 29.7267 0.0000
# 2 33.8981 126.3819 32.2257 0.0000 18.0672 0.0000
# 3 39.0964 32.2257 104.9820 0.0000 36.0003 0.0000
# 4 0.0000 0.0000 0.0000 -2.1826 0.0000 21.1206
# 5 29.7267 18.0672 36.0003 0.0000 30.6716 0.0000
# 6 0.0000 0.0000 0.0000 21.1206 0.0000 14.5047
#
#
#
# Elastic Compliance Matrix: (Units=1/GPa)
#
#
# Indices 1 2 3 4 5 6 
#
# 1 0.011531 -0.001586 -0.000494 0.000000 -0.009661 0.000000
# 2 -0.001586 0.009005 -0.001476 0.000000 -0.002036 0.000000
# 3 -0.000494 -0.001476 0.016234 0.000000 -0.017706 0.000000
# 4 0.000000 0.000000 0.000000 -0.030361 0.000000 0.044210
# 5 -0.009661 -0.002036 -0.017706 0.000000 0.063949 0.000000
# 6 0.000000 0.000000 0.000000 0.044210 0.000000 0.004569
#
#
# Mechanical properties :
#
#
# Convention : Reuss Voigt Hill
#
# Bulk Modulus (GPa) = 33.71645 62.19680 47.95662
# Shear Modulus (GPa) = 54.39219 24.87278 39.63249
#
# Velocity S-wave (km/s) = 5.18272 3.50471 4.42400
# Velocity P-wave (km/s) = 7.24323 6.86236 7.05537
#
# Compressibility (1/GPa) = 0.02965912
#
# Stress axis : x y z
#
# Youngs Moduli (GPa) = 86.72217 111.04812 61.59742
#
# Poissons Ratio (x) = 0.17608 0.03046
# Poissons Ratio (y) = 0.13751 0.09090
# Poissons Ratio (z) = 0.04288 0.16387
#
# Static dielectric constant tensor:
#      x y z
#    x 1.781480 0.000000 0.027890 
#    y 0.000000 1.737730 0.000000 
#    z 0.027890 0.000000 1.736750 
# 
# From -- ./inp_files/65807.got.cif
#   From: 2010.05.17/outbox.cif.g08.bks.cpg/sg11_33_cif.got.tgz:65807.got - 2010.06.03 12:22:45.
