data_PCOD9165226
_publ_section_title
;
Structure prediction by ZEFSAII (Michael W. Deem and Ramdas Pophale) SiO2 
 PCOD9165226
Probable space group: P 21/M
;
_chemical_formula_sum "Si O2"
_cell_formula_units_Z 28
_cell_length_a 5.839602
_cell_length_b 11.497231
_cell_length_c 17.888317
_cell_angle_alpha 90.000000
_cell_angle_beta 102.125535
_cell_angle_gamma 90.000000
_cell_volume 1174.213412
_symmetry_space_group_name_H-M "P 21/M"
_symmetry_group_IT_number 11
_symmetry_cell_setting 'monoclinic'
loop_
_space_group_symop_operation_xyz
x,y,z
-x,1/2+y,-z
-x,-y,-z
x,1/2-y,z
loop_
_atom_site_type_symbol
_atom_site_label
_atom_site_fract_x
_atom_site_fract_y
_atom_site_fract_z
Si Si1 0.393824 0.881783 0.247678
Si Si2 0.186656 0.983301 0.684281
Si Si3 0.067054 0.750000 0.756174
Si Si4 0.684075 0.108988 0.012424
Si Si5 0.237209 0.914600 0.403185
Si Si6 0.519266 0.127103 0.428308
Si Si7 0.132497 0.479486 0.114365
Si Si8 0.623131 0.750000 0.840078
O O1 0.402830 0.750000 0.220421
O O2 0.364466 0.878480 0.335520
O O3 0.627609 0.955439 0.248438
O O4 0.187629 0.956153 0.195856
O O5 0.059207 0.873335 0.712313
O O6 0.323785 0.929670 0.623840
O O7 0.030321 0.086185 0.638362
O O8 0.347131 0.750000 0.801010
O O9 0.830719 0.750000 0.790876
O O10 0.624057 0.250000 0.010588
O O11 0.877252 0.077912 0.088879
O O12 0.500000 0.000000 0.000000
O O13 0.823664 0.079158 0.944727
O O14 0.335867 0.862410 0.485385
O O15 0.294993 0.048646 0.424841
O O16 0.441236 0.250000 0.394479
O O17 0.312025 0.371136 0.114838
#
# Coordination Sequence:
#
# PCOD9165226 Si02
#       8
#     4   4   2   4   4   4   4   2
#     4  11  24  43  66  96 136 183 238 303 376 452
#     4  11  23  39  63  97 134 180 239 305 369 449
#     4  12  26  42  76 112 150 195 246 322 380 453
#     4  11  27  47  76 112 152 201 255 317 381 464
#     4  10  23  40  60  92 130 176 238 296 373 438
#     4  10  21  38  60  88 128 179 233 300 364 441
#     4  11  25  46  73 104 150 193 251 307 382 453
#     4  12  26  46  78 112 156 197 252 316 386 449
#
# _framework density 23.845749999999999
#
# number of rings (size 3 to 8) (size 9 to 14) (size 15 to 20)
#    0.000    1.143    2.857    2.143    6.000    3.429 
#    0.000    0.000    0.000    0.000    0.000    0.000 
#    0.000    0.000    0.000    0.000    0.000    0.000 
#
# Total GULP energy -156176.510641 kJ/mol
# GULP energy per Si atom -5577.732523 kJ/mol
# Density = 2.379148 g / cm^3
# Si number density = 23.845750 Si / 1000 Ang^3
#
#
#
# Elastic Constant Matrix: (Units=GPa)
#
#
# Indices 1 2 3 4 5 6 
#
# 1 46.7335 62.2901 28.5640 0.0000 19.4784 0.0000
# 2 62.2901 156.7472 55.7072 0.0000 9.4577 0.0000
# 3 28.5640 55.7072 88.9627 0.0000 15.5872 0.0000
# 4 0.0000 0.0000 0.0000 9.9719 0.0000 0.4938
# 5 19.4784 9.4577 15.5872 0.0000 37.0084 0.0000
# 6 0.0000 0.0000 0.0000 0.4938 0.0000 30.3283
#
#
#
# Elastic Compliance Matrix: (Units=1/GPa)
#
#
# Indices 1 2 3 4 5 6 
#
# 1 0.065887 -0.024077 -0.001167 0.000000 -0.028033 0.000000
# 2 -0.024077 0.017004 -0.004725 0.000000 0.010317 0.000000
# 3 -0.001167 -0.004725 0.015391 0.000000 -0.004661 0.000000
# 4 0.000000 0.000000 0.000000 0.100363 0.000000 -0.001634
# 5 -0.028033 0.010317 -0.004661 0.000000 0.041102 0.000000
# 6 0.000000 0.000000 0.000000 -0.001634 0.000000 0.032999
#
#
# Mechanical properties :
#
#
# Convention : Reuss Voigt Hill
#
# Bulk Modulus (GPa) = 26.07903 65.06289 45.57096
# Shear Modulus (GPa) = 14.47330 25.18718 19.83024
#
# Velocity S-wave (km/s) = 2.46632 3.25353 2.88688
# Velocity P-wave (km/s) = 4.36699 6.43880 5.50130
#
# Compressibility (1/GPa) = 0.03834498
#
# Stress axis : x y z
#
# Youngs Moduli (GPa) = 15.17761 58.80852 64.97515
#
# Poissons Ratio (x) = 1.41592 0.07580
# Poissons Ratio (y) = 0.36543 0.30700
# Poissons Ratio (z) = 0.01771 0.27787
#
# Static dielectric constant tensor:
#      x y z
#    x 1.953110 0.000000 -0.021010 
#    y 0.000000 1.878240 0.000000 
#    z -0.021010 0.000000 1.951300 
# 
# From -- ./inp_files/62742.got.cif
#   From: 2010.05.17/outbox.cif.g08.bks.cpg/sg11_32_cif.got.tgz:62742.got - 2010.06.03 12:22:45.
