data_PCOD9165414
_publ_section_title
;
Structure prediction by ZEFSAII (Michael W. Deem and Ramdas Pophale) SiO2 
 PCOD9165414
Probable space group: P 21/M
;
_chemical_formula_sum "Si O2"
_cell_formula_units_Z 32
_cell_length_a 8.176409
_cell_length_b 27.691666
_cell_length_c 6.714184
_cell_angle_alpha 90.000000
_cell_angle_beta 87.949147
_cell_angle_gamma 90.000000
_cell_volume 1519.240951
_symmetry_space_group_name_H-M "P 21/M"
_symmetry_group_IT_number 11
_symmetry_cell_setting 'monoclinic'
loop_
_space_group_symop_operation_xyz
x,y,z
-x,1/2+y,-z
-x,-y,-z
x,1/2-y,z
loop_
_atom_site_type_symbol
_atom_site_label
_atom_site_fract_x
_atom_site_fract_y
_atom_site_fract_z
Si Si1 0.172991 0.527027 0.020330
Si Si2 0.088499 0.807044 0.717955
Si Si3 0.806419 0.694796 0.063183
Si Si4 0.396473 0.543095 0.393271
Si Si5 0.136177 0.130429 0.555312
Si Si6 0.289513 0.605421 0.761662
Si Si7 0.725222 0.940115 0.192024
Si Si8 0.350779 0.120534 0.161702
O O1 0.267653 0.526287 0.227695
O O2 0.167843 0.580062 0.923770
O O3 0.281413 0.496014 0.860472
O O4 0.000000 0.500000 0.000000
O O5 0.105813 0.750000 0.666651
O O6 0.250861 0.837764 0.751573
O O7 0.007221 0.840973 0.550606
O O8 0.966673 0.809513 0.914101
O O9 0.782377 0.750000 0.113652
O O10 0.817407 0.664377 0.263051
O O11 0.660847 0.672776 0.938192
O O12 0.500000 0.500000 0.500000
O O13 0.297889 0.577204 0.551230
O O14 0.545917 0.572809 0.284421
O O15 0.134459 0.077615 0.661190
O O16 0.272539 0.124196 0.380570
O O17 0.470546 0.599498 0.837796
O O18 0.752163 0.913614 0.980618
#
# Coordination Sequence:
#
# PCOD9165414 Si02
#       8
#     4   4   4   4   4   4   4   4
#     4  12  29  41  64 100 139 178 228 279 336 409
#     4  10  24  43  65  95 134 174 213 276 345 406
#     4   9  20  40  66  93 122 162 216 276 339 400
#     4  12  24  44  68  95 135 186 231 277 336 404
#     4  10  21  38  69  94 122 168 223 266 331 403
#     4  12  25  42  66  95 136 178 227 275 339 399
#     4  11  22  41  66  92 129 173 218 273 334 398
#     4  10  21  39  64  93 123 166 217 273 323 397
#
# _framework density 21.063151000000001
#
# number of rings (size 3 to 8) (size 9 to 14) (size 15 to 20)
#    0.000    1.250    3.750    1.500    7.000    1.500 
#    0.000    0.000    0.000    0.000    0.000    0.000 
#    0.000    0.000    0.000    0.000    0.000    0.000 
#
# Total GULP energy -178384.776121 kJ/mol
# GULP energy per Si atom -5574.524254 kJ/mol
# Density = 2.101521 g / cm^3
# Si number density = 21.063151 Si / 1000 Ang^3
#
#
#
# Elastic Constant Matrix: (Units=GPa)
#
#
# Indices 1 2 3 4 5 6 
#
# 1 60.7194 17.1217 24.3230 0.0000 6.9645 0.0000
# 2 17.1217 86.2506 24.7308 0.0000 -1.4617 0.0000
# 3 24.3230 24.7308 105.5539 0.0000 5.0420 0.0000
# 4 0.0000 0.0000 0.0000 36.1572 0.0000 -1.0917
# 5 6.9645 -1.4617 5.0420 0.0000 13.0467 0.0000
# 6 0.0000 0.0000 0.0000 -1.0917 0.0000 30.5896
#
#
#
# Elastic Compliance Matrix: (Units=1/GPa)
#
#
# Indices 1 2 3 4 5 6 
#
# 1 0.019805 -0.003128 -0.003371 0.000000 -0.009620 0.000000
# 2 -0.003128 0.013008 -0.002523 0.000000 0.004102 0.000000
# 3 -0.003371 -0.002523 0.010972 0.000000 -0.002723 0.000000
# 4 0.000000 0.000000 0.000000 0.027687 0.000000 0.000988
# 5 -0.009620 0.004102 -0.002723 0.000000 0.083295 0.000000
# 6 0.000000 0.000000 0.000000 0.000988 0.000000 0.032726
#
#
# Mechanical properties :
#
#
# Convention : Reuss Voigt Hill
#
# Bulk Modulus (GPa) = 38.84904 42.76388 40.80646
# Shear Modulus (GPa) = 23.35168 28.38192 25.86680
#
# Velocity S-wave (km/s) = 3.33325 3.67477 3.50817
# Velocity P-wave (km/s) = 5.77046 6.19290 5.98541
#
# Compressibility (1/GPa) = 0.02574066
#
# Stress axis : x y z
#
# Youngs Moduli (GPa) = 50.49203 76.87605 91.14204
#
# Poissons Ratio (x) = 0.24046 0.30727
# Poissons Ratio (y) = 0.15793 0.22994
# Poissons Ratio (z) = 0.17023 0.19395
#
# Static dielectric constant tensor:
#      x y z
#    x 1.771240 0.000000 0.003780 
#    y 0.000000 1.818330 0.000000 
#    z 0.003780 0.000000 1.795760 
# 
# From -- ./inp_files/3421.got.cif
#   From: 2010.05.17/outbox.cif.g08.bks.cpg/sg11_2_cif.got.tgz:3421.got - 2010.06.03 12:22:45.
