data_PCOD9165282
_publ_section_title
;
Structure prediction by ZEFSAII (Michael W. Deem and Ramdas Pophale) SiO2 
 PCOD9165282
Probable space group: P 21/M
;
_chemical_formula_sum "Si O2"
_cell_formula_units_Z 32
_cell_length_a 26.588691
_cell_length_b 8.568166
_cell_length_c 20.555829
_cell_angle_alpha 90.000000
_cell_angle_beta 20.669866
_cell_angle_gamma 90.000000
_cell_volume 1653.002007
_symmetry_space_group_name_H-M "P 21/M"
_symmetry_group_IT_number 11
_symmetry_cell_setting 'monoclinic'
loop_
_space_group_symop_operation_xyz
x,y,z
-x,1/2+y,-z
-x,-y,-z
x,1/2-y,z
loop_
_atom_site_type_symbol
_atom_site_label
_atom_site_fract_x
_atom_site_fract_y
_atom_site_fract_z
Si Si1 0.322841 0.938625 0.387315
Si Si2 0.644827 0.563390 0.036718
Si Si3 0.158241 0.563205 0.316857
Si Si4 0.664349 0.063093 0.155187
Si Si5 0.652658 0.438469 0.791739
Si Si6 0.871617 0.563433 0.264960
Si Si7 0.349604 0.060204 0.579375
Si Si8 0.183003 0.063338 0.906675
O O1 0.308909 0.750000 0.407864
O O2 0.479965 0.981608 0.223606
O O3 0.315165 0.986679 0.321115
O O4 0.204930 0.015843 0.575369
O O5 0.653373 0.750000 0.023253
O O6 0.690663 0.505378 0.052109
O O7 0.742028 0.493525 0.862506
O O8 0.154713 0.750000 0.321180
O O9 0.229739 0.510758 0.298236
O O10 0.000000 0.500000 0.500000
O O11 0.662589 0.250000 0.153199
O O12 0.507535 0.007677 0.368931
O O13 0.776853 0.009627 0.072816
O O14 0.646495 0.250000 0.799347
O O15 0.500000 0.500000 0.000000
O O16 0.886990 0.750000 0.242687
O O17 0.765948 0.511701 0.334825
O O18 0.025899 0.486006 0.074529
O O19 0.351531 0.250000 0.576948
O O20 0.295822 0.009450 0.715264
O O21 0.190059 0.250000 0.902946
#
# Coordination Sequence:
#
# PCOD9165282 Si02
#       8
#     4   4   4   4   4   4   4   4
#     4  10  21  38  61  90 121 156 201 252 302 360
#     4  11  22  39  64  91 122 160 200 248 305 366
#     4  11  24  41  63  91 126 165 204 250 304 360
#     4  11  22  40  63  90 122 159 203 251 302 365
#     4  10  21  38  62  90 119 154 197 245 295 349
#     4  11  22  39  61  89 121 160 204 252 306 361
#     4   9  20  38  62  88 119 157 204 254 304 362
#     4  11  23  40  59  87 124 161 201 253 308 363
#
# _framework density 19.358718
#
# number of rings (size 3 to 8) (size 9 to 14) (size 15 to 20)
#    0.000    1.500    2.500    2.625    0.000    2.500 
#    0.000    7.500    0.000    0.000    0.000    0.000 
#    0.000    0.000    0.000    0.000    0.000    0.000 
#
# Total GULP energy -178896.656755 kJ/mol
# GULP energy per Si atom -5590.520524 kJ/mol
# Density = 1.931466 g / cm^3
# Si number density = 19.358718 Si / 1000 Ang^3
#
#
#
# Elastic Constant Matrix: (Units=GPa)
#
#
# Indices 1 2 3 4 5 6 
#
# 1 91.2966 9.0768 -13.4439 0.0000 4.4527 0.0000
# 2 9.0768 27.1616 1.5463 0.0000 -0.5989 0.0000
# 3 -13.4439 1.5463 22.2991 0.0000 -2.3662 0.0000
# 4 0.0000 0.0000 0.0000 30.7170 0.0000 -2.2970
# 5 4.4527 -0.5989 -2.3662 0.0000 38.5415 0.0000
# 6 0.0000 0.0000 0.0000 -2.2970 0.0000 17.5493
#
#
#
# Elastic Compliance Matrix: (Units=1/GPa)
#
#
# Indices 1 2 3 4 5 6 
#
# 1 0.012623 -0.004687 0.007824 0.000000 -0.001051 0.000000
# 2 -0.004687 0.038709 -0.005424 0.000000 0.000810 0.000000
# 3 0.007824 -0.005424 0.050160 0.000000 0.002091 0.000000
# 4 0.000000 0.000000 0.000000 0.032877 0.000000 0.004303
# 5 -0.001051 0.000810 0.002091 0.000000 0.026208 0.000000
# 6 0.000000 0.000000 0.000000 0.004303 0.000000 0.057545
#
#
# Mechanical properties :
#
#
# Convention : Reuss Voigt Hill
#
# Bulk Modulus (GPa) = 10.31805 15.01285 12.66545
# Shear Modulus (GPa) = 19.60764 26.93342 23.27053
#
# Velocity S-wave (km/s) = 3.18600 3.73403 3.47085
# Velocity P-wave (km/s) = 4.34460 5.13445 4.75595
#
# Compressibility (1/GPa) = 0.09691756
#
# Stress axis : x y z
#
# Youngs Moduli (GPa) = 79.22310 25.83346 19.93635
#
# Poissons Ratio (x) = 0.12107 -0.15597
# Poissons Ratio (y) = 0.37130 0.10813
# Poissons Ratio (z) = -0.61980 0.14012
#
# Static dielectric constant tensor:
#      x y z
#    x 1.671010 0.000000 -0.006400 
#    y 0.000000 1.651540 0.000000 
#    z -0.006400 0.000000 1.643550 
# 
# From -- ./inp_files/66917.got.cif
#   From: 2010.05.17/outbox.cif.g08.bks.cpg/sg11_34_cif.got.tgz:66917.got - 2010.06.03 12:22:45.
