data_PCOD9165968
_publ_section_title
;
Structure prediction by ZEFSAII (Michael W. Deem and Ramdas Pophale) SiO2 
 PCOD9165968
Probable space group: P 21/M
;
_chemical_formula_sum "Si O2"
_cell_formula_units_Z 32
_cell_length_a 13.787947
_cell_length_b 8.439012
_cell_length_c 13.718797
_cell_angle_alpha 90.000000
_cell_angle_beta 91.454355
_cell_angle_gamma 90.000000
_cell_volume 1595.759043
_symmetry_space_group_name_H-M "P 21/M"
_symmetry_group_IT_number 11
_symmetry_cell_setting 'monoclinic'
loop_
_space_group_symop_operation_xyz
x,y,z
-x,1/2+y,-z
-x,-y,-z
x,1/2-y,z
loop_
_atom_site_type_symbol
_atom_site_label
_atom_site_fract_x
_atom_site_fract_y
_atom_site_fract_z
Si Si1 0.956788 0.057544 0.898826
Si Si2 0.261263 0.439880 0.136071
Si Si3 0.604246 0.557894 0.466628
Si Si4 0.395676 0.561091 0.962611
Si Si5 0.331405 0.442342 0.747897
Si Si6 0.886362 0.569621 0.241081
Si Si7 0.253829 0.440026 0.354591
Si Si8 0.952466 0.072513 0.592950
O O1 0.950382 0.250000 0.889738
O O2 0.039338 0.989848 0.829802
O O3 0.850857 0.988467 0.878175
O O4 0.000000 0.000000 0.000000
O O5 0.271195 0.250000 0.133059
O O6 0.320260 0.507604 0.045292
O O7 0.289093 0.495055 0.247459
O O8 0.500000 0.500000 0.500000
O O9 0.606807 0.750000 0.465973
O O10 0.623588 0.505246 0.355015
O O11 0.683722 0.504474 0.549984
O O12 0.394729 0.750000 0.958042
O O13 0.500000 0.500000 0.000000
O O14 0.374515 0.497528 0.852628
O O15 0.335116 0.250000 0.746843
O O16 0.219200 0.498326 0.744802
O O17 0.868274 0.750000 0.203952
O O18 0.954108 0.580233 0.335824
O O19 0.261258 0.250000 0.353472
O O20 0.140694 0.483035 0.366539
O O21 0.917084 0.250000 0.573710
O O22 0.000000 0.000000 0.500000
#
# Coordination Sequence:
#
# PCOD9165968 Si02
#       8
#     4   4   4   4   4   4   4   4
#     4  11  21  36  59  91 127 169 214 260 315 375
#     4  11  23  41  65  96 134 172 213 265 322 386
#     4  10  23  42  66  95 128 168 214 267 327 384
#     4  12  27  46  69  96 127 165 214 270 329 392
#     4  10  21  42  67  93 127 168 215 267 324 383
#     4   9  19  36  59  85 122 164 204 249 305 366
#     4  10  22  41  64  94 131 170 212 263 319 381
#     4  11  21  36  59  90 127 169 212 256 306 368
#
# _framework density 20.053152999999998
#
# number of rings (size 3 to 8) (size 9 to 14) (size 15 to 20)
#    0.000    1.500    1.250    3.750    1.750    4.500 
#    0.000    3.125    0.000    0.000    0.000    0.000 
#    0.000    0.000    0.000    0.000    0.000    0.000 
#
# Total GULP energy -178420.502822 kJ/mol
# GULP energy per Si atom -5575.640713 kJ/mol
# Density = 2.000751 g / cm^3
# Si number density = 20.053153 Si / 1000 Ang^3
#
#
#
# Elastic Constant Matrix: (Units=GPa)
#
#
# Indices 1 2 3 4 5 6 
#
# 1 148.8247 17.1362 90.6759 0.0000 -9.7022 0.0000
# 2 17.1362 36.1638 38.1833 0.0000 -2.1259 0.0000
# 3 90.6759 38.1833 199.4937 0.0000 -13.6404 0.0000
# 4 0.0000 0.0000 0.0000 20.2906 0.0000 -1.4776
# 5 -9.7022 -2.1259 -13.6404 0.0000 34.0655 0.0000
# 6 0.0000 0.0000 0.0000 -1.4776 0.0000 30.3242
#
#
#
# Elastic Compliance Matrix: (Units=1/GPa)
#
#
# Indices 1 2 3 4 5 6 
#
# 1 0.009325 0.000054 -0.004182 0.000000 0.000985 0.000000
# 2 0.000054 0.034664 -0.006694 0.000000 -0.000502 0.000000
# 3 -0.004182 -0.006694 0.008312 0.000000 0.001720 0.000000
# 4 0.000000 0.000000 0.000000 0.049460 0.000000 0.002410
# 5 0.000985 -0.000502 0.001720 0.000000 0.030293 0.000000
# 6 0.000000 0.000000 0.000000 0.002410 0.000000 0.033094
#
#
# Mechanical properties :
#
#
# Convention : Reuss Voigt Hill
#
# Bulk Modulus (GPa) = 32.61642 75.16366 53.89004
# Shear Modulus (GPa) = 25.37940 32.83517 29.10728
#
# Velocity S-wave (km/s) = 3.56140 4.05088 3.81400
# Velocity P-wave (km/s) = 5.76296 7.70993 6.80642
#
# Compressibility (1/GPa) = 0.03065940
#
# Stress axis : x y z
#
# Youngs Moduli (GPa) = 107.23864 28.84811 120.30645
#
# Poissons Ratio (x) = -0.00157 0.50307
# Poissons Ratio (y) = -0.00582 0.80530
# Poissons Ratio (z) = 0.44842 0.19310
#
# Static dielectric constant tensor:
#      x y z
#    x 1.677630 0.000000 0.004270 
#    y 0.000000 1.715850 0.000000 
#    z 0.004270 0.000000 1.698940 
# 
# From -- ./inp_files/49388.got.cif
#   From: 2010.05.17/outbox.cif.g08.bks.cpg/sg11_25_cif.got.tgz:49388.got - 2010.06.03 12:22:45.
