data_PCOD9165352
_publ_section_title
;
Structure prediction by ZEFSAII (Michael W. Deem and Ramdas Pophale) SiO2 
 PCOD9165352
Probable space group: P 21/M
;
_chemical_formula_sum "Si O2"
_cell_formula_units_Z 24
_cell_length_a 13.635573
_cell_length_b 9.800982
_cell_length_c 9.228951
_cell_angle_alpha 90.000000
_cell_angle_beta 95.748210
_cell_angle_gamma 90.000000
_cell_volume 1227.173674
_symmetry_space_group_name_H-M "P 21/M"
_symmetry_group_IT_number 11
_symmetry_cell_setting 'monoclinic'
loop_
_space_group_symop_operation_xyz
x,y,z
-x,1/2+y,-z
-x,-y,-z
x,1/2-y,z
loop_
_atom_site_type_symbol
_atom_site_label
_atom_site_fract_x
_atom_site_fract_y
_atom_site_fract_z
Si Si1 0.877381 0.904797 0.787697
Si Si2 0.193728 0.089782 0.908245
Si Si3 0.068546 0.958711 0.646223
Si Si4 0.583184 0.590101 0.088711
Si Si5 0.233735 0.596790 0.453255
Si Si6 0.583053 0.589667 0.434493
O O1 0.836011 0.750000 0.761602
O O2 0.822233 0.019492 0.685424
O O3 0.864348 0.944931 0.953292
O O4 0.989232 0.897580 0.746077
O O5 0.209574 0.250000 0.913218
O O6 0.128691 0.061685 0.757128
O O7 0.305617 0.033499 0.923337
O O8 0.157271 0.887604 0.574426
O O9 0.000000 0.000000 0.500000
O O10 0.576150 0.750000 0.041265
O O11 0.568526 0.587234 0.259506
O O12 0.500000 0.500000 0.000000
O O13 0.268982 0.750000 0.419575
O O14 0.317179 0.491141 0.514162
O O15 0.500000 0.500000 0.500000
O O16 0.585119 0.750000 0.479417
#
# Coordination Sequence:
#
# PCOD9165352 Si02
#       6
#     4   4   4   4   4   4
#     4  10  22  39  63  94 128 170 215 261 316 376
#     4  10  21  41  66  92 128 170 213 261 322 384
#     4  10  21  38  62  93 127 168 214 263 315 373
#     4  10  23  43  66  95 127 168 210 260 320 380
#     4  11  23  40  62  93 129 169 214 263 317 376
#     4  11  24  43  67  94 126 164 211 264 320 381
#
# _framework density 19.557134000000001
#
# number of rings (size 3 to 8) (size 9 to 14) (size 15 to 20)
#    0.000    1.667    1.667    2.000    2.333    6.667 
#    0.000    1.667    0.000    0.000    0.000    0.000 
#    0.000    0.000    0.000    0.000    0.000    0.000 
#
# Total GULP energy -133617.738058 kJ/mol
# GULP energy per Si atom -5567.405752 kJ/mol
# Density = 1.951262 g / cm^3
# Si number density = 19.557134 Si / 1000 Ang^3
#
#
#
# Elastic Constant Matrix: (Units=GPa)
#
#
# Indices 1 2 3 4 5 6 
#
# 1 133.0907 55.3152 52.9606 0.0000 1.8193 0.0000
# 2 55.3152 119.1882 39.0295 0.0000 2.9915 0.0000
# 3 52.9606 39.0295 91.4230 0.0000 -7.3429 0.0000
# 4 0.0000 0.0000 0.0000 24.7873 0.0000 -1.7807
# 5 1.8193 2.9915 -7.3429 0.0000 33.2187 0.0000
# 6 0.0000 0.0000 0.0000 -1.7807 0.0000 14.1926
#
#
#
# Elastic Compliance Matrix: (Units=1/GPa)
#
#
# Indices 1 2 3 4 5 6 
#
# 1 0.010935 -0.003405 -0.004993 0.000000 -0.001396 0.000000
# 2 -0.003405 0.010924 -0.002805 0.000000 -0.001417 0.000000
# 3 -0.004993 -0.002805 0.015343 0.000000 0.003918 0.000000
# 4 0.000000 0.000000 0.000000 0.040710 0.000000 0.005108
# 5 -0.001396 -0.001417 0.003918 0.000000 0.031174 0.000000
# 6 0.000000 0.000000 0.000000 0.005108 0.000000 0.071100
#
#
# Mechanical properties :
#
#
# Convention : Reuss Voigt Hill
#
# Bulk Modulus (GPa) = 67.58602 70.92361 69.25482
# Shear Modulus (GPa) = 24.09363 27.53283 25.81323
#
# Velocity S-wave (km/s) = 3.51374 3.75616 3.63697
# Velocity P-wave (km/s) = 7.14808 7.42665 7.28870
#
# Compressibility (1/GPa) = 0.01479596
#
# Stress axis : x y z
#
# Youngs Moduli (GPa) = 91.45214 91.53808 65.17716
#
# Poissons Ratio (x) = 0.31166 0.32543
# Poissons Ratio (y) = 0.31137 0.18284
# Poissons Ratio (z) = 0.45662 0.25679
#
# Static dielectric constant tensor:
#      x y z
#    x 1.728280 0.000000 -0.014410 
#    y 0.000000 1.687860 0.000000 
#    z -0.014410 0.000000 1.719250 
# 
# From -- ./inp_files/20608.got.cif
#   From: 2010.05.17/outbox.cif.g08.bks.cpg/sg11_11_cif.got.tgz:20608.got - 2010.06.03 12:22:45.
