data_PCOD9165417
_publ_section_title
;
Structure prediction by ZEFSAII (Michael W. Deem and Ramdas Pophale) SiO2 
 PCOD9165417
Probable space group: P 21/M
;
_chemical_formula_sum "Si O2"
_cell_formula_units_Z 32
_cell_length_a 10.701790
_cell_length_b 25.492478
_cell_length_c 6.837328
_cell_angle_alpha 90.000000
_cell_angle_beta 112.231186
_cell_angle_gamma 90.000000
_cell_volume 1726.667189
_symmetry_space_group_name_H-M "P 21/M"
_symmetry_group_IT_number 11
_symmetry_cell_setting 'monoclinic'
loop_
_space_group_symop_operation_xyz
x,y,z
-x,1/2+y,-z
-x,-y,-z
x,1/2-y,z
loop_
_atom_site_type_symbol
_atom_site_label
_atom_site_fract_x
_atom_site_fract_y
_atom_site_fract_z
Si Si1 0.703808 0.615023 0.290232
Si Si2 0.897337 0.535384 0.550947
Si Si3 0.807614 0.689606 0.693189
Si Si4 0.305802 0.627791 0.728904
Si Si5 0.063685 0.622705 0.878573
Si Si6 0.236198 0.939806 0.303501
Si Si7 0.580486 0.689606 0.889874
Si Si8 0.451247 0.951982 0.106649
O O1 0.814719 0.569290 0.342624
O O2 0.762777 0.654710 0.483630
O O3 0.573279 0.581356 0.270586
O O4 0.653972 0.649484 0.080260
O O5 0.817446 0.493599 0.633848
O O6 0.000000 0.500000 0.500000
O O7 0.979059 0.575858 0.731233
O O8 0.830633 0.750000 0.653190
O O9 0.678630 0.687754 0.760728
O O10 0.948091 0.665618 0.859653
O O11 0.171887 0.643155 0.777386
O O12 0.274506 0.598901 0.505731
O O13 0.425203 0.670694 0.769114
O O14 0.372527 0.584733 0.908899
O O15 0.139554 0.596000 0.107396
O O16 0.353117 0.960985 0.229465
O O17 0.579580 0.750000 0.960751
O O18 0.500000 0.000000 0.000000
#
# Coordination Sequence:
#
# PCOD9165417 Si02
#       8
#     4   4   4   4   4   4   4   4
#     4  10  22  38  60  85 119 151 191 244 298 345
#     4  11  22  36  58  86 119 161 199 236 286 357
#     4  10  22  40  61  88 114 148 203 250 299 354
#     4  10  21  39  57  85 118 150 200 238 293 358
#     4  10  23  38  58  88 119 162 197 245 294 358
#     4  11  22  38  59  81 126 161 192 242 295 343
#     4  10  22  40  64  87 113 151 197 252 305 355
#     4  10  22  36  57  88 117 153 197 235 288 355
#
# _framework density 18.532812
#
# number of rings (size 3 to 8) (size 9 to 14) (size 15 to 20)
#    0.000    1.750    1.250    2.250    3.500    6.500 
#    0.000    0.625    0.000    0.000    0.000    0.000 
#    0.000    0.000    0.000    0.000    0.000    0.000 
#
# Total GULP energy -178203.489498 kJ/mol
# GULP energy per Si atom -5568.859047 kJ/mol
# Density = 1.849063 g / cm^3
# Si number density = 18.532812 Si / 1000 Ang^3
#
#
#
# Elastic Constant Matrix: (Units=GPa)
#
#
# Indices 1 2 3 4 5 6 
#
# 1 74.4127 61.4978 21.7127 0.0000 2.7856 0.0000
# 2 61.4978 112.7170 31.4751 0.0000 -0.5331 0.0000
# 3 21.7127 31.4751 54.5173 0.0000 15.3466 0.0000
# 4 0.0000 0.0000 0.0000 17.6836 0.0000 6.4591
# 5 2.7856 -0.5331 15.3466 0.0000 27.0971 0.0000
# 6 0.0000 0.0000 0.0000 6.4591 0.0000 26.2128
#
#
#
# Elastic Compliance Matrix: (Units=1/GPa)
#
#
# Indices 1 2 3 4 5 6 
#
# 1 0.024813 -0.013024 -0.001872 0.000000 -0.001747 0.000000
# 2 -0.013024 0.017865 -0.006665 0.000000 0.005465 0.000000
# 3 -0.001872 -0.006665 0.027266 0.000000 -0.015381 0.000000
# 4 0.000000 0.000000 0.000000 0.062143 0.000000 -0.015313
# 5 -0.001747 0.005465 -0.015381 0.000000 0.045903 0.000000
# 6 0.000000 0.000000 0.000000 -0.015313 0.000000 0.041923
#
#
# Mechanical properties :
#
#
# Convention : Reuss Voigt Hill
#
# Bulk Modulus (GPa) = 37.28177 52.33534 44.80856
# Shear Modulus (GPa) = 18.38408 22.66279 20.52344
#
# Velocity S-wave (km/s) = 3.15298 3.50072 3.33139
# Velocity P-wave (km/s) = 5.78060 6.68136 6.24724
#
# Compressibility (1/GPa) = 0.02682276
#
# Stress axis : x y z
#
# Youngs Moduli (GPa) = 40.30079 55.97677 36.67540
#
# Poissons Ratio (x) = 0.72903 0.06864
# Poissons Ratio (y) = 0.52487 0.24446
# Poissons Ratio (z) = 0.07542 0.37311
#
# Static dielectric constant tensor:
#      x y z
#    x 1.685600 0.000000 0.000760 
#    y 0.000000 1.604050 0.000000 
#    z 0.000760 0.000000 1.623620 
# 
# From -- ./inp_files/5504.got.cif
#   From: 2010.05.17/outbox.cif.g08.bks.cpg/sg11_3_cif.got.tgz:5504.got - 2010.06.03 12:22:45.
