data_PCOD9165019
_publ_section_title
;
Structure prediction by ZEFSAII (Michael W. Deem and Ramdas Pophale) SiO2 
 PCOD9165019
Probable space group: P 21/M
;
_chemical_formula_sum "Si O2"
_cell_formula_units_Z 28
_cell_length_a 5.504136
_cell_length_b 18.404395
_cell_length_c 14.425546
_cell_angle_alpha 90.000000
_cell_angle_beta 58.302485
_cell_angle_gamma 90.000000
_cell_volume 1243.333819
_symmetry_space_group_name_H-M "P 21/M"
_symmetry_group_IT_number 11
_symmetry_cell_setting 'monoclinic'
loop_
_space_group_symop_operation_xyz
x,y,z
-x,1/2+y,-z
-x,-y,-z
x,1/2-y,z
loop_
_atom_site_type_symbol
_atom_site_label
_atom_site_fract_x
_atom_site_fract_y
_atom_site_fract_z
Si Si1 0.171634 0.939257 0.821633
Si Si2 0.790423 0.568353 0.635548
Si Si3 0.819614 0.333272 0.017957
Si Si4 0.492732 0.831702 0.118483
Si Si5 0.886945 0.333066 0.324164
Si Si6 0.955243 0.053356 0.746079
Si Si7 0.370230 0.080342 0.522967
O O1 0.465944 0.955462 0.710193
O O2 0.051549 0.872393 0.785540
O O3 0.992210 0.012117 0.837396
O O4 0.241775 0.903533 0.905613
O O5 0.939266 0.512791 0.675615
O O6 0.862737 0.575912 0.513600
O O7 0.839660 0.647607 0.668484
O O8 0.769181 0.250000 0.065317
O O9 0.166087 0.338208 0.937259
O O10 0.629133 0.337043 0.962870
O O11 0.414337 0.750000 0.166234
O O12 0.320841 0.896306 0.201939
O O13 0.838656 0.250000 0.318625
O O14 0.618870 0.366581 0.435677
O O15 0.223926 0.097865 0.650509
O O16 0.500000 0.000000 0.500000
#
# Coordination Sequence:
#
# PCOD9165019 Si02
#       7
#     4   4   4   4   4   4   4
#     4  10  22  38  63  93 121 161 199 261 319 378
#     4  10  21  37  61  92 121 160 202 252 319 368
#     4  10  23  44  65  89 127 170 208 262 328 378
#     4  10  25  45  64  90 127 169 216 265 315 379
#     4  10  22  37  58  93 125 156 206 255 306 381
#     4  11  23  38  65  89 121 162 211 259 310 378
#     4  11  20  39  61  85 125 165 200 249 314 375
#
# _framework density 22.520098999999998
#
# number of rings (size 3 to 8) (size 9 to 14) (size 15 to 20)
#    0.000    1.714    4.286    0.857    6.000    4.571 
#    0.000    0.000    0.000    0.000    0.000    0.000 
#    0.000    0.000    0.000    0.000    0.000    0.000 
#
# Total GULP energy -155980.317936 kJ/mol
# GULP energy per Si atom -5570.725641 kJ/mol
# Density = 2.246884 g / cm^3
# Si number density = 22.520099 Si / 1000 Ang^3
#
#
#
# Elastic Constant Matrix: (Units=GPa)
#
#
# Indices 1 2 3 4 5 6 
#
# 1 58.8346 1.1365 -3.0550 0.0000 9.2212 0.0000
# 2 1.1365 67.1408 12.8796 0.0000 1.9651 0.0000
# 3 -3.0550 12.8796 39.3092 0.0000 3.8938 0.0000
# 4 0.0000 0.0000 0.0000 28.8210 0.0000 -3.7923
# 5 9.2212 1.9651 3.8938 0.0000 25.4952 0.0000
# 6 0.0000 0.0000 0.0000 -3.7923 0.0000 24.5610
#
#
#
# Elastic Compliance Matrix: (Units=1/GPa)
#
#
# Indices 1 2 3 4 5 6 
#
# 1 0.018205 -0.000543 0.002275 0.000000 -0.006890 0.000000
# 2 -0.000543 0.015914 -0.005234 0.000000 -0.000231 0.000000
# 3 0.002275 -0.005234 0.027793 0.000000 -0.004664 0.000000
# 4 0.000000 0.000000 0.000000 0.035416 0.000000 0.005468
# 5 -0.006890 -0.000231 -0.004664 0.000000 0.042445 0.000000
# 6 0.000000 0.000000 0.000000 0.005468 0.000000 0.041559
#
#
# Mechanical properties :
#
#
# Convention : Reuss Voigt Hill
#
# Bulk Modulus (GPa) = 18.21167 20.80075 19.50621
# Shear Modulus (GPa) = 24.19681 26.06369 25.13025
#
# Velocity S-wave (km/s) = 3.28144 3.40568 3.34414
# Velocity P-wave (km/s) = 4.73936 4.97207 4.85711
#
# Compressibility (1/GPa) = 0.05490986
#
# Stress axis : x y z
#
# Youngs Moduli (GPa) = 54.92893 62.83787 35.98041
#
# Poissons Ratio (x) = 0.03412 -0.08187
# Poissons Ratio (y) = 0.02982 0.18830
# Poissons Ratio (z) = -0.12498 0.32886
#
# Static dielectric constant tensor:
#      x y z
#    x 1.950280 0.000000 0.033740 
#    y 0.000000 1.850230 0.000000 
#    z 0.033740 0.000000 1.894470 
# 
# From -- ./inp_files/6775.got.cif
#   From: 2010.05.17/outbox.cif.g08.bks.cpg/sg11_4_cif.got.tgz:6775.got - 2010.06.03 12:22:45.
