data_PCOD9165834
_publ_section_title
;
Structure prediction by ZEFSAII (Michael W. Deem and Ramdas Pophale) SiO2 
 PCOD9165834
Probable space group: P 21/M
;
_chemical_formula_sum "Si O2"
_cell_formula_units_Z 20
_cell_length_a 20.086150
_cell_length_b 9.906614
_cell_length_c 5.276708
_cell_angle_alpha 90.000000
_cell_angle_beta 119.401065
_cell_angle_gamma 90.000000
_cell_volume 914.755876
_symmetry_space_group_name_H-M "P 21/M"
_symmetry_group_IT_number 11
_symmetry_cell_setting 'monoclinic'
loop_
_space_group_symop_operation_xyz
x,y,z
-x,1/2+y,-z
-x,-y,-z
x,1/2-y,z
loop_
_atom_site_type_symbol
_atom_site_label
_atom_site_fract_x
_atom_site_fract_y
_atom_site_fract_z
Si Si1 0.703652 0.599087 0.628942
Si Si2 0.926791 0.409383 0.798437
Si Si3 0.295415 0.609268 0.763711
Si Si4 0.168786 0.531211 0.875959
Si Si5 0.425083 0.907834 0.371266
O O1 0.674310 0.750000 0.551315
O O2 0.727140 0.528440 0.412162
O O3 0.636620 0.496811 0.589167
O O4 0.780239 0.596560 0.941917
O O5 0.943471 0.250000 0.786106
O O6 0.889068 0.468050 0.469293
O O7 0.872646 0.418595 0.946494
O O8 0.000000 0.500000 0.000000
O O9 0.284461 0.750000 0.595304
O O10 0.239029 0.617966 0.897368
O O11 0.382148 0.601049 0.020147
O O12 0.436864 0.750000 0.473933
O O13 0.500000 0.000000 0.500000
#
# Coordination Sequence:
#
# PCOD9165834 Si02
#       5
#     4   4   4   4   4
#     4  11  24  41  67 100 135 177 229 286 345 408
#     4  12  26  45  71 102 139 181 225 282 345 413
#     4  10  21  40  68  97 129 175 231 283 341 408
#     4  11  24  44  70 100 137 180 229 279 341 411
#     4  10  22  40  63  95 136 183 232 286 345 409
#
# _framework density 21.863758000000001
#
# number of rings (size 3 to 8) (size 9 to 14) (size 15 to 20)
#    0.000    1.200    2.000    3.600    0.000    9.600 
#    0.000    0.000    0.000    0.000    0.000    0.000 
#    0.000    0.000    0.000    0.000    0.000    0.000 
#
# Total GULP energy -111342.351626 kJ/mol
# GULP energy per Si atom -5567.117581 kJ/mol
# Density = 2.181400 g / cm^3
# Si number density = 21.863758 Si / 1000 Ang^3
#
#
#
# Elastic Constant Matrix: (Units=GPa)
#
#
# Indices 1 2 3 4 5 6 
#
# 1 88.8048 54.1263 46.7004 0.0000 12.5344 0.0000
# 2 54.1263 195.5079 48.5591 0.0000 5.9839 0.0000
# 3 46.7004 48.5591 124.1068 0.0000 8.8768 0.0000
# 4 0.0000 0.0000 0.0000 17.0563 0.0000 2.4122
# 5 12.5344 5.9839 8.8768 0.0000 41.8141 0.0000
# 6 0.0000 0.0000 0.0000 2.4122 0.0000 5.4795
#
#
#
# Elastic Compliance Matrix: (Units=1/GPa)
#
#
# Indices 1 2 3 4 5 6 
#
# 1 0.016099 -0.003222 -0.004554 0.000000 -0.003398 0.000000
# 2 -0.003222 0.006315 -0.001282 0.000000 0.000334 0.000000
# 3 -0.004554 -0.001282 0.010319 0.000000 -0.000642 0.000000
# 4 0.000000 0.000000 0.000000 0.062522 0.000000 -0.027523
# 5 -0.003398 0.000334 -0.000642 0.000000 0.025022 0.000000
# 6 0.000000 0.000000 0.000000 -0.027523 0.000000 0.194615
#
#
# Mechanical properties :
#
#
# Convention : Reuss Voigt Hill
#
# Bulk Modulus (GPa) = 68.41833 78.57679 73.49756
# Shear Modulus (GPa) = 14.79809 30.13890 22.46849
#
# Velocity S-wave (km/s) = 2.60442 3.71683 3.20919
# Velocity P-wave (km/s) = 6.35649 7.37815 6.88629
#
# Compressibility (1/GPa) = 0.01461597
#
# Stress axis : x y z
#
# Youngs Moduli (GPa) = 62.11583 158.34945 96.90842
#
# Poissons Ratio (x) = 0.51017 0.44135
# Poissons Ratio (y) = 0.20013 0.12428
# Poissons Ratio (z) = 0.28289 0.20308
#
# Static dielectric constant tensor:
#      x y z
#    x 1.858350 0.000000 -0.058020 
#    y 0.000000 1.812600 0.000000 
#    z -0.058020 0.000000 1.919440 
# 
# From -- ./inp_files/8530.got.cif
#   From: 2010.05.17/outbox.cif.g08.bks.cpg/sg11_5_cif.got.tgz:8530.got - 2010.06.03 12:22:45.
