data_PCOD9165059
_publ_section_title
;
Structure prediction by ZEFSAII (Michael W. Deem and Ramdas Pophale) SiO2 
 PCOD9165059
Probable space group: P 21/M
;
_chemical_formula_sum "Si O2"
_cell_formula_units_Z 30
_cell_length_a 11.016540
_cell_length_b 18.141413
_cell_length_c 13.937527
_cell_angle_alpha 90.000000
_cell_angle_beta 29.751666
_cell_angle_gamma 90.000000
_cell_volume 1382.277841
_symmetry_space_group_name_H-M "P 21/M"
_symmetry_group_IT_number 11
_symmetry_cell_setting 'monoclinic'
loop_
_space_group_symop_operation_xyz
x,y,z
-x,1/2+y,-z
-x,-y,-z
x,1/2-y,z
loop_
_atom_site_type_symbol
_atom_site_label
_atom_site_fract_x
_atom_site_fract_y
_atom_site_fract_z
Si Si1 0.840750 0.834628 0.332914
Si Si2 0.646886 0.632442 0.818499
Si Si3 0.160139 0.605044 0.381759
Si Si4 0.884138 0.668916 0.086436
Si Si5 0.330931 0.458131 0.896428
Si Si6 0.396958 0.750000 0.125523
Si Si7 0.199461 0.959555 0.158008
Si Si8 0.576707 0.374416 0.231246
O O1 0.920084 0.750000 0.300216
O O2 0.621495 0.859062 0.551195
O O3 0.059549 0.891512 0.200988
O O4 0.765141 0.837244 0.273627
O O5 0.570399 0.687506 0.953498
O O6 0.540733 0.655527 0.786982
O O7 0.929350 0.616218 0.608585
O O8 0.486320 0.560982 0.954508
O O9 0.400429 0.573524 0.267299
O O10 0.100937 0.549879 0.333248
O O11 0.230083 0.683882 0.287992
O O12 0.823929 0.750000 0.086291
O O13 0.171939 0.664115 0.911904
O O14 0.805347 0.601449 0.074929
O O15 0.365393 0.538524 0.823953
O O16 0.180788 0.471802 0.098837
#
# Coordination Sequence:
#
# PCOD9165059 Si02
#       8
#     4   4   4   4   4   2   4   4
#     4  11  23  40  68 101 132 168 227 289 339 386
#     4  10  21  37  64 101 128 170 223 271 340 385
#     4  11  23  42  67  96 143 177 223 274 338 401
#     4  11  25  46  69  93 134 177 226 281 337 401
#     4  11  25  46  66  96 141 185 220 272 342 414
#     4  10  24  38  62 102 132 186 218 278 330 404
#     4  10  22  40  67 100 131 177 219 279 334 394
#     4  11  23  41  70 101 128 173 227 286 337 395
#
# _framework density 21.703305
#
# number of rings (size 3 to 8) (size 9 to 14) (size 15 to 20)
#    0.000    1.333    4.000    1.600    6.533    2.667 
#    4.800    0.000    2.933    0.000    0.000    0.000 
#    0.000    0.000    0.000    0.000    0.000    0.000 
#
# Total GULP energy -167240.482900 kJ/mol
# GULP energy per Si atom -5574.682763 kJ/mol
# Density = 2.165391 g / cm^3
# Si number density = 21.703305 Si / 1000 Ang^3
#
#
#
# Elastic Constant Matrix: (Units=GPa)
#
#
# Indices 1 2 3 4 5 6 
#
# 1 51.5344 33.3246 12.0617 0.0000 -1.6259 0.0000
# 2 33.3246 130.7135 27.4735 0.0000 6.5785 0.0000
# 3 12.0617 27.4735 124.0847 0.0000 21.2980 0.0000
# 4 0.0000 0.0000 0.0000 21.3578 0.0000 -6.0288
# 5 -1.6259 6.5785 21.2980 0.0000 24.0907 0.0000
# 6 0.0000 0.0000 0.0000 -6.0288 0.0000 6.5691
#
#
#
# Elastic Compliance Matrix: (Units=1/GPa)
#
#
# Indices 1 2 3 4 5 6 
#
# 1 0.023823 -0.005932 -0.001835 0.000000 0.004850 0.000000
# 2 -0.005932 0.009512 -0.001196 0.000000 -0.001940 0.000000
# 3 -0.001835 -0.001196 0.009982 0.000000 -0.008622 0.000000
# 4 0.000000 0.000000 0.000000 0.063192 0.000000 0.057995
# 5 0.004850 -0.001940 -0.008622 0.000000 0.049989 0.000000
# 6 0.000000 0.000000 0.000000 0.057995 0.000000 0.205453
#
#
# Mechanical properties :
#
#
# Convention : Reuss Voigt Hill
#
# Bulk Modulus (GPa) = 39.38462 50.22801 44.80631
# Shear Modulus (GPa) = 12.87529 25.96838 19.42183
#
# Velocity S-wave (km/s) = 2.43830 3.46282 2.99470
# Velocity P-wave (km/s) = 5.11011 6.25951 5.71379
#
# Compressibility (1/GPa) = 0.02539062
#
# Stress axis : x y z
#
# Youngs Moduli (GPa) = 41.97655 105.13343 100.17882
#
# Poissons Ratio (x) = 0.62364 0.18380
# Poissons Ratio (y) = 0.24900 0.11985
# Poissons Ratio (z) = 0.07702 0.12578
#
# Static dielectric constant tensor:
#      x y z
#    x 1.849220 0.000000 0.011960 
#    y 0.000000 1.840820 0.000000 
#    z 0.011960 0.000000 1.776410 
# 
# From -- ./inp_files/50595.got.cif
#   From: 2010.05.17/outbox.cif.g08.bks.cpg/sg11_26_cif.got.tgz:50595.got - 2010.06.03 12:22:45.
