data_PCOD9165574
_publ_section_title
;
Structure prediction by ZEFSAII (Michael W. Deem and Ramdas Pophale) SiO2 
 PCOD9165574
Probable space group: P 21/M
;
_chemical_formula_sum "Si O2"
_cell_formula_units_Z 28
_cell_length_a 14.811687
_cell_length_b 8.604060
_cell_length_c 22.229353
_cell_angle_alpha 90.000000
_cell_angle_beta 149.781070
_cell_angle_gamma 90.000000
_cell_volume 1425.825663
_symmetry_space_group_name_H-M "P 21/M"
_symmetry_group_IT_number 11
_symmetry_cell_setting 'monoclinic'
loop_
_space_group_symop_operation_xyz
x,y,z
-x,1/2+y,-z
-x,-y,-z
x,1/2-y,z
loop_
_atom_site_type_symbol
_atom_site_label
_atom_site_fract_x
_atom_site_fract_y
_atom_site_fract_z
Si Si1 0.563229 0.565336 0.626727
Si Si2 0.906596 0.434869 0.506327
Si Si3 0.568074 0.934253 0.882881
Si Si4 0.817879 0.066738 0.126638
Si Si5 0.777481 0.062769 0.237311
Si Si6 0.506228 0.933673 0.286913
Si Si7 0.209934 0.566457 0.350356
O O1 0.589052 0.750000 0.633868
O O2 0.580761 0.516842 0.705724
O O3 0.360851 0.528744 0.487275
O O4 0.696605 0.475455 0.659180
O O5 0.885972 0.250000 0.490075
O O6 0.712644 0.510595 0.402222
O O7 0.000000 0.500000 0.500000
O O8 0.041068 0.480142 0.637241
O O9 0.559819 0.750000 0.867624
O O10 0.383647 0.980892 0.810751
O O11 0.580911 0.019005 0.826637
O O12 0.726618 0.975336 0.019842
O O13 0.790667 0.250000 0.101384
O O14 0.735424 0.023398 0.144077
O O15 0.028075 0.028579 0.252120
O O16 0.802087 0.250000 0.255085
O O17 0.499204 0.750000 0.291362
O O18 0.171207 0.750000 0.331537
#
# Coordination Sequence:
#
# PCOD9165574 Si02
#       7
#     4   4   4   4   4   4   4
#     4  10  21  39  65  94 122 154 192 242 299 355
#     4  12  23  36  57  85 119 156 196 243 294 348
#     4  11  23  40  60  83 118 161 204 248 294 351
#     4  11  23  39  60  87 119 157 202 248 296 350
#     4  10  22  39  60  86 118 158 202 248 297 352
#     4  12  24  39  60  88 122 160 199 243 297 356
#     4  10  21  39  63  92 122 154 195 243 296 353
#
# _framework density 19.637744000000001
#
# number of rings (size 3 to 8) (size 9 to 14) (size 15 to 20)
#    0.000    1.143    1.429    5.571    0.000    5.714 
#    0.000    0.714    0.000    0.000    0.000    0.000 
#    0.000    0.000    0.000    0.000    0.000    0.000 
#
# Total GULP energy -156651.441163 kJ/mol
# GULP energy per Si atom -5594.694327 kJ/mol
# Density = 1.959305 g / cm^3
# Si number density = 19.637744 Si / 1000 Ang^3
#
#
#
# Elastic Constant Matrix: (Units=GPa)
#
#
# Indices 1 2 3 4 5 6 
#
# 1 61.6212 -5.0005 9.1257 0.0000 -25.3423 0.0000
# 2 -5.0005 30.0781 3.7666 0.0000 -4.5578 0.0000
# 3 9.1257 3.7666 50.4357 0.0000 -18.5259 0.0000
# 4 0.0000 0.0000 0.0000 28.0880 0.0000 1.5079
# 5 -25.3423 -4.5578 -18.5259 0.0000 27.4293 0.0000
# 6 0.0000 0.0000 0.0000 1.5079 0.0000 26.4394
#
#
#
# Elastic Compliance Matrix: (Units=1/GPa)
#
#
# Indices 1 2 3 4 5 6 
#
# 1 0.029657 0.009174 0.006083 0.000000 0.033033 0.000000
# 2 0.009174 0.036958 0.001262 0.000000 0.015470 0.000000
# 3 0.006083 0.001262 0.027628 0.000000 0.024489 0.000000
# 4 0.000000 0.000000 0.000000 0.035712 0.000000 -0.002037
# 5 0.033033 0.015470 0.024489 0.000000 0.086088 0.000000
# 6 0.000000 0.000000 0.000000 -0.002037 0.000000 0.037939
#
#
# Mechanical properties :
#
#
# Convention : Reuss Voigt Hill
#
# Bulk Modulus (GPa) = 7.85656 17.54650 12.70153
# Shear Modulus (GPa) = 18.98466 25.34089 22.16278
#
# Velocity S-wave (km/s) = 3.11262 3.59614 3.36308
# Velocity P-wave (km/s) = 4.11428 5.11834 4.64353
#
# Compressibility (1/GPa) = 0.12728212
#
# Stress axis : x y z
#
# Youngs Moduli (GPa) = 33.71855 27.05761 36.19541
#
# Poissons Ratio (x) = -0.24824 -0.22016
# Poissons Ratio (y) = -0.30935 -0.04569
# Poissons Ratio (z) = -0.20509 -0.03416
#
# Static dielectric constant tensor:
#      x y z
#    x 1.667700 0.000000 -0.009130 
#    y 0.000000 1.648150 0.000000 
#    z -0.009130 0.000000 1.672900 
# 
# From -- ./inp_files/65427.got.cif
#   From: 2010.05.17/outbox.cif.g08.bks.cpg/sg11_33_cif.got.tgz:65427.got - 2010.06.03 12:22:45.
