data_PCOD9165205
_publ_section_title
;
Structure prediction by ZEFSAII (Michael W. Deem and Ramdas Pophale) SiO2 
 PCOD9165205
Probable space group: P 21/M
;
_chemical_formula_sum "Si O2"
_cell_formula_units_Z 20
_cell_length_a 6.990054
_cell_length_b 9.229151
_cell_length_c 15.828867
_cell_angle_alpha 90.000000
_cell_angle_beta 61.733378
_cell_angle_gamma 90.000000
_cell_volume 899.386645
_symmetry_space_group_name_H-M "P 21/M"
_symmetry_group_IT_number 11
_symmetry_cell_setting 'monoclinic'
loop_
_space_group_symop_operation_xyz
x,y,z
-x,1/2+y,-z
-x,-y,-z
x,1/2-y,z
loop_
_atom_site_type_symbol
_atom_site_label
_atom_site_fract_x
_atom_site_fract_y
_atom_site_fract_z
Si Si1 0.773882 0.923394 0.173671
Si Si2 0.842229 0.583629 0.431497
Si Si3 0.079036 0.084102 0.241315
Si Si4 0.433990 0.914886 0.387010
Si Si5 0.560410 0.083960 0.072358
O O1 0.804179 0.750000 0.161301
O O2 0.554305 0.949846 0.274706
O O3 0.963535 0.996502 0.189223
O O4 0.735156 0.998422 0.092006
O O5 0.904848 0.750000 0.428727
O O6 0.017243 0.493759 0.341594
O O7 0.753520 0.514937 0.536292
O O8 0.633000 0.581128 0.412435
O O9 0.995644 0.250000 0.259821
O O10 0.333816 0.087914 0.170744
O O11 0.356523 0.750000 0.400249
O O12 0.628967 0.250000 0.041592
O O13 0.500000 0.000000 0.000000
#
# Coordination Sequence:
#
# PCOD9165205 Si02
#       5
#     4   4   4   4   4
#     4  10  21  38  62  89 117 152 192 236 286 338
#     4   9  16  27  49  81 114 151 191 231 277 328
#     4  10  21  38  60  86 117 153 192 234 284 342
#     4   8  15  28  48  78 114 150 187 228 276 331
#     4  11  25  43  63  86 113 148 190 240 294 345
#
# _framework density 22.237378
#
# number of rings (size 3 to 8) (size 9 to 14) (size 15 to 20)
#    0.000    2.400    0.000    3.600    0.000    9.600 
#    0.000    1.000    0.000    0.000    0.000    0.000 
#    0.000    0.000    0.000    0.000    0.000    0.000 
#
# Total GULP energy -111834.769044 kJ/mol
# GULP energy per Si atom -5591.738452 kJ/mol
# Density = 2.218676 g / cm^3
# Si number density = 22.237378 Si / 1000 Ang^3
#
#
#
# Elastic Constant Matrix: (Units=GPa)
#
#
# Indices 1 2 3 4 5 6 
#
# 1 90.3270 29.3235 19.2382 0.0000 19.9501 0.0000
# 2 29.3235 129.8050 39.2032 0.0000 12.7060 0.0000
# 3 19.2382 39.2032 45.5300 0.0000 7.7613 0.0000
# 4 0.0000 0.0000 0.0000 36.2759 0.0000 4.2995
# 5 19.9501 12.7060 7.7613 0.0000 44.5316 0.0000
# 6 0.0000 0.0000 0.0000 4.2995 0.0000 5.6898
#
#
#
# Elastic Compliance Matrix: (Units=1/GPa)
#
#
# Indices 1 2 3 4 5 6 
#
# 1 0.013401 -0.001469 -0.003551 0.000000 -0.004966 0.000000
# 2 -0.001469 0.010664 -0.008405 0.000000 -0.000920 0.000000
# 3 -0.003551 -0.008405 0.030940 0.000000 -0.001403 0.000000
# 4 0.000000 0.000000 0.000000 0.030278 0.000000 -0.022880
# 5 -0.004966 -0.000920 -0.001403 0.000000 0.025188 0.000000
# 6 0.000000 0.000000 0.000000 -0.022880 0.000000 0.193043
#
#
# Mechanical properties :
#
#
# Convention : Reuss Voigt Hill
#
# Bulk Modulus (GPa) = 35.51707 49.02129 42.26918
# Shear Modulus (GPa) = 14.71676 29.15926 21.93801
#
# Velocity S-wave (km/s) = 2.57534 3.62508 3.14433
# Velocity P-wave (km/s) = 4.98494 6.29396 5.67731
#
# Compressibility (1/GPa) = 0.02815548
#
# Stress axis : x y z
#
# Youngs Moduli (GPa) = 74.62261 93.77273 32.32041
#
# Poissons Ratio (x) = 0.13772 0.11478
# Poissons Ratio (y) = 0.10960 0.27165
# Poissons Ratio (z) = 0.26501 0.78814
#
# Static dielectric constant tensor:
#      x y z
#    x 1.834490 0.000000 -0.001610 
#    y 0.000000 1.772550 0.000000 
#    z -0.001610 0.000000 1.823780 
# 
# From -- ./inp_files/20188.got.cif
#   From: 2010.05.17/outbox.cif.g08.bks.cpg/sg11_11_cif.got.tgz:20188.got - 2010.06.03 12:22:45.
