data_PCOD9165901
_publ_section_title
;
Structure prediction by ZEFSAII (Michael W. Deem and Ramdas Pophale) SiO2 
 PCOD9165901
Probable space group: P 21/M
;
_chemical_formula_sum "Si O2"
_cell_formula_units_Z 32
_cell_length_a 19.386961
_cell_length_b 10.890908
_cell_length_c 15.829126
_cell_angle_alpha 90.000000
_cell_angle_beta 28.944401
_cell_angle_gamma 90.000000
_cell_volume 1617.487134
_symmetry_space_group_name_H-M "P 21/M"
_symmetry_group_IT_number 11
_symmetry_cell_setting 'monoclinic'
loop_
_space_group_symop_operation_xyz
x,y,z
-x,1/2+y,-z
-x,-y,-z
x,1/2-y,z
loop_
_atom_site_type_symbol
_atom_site_label
_atom_site_fract_x
_atom_site_fract_y
_atom_site_fract_z
Si Si1 0.110468 0.609773 0.896806
Si Si2 0.534709 0.892920 0.208551
Si Si3 0.269552 0.946980 0.898343
Si Si4 0.462716 0.381379 0.481775
Si Si5 0.414435 0.106743 0.043259
Si Si6 0.253014 0.506654 0.594342
Si Si7 0.029575 0.109962 0.710391
Si Si8 0.913151 0.892385 0.547145
O O1 0.059985 0.750000 0.967574
O O2 0.197397 0.561632 0.884177
O O3 0.206368 0.611045 0.710032
O O4 0.000000 0.500000 0.000000
O O5 0.510186 0.750000 0.243503
O O6 0.387932 0.957538 0.392995
O O7 0.665181 0.931861 0.129439
O O8 0.573135 0.918898 0.070137
O O9 0.416022 0.876596 0.720709
O O10 0.140789 0.902903 0.095604
O O11 0.500000 0.500000 0.500000
O O12 0.464093 0.250000 0.526362
O O13 0.314268 0.403006 0.592588
O O14 0.462829 0.250000 0.005956
O O15 0.250499 0.101404 0.248144
O O16 0.500000 0.000000 0.000000
O O17 0.119697 0.470439 0.679537
O O18 0.068266 0.250000 0.688033
O O19 0.073233 0.084848 0.567599
O O20 0.962220 0.750000 0.510408
O O21 0.000000 0.000000 0.500000
#
# Coordination Sequence:
#
# PCOD9165901 Si02
#       8
#     4   4   4   4   4   4   4   4
#     4  12  25  42  62  89 125 166 209 258 310 365
#     4  10  23  42  63  90 126 164 206 257 308 366
#     4  11  23  40  61  87 122 164 208 254 306 357
#     4  11  23  38  59  86 117 160 207 253 305 360
#     4  10  21  41  66  95 129 162 203 253 310 374
#     4  11  23  40  61  90 122 163 207 258 306 361
#     4  11  22  40  63  90 124 160 204 254 307 364
#     4  10  22  40  65  94 125 161 201 251 306 371
#
# _framework density 19.783774000000001
#
# number of rings (size 3 to 8) (size 9 to 14) (size 15 to 20)
#    0.000    1.250    2.500    3.375    0.000    3.500 
#    0.000    5.000    0.000    0.000    0.000    0.000 
#    0.000    0.000    0.000    0.000    0.000    0.000 
#
# Total GULP energy -178343.319035 kJ/mol
# GULP energy per Si atom -5573.228720 kJ/mol
# Density = 1.973875 g / cm^3
# Si number density = 19.783774 Si / 1000 Ang^3
#
#
#
# Elastic Constant Matrix: (Units=GPa)
#
#
# Indices 1 2 3 4 5 6 
#
# 1 69.0737 67.2492 30.4439 0.0000 2.1448 0.0000
# 2 67.2492 123.3676 33.5552 0.0000 -4.2813 0.0000
# 3 30.4439 33.5552 111.3447 0.0000 18.4135 0.0000
# 4 0.0000 0.0000 0.0000 20.8940 0.0000 -0.6764
# 5 2.1448 -4.2813 18.4135 0.0000 36.3610 0.0000
# 6 0.0000 0.0000 0.0000 -0.6764 0.0000 24.9820
#
#
#
# Elastic Compliance Matrix: (Units=1/GPa)
#
#
# Indices 1 2 3 4 5 6 
#
# 1 0.032438 -0.016820 -0.003445 0.000000 -0.002149 0.000000
# 2 -0.016820 0.017783 -0.001387 0.000000 0.003788 0.000000
# 3 -0.003445 -0.001387 0.011279 0.000000 -0.005672 0.000000
# 4 0.000000 0.000000 0.000000 0.047903 0.000000 0.001297
# 5 -0.002149 0.003788 -0.005672 0.000000 0.030947 0.000000
# 6 0.000000 0.000000 0.000000 0.001297 0.000000 0.040064
#
#
# Mechanical properties :
#
#
# Convention : Reuss Voigt Hill
#
# Bulk Modulus (GPa) = 54.95411 62.92030 58.93720
# Shear Modulus (GPa) = 21.75965 27.94991 24.85478
#
# Velocity S-wave (km/s) = 3.32003 3.76276 3.54831
# Velocity P-wave (km/s) = 6.52185 7.12396 6.82954
#
# Compressibility (1/GPa) = 0.01819700
#
# Stress axis : x y z
#
# Youngs Moduli (GPa) = 30.82793 56.23240 88.66110
#
# Poissons Ratio (x) = 0.94583 0.30542
# Poissons Ratio (y) = 0.51853 0.12295
# Poissons Ratio (z) = 0.10620 0.07798
#
# Static dielectric constant tensor:
#      x y z
#    x 1.692530 0.000000 0.020100 
#    y 0.000000 1.675660 0.000000 
#    z 0.020100 0.000000 1.699660 
# 
# From -- ./inp_files/53627.got.cif
#   From: 2010.05.17/outbox.cif.g08.bks.cpg/sg11_27_cif.got.tgz:53627.got - 2010.06.03 12:22:45.
