data_PCOD9165104
_publ_section_title
;
Structure prediction by ZEFSAII (Michael W. Deem and Ramdas Pophale) SiO2 
 PCOD9165104
Probable space group: P 21/M
;
_chemical_formula_sum "Si O2"
_cell_formula_units_Z 32
_cell_length_a 11.173805
_cell_length_b 31.183906
_cell_length_c 9.032862
_cell_angle_alpha 90.000000
_cell_angle_beta 28.270677
_cell_angle_gamma 90.000000
_cell_volume 1490.744058
_symmetry_space_group_name_H-M "P 21/M"
_symmetry_group_IT_number 11
_symmetry_cell_setting 'monoclinic'
loop_
_space_group_symop_operation_xyz
x,y,z
-x,1/2+y,-z
-x,-y,-z
x,1/2-y,z
loop_
_atom_site_type_symbol
_atom_site_label
_atom_site_fract_x
_atom_site_fract_y
_atom_site_fract_z
Si Si1 0.685847 0.699568 0.495634
Si Si2 0.126520 0.457358 0.466184
Si Si3 0.206537 0.837917 0.835472
Si Si4 0.640684 0.545729 0.328802
Si Si5 0.590309 0.385742 0.653289
Si Si6 0.306982 0.587099 0.923897
Si Si7 0.063368 0.539014 0.651205
Si Si8 0.400266 0.367527 0.165899
O O1 0.659966 0.750000 0.547404
O O2 0.445927 0.682686 0.661215
O O3 0.695916 0.673259 0.639052
O O4 0.950652 0.688757 0.127095
O O5 0.245223 0.498281 0.419986
O O6 0.244345 0.411053 0.357506
O O7 0.107631 0.463481 0.310596
O O8 0.854004 0.452327 0.841888
O O9 0.287783 0.849631 0.581876
O O10 0.162763 0.884399 0.959620
O O11 0.500000 0.500000 0.500000
O O12 0.548676 0.579452 0.301259
O O13 0.561319 0.571427 0.563318
O O14 0.922252 0.536518 0.962311
O O15 0.796487 0.415961 0.506451
O O16 0.433447 0.363831 0.954980
O O17 0.349005 0.618507 0.016896
#
# Coordination Sequence:
#
# PCOD9165104 Si02
#       8
#     4   4   4   4   4   4   4   4
#     4  11  24  47  76 105 132 166 214 274 344 423
#     4  11  21  37  57  91 129 175 222 280 330 380
#     4  10  24  43  70 101 136 172 212 268 338 403
#     4  11  23  37  53  84 126 171 230 282 320 373
#     4  11  25  40  61  91 130 181 221 275 328 392
#     4  10  21  38  57  89 122 172 215 269 333 386
#     4  11  24  35  58  88 130 177 235 274 324 380
#     4  11  23  40  66  90 129 171 219 273 340 401
#
# _framework density 21.465790999999999
#
# number of rings (size 3 to 8) (size 9 to 14) (size 15 to 20)
#    0.000    1.250    5.000    0.375    7.000    1.000 
#    0.000    1.250    0.000    0.000    0.000    0.000 
#    0.000    0.000    0.000    0.000    0.000    0.000 
#
# Total GULP energy -178571.375053 kJ/mol
# GULP energy per Si atom -5580.355470 kJ/mol
# Density = 2.141693 g / cm^3
# Si number density = 21.465791 Si / 1000 Ang^3
#
#
#
# Elastic Constant Matrix: (Units=GPa)
#
#
# Indices 1 2 3 4 5 6 
#
# 1 61.1667 30.2666 37.4220 0.0000 21.1631 0.0000
# 2 30.2666 131.7620 43.5955 0.0000 17.0422 0.0000
# 3 37.4220 43.5955 106.3222 0.0000 28.0915 0.0000
# 4 0.0000 0.0000 0.0000 18.0094 0.0000 -3.2383
# 5 21.1631 17.0422 28.0915 0.0000 38.6477 0.0000
# 6 0.0000 0.0000 0.0000 -3.2383 0.0000 23.0431
#
#
#
# Elastic Compliance Matrix: (Units=1/GPa)
#
#
# Indices 1 2 3 4 5 6 
#
# 1 0.023561 -0.002698 -0.005065 0.000000 -0.008031 0.000000
# 2 -0.002698 0.009166 -0.002638 0.000000 -0.000647 0.000000
# 3 -0.005065 -0.002638 0.013899 0.000000 -0.006166 0.000000
# 4 0.000000 0.000000 0.000000 0.056966 0.000000 0.008006
# 5 -0.008031 -0.000647 -0.006166 0.000000 0.035039 0.000000
# 6 0.000000 0.000000 0.000000 0.008006 0.000000 0.044522
#
#
# Mechanical properties :
#
#
# Convention : Reuss Voigt Hill
#
# Bulk Modulus (GPa) = 38.72229 57.97989 48.35109
# Shear Modulus (GPa) = 23.52269 28.47116 25.99693
#
# Velocity S-wave (km/s) = 3.31391 3.64586 3.48384
# Velocity P-wave (km/s) = 5.72022 6.69269 6.22547
#
# Compressibility (1/GPa) = 0.02582492
#
# Stress axis : x y z
#
# Youngs Moduli (GPa) = 42.44341 109.10431 71.94960
#
# Poissons Ratio (x) = 0.29432 0.36440
# Poissons Ratio (y) = 0.11450 0.18978
# Poissons Ratio (z) = 0.21496 0.28778
#
# Static dielectric constant tensor:
#      x y z
#    x 1.879060 0.000000 -0.076620 
#    y 0.000000 1.779370 0.000000 
#    z -0.076620 0.000000 1.845100 
# 
# From -- ./inp_files/19861.got.cif
#   From: 2010.05.17/outbox.cif.g08.bks.cpg/sg11_10_cif.got.tgz:19861.got - 2010.06.03 12:22:45.
