data_PCOD9165544
_publ_section_title
;
Structure prediction by ZEFSAII (Michael W. Deem and Ramdas Pophale) SiO2 
 PCOD9165544
Probable space group: P 21/M
;
_chemical_formula_sum "Si O2"
_cell_formula_units_Z 28
_cell_length_a 11.509429
_cell_length_b 10.319382
_cell_length_c 14.721251
_cell_angle_alpha 90.000000
_cell_angle_beta 52.607089
_cell_angle_gamma 90.000000
_cell_volume 1389.122324
_symmetry_space_group_name_H-M "P 21/M"
_symmetry_group_IT_number 11
_symmetry_cell_setting 'monoclinic'
loop_
_space_group_symop_operation_xyz
x,y,z
-x,1/2+y,-z
-x,-y,-z
x,1/2-y,z
loop_
_atom_site_type_symbol
_atom_site_label
_atom_site_fract_x
_atom_site_fract_y
_atom_site_fract_z
Si Si1 0.075681 0.105146 0.289387
Si Si2 0.566622 0.399619 0.039987
Si Si3 0.838146 0.600209 0.458521
Si Si4 0.646579 0.600901 0.713800
Si Si5 0.189513 0.399898 0.849907
Si Si6 0.613028 0.900168 0.402650
Si Si7 0.116769 0.982455 0.079816
O O1 0.017478 0.250000 0.334378
O O2 0.232870 0.097009 0.263291
O O3 0.089898 0.082024 0.174915
O O4 0.258165 0.902171 0.044100
O O5 0.518440 0.250000 0.047614
O O6 0.500000 0.500000 0.000000
O O7 0.501645 0.444873 0.168494
O O8 0.880086 0.750000 0.462586
O O9 0.727604 0.544765 0.587685
O O10 0.748597 0.605124 0.407904
O O11 0.974281 0.505929 0.380031
O O12 0.617876 0.750000 0.700616
O O13 0.221299 0.250000 0.848143
O O14 0.320505 0.450600 0.724080
O O15 0.036774 0.413029 0.867171
O O16 0.163543 0.460460 0.960375
O O17 0.559258 0.750000 0.419590
O O18 0.500000 0.000000 0.500000
#
# Coordination Sequence:
#
# PCOD9165544 Si02
#       7
#     4   4   4   4   4   4   4
#     4  11  21  37  61  88 122 155 194 247 300 359
#     4  11  23  40  64  92 126 164 203 248 301 366
#     4  10  21  39  63  84 115 157 197 244 297 356
#     4   9  20  38  58  87 122 155 192 241 300 353
#     4  10  22  41  61  87 121 159 204 256 303 352
#     4  10  22  40  60  85 117 152 195 247 299 352
#     4  11  22  38  63  89 121 161 208 245 303 362
#
# _framework density 20.156611999999999
#
# number of rings (size 3 to 8) (size 9 to 14) (size 15 to 20)
#    0.000    1.714    2.857    1.286    2.000    1.714 
#    0.000    1.429    0.000    0.000    0.000    0.000 
#    0.000    0.000    0.000    0.000    0.000    0.000 
#
# Total GULP energy -156109.616156 kJ/mol
# GULP energy per Si atom -5575.343434 kJ/mol
# Density = 2.011073 g / cm^3
# Si number density = 20.156612 Si / 1000 Ang^3
#
#
#
# Elastic Constant Matrix: (Units=GPa)
#
#
# Indices 1 2 3 4 5 6 
#
# 1 31.6215 8.0633 7.0016 0.0000 1.9447 0.0000
# 2 8.0633 74.2508 42.7451 0.0000 -11.8436 0.0000
# 3 7.0016 42.7451 149.1379 0.0000 -4.3032 0.0000
# 4 0.0000 0.0000 0.0000 24.2416 0.0000 -5.9124
# 5 1.9447 -11.8436 -4.3032 0.0000 38.1195 0.0000
# 6 0.0000 0.0000 0.0000 -5.9124 0.0000 20.4182
#
#
#
# Elastic Compliance Matrix: (Units=1/GPa)
#
#
# Indices 1 2 3 4 5 6 
#
# 1 0.032872 -0.003706 -0.000564 0.000000 -0.002892 0.000000
# 2 -0.003706 0.017357 -0.004655 0.000000 0.005056 0.000000
# 3 -0.000564 -0.004655 0.008051 0.000000 -0.000509 0.000000
# 4 0.000000 0.000000 0.000000 0.044386 0.000000 0.012853
# 5 -0.002892 0.005056 -0.000509 0.000000 0.027894 0.000000
# 6 0.000000 0.000000 0.000000 0.012853 0.000000 0.052698
#
#
# Mechanical properties :
#
#
# Convention : Reuss Voigt Hill
#
# Bulk Modulus (GPa) = 24.73473 41.18112 32.95793
# Shear Modulus (GPa) = 23.30081 29.70253 26.50167
#
# Velocity S-wave (km/s) = 3.40367 3.84290 3.62993
# Velocity P-wave (km/s) = 5.26731 6.33762 5.82709
#
# Compressibility (1/GPa) = 0.04042898
#
# Stress axis : x y z
#
# Youngs Moduli (GPa) = 30.42105 57.61526 124.20591
#
# Poissons Ratio (x) = 0.21353 0.07011
# Poissons Ratio (y) = 0.11274 0.57815
# Poissons Ratio (z) = 0.01717 0.26818
#
# Static dielectric constant tensor:
#      x y z
#    x 1.712760 0.000000 0.003860 
#    y 0.000000 1.708820 0.000000 
#    z 0.003860 0.000000 1.773510 
# 
# From -- ./inp_files/52103.got.cif
#   From: 2010.05.17/outbox.cif.g08.bks.cpg/sg11_27_cif.got.tgz:52103.got - 2010.06.03 12:22:45.
