data_PCOD9165693
_publ_section_title
;
Structure prediction by ZEFSAII (Michael W. Deem and Ramdas Pophale) SiO2 
 PCOD9165693
Probable space group: P 21/M
;
_chemical_formula_sum "Si O2"
_cell_formula_units_Z 32
_cell_length_a 22.971114
_cell_length_b 8.707739
_cell_length_c 15.430599
_cell_angle_alpha 90.000000
_cell_angle_beta 148.086603
_cell_angle_gamma 90.000000
_cell_volume 1631.652465
_symmetry_space_group_name_H-M "P 21/M"
_symmetry_group_IT_number 11
_symmetry_cell_setting 'monoclinic'
loop_
_space_group_symop_operation_xyz
x,y,z
-x,1/2+y,-z
-x,-y,-z
x,1/2-y,z
loop_
_atom_site_type_symbol
_atom_site_label
_atom_site_fract_x
_atom_site_fract_y
_atom_site_fract_z
Si Si1 0.517498 0.064470 0.747931
Si Si2 0.280820 0.436633 0.380083
Si Si3 0.245573 0.066080 0.984680
Si Si4 0.910944 0.565967 0.729664
Si Si5 0.122854 0.934287 0.661735
Si Si6 0.797524 0.066265 0.427595
Si Si7 0.559829 0.933596 0.159266
Si Si8 0.145652 0.064520 0.043014
O O1 0.526104 0.250000 0.751724
O O2 0.404616 0.013272 0.558409
O O3 0.502172 0.026319 0.830219
O O4 0.628414 0.989279 0.853847
O O5 0.283181 0.250000 0.386124
O O6 0.191144 0.484742 0.338753
O O7 0.233847 0.482185 0.227341
O O8 0.241611 0.250000 0.974061
O O9 0.185133 0.018980 0.997105
O O10 0.185748 0.997208 0.824974
O O11 0.910724 0.750000 0.725895
O O12 0.891390 0.498539 0.609226
O O13 0.026700 0.506450 0.911486
O O14 0.118857 0.750000 0.661430
O O15 0.183587 0.976783 0.648626
O O16 0.000000 0.000000 0.500000
O O17 0.796028 0.250000 0.431302
O O18 0.682925 0.998050 0.315836
O O19 0.564132 0.750000 0.159585
O O20 0.500000 0.000000 0.000000
O O21 0.136369 0.250000 0.033923
#
# Coordination Sequence:
#
# PCOD9165693 Si02
#       8
#     4   4   4   4   4   4   4   4
#     4  10  21  40  62  84 118 160 199 244 297 354
#     4   9  19  39  63  87 119 158 196 244 304 358
#     4  11  24  40  59  88 122 158 203 250 295 351
#     4  11  21  37  62  92 122 154 198 246 299 362
#     4  11  24  41  61  86 118 160 202 244 296 353
#     4  11  23  38  58  86 118 153 194 240 296 354
#     4  11  22  37  58  86 117 152 195 240 292 351
#     4  10  22  40  61  86 120 159 198 247 304 355
#
# _framework density 19.612020999999999
#
# number of rings (size 3 to 8) (size 9 to 14) (size 15 to 20)
#    0.000    1.500    1.250    3.750    0.000   10.500 
#    0.000    1.250    0.000    0.000    0.000    0.000 
#    0.000    0.000    0.000    0.000    0.000    0.000 
#
# Total GULP energy -178902.751583 kJ/mol
# GULP energy per Si atom -5590.710987 kJ/mol
# Density = 1.956738 g / cm^3
# Si number density = 19.612021 Si / 1000 Ang^3
#
#
#
# Elastic Constant Matrix: (Units=GPa)
#
#
# Indices 1 2 3 4 5 6 
#
# 1 82.6333 21.3631 33.2297 0.0000 1.9409 0.0000
# 2 21.3631 23.8896 13.8948 0.0000 -1.8378 0.0000
# 3 33.2297 13.8948 133.6352 0.0000 -1.9485 0.0000
# 4 0.0000 0.0000 0.0000 33.9218 0.0000 8.9898
# 5 1.9409 -1.8378 -1.9485 0.0000 40.0449 0.0000
# 6 0.0000 0.0000 0.0000 8.9898 0.0000 22.5455
#
#
#
# Elastic Compliance Matrix: (Units=1/GPa)
#
#
# Indices 1 2 3 4 5 6 
#
# 1 0.016741 -0.013471 -0.002785 0.000000 -0.001565 0.000000
# 2 -0.013471 0.055526 -0.002379 0.000000 0.003086 0.000000
# 3 -0.002785 -0.002379 0.008429 0.000000 0.000436 0.000000
# 4 0.000000 0.000000 0.000000 0.032963 0.000000 -0.013144
# 5 -0.001565 0.003086 0.000436 0.000000 0.025211 0.000000
# 6 0.000000 0.000000 0.000000 -0.013144 0.000000 0.049596
#
#
# Mechanical properties :
#
#
# Convention : Reuss Voigt Hill
#
# Bulk Modulus (GPa) = 23.02703 41.90369 32.46536
# Shear Modulus (GPa) = 20.81502 30.74714 25.78108
#
# Velocity S-wave (km/s) = 3.26136 3.96380 3.62961
# Velocity P-wave (km/s) = 5.09399 6.50859 5.84424
#
# Compressibility (1/GPa) = 0.04342723
#
# Stress axis : x y z
#
# Youngs Moduli (GPa) = 59.73348 18.00944 118.63453
#
# Poissons Ratio (x) = 0.24261 0.33040
# Poissons Ratio (y) = 0.80468 0.28219
# Poissons Ratio (z) = 0.16636 0.04284
#
# Static dielectric constant tensor:
#      x y z
#    x 1.679760 0.000000 -0.007750 
#    y 0.000000 1.660050 0.000000 
#    z -0.007750 0.000000 1.684510 
# 
# From -- ./inp_files/55558.got.cif
#   From: 2010.05.17/outbox.cif.g08.bks.cpg/sg11_28_cif.got.tgz:55558.got - 2010.06.03 12:22:45.
