data_PCOD9165351
_publ_section_title
;
Structure prediction by ZEFSAII (Michael W. Deem and Ramdas Pophale) SiO2 
 PCOD9165351
Probable space group: P 21/M
;
_chemical_formula_sum "Si O2"
_cell_formula_units_Z 32
_cell_length_a 12.218797
_cell_length_b 8.672781
_cell_length_c 30.878102
_cell_angle_alpha 90.000000
_cell_angle_beta 27.789199
_cell_angle_gamma 90.000000
_cell_volume 1525.556205
_symmetry_space_group_name_H-M "P 21/M"
_symmetry_group_IT_number 11
_symmetry_cell_setting 'monoclinic'
loop_
_space_group_symop_operation_xyz
x,y,z
-x,1/2+y,-z
-x,-y,-z
x,1/2-y,z
loop_
_atom_site_type_symbol
_atom_site_label
_atom_site_fract_x
_atom_site_fract_y
_atom_site_fract_z
Si Si1 0.922315 0.572662 0.958005
Si Si2 0.554194 0.564927 0.388971
Si Si3 0.515978 0.065640 0.042901
Si Si4 0.953599 0.063324 0.749732
Si Si5 0.657065 0.576743 0.142723
Si Si6 0.752217 0.572004 0.676946
Si Si7 0.168422 0.067445 0.581810
Si Si8 0.264721 0.935544 0.405874
O O1 0.986184 0.750000 0.925428
O O2 0.149408 0.471699 0.889795
O O3 0.750672 0.501291 0.982750
O O4 0.778324 0.575053 0.053595
O O5 0.544572 0.750000 0.393559
O O6 0.827498 0.521978 0.295684
O O7 0.411027 0.506371 0.480904
O O8 0.419642 0.513907 0.392684
O O9 0.524645 0.250000 0.039118
O O10 0.288266 0.010608 0.149978
O O11 0.500000 0.000000 0.000000
O O12 0.923133 0.250000 0.760080
O O13 0.049350 0.016564 0.668633
O O14 0.566509 0.750000 0.182403
O O15 0.445558 0.456765 0.218059
O O16 0.814638 0.750000 0.650049
O O17 0.643640 0.504084 0.671125
O O18 0.980775 0.478081 0.610718
O O19 0.200028 0.250000 0.573343
O O20 0.259871 0.750000 0.406612
O O21 0.000000 0.000000 0.500000
#
# Coordination Sequence:
#
# PCOD9165351 Si02
#       8
#     4   4   4   4   4   4   4   4
#     4  10  21  40  65  92 124 159 200 252 311 373
#     4  10  22  40  63  89 123 163 204 253 308 367
#     4  12  26  44  67  92 123 165 209 258 315 375
#     4  10  23  43  64  92 125 160 204 255 311 370
#     4  10  21  38  62  93 126 160 201 253 310 367
#     4  12  24  37  57  86 123 165 209 254 301 360
#     4  11  22  37  62  91 125 164 205 256 309 366
#     4  11  22  38  59  84 117 158 201 246 300 359
#
# _framework density 20.975954999999999
#
# number of rings (size 3 to 8) (size 9 to 14) (size 15 to 20)
#    0.000    1.250    1.250    4.875    0.000    7.500 
#    0.000    3.750    0.000    0.000    0.000    0.000 
#    0.000    0.000    0.000    0.000    0.000    0.000 
#
# Total GULP energy -178908.656996 kJ/mol
# GULP energy per Si atom -5590.895531 kJ/mol
# Density = 2.092821 g / cm^3
# Si number density = 20.975955 Si / 1000 Ang^3
#
#
#
# Elastic Constant Matrix: (Units=GPa)
#
#
# Indices 1 2 3 4 5 6 
#
# 1 98.8902 12.9640 -11.4139 0.0000 -5.4818 0.0000
# 2 12.9640 42.7528 -9.0314 0.0000 6.4114 0.0000
# 3 -11.4139 -9.0314 30.8545 0.0000 0.2766 0.0000
# 4 0.0000 0.0000 0.0000 34.0942 0.0000 3.5621
# 5 -5.4818 6.4114 0.2766 0.0000 23.6161 0.0000
# 6 0.0000 0.0000 0.0000 3.5621 0.0000 22.8133
#
#
#
# Elastic Compliance Matrix: (Units=1/GPa)
#
#
# Indices 1 2 3 4 5 6 
#
# 1 0.011083 -0.003211 0.003130 0.000000 0.003408 0.000000
# 2 -0.003211 0.027023 0.006795 0.000000 -0.008161 0.000000
# 3 0.003130 0.006795 0.035571 0.000000 -0.001535 0.000000
# 4 0.000000 0.000000 0.000000 0.029817 0.000000 -0.004656
# 5 0.003408 -0.008161 -0.001535 0.000000 0.045368 0.000000
# 6 0.000000 0.000000 0.000000 -0.004656 0.000000 0.044561
#
#
# Mechanical properties :
#
#
# Convention : Reuss Voigt Hill
#
# Bulk Modulus (GPa) = 11.48029 17.50389 14.49209
# Shear Modulus (GPa) = 23.91997 28.10330 26.01164
#
# Velocity S-wave (km/s) = 3.38057 3.66428 3.52528
# Velocity P-wave (km/s) = 4.55221 5.12498 4.84707
#
# Compressibility (1/GPa) = 0.08710584
#
# Stress axis : x y z
#
# Youngs Moduli (GPa) = 90.22627 37.00517 28.11303
#
# Poissons Ratio (x) = 0.11881 -0.08798
# Poissons Ratio (y) = 0.28969 -0.19104
# Poissons Ratio (z) = -0.28238 -0.25146
#
# Static dielectric constant tensor:
#      x y z
#    x 1.787720 0.000000 0.041100 
#    y 0.000000 1.710740 0.000000 
#    z 0.041100 0.000000 1.803300 
# 
# From -- ./inp_files/73131.got.cif
#   From: 2010.05.17/outbox.cif.g08.bks.cpg/sg11_37_cif.got.tgz:73131.got - 2010.06.03 12:22:45.
