data_PCOD9165317
_publ_section_title
;
Structure prediction by ZEFSAII (Michael W. Deem and Ramdas Pophale) SiO2 
 PCOD9165317
Probable space group: P 21/M
;
_chemical_formula_sum "Si O2"
_cell_formula_units_Z 24
_cell_length_a 13.330887
_cell_length_b 14.904803
_cell_length_c 11.026042
_cell_angle_alpha 90.000000
_cell_angle_beta 32.760237
_cell_angle_gamma 90.000000
_cell_volume 1185.502059
_symmetry_space_group_name_H-M "P 21/M"
_symmetry_group_IT_number 11
_symmetry_cell_setting 'monoclinic'
loop_
_space_group_symop_operation_xyz
x,y,z
-x,1/2+y,-z
-x,-y,-z
x,1/2-y,z
loop_
_atom_site_type_symbol
_atom_site_label
_atom_site_fract_x
_atom_site_fract_y
_atom_site_fract_z
Si Si1 0.582497 0.900118 0.419792
Si Si2 0.165065 0.508762 0.500290
Si Si3 0.096191 0.144178 0.756996
Si Si4 0.263504 0.018026 0.125588
Si Si5 0.543911 0.352023 0.715552
Si Si6 0.318106 0.850170 0.900331
O O1 0.799819 0.893035 0.229970
O O2 0.531909 0.855940 0.344358
O O3 0.481129 0.855315 0.637260
O O4 0.500000 0.000000 0.500000
O O5 0.168702 0.416730 0.572425
O O6 0.259184 0.496207 0.273666
O O7 0.274151 0.586260 0.459402
O O8 0.950017 0.532520 0.697111
O O9 0.135494 0.250000 0.704000
O O10 0.874069 0.134697 0.977845
O O11 0.390423 0.099839 0.954809
O O12 0.331368 0.928699 0.985727
O O13 0.579830 0.250000 0.715024
O O14 0.309462 0.750000 0.963285
#
# Coordination Sequence:
#
# PCOD9165317 Si02
#       6
#     4   4   4   4   4   4
#     4  12  22  39  62  84 119 158 196 242 296 351
#     4  10  22  41  63  88 120 156 197 244 293 346
#     4  10  21  38  62  89 116 153 199 244 294 351
#     4  10  22  41  63  88 120 156 197 244 293 346
#     4  12  25  39  58  89 123 158 198 239 294 351
#     4  10  21  38  62  89 116 153 199 244 294 351
#
# _framework density 20.244586999999999
#
# number of rings (size 3 to 8) (size 9 to 14) (size 15 to 20)
#    0.000    1.333    3.333    2.000    0.000    4.000 
#    0.000    3.333    0.000    0.000    0.000    0.000 
#    0.000    0.000    0.000    0.000    0.000    0.000 
#
# Total GULP energy -134157.248401 kJ/mol
# GULP energy per Si atom -5589.885350 kJ/mol
# Density = 2.019851 g / cm^3
# Si number density = 20.244587 Si / 1000 Ang^3
#
#
#
# Elastic Constant Matrix: (Units=GPa)
#
#
# Indices 1 2 3 4 5 6 
#
# 1 70.9039 -8.3395 -12.4458 0.0000 -10.5283 0.0000
# 2 -8.3395 83.0901 -15.3749 0.0000 -16.9060 0.0000
# 3 -12.4458 -15.3749 38.0712 0.0000 -3.5887 0.0000
# 4 0.0000 0.0000 0.0000 22.3476 0.0000 -10.8747
# 5 -10.5283 -16.9060 -3.5887 0.0000 19.8819 0.0000
# 6 0.0000 0.0000 0.0000 -10.8747 0.0000 0.6630
#
#
#
# Elastic Compliance Matrix: (Units=1/GPa)
#
#
# Indices 1 2 3 4 5 6 
#
# 1 0.020047 0.008186 0.011716 0.000000 0.019691 0.000000
# 2 0.008186 0.020110 0.013040 0.000000 0.023788 0.000000
# 3 0.011716 0.013040 0.037633 0.000000 0.024085 0.000000
# 4 0.000000 0.000000 0.000000 -0.006409 0.000000 -0.105127
# 5 0.019691 0.023788 0.024085 0.000000 0.085299 0.000000
# 6 0.000000 0.000000 0.000000 -0.105127 0.000000 -0.216035
#
#
# Mechanical properties :
#
#
# Convention : Reuss Voigt Hill
#
# Bulk Modulus (GPa) = 6.96024 13.30498 10.13261
# Shear Modulus (GPa) = -64.64295 23.79351 -20.42472
#
# Velocity S-wave (km/s) = -5.65688 3.43199 -3.17976
# Velocity P-wave (km/s) = 6.26271 4.72135 2.90950
#
# Compressibility (1/GPa) = 0.14367320
#
# Stress axis : x y z
#
# Youngs Moduli (GPa) = 49.88331 49.72698 26.57251
#
# Poissons Ratio (x) = -0.40708 -0.31131
# Poissons Ratio (y) = -0.40836 -0.34650
# Poissons Ratio (z) = -0.58442 -0.64843
#
# Static dielectric constant tensor:
#      x y z
#    x 1.729030 0.000000 -0.038340 
#    y 0.000000 1.701140 0.000000 
#    z -0.038340 0.000000 1.716320 
# 
# From -- ./inp_files/39544.got.cif
#   From: 2010.05.17/outbox.cif.g08.bks.cpg/sg11_20_cif.got.tgz:39544.got - 2010.06.03 12:22:45.
