data_PCOD9165393
_publ_section_title
;
Structure prediction by ZEFSAII (Michael W. Deem and Ramdas Pophale) SiO2 
 PCOD9165393
Probable space group: P 21/M
;
_chemical_formula_sum "Si O2"
_cell_formula_units_Z 28
_cell_length_a 9.254668
_cell_length_b 15.231591
_cell_length_c 19.506939
_cell_angle_alpha 90.000000
_cell_angle_beta 30.026213
_cell_angle_gamma 90.000000
_cell_volume 1375.970759
_symmetry_space_group_name_H-M "P 21/M"
_symmetry_group_IT_number 11
_symmetry_cell_setting 'monoclinic'
loop_
_space_group_symop_operation_xyz
x,y,z
-x,1/2+y,-z
-x,-y,-z
x,1/2-y,z
loop_
_atom_site_type_symbol
_atom_site_label
_atom_site_fract_x
_atom_site_fract_y
_atom_site_fract_z
Si Si1 0.637993 0.851308 0.545659
Si Si2 0.209455 0.148979 0.781159
Si Si3 0.165642 0.517723 0.142170
Si Si4 0.689802 0.147833 0.465863
Si Si5 0.041260 0.650022 0.843107
Si Si6 0.902247 0.485281 0.677945
Si Si7 0.264996 0.433493 0.902623
O O1 0.740166 0.750000 0.502576
O O2 0.479024 0.867820 0.537079
O O3 0.388905 0.858849 0.705935
O O4 0.891689 0.921277 0.450318
O O5 0.119294 0.250000 0.815938
O O6 0.459296 0.135957 0.622056
O O7 0.308096 0.122706 0.816285
O O8 0.952055 0.084447 0.865517
O O9 0.090717 0.552853 0.247615
O O10 0.032637 0.422782 0.182401
O O11 0.500000 0.500000 0.000000
O O12 0.782516 0.250000 0.426791
O O13 0.947222 0.080080 0.376168
O O14 0.986735 0.750000 0.843768
O O15 0.848378 0.626330 0.987966
O O16 0.568252 0.481485 0.793584
O O17 0.000000 0.500000 0.000000
#
# Coordination Sequence:
#
# PCOD9165393 Si02
#       7
#     4   4   4   4   4   4   4
#     4  10  21  38  65 102 132 163 215 277 336 385
#     4  11  24  44  66  90 135 181 217 268 329 395
#     4  12  22  40  64 101 129 166 225 272 327 388
#     4  10  21  39  66 101 132 167 216 272 334 392
#     4  11  23  41  66  92 133 172 210 270 330 387
#     4  12  23  39  73  99 131 171 219 281 324 390
#     4  12  26  46  65  92 135 181 224 263 328 393
#
# _framework density 20.349267999999999
#
# number of rings (size 3 to 8) (size 9 to 14) (size 15 to 20)
#    0.000    0.857    5.714    1.714    0.000    2.286 
#    0.000    2.857    0.000    0.000    0.000    0.000 
#    0.000    0.000    0.000    0.000    0.000    0.000 
#
# Total GULP energy -156347.079881 kJ/mol
# GULP energy per Si atom -5583.824281 kJ/mol
# Density = 2.030295 g / cm^3
# Si number density = 20.349268 Si / 1000 Ang^3
#
#
#
# Elastic Constant Matrix: (Units=GPa)
#
#
# Indices 1 2 3 4 5 6 
#
# 1 54.6584 31.3421 36.0095 0.0000 -11.5584 0.0000
# 2 31.3421 102.0802 60.3299 0.0000 -33.4875 0.0000
# 3 36.0095 60.3299 110.4159 0.0000 -16.0646 0.0000
# 4 0.0000 0.0000 0.0000 24.6102 0.0000 17.0757
# 5 -11.5584 -33.4875 -16.0646 0.0000 35.9969 0.0000
# 6 0.0000 0.0000 0.0000 17.0757 0.0000 -8.9211
#
#
#
# Elastic Compliance Matrix: (Units=1/GPa)
#
#
# Indices 1 2 3 4 5 6 
#
# 1 0.024534 -0.003382 -0.005844 0.000000 0.002123 0.000000
# 2 -0.003382 0.020083 -0.007817 0.000000 0.014108 0.000000
# 3 -0.005844 -0.007817 0.014868 0.000000 -0.002514 0.000000
# 4 0.000000 0.000000 0.000000 0.017454 0.000000 0.033408
# 5 0.002123 0.014108 -0.002514 0.000000 0.040465 0.000000
# 6 0.000000 0.000000 0.000000 0.033408 0.000000 -0.048149
#
#
# Mechanical properties :
#
#
# Convention : Reuss Voigt Hill
#
# Bulk Modulus (GPa) = 39.37409 58.05751 48.71580
# Shear Modulus (GPa) = 44.71894 19.63540 32.17717
#
# Velocity S-wave (km/s) = 4.69291 3.10968 3.98080
# Velocity P-wave (km/s) = 6.98253 6.44096 6.71720
#
# Compressibility (1/GPa) = 0.02539741
#
# Stress axis : x y z
#
# Youngs Moduli (GPa) = 40.75946 49.79311 67.25731
#
# Poissons Ratio (x) = 0.16842 0.39307
# Poissons Ratio (y) = 0.13786 0.52578
# Poissons Ratio (z) = 0.23821 0.38925
#
# Static dielectric constant tensor:
#      x y z
#    x 1.775740 0.000000 -0.028390 
#    y 0.000000 1.701130 0.000000 
#    z -0.028390 0.000000 1.808700 
# 
# From -- ./inp_files/63871.got.cif
#   From: 2010.05.17/outbox.cif.g08.bks.cpg/sg11_32_cif.got.tgz:63871.got - 2010.06.03 12:22:45.
