data_PCOD9165211
_publ_section_title
;
Structure prediction by ZEFSAII (Michael W. Deem and Ramdas Pophale) SiO2 
 PCOD9165211
Probable space group: P 21/M
;
_chemical_formula_sum "Si O2"
_cell_formula_units_Z 28
_cell_length_a 12.051098
_cell_length_b 7.772388
_cell_length_c 16.487870
_cell_angle_alpha 90.000000
_cell_angle_beta 57.455572
_cell_angle_gamma 90.000000
_cell_volume 1301.847504
_symmetry_space_group_name_H-M "P 21/M"
_symmetry_group_IT_number 11
_symmetry_cell_setting 'monoclinic'
loop_
_space_group_symop_operation_xyz
x,y,z
-x,1/2+y,-z
-x,-y,-z
x,1/2-y,z
loop_
_atom_site_type_symbol
_atom_site_label
_atom_site_fract_x
_atom_site_fract_y
_atom_site_fract_z
Si Si1 0.603579 0.957499 0.029590
Si Si2 0.120377 0.039804 0.152638
Si Si3 0.474858 0.942558 0.418855
Si Si4 0.917296 0.541684 0.650251
Si Si5 0.200414 0.452906 0.469535
Si Si6 0.905176 0.044210 0.112148
Si Si7 0.605411 0.549231 0.208085
O O1 0.610725 0.750000 0.032022
O O2 0.570193 0.024503 0.133025
O O3 0.749109 0.018492 0.945900
O O4 0.500000 0.000000 0.000000
O O5 0.121645 0.250000 0.151330
O O6 0.123038 0.983361 0.244777
O O7 0.986937 0.987451 0.159357
O O8 0.527940 0.750000 0.396425
O O9 0.540805 0.031414 0.314142
O O10 0.500000 0.000000 0.500000
O O11 0.319857 0.950928 0.463860
O O12 0.918584 0.750000 0.648843
O O13 0.823103 0.486596 0.613691
O O14 0.063325 0.481256 0.569698
O O15 0.230386 0.250000 0.457483
O O16 0.886934 0.250000 0.122917
O O17 0.762831 0.961816 0.156294
O O18 0.000000 0.000000 0.000000
O O19 0.564624 0.750000 0.220758
#
# Coordination Sequence:
#
# PCOD9165211 Si02
#       7
#     4   4   4   4   4   4   4
#     4  10  21  39  60  86 122 157 193 237 289 351
#     4   9  19  36  59  85 115 152 190 238 293 344
#     4  11  25  43  63  86 118 158 201 249 303 361
#     4   9  19  37  61  87 116 153 196 245 297 350
#     4  10  21  38  60  87 118 153 196 245 299 356
#     4  11  21  37  61  87 118 155 197 240 290 347
#     4  10  23  43  62  85 120 158 197 248 302 351
#
# _framework density 21.507895000000001
#
# number of rings (size 3 to 8) (size 9 to 14) (size 15 to 20)
#    0.000    2.000    1.429    1.286    4.000    2.286 
#    0.000    1.429    0.000    0.000    0.000    0.000 
#    0.000    0.000    0.000    0.000    0.000    0.000 
#
# Total GULP energy -156364.701727 kJ/mol
# GULP energy per Si atom -5584.453633 kJ/mol
# Density = 2.145894 g / cm^3
# Si number density = 21.507895 Si / 1000 Ang^3
#
#
#
# Elastic Constant Matrix: (Units=GPa)
#
#
# Indices 1 2 3 4 5 6 
#
# 1 118.4029 -6.8060 59.2742 0.0000 30.9275 0.0000
# 2 -6.8060 29.3003 13.3458 0.0000 8.5079 0.0000
# 3 59.2742 13.3458 152.4648 0.0000 49.4252 0.0000
# 4 0.0000 0.0000 0.0000 16.5927 0.0000 0.3015
# 5 30.9275 8.5079 49.4252 0.0000 31.9342 0.0000
# 6 0.0000 0.0000 0.0000 0.3015 0.0000 24.2381
#
#
#
# Elastic Compliance Matrix: (Units=1/GPa)
#
#
# Indices 1 2 3 4 5 6 
#
# 1 0.012766 0.007118 -0.001934 0.000000 -0.011267 0.000000
# 2 0.007118 0.040960 -0.001165 0.000000 -0.016003 0.000000
# 3 -0.001934 -0.001165 0.013456 0.000000 -0.018644 0.000000
# 4 0.000000 0.000000 0.000000 0.060281 0.000000 -0.000750
# 5 -0.011267 -0.016003 -0.018644 0.000000 0.075345 0.000000
# 6 0.000000 0.000000 0.000000 -0.000750 0.000000 0.041267
#
#
# Mechanical properties :
#
#
# Convention : Reuss Voigt Hill
#
# Bulk Modulus (GPa) = 13.29417 47.97734 30.63576
# Shear Modulus (GPa) = 19.14898 30.17658 24.66278
#
# Velocity S-wave (km/s) = 2.98707 3.74979 3.38995
# Velocity P-wave (km/s) = 4.25338 6.41118 5.44033
#
# Compressibility (1/GPa) = 0.07522093
#
# Stress axis : x y z
#
# Youngs Moduli (GPa) = 78.33395 24.41407 74.31391
#
# Poissons Ratio (x) = -0.17377 0.14369
# Poissons Ratio (y) = -0.55755 0.08656
# Poissons Ratio (z) = 0.15146 0.02844
#
# Static dielectric constant tensor:
#      x y z
#    x 1.738850 0.000000 0.031190 
#    y 0.000000 1.875270 0.000000 
#    z 0.031190 0.000000 1.807760 
# 
# From -- ./inp_files/49133.got.cif
#   From: 2010.05.17/outbox.cif.g08.bks.cpg/sg11_25_cif.got.tgz:49133.got - 2010.06.03 12:22:45.
