data_PCOD9165518
_publ_section_title
;
Structure prediction by ZEFSAII (Michael W. Deem and Ramdas Pophale) SiO2 
 PCOD9165518
Probable space group: P 21/M
;
_chemical_formula_sum "Si O2"
_cell_formula_units_Z 32
_cell_length_a 11.950873
_cell_length_b 8.479586
_cell_length_c 15.605065
_cell_angle_alpha 90.000000
_cell_angle_beta 92.606472
_cell_angle_gamma 90.000000
_cell_volume 1579.757136
_symmetry_space_group_name_H-M "P 21/M"
_symmetry_group_IT_number 11
_symmetry_cell_setting 'monoclinic'
loop_
_space_group_symop_operation_xyz
x,y,z
-x,1/2+y,-z
-x,-y,-z
x,1/2-y,z
loop_
_atom_site_type_symbol
_atom_site_label
_atom_site_fract_x
_atom_site_fract_y
_atom_site_fract_z
Si Si1 0.331630 0.442000 0.894882
Si Si2 0.824695 0.563444 0.552139
Si Si3 0.892771 0.564544 0.204736
Si Si4 0.484540 0.561606 0.232007
Si Si5 0.326566 0.063455 0.084382
Si Si6 0.930046 0.064134 0.386506
Si Si7 0.422957 0.938795 0.419489
Si Si8 0.939474 0.564913 0.913828
O O1 0.338287 0.250000 0.898775
O O2 0.204601 0.480870 0.865346
O O3 0.410408 0.498451 0.820425
O O4 0.362667 0.497687 0.991367
O O5 0.811582 0.750000 0.564124
O O6 0.858087 0.525644 0.455305
O O7 0.707358 0.485236 0.572974
O O8 0.938917 0.512100 0.605173
O O9 0.881534 0.750000 0.222432
O O10 0.882697 0.469993 0.291748
O O11 0.010221 0.527125 0.164678
O O12 0.497646 0.750000 0.239504
O O13 0.381095 0.523330 0.166291
O O14 0.466532 0.501345 0.327938
O O15 0.354135 0.250000 0.091595
O O16 0.193003 0.048097 0.082663
O O17 0.927860 0.250000 0.406754
O O18 0.430193 0.750000 0.419855
O O19 0.500000 0.000000 0.500000
O O20 0.964923 0.750000 0.904842
O O21 0.000000 0.500000 0.000000
#
# Coordination Sequence:
#
# PCOD9165518 Si02
#       8
#     4   4   4   4   4   4   4   4
#     4   9  19  39  61  86 122 161 202 250 303 359
#     4  10  22  42  66  89 122 164 201 250 316 373
#     4  11  22  37  61  89 123 166 204 246 306 370
#     4  10  23  41  63  90 119 157 206 253 305 366
#     4  10  21  39  62  87 121 161 202 253 309 362
#     4  10  22  40  63  95 126 156 202 256 306 370
#     4  11  25  43  64  92 125 162 208 262 314 375
#     4  11  22  38  58  86 123 161 203 251 305 365
#
# _framework density 20.256277999999998
#
# number of rings (size 3 to 8) (size 9 to 14) (size 15 to 20)
#    0.000    1.750    1.250    2.250    3.500    3.500 
#    0.000    1.250    0.000    0.000    0.000    0.000 
#    0.000    0.000    0.000    0.000    0.000    0.000 
#
# Total GULP energy -178701.985241 kJ/mol
# GULP energy per Si atom -5584.437039 kJ/mol
# Density = 2.021017 g / cm^3
# Si number density = 20.256278 Si / 1000 Ang^3
#
#
#
# Elastic Constant Matrix: (Units=GPa)
#
#
# Indices 1 2 3 4 5 6 
#
# 1 62.1644 14.8330 28.5718 0.0000 -9.8875 0.0000
# 2 14.8330 17.5966 4.8455 0.0000 -2.9381 0.0000
# 3 28.5718 4.8455 129.5408 0.0000 0.3196 0.0000
# 4 0.0000 0.0000 0.0000 28.3238 0.0000 0.7532
# 5 -9.8875 -2.9381 0.3196 0.0000 19.6330 0.0000
# 6 0.0000 0.0000 0.0000 0.7532 0.0000 28.1567
#
#
#
# Elastic Compliance Matrix: (Units=1/GPa)
#
#
# Indices 1 2 3 4 5 6 
#
# 1 0.023841 -0.017233 -0.004637 0.000000 0.009503 0.000000
# 2 -0.017233 0.071377 0.001126 0.000000 0.001984 0.000000
# 3 -0.004637 0.001126 0.008706 0.000000 -0.002309 0.000000
# 4 0.000000 0.000000 0.000000 0.035331 0.000000 -0.000945
# 5 0.009503 0.001984 -0.002309 0.000000 0.056055 0.000000
# 6 0.000000 0.000000 0.000000 -0.000945 0.000000 0.035541
#
#
# Mechanical properties :
#
#
# Convention : Reuss Voigt Hill
#
# Bulk Modulus (GPa) = 16.01646 33.97804 24.99725
# Shear Modulus (GPa) = 17.05600 25.95948 21.50774
#
# Velocity S-wave (km/s) = 2.90489 3.58376 3.26203
# Velocity P-wave (km/s) = 4.37896 5.82537 5.15316
#
# Compressibility (1/GPa) = 0.06243577
#
# Stress axis : x y z
#
# Youngs Moduli (GPa) = 41.94398 14.01010 114.86377
#
# Poissons Ratio (x) = 0.24144 0.53266
# Poissons Ratio (y) = 0.72283 -0.12937
# Poissons Ratio (z) = 0.19451 -0.01578
#
# Static dielectric constant tensor:
#      x y z
#    x 1.722920 0.000000 -0.007660 
#    y 0.000000 1.698020 0.000000 
#    z -0.007660 0.000000 1.711510 
# 
# From -- ./inp_files/49331.got.cif
#   From: 2010.05.17/outbox.cif.g08.bks.cpg/sg11_25_cif.got.tgz:49331.got - 2010.06.03 12:22:45.
