data_PCOD9165611
_publ_section_title
;
Structure prediction by ZEFSAII (Michael W. Deem and Ramdas Pophale) SiO2 
 PCOD9165611
Probable space group: P 21/M
;
_chemical_formula_sum "Si O2"
_cell_formula_units_Z 32
_cell_length_a 28.093200
_cell_length_b 8.745802
_cell_length_c 21.891328
_cell_angle_alpha 90.000000
_cell_angle_beta 161.342109
_cell_angle_gamma 90.000000
_cell_volume 1720.718998
_symmetry_space_group_name_H-M "P 21/M"
_symmetry_group_IT_number 11
_symmetry_cell_setting 'monoclinic'
loop_
_space_group_symop_operation_xyz
x,y,z
-x,1/2+y,-z
-x,-y,-z
x,1/2-y,z
loop_
_atom_site_type_symbol
_atom_site_label
_atom_site_fract_x
_atom_site_fract_y
_atom_site_fract_z
Si Si1 0.065840 0.069904 0.641453
Si Si2 0.228996 0.567127 0.308792
Si Si3 0.384424 0.568109 0.037925
Si Si4 0.458680 0.931862 0.268202
Si Si5 0.161498 0.066478 0.969131
Si Si6 0.920572 0.565627 0.993081
Si Si7 0.418947 0.067056 0.841867
Si Si8 0.921147 0.933097 0.585665
O O1 0.035373 0.250000 0.608568
O O2 0.240108 0.035065 0.854630
O O3 0.000000 0.000000 0.500000
O O4 0.996334 0.981805 0.613945
O O5 0.240738 0.750000 0.322706
O O6 0.386934 0.497227 0.518793
O O7 0.093486 0.524187 0.190129
O O8 0.175480 0.509023 0.177549
O O9 0.344629 0.750000 0.987103
O O10 0.450187 0.538943 0.185039
O O11 0.492619 0.535986 0.113012
O O12 0.454563 0.750000 0.272354
O O13 0.313364 0.002116 0.124359
O O14 0.166248 0.250000 0.971478
O O15 0.137002 0.021432 0.010015
O O16 0.020539 0.006812 0.759423
O O17 0.910094 0.750000 0.975031
O O18 0.414511 0.250000 0.844812
O O19 0.249615 0.013822 0.626335
O O20 0.500000 0.000000 0.000000
O O21 0.923974 0.750000 0.596327
#
# Coordination Sequence:
#
# PCOD9165611 Si02
#       8
#     4   4   4   4   4   4   4   4
#     4  12  24  39  62  88 118 158 201 248 299 354
#     4  10  21  39  64  93 124 159 202 249 297 356
#     4  10  22  41  61  86 120 157 201 250 297 356
#     4  11  23  39  62  89 123 163 202 248 300 355
#     4  11  23  40  62  90 123 159 201 249 299 354
#     4   9  21  41  63  91 125 160 201 248 298 356
#     4  10  23  41  61  87 118 154 198 248 302 358
#     4  11  23  40  61  89 122 156 199 247 300 362
#
# _framework density 18.596878
#
# number of rings (size 3 to 8) (size 9 to 14) (size 15 to 20)
#    0.000    1.500    1.250    3.375    1.750    6.000 
#    0.000    0.000    0.000    0.000    0.000    0.000 
#    0.000    0.000    0.000    0.000    0.000    0.000 
#
# Total GULP energy -178808.550273 kJ/mol
# GULP energy per Si atom -5587.767196 kJ/mol
# Density = 1.855455 g / cm^3
# Si number density = 18.596878 Si / 1000 Ang^3
#
#
#
# Elastic Constant Matrix: (Units=GPa)
#
#
# Indices 1 2 3 4 5 6 
#
# 1 154.2032 46.3485 76.9082 0.0000 -4.4138 0.0000
# 2 46.3485 44.7183 54.0948 0.0000 -3.4549 0.0000
# 3 76.9082 54.0948 167.0536 0.0000 -0.5640 0.0000
# 4 0.0000 0.0000 0.0000 35.4398 0.0000 -16.3837
# 5 -4.4138 -3.4549 -0.5640 0.0000 26.7622 0.0000
# 6 0.0000 0.0000 0.0000 -16.3837 0.0000 -41.0571
#
#
#
# Elastic Compliance Matrix: (Units=1/GPa)
#
#
# Indices 1 2 3 4 5 6 
#
# 1 0.009824 -0.007674 -0.002036 0.000000 0.000587 0.000000
# 2 -0.007674 0.043306 -0.010476 0.000000 0.004104 0.000000
# 3 -0.002036 -0.010476 0.010311 0.000000 -0.001471 0.000000
# 4 0.000000 0.000000 0.000000 0.023822 0.000000 -0.009506
# 5 0.000587 0.004104 -0.001471 0.000000 0.037962 0.000000
# 6 0.000000 0.000000 0.000000 -0.009506 0.000000 -0.020563
#
#
# Mechanical properties :
#
#
# Convention : Reuss Voigt Hill
#
# Bulk Modulus (GPa) = 43.34938 80.07534 61.71236
# Shear Modulus (GPa) = 32.73908 16.80391 24.77150
#
# Velocity S-wave (km/s) = 4.20034 3.00923 3.65365
# Velocity P-wave (km/s) = 6.84722 7.43142 7.14529
#
# Compressibility (1/GPa) = 0.02306838
#
# Stress axis : x y z
#
# Youngs Moduli (GPa) = 101.79646 23.09147 96.98591
#
# Poissons Ratio (x) = 0.17720 0.19743
# Poissons Ratio (y) = 0.78117 1.01607
# Poissons Ratio (z) = 0.20722 0.24192
#
# Static dielectric constant tensor:
#      x y z
#    x 1.616330 0.000000 0.008190 
#    y 0.000000 1.613680 0.000000 
#    z 0.008190 0.000000 1.617970 
# 
# From -- ./inp_files/67167.got.cif
#   From: 2010.05.17/outbox.cif.g08.bks.cpg/sg11_34_cif.got.tgz:67167.got - 2010.06.03 12:22:45.
