data_PCOD9165285
_publ_section_title
;
Structure prediction by ZEFSAII (Michael W. Deem and Ramdas Pophale) SiO2 
 PCOD9165285
Probable space group: P 21/M
;
_chemical_formula_sum "Si O2"
_cell_formula_units_Z 26
_cell_length_a 9.206770
_cell_length_b 22.038043
_cell_length_c 11.520936
_cell_angle_alpha 90.000000
_cell_angle_beta 142.079292
_cell_angle_gamma 90.000000
_cell_volume 1436.612662
_symmetry_space_group_name_H-M "P 21/M"
_symmetry_group_IT_number 11
_symmetry_cell_setting 'monoclinic'
loop_
_space_group_symop_operation_xyz
x,y,z
-x,1/2+y,-z
-x,-y,-z
x,1/2-y,z
loop_
_atom_site_type_symbol
_atom_site_label
_atom_site_fract_x
_atom_site_fract_y
_atom_site_fract_z
Si Si1 0.143340 0.982782 0.477454
Si Si2 0.353751 0.536145 0.226073
Si Si3 0.174866 0.839717 0.453286
Si Si4 0.741705 0.750000 0.448389
Si Si5 0.277272 0.750000 0.724399
Si Si6 0.250533 0.250000 0.823038
Si Si7 0.444309 0.146867 0.501411
Si Si8 0.057653 0.442139 0.193864
O O1 0.137649 0.911475 0.445152
O O2 0.412185 0.002842 0.668063
O O3 0.051351 0.023610 0.312622
O O4 0.000000 0.000000 0.500000
O O5 0.428719 0.589142 0.360459
O O6 0.207015 0.486577 0.204957
O O7 0.197222 0.563096 0.024406
O O8 0.261742 0.807790 0.627331
O O9 0.374388 0.828762 0.480966
O O10 0.925922 0.807072 0.266320
O O11 0.691641 0.750000 0.278640
O O12 0.630181 0.693017 0.445074
O O13 0.028714 0.750000 0.637682
O O14 0.512767 0.750000 0.950764
O O15 0.203516 0.119987 0.294941
#
# Coordination Sequence:
#
# PCOD9165285 Si02
#       8
#     4   4   4   2   2   2   4   4
#     4  11  22  37  61  90 126 158 191 241 296 354
#     4  10  21  38  61  90 122 155 192 239 293 349
#     4  10  21  41  63  88 117 161 198 239 293 351
#     4  10  24  40  62  84 112 152 198 250 302 338
#     4  10  25  43  59  85 119 154 196 246 298 352
#     4  10  25  43  59  85 119 154 196 246 298 352
#     4  11  20  41  63  86 117 154 201 246 289 345
#     4  10  21  38  61  90 122 155 192 239 293 349
#
# _framework density 18.098127000000002
#
# number of rings (size 3 to 8) (size 9 to 14) (size 15 to 20)
#    0.000    1.846    3.077    1.846    8.615    4.308 
#    0.000    1.538    0.000    0.000    0.000    0.000 
#    0.000    0.000    0.000    0.000    0.000    0.000 
#
# Total GULP energy -145078.106689 kJ/mol
# GULP energy per Si atom -5579.927180 kJ/mol
# Density = 1.805693 g / cm^3
# Si number density = 18.098127 Si / 1000 Ang^3
#
#
#
# Elastic Constant Matrix: (Units=GPa)
#
#
# Indices 1 2 3 4 5 6 
#
# 1 124.1308 10.4202 4.7585 0.0000 -1.2643 0.0000
# 2 10.4202 38.7540 -19.9065 0.0000 5.9077 0.0000
# 3 4.7585 -19.9065 85.3950 0.0000 2.0471 0.0000
# 4 0.0000 0.0000 0.0000 8.7817 0.0000 0.6521
# 5 -1.2643 5.9077 2.0471 0.0000 12.6360 0.0000
# 6 0.0000 0.0000 0.0000 0.6521 0.0000 22.2826
#
#
#
# Elastic Compliance Matrix: (Units=1/GPa)
#
#
# Indices 1 2 3 4 5 6 
#
# 1 0.008412 -0.003332 -0.001308 0.000000 0.002611 0.000000
# 2 -0.003332 0.033709 0.008462 0.000000 -0.017464 0.000000
# 3 -0.001308 0.008462 0.013908 0.000000 -0.006340 0.000000
# 4 0.000000 0.000000 0.000000 0.114122 0.000000 -0.003340
# 5 0.002611 -0.017464 -0.006340 0.000000 0.088593 0.000000
# 6 0.000000 0.000000 0.000000 -0.003340 0.000000 0.044976
#
#
# Mechanical properties :
#
#
# Convention : Reuss Voigt Hill
#
# Bulk Modulus (GPa) = 15.70520 26.53600 21.12060
# Shear Modulus (GPa) = 15.75800 25.60721 20.68260
#
# Velocity S-wave (km/s) = 2.95396 3.76561 3.38421
# Velocity P-wave (km/s) = 4.50901 5.79660 5.19286
#
# Compressibility (1/GPa) = 0.06367320
#
# Stress axis : x y z
#
# Youngs Moduli (GPa) = 118.87120 29.66598 71.90209
#
# Poissons Ratio (x) = 0.09885 0.09405
# Poissons Ratio (y) = 0.39607 -0.60845
# Poissons Ratio (z) = 0.15549 -0.25104
#
# Static dielectric constant tensor:
#      x y z
#    x 1.577450 0.000000 0.006680 
#    y 0.000000 1.623530 0.000000 
#    z 0.006680 0.000000 1.623050 
# 
# From -- ./inp_files/19502.got.cif
#   From: 2010.05.17/outbox.cif.g08.bks.cpg/sg11_10_cif.got.tgz:19502.got - 2010.06.03 12:22:45.
