data_PCOD9165481
_publ_section_title
;
Structure prediction by ZEFSAII (Michael W. Deem and Ramdas Pophale) SiO2 
 PCOD9165481
Probable space group: P 21/M
;
_chemical_formula_sum "Si O2"
_cell_formula_units_Z 32
_cell_length_a 16.662611
_cell_length_b 17.425890
_cell_length_c 13.038263
_cell_angle_alpha 90.000000
_cell_angle_beta 156.188902
_cell_angle_gamma 90.000000
_cell_volume 1528.413022
_symmetry_space_group_name_H-M "P 21/M"
_symmetry_group_IT_number 11
_symmetry_cell_setting 'monoclinic'
loop_
_space_group_symop_operation_xyz
x,y,z
-x,1/2+y,-z
-x,-y,-z
x,1/2-y,z
loop_
_atom_site_type_symbol
_atom_site_label
_atom_site_fract_x
_atom_site_fract_y
_atom_site_fract_z
Si Si1 0.030356 0.340253 0.486761
Si Si2 0.074979 0.838382 0.058957
Si Si3 0.029122 0.942323 0.199078
Si Si4 0.835920 0.664072 0.568866
Si Si5 0.429974 0.039707 0.674787
Si Si6 0.196096 0.659217 0.574963
Si Si7 0.582308 0.562981 0.015863
Si Si8 0.345770 0.553298 0.260179
O O1 0.085179 0.250000 0.566590
O O2 0.000497 0.348828 0.329227
O O3 0.862918 0.355756 0.375388
O O4 0.208534 0.398607 0.717453
O O5 0.104083 0.750000 0.121731
O O6 0.999225 0.887269 0.066411
O O7 0.273787 0.877687 0.247692
O O8 0.927616 0.841685 0.789116
O O9 0.063609 0.891821 0.341814
O O10 0.233899 0.989382 0.418857
O O11 0.848585 0.002149 0.993575
O O12 0.759130 0.750000 0.464791
O O13 0.658537 0.604143 0.353920
O O14 0.538110 0.077700 0.705717
O O15 0.580190 0.982790 0.906603
O O16 0.174227 0.750000 0.528898
O O17 0.419016 0.630122 0.819016
O O18 0.500000 0.500000 0.000000
O O19 0.500000 0.500000 0.500000
#
# Coordination Sequence:
#
# PCOD9165481 Si02
#       8
#     4   4   4   4   4   4   4   4
#     4  10  21  41  62  88 126 162 204 256 304 361
#     4  11  23  41  65  91 124 163 203 253 308 368
#     4  11  22  43  65  89 126 159 204 259 307 365
#     4  10  21  39  61  87 124 167 203 248 307 363
#     4  11  22  39  62  92 120 162 203 251 309 365
#     4  10  23  41  65  91 120 166 210 255 314 368
#     4  11  22  37  60  93 122 157 204 253 308 362
#     4  12  23  38  65  92 121 161 205 248 311 368
#
# _framework density 20.93675
#
# number of rings (size 3 to 8) (size 9 to 14) (size 15 to 20)
#    0.000    1.250    3.750    2.625    0.000    2.000 
#    0.000    1.250    0.000    0.000    0.000    0.000 
#    0.000    0.000    0.000    0.000    0.000    0.000 
#
# Total GULP energy -178758.449761 kJ/mol
# GULP energy per Si atom -5586.201555 kJ/mol
# Density = 2.088910 g / cm^3
# Si number density = 20.936750 Si / 1000 Ang^3
#
#
#
# Elastic Constant Matrix: (Units=GPa)
#
#
# Indices 1 2 3 4 5 6 
#
# 1 99.8140 21.0531 -15.8056 0.0000 -4.8193 0.0000
# 2 21.0531 91.8595 8.0040 0.0000 2.3908 0.0000
# 3 -15.8056 8.0040 31.1354 0.0000 -3.9851 0.0000
# 4 0.0000 0.0000 0.0000 22.6902 0.0000 2.8646
# 5 -4.8193 2.3908 -3.9851 0.0000 21.2821 0.0000
# 6 0.0000 0.0000 0.0000 2.8646 0.0000 36.8682
#
#
#
# Elastic Compliance Matrix: (Units=1/GPa)
#
#
# Indices 1 2 3 4 5 6 
#
# 1 0.012222 -0.003594 0.007719 0.000000 0.004617 0.000000
# 2 -0.003594 0.012262 -0.005386 0.000000 -0.003200 0.000000
# 3 0.007719 -0.005386 0.038648 0.000000 0.009590 0.000000
# 4 0.000000 0.000000 0.000000 0.044509 0.000000 -0.003458
# 5 0.004617 -0.003200 0.009590 0.000000 0.050188 0.000000
# 6 0.000000 0.000000 0.000000 -0.003458 0.000000 0.027392
#
#
# Mechanical properties :
#
#
# Convention : Reuss Voigt Hill
#
# Bulk Modulus (GPa) = 16.49871 27.70131 22.10001
# Shear Modulus (GPa) = 24.04449 30.13859 27.09154
#
# Velocity S-wave (km/s) = 3.39253 3.79820 3.60108
# Velocity P-wave (km/s) = 4.82111 5.70042 5.27910
#
# Compressibility (1/GPa) = 0.06061079
#
# Stress axis : x y z
#
# Youngs Moduli (GPa) = 81.82026 81.54962 25.87426
#
# Poissons Ratio (x) = 0.29308 -0.19973
# Poissons Ratio (y) = 0.29405 0.13937
# Poissons Ratio (z) = -0.63158 0.43925
#
# Static dielectric constant tensor:
#      x y z
#    x 1.758740 0.000000 -0.042450 
#    y 0.000000 1.743080 0.000000 
#    z -0.042450 0.000000 1.758560 
# 
# From -- ./inp_files/40060.got.cif
#   From: 2010.05.17/outbox.cif.g08.bks.cpg/sg11_21_cif.got.tgz:40060.got - 2010.06.03 12:22:45.
