data_PCOD9165664
_publ_section_title
;
Structure prediction by ZEFSAII (Michael W. Deem and Ramdas Pophale) SiO2 
 PCOD9165664
Probable space group: P 21/M
;
_chemical_formula_sum "Si O2"
_cell_formula_units_Z 28
_cell_length_a 5.546829
_cell_length_b 18.887114
_cell_length_c 10.592467
_cell_angle_alpha 90.000000
_cell_angle_beta 62.499444
_cell_angle_gamma 90.000000
_cell_volume 984.315284
_symmetry_space_group_name_H-M "P 21/M"
_symmetry_group_IT_number 11
_symmetry_cell_setting 'monoclinic'
loop_
_space_group_symop_operation_xyz
x,y,z
-x,1/2+y,-z
-x,-y,-z
x,1/2-y,z
loop_
_atom_site_type_symbol
_atom_site_label
_atom_site_fract_x
_atom_site_fract_y
_atom_site_fract_z
Si Si1 0.661808 0.918974 0.657742
Si Si2 0.385471 0.402047 0.614897
Si Si3 0.136013 0.977842 0.199681
Si Si4 0.210220 0.834205 0.854785
Si Si5 0.122918 0.671287 0.570429
Si Si6 0.663549 0.605936 0.018997
Si Si7 0.797027 0.750000 0.256256
Si Si8 0.552923 0.250000 0.923983
O O1 0.610508 0.934138 0.526137
O O2 0.411955 0.901799 0.809425
O O3 0.811638 0.843528 0.619809
O O4 0.849142 0.976769 0.676238
O O5 0.702961 0.383827 0.554166
O O6 0.265442 0.322584 0.654174
O O7 0.168654 0.448156 0.745284
O O8 0.220716 0.036417 0.076811
O O9 0.383335 0.921355 0.149890
O O10 0.259829 0.750000 0.863554
O O11 0.155682 0.836649 0.714093
O O12 0.947719 0.859185 0.998479
O O13 0.201118 0.750000 0.516469
O O14 0.549290 0.678618 0.983282
O O15 0.599604 0.750000 0.177749
O O16 0.124077 0.750000 0.163149
#
# Coordination Sequence:
#
# PCOD9165664 Si02
#       8
#     4   4   4   4   4   4   2   2
#     4  11  24  42  72 105 152 204 254 322 395 479
#     4  11  25  45  73 110 154 194 267 321 406 464
#     4  11  25  48  72 111 157 212 257 321 401 487
#     4  10  21  42  66 106 141 190 257 318 387 457
#     4  10  21  39  68 102 140 190 246 321 384 457
#     4  11  24  49  75 107 156 202 268 321 395 468
#     4  12  28  52  80 123 153 208 272 339 396 482
#     4  12  28  54  82 115 159 210 270 339 396 468
#
# _framework density 28.446169999999999
#
# number of rings (size 3 to 8) (size 9 to 14) (size 15 to 20)
#    0.000    1.143    4.286    0.857    4.000    2.286 
#    6.429    0.000    0.000    0.000    0.000    0.000 
#    0.000    0.000    0.000    0.000    0.000    0.000 
#
# Total GULP energy -156514.178104 kJ/mol
# GULP energy per Si atom -5589.792075 kJ/mol
# Density = 2.838143 g / cm^3
# Si number density = 28.446170 Si / 1000 Ang^3
#
#
#
# Elastic Constant Matrix: (Units=GPa)
#
#
# Indices 1 2 3 4 5 6 
#
# 1 63.6419 33.5521 22.9931 0.0000 -24.1951 0.0000
# 2 33.5521 147.4945 45.9697 0.0000 -4.1002 0.0000
# 3 22.9931 45.9697 117.7687 0.0000 -16.6793 0.0000
# 4 0.0000 0.0000 0.0000 60.9060 0.0000 -17.1912
# 5 -24.1951 -4.1002 -16.6793 0.0000 60.7162 0.0000
# 6 0.0000 0.0000 0.0000 -17.1912 0.0000 52.1542
#
#
#
# Elastic Compliance Matrix: (Units=1/GPa)
#
#
# Indices 1 2 3 4 5 6 
#
# 1 0.021441 -0.004214 -0.001427 0.000000 0.007868 0.000000
# 2 -0.004214 0.008553 -0.002780 0.000000 -0.001865 0.000000
# 3 -0.001427 -0.002780 0.010142 0.000000 0.002030 0.000000
# 4 0.000000 0.000000 0.000000 0.018103 0.000000 0.005967
# 5 0.007868 -0.001865 0.002030 0.000000 0.020037 0.000000
# 6 0.000000 0.000000 0.000000 0.005967 0.000000 0.021141
#
#
# Mechanical properties :
#
#
# Convention : Reuss Voigt Hill
#
# Bulk Modulus (GPa) = 42.92828 59.32609 51.12719
# Shear Modulus (GPa) = 40.31460 49.84796 45.08128
#
# Velocity S-wave (km/s) = 3.76869 4.19066 3.98526
# Velocity P-wave (km/s) = 5.83619 6.65705 6.26009
#
# Compressibility (1/GPa) = 0.02329466
#
# Stress axis : x y z
#
# Youngs Moduli (GPa) = 46.63922 116.91641 98.59523
#
# Poissons Ratio (x) = 0.49268 0.14070
# Poissons Ratio (y) = 0.19654 0.27410
# Poissons Ratio (z) = 0.06655 0.32504
#
# Static dielectric constant tensor:
#      x y z
#    x 2.320670 0.000000 0.068870 
#    y 0.000000 2.140870 0.000000 
#    z 0.068870 0.000000 2.208180 
# 
# From -- ./inp_files/45994.got.cif
#   From: 2010.05.17/outbox.cif.g08.bks.cpg/sg11_23_cif.got.tgz:45994.got - 2010.06.03 12:22:45.
