data_PCOD9165779
_publ_section_title
;
Structure prediction by ZEFSAII (Michael W. Deem and Ramdas Pophale) SiO2 
 PCOD9165779
Probable space group: P 21/M
;
_chemical_formula_sum "Si O2"
_cell_formula_units_Z 28
_cell_length_a 12.947201
_cell_length_b 8.652798
_cell_length_c 14.969174
_cell_angle_alpha 90.000000
_cell_angle_beta 58.679755
_cell_angle_gamma 90.000000
_cell_volume 1432.610386
_symmetry_space_group_name_H-M "P 21/M"
_symmetry_group_IT_number 11
_symmetry_cell_setting 'monoclinic'
loop_
_space_group_symop_operation_xyz
x,y,z
-x,1/2+y,-z
-x,-y,-z
x,1/2-y,z
loop_
_atom_site_type_symbol
_atom_site_label
_atom_site_fract_x
_atom_site_fract_y
_atom_site_fract_z
Si Si1 0.082281 0.064357 0.883448
Si Si2 0.001170 0.435346 0.269883
Si Si3 0.454864 0.065813 0.426482
Si Si4 0.193057 0.563228 0.493252
Si Si5 0.513713 0.064314 0.895146
Si Si6 0.642301 0.563026 0.198549
Si Si7 0.216418 0.936518 0.281206
O O1 0.076809 0.250000 0.885745
O O2 0.221117 0.017558 0.840211
O O3 0.038375 0.002822 0.807408
O O4 0.000000 0.000000 0.000000
O O5 0.999382 0.250000 0.265345
O O6 0.907654 0.485645 0.389995
O O7 0.132015 0.491874 0.243418
O O8 0.450674 0.250000 0.431313
O O9 0.500000 0.000000 0.500000
O O10 0.322756 0.000279 0.464078
O O11 0.549128 0.009069 0.310006
O O12 0.197754 0.750000 0.491733
O O13 0.171958 0.514528 0.399998
O O14 0.513225 0.250000 0.899591
O O15 0.405109 0.016970 0.878202
O O16 0.643489 0.018397 0.795151
O O17 0.500000 0.000000 0.000000
O O18 0.634489 0.750000 0.208358
O O19 0.209321 0.750000 0.279472
#
# Coordination Sequence:
#
# PCOD9165779 Si02
#       7
#     4   4   4   4   4   4   4
#     4  11  25  44  67  92 123 165 210 260 313 371
#     4  11  24  40  63  93 127 167 211 260 308 370
#     4  12  24  37  61  93 126 165 206 255 307 369
#     4  10  21  41  64  90 127 166 207 256 310 368
#     4  10  22  40  64  93 126 163 204 255 313 370
#     4  10  22  44  67  90 124 163 205 258 313 367
#     4  10  21  40  65  92 127 168 204 254 315 369
#
# _framework density 19.544740999999998
#
# number of rings (size 3 to 8) (size 9 to 14) (size 15 to 20)
#    0.000    1.429    1.429    3.429    2.000    6.286 
#    0.000    0.000    0.000    0.000    0.000    0.000 
#    0.000    0.000    0.000    0.000    0.000    0.000 
#
# Total GULP energy -156557.329436 kJ/mol
# GULP energy per Si atom -5591.333194 kJ/mol
# Density = 1.950026 g / cm^3
# Si number density = 19.544741 Si / 1000 Ang^3
#
#
#
# Elastic Constant Matrix: (Units=GPa)
#
#
# Indices 1 2 3 4 5 6 
#
# 1 156.9370 24.0501 39.2091 0.0000 23.9065 0.0000
# 2 24.0501 11.1685 15.3121 0.0000 4.4896 0.0000
# 3 39.2091 15.3121 85.7211 0.0000 26.9327 0.0000
# 4 0.0000 0.0000 0.0000 32.9292 0.0000 2.3871
# 5 23.9065 4.4896 26.9327 0.0000 39.3851 0.0000
# 6 0.0000 0.0000 0.0000 2.3871 0.0000 29.7149
#
#
#
# Elastic Compliance Matrix: (Units=1/GPa)
#
#
# Indices 1 2 3 4 5 6 
#
# 1 0.010030 -0.020425 0.000308 0.000000 -0.003971 0.000000
# 2 -0.020425 0.160216 -0.022204 0.000000 0.009318 0.000000
# 3 0.000308 -0.022204 0.018792 0.000000 -0.010507 0.000000
# 4 0.000000 0.000000 0.000000 0.030546 0.000000 -0.002454
# 5 -0.003971 0.009318 -0.010507 0.000000 0.033923 0.000000
# 6 0.000000 0.000000 0.000000 -0.002454 0.000000 0.033850
#
#
# Mechanical properties :
#
#
# Convention : Reuss Voigt Hill
#
# Bulk Modulus (GPa) = 9.57885 45.66323 27.62104
# Shear Modulus (GPa) = 12.29112 32.08954 22.19033
#
# Velocity S-wave (km/s) = 2.51045 4.05637 3.37317
# Velocity P-wave (km/s) = 3.64894 6.73446 5.41608
#
# Compressibility (1/GPa) = 0.10439667
#
# Stress axis : x y z
#
# Youngs Moduli (GPa) = 99.70279 6.24157 53.21370
#
# Poissons Ratio (x) = 0.12748 -0.01640
# Poissons Ratio (y) = 2.03638 1.18158
# Poissons Ratio (z) = -0.03073 0.13859
#
# Static dielectric constant tensor:
#      x y z
#    x 1.663420 0.000000 -0.000880 
#    y 0.000000 1.630310 0.000000 
#    z -0.000880 0.000000 1.662770 
# 
# From -- ./inp_files/38398.got.cif
#   From: 2010.05.17/outbox.cif.g08.bks.cpg/sg11_20_cif.got.tgz:38398.got - 2010.06.03 12:22:45.
