data_PCOD9165985
_publ_section_title
;
Structure prediction by ZEFSAII (Michael W. Deem and Ramdas Pophale) SiO2 
 PCOD9165985
Probable space group: P 21/M
;
_chemical_formula_sum "Si O2"
_cell_formula_units_Z 22
_cell_length_a 7.229385
_cell_length_b 16.627647
_cell_length_c 14.415781
_cell_angle_alpha 90.000000
_cell_angle_beta 31.436468
_cell_angle_gamma 90.000000
_cell_volume 903.792238
_symmetry_space_group_name_H-M "P 21/M"
_symmetry_group_IT_number 11
_symmetry_cell_setting 'monoclinic'
loop_
_space_group_symop_operation_xyz
x,y,z
-x,1/2+y,-z
-x,-y,-z
x,1/2-y,z
loop_
_atom_site_type_symbol
_atom_site_label
_atom_site_fract_x
_atom_site_fract_y
_atom_site_fract_z
Si Si1 0.244527 0.250000 0.979785
Si Si2 0.626555 0.660089 0.598138
Si Si3 0.401577 0.843888 0.490371
Si Si4 0.368118 0.959160 0.867020
Si Si5 0.423266 0.619724 0.281229
Si Si6 0.598370 0.835590 0.897430
O O1 0.282233 0.178403 0.885883
O O2 0.315640 0.319339 0.032340
O O3 0.448401 0.750000 0.683350
O O4 0.560605 0.632206 0.521392
O O5 0.469855 0.603218 0.742877
O O6 0.046198 0.664742 0.433415
O O7 0.505400 0.750000 0.431004
O O8 0.493986 0.893535 0.359947
O O9 0.978253 0.845292 0.685146
O O10 0.378621 0.911825 0.959138
O O11 0.627011 0.035505 0.749659
O O12 0.000000 0.000000 0.000000
O O13 0.438744 0.750000 0.932539
#
# Coordination Sequence:
#
# PCOD9165985 Si02
#       6
#     2   4   4   4   4   4
#     4  10  24  42  76 102 140 196 244 294 370 432
#     4  11  24  46  77 106 142 201 242 293 365 443
#     4  10  21  42  76 103 137 191 251 284 357 438
#     4  12  28  45  70 113 154 189 242 309 368 428
#     4  12  24  47  73 107 146 183 247 312 358 422
#     4   9  22  47  71 100 143 200 235 291 366 446
#
# _framework density 24.341878000000001
#
# number of rings (size 3 to 8) (size 9 to 14) (size 15 to 20)
#    0.545    0.727    3.636    1.091    2.545    2.909 
#    1.636    0.000    0.000    0.000    0.000    0.000 
#    0.000    0.000    0.000    0.000    0.000    0.000 
#
# Total GULP energy -122595.243698 kJ/mol
# GULP energy per Si atom -5572.511077 kJ/mol
# Density = 2.428647 g / cm^3
# Si number density = 24.341878 Si / 1000 Ang^3
#
#
#
# Elastic Constant Matrix: (Units=GPa)
#
#
# Indices 1 2 3 4 5 6 
#
# 1 70.3110 9.7376 -2.1192 0.0000 27.7732 0.0000
# 2 9.7376 107.8401 8.7181 0.0000 8.4200 0.0000
# 3 -2.1192 8.7181 13.4165 0.0000 12.5730 0.0000
# 4 0.0000 0.0000 0.0000 26.8579 0.0000 -52.8452
# 5 27.7732 8.4200 12.5730 0.0000 29.9371 0.0000
# 6 0.0000 0.0000 0.0000 -52.8452 0.0000 -406.0969
#
#
#
# Elastic Compliance Matrix: (Units=1/GPa)
#
#
# Indices 1 2 3 4 5 6 
#
# 1 0.049818 -0.005220 0.087722 0.000000 -0.081590 0.000000
# 2 -0.005220 0.010334 -0.015425 0.000000 0.008414 0.000000
# 3 0.087722 -0.015425 0.281344 0.000000 -0.195202 0.000000
# 4 0.000000 0.000000 0.000000 0.029643 0.000000 -0.003857
# 5 -0.081590 0.008414 -0.195202 0.000000 0.188711 0.000000
# 6 0.000000 0.000000 0.000000 -0.003857 0.000000 -0.001960
#
#
# Mechanical properties :
#
#
# Convention : Reuss Voigt Hill
#
# Bulk Modulus (GPa) = 2.10238 24.91564 13.50901
# Shear Modulus (GPa) = 8.58685 -58.17831 -24.79573
#
# Velocity S-wave (km/s) = 1.88023 -4.89412 -3.19508
# Velocity P-wave (km/s) = 2.36204 4.65603 2.83719
#
# Compressibility (1/GPa) = 0.47565161
#
# Stress axis : x y z
#
# Youngs Moduli (GPa) = 20.07311 96.76489 3.55436
#
# Poissons Ratio (x) = 0.50507 -0.31179
# Poissons Ratio (y) = 0.10477 0.05482
# Poissons Ratio (z) = -1.76085 1.49255
#
# Static dielectric constant tensor:
#      x y z
#    x 1.997960 0.000000 -0.129850 
#    y 0.000000 1.981200 0.000000 
#    z -0.129850 0.000000 2.121330 
# 
# From -- ./inp_files/58067.got.cif
#   From: 2010.05.17/outbox.cif.g08.bks.cpg/sg11_30_cif.got.tgz:58067.got - 2010.06.03 12:22:45.
