data_PCOD9165916
_publ_section_title
;
Structure prediction by ZEFSAII (Michael W. Deem and Ramdas Pophale) SiO2 
 PCOD9165916
Probable space group: P 21/M
;
_chemical_formula_sum "Si O2"
_cell_formula_units_Z 24
_cell_length_a 14.947515
_cell_length_b 9.419337
_cell_length_c 21.266110
_cell_angle_alpha 90.000000
_cell_angle_beta 21.404646
_cell_angle_gamma 90.000000
_cell_volume 1092.731521
_symmetry_space_group_name_H-M "P 21/M"
_symmetry_group_IT_number 11
_symmetry_cell_setting 'monoclinic'
loop_
_space_group_symop_operation_xyz
x,y,z
-x,1/2+y,-z
-x,-y,-z
x,1/2-y,z
loop_
_atom_site_type_symbol
_atom_site_label
_atom_site_fract_x
_atom_site_fract_y
_atom_site_fract_z
Si Si1 0.875454 0.586661 0.781040
Si Si2 0.619014 0.995789 0.706324
Si Si3 0.150456 0.597518 0.318739
Si Si4 0.539845 0.406289 0.622014
Si Si5 0.149275 0.589957 0.080523
Si Si6 0.692823 0.419841 0.328392
O O1 0.802660 0.750000 0.838359
O O2 0.794015 0.526856 0.766789
O O3 0.793622 0.483652 0.890151
O O4 0.173882 0.582038 0.584837
O O5 0.862809 0.914028 0.524572
O O6 0.706826 0.084431 0.709339
O O7 0.535346 0.082256 0.700049
O O8 0.392439 0.906598 0.879631
O O9 0.197617 0.750000 0.257715
O O10 0.451126 0.250000 0.659698
O O11 0.388622 0.529957 0.687598
O O12 0.052184 0.750000 0.152756
O O13 0.953480 0.486870 0.175536
O O14 0.500000 0.500000 0.500000
O O15 0.688361 0.250000 0.338923
#
# Coordination Sequence:
#
# PCOD9165916 Si02
#       6
#     4   4   4   4   4   4
#     4  10  22  39  64  95 129 169 216 268 319 381
#     4  10  24  41  65  97 133 168 214 269 323 378
#     4  10  21  42  69  94 126 172 219 263 320 387
#     4  10  21  41  67  94 127 171 218 263 318 383
#     4  12  25  42  66  96 131 169 215 271 323 380
#     4  12  25  42  67  96 129 169 214 264 320 385
#
# _framework density 21.963308999999999
#
# number of rings (size 3 to 8) (size 9 to 14) (size 15 to 20)
#    0.000    1.333    1.667    3.500    0.000   12.000 
#    0.000    0.000    0.000    0.000    0.000    0.000 
#    0.000    0.000    0.000    0.000    0.000    0.000 
#
# Total GULP energy -134199.509950 kJ/mol
# GULP energy per Si atom -5591.646248 kJ/mol
# Density = 2.191332 g / cm^3
# Si number density = 21.963309 Si / 1000 Ang^3
#
#
#
# Elastic Constant Matrix: (Units=GPa)
#
#
# Indices 1 2 3 4 5 6 
#
# 1 123.5522 56.1463 30.9682 0.0000 2.0826 0.0000
# 2 56.1463 191.0178 33.9201 0.0000 -1.5806 0.0000
# 3 30.9682 33.9201 86.2048 0.0000 2.3270 0.0000
# 4 0.0000 0.0000 0.0000 6.0100 0.0000 15.2155
# 5 2.0826 -1.5806 2.3270 0.0000 26.2212 0.0000
# 6 0.0000 0.0000 0.0000 15.2155 0.0000 4.0259
#
#
#
# Elastic Compliance Matrix: (Units=1/GPa)
#
#
# Indices 1 2 3 4 5 6 
#
# 1 0.009860 -0.002450 -0.002559 0.000000 -0.000704 0.000000
# 2 -0.002450 0.006245 -0.001596 0.000000 0.000713 0.000000
# 3 -0.002559 -0.001596 0.013177 0.000000 -0.001062 0.000000
# 4 0.000000 0.000000 0.000000 -0.019419 0.000000 0.073393
# 5 -0.000704 0.000713 -0.001062 0.000000 0.038330 0.000000
# 6 0.000000 0.000000 0.000000 0.073393 0.000000 -0.028989
#
#
# Mechanical properties :
#
#
# Convention : Reuss Voigt Hill
#
# Bulk Modulus (GPa) = 62.22493 71.42710 66.82601
# Shear Modulus (GPa) = 132.37676 25.90075 79.13876
#
# Velocity S-wave (km/s) = 7.77191 3.43778 6.00920
# Velocity P-wave (km/s) = 10.43694 6.95338 8.86790
#
# Compressibility (1/GPa) = 0.01607073
#
# Stress axis : x y z
#
# Youngs Moduli (GPa) = 101.41699 160.14092 75.89267
#
# Poissons Ratio (x) = 0.39228 0.19423
# Poissons Ratio (y) = 0.24843 0.12115
# Poissons Ratio (z) = 0.25956 0.25564
#
# Static dielectric constant tensor:
#      x y z
#    x 1.802420 0.000000 -0.004280 
#    y 0.000000 1.786830 0.000000 
#    z -0.004280 0.000000 1.806030 
# 
# From -- ./inp_files/69496.got.cif
#   From: 2010.05.17/outbox.cif.g08.bks.cpg/sg11_35_cif.got.tgz:69496.got - 2010.06.03 12:22:45.
