data_PCOD9165778
_publ_section_title
;
Structure prediction by ZEFSAII (Michael W. Deem and Ramdas Pophale) SiO2 
 PCOD9165778
Probable space group: P 21/M
;
_chemical_formula_sum "Si O2"
_cell_formula_units_Z 32
_cell_length_a 22.470112
_cell_length_b 8.834577
_cell_length_c 14.546515
_cell_angle_alpha 90.000000
_cell_angle_beta 149.530309
_cell_angle_gamma 90.000000
_cell_volume 1464.294992
_symmetry_space_group_name_H-M "P 21/M"
_symmetry_group_IT_number 11
_symmetry_cell_setting 'monoclinic'
loop_
_space_group_symop_operation_xyz
x,y,z
-x,1/2+y,-z
-x,-y,-z
x,1/2-y,z
loop_
_atom_site_type_symbol
_atom_site_label
_atom_site_fract_x
_atom_site_fract_y
_atom_site_fract_z
Si Si1 0.653742 0.571120 0.103504
Si Si2 0.774300 0.429215 0.425032
Si Si3 0.251364 0.571454 0.394127
Si Si4 0.523262 0.930368 0.753562
Si Si5 0.979689 0.429127 0.242692
Si Si6 0.383645 0.930439 0.298791
Si Si7 0.110277 0.429903 0.700508
Si Si8 0.155462 0.429478 0.093050
O O1 0.647201 0.750000 0.115931
O O2 0.670395 0.479136 0.219016
O O3 0.770778 0.544228 0.197745
O O4 0.549425 0.531782 0.894551
O O5 0.794806 0.250000 0.442436
O O6 0.755319 0.462791 0.506960
O O7 0.890874 0.521184 0.553815
O O8 0.227217 0.750000 0.349633
O O9 0.387349 0.544107 0.549058
O O10 0.167956 0.479865 0.215149
O O11 0.548029 0.750000 0.775897
O O12 0.603021 0.023471 0.789919
O O13 0.968957 0.250000 0.224653
O O14 0.891668 0.496407 0.201404
O O15 0.952123 0.501149 0.107113
O O16 0.380437 0.750000 0.306240
O O17 0.500000 0.000000 0.500000
O O18 0.270250 0.003432 0.194862
O O19 0.094471 0.250000 0.688631
O O20 0.000000 0.500000 0.500000
O O21 0.152797 0.250000 0.082287
#
# Coordination Sequence:
#
# PCOD9165778 Si02
#       8
#     4   4   4   4   4   4   4   4
#     4  10  22  39  62  92 125 164 206 252 313 373
#     4  11  24  42  64  90 123 165 213 263 314 372
#     4  10  23  43  65  90 123 165 212 263 315 368
#     4  10  21  40  65  92 127 166 209 259 310 368
#     4  12  25  42  65  93 126 165 208 259 315 377
#     4  12  23  38  63  96 131 167 206 252 310 375
#     4  11  21  36  61  93 129 165 203 251 310 376
#     4  12  25  42  66  95 126 164 207 258 316 377
#
# _framework density 21.853521000000001
#
# number of rings (size 3 to 8) (size 9 to 14) (size 15 to 20)
#    0.000    1.000    2.500    4.875    0.000    4.000 
#    0.000    0.000    0.000    0.000    0.000    0.000 
#    0.000    0.000    0.000    0.000    0.000    0.000 
#
# Total GULP energy -179133.756340 kJ/mol
# GULP energy per Si atom -5597.929886 kJ/mol
# Density = 2.180378 g / cm^3
# Si number density = 21.853521 Si / 1000 Ang^3
#
#
#
# Elastic Constant Matrix: (Units=GPa)
#
#
# Indices 1 2 3 4 5 6 
#
# 1 68.9036 41.7468 5.4702 0.0000 -26.1049 0.0000
# 2 41.7468 96.4646 26.4308 0.0000 -27.7021 0.0000
# 3 5.4702 26.4308 91.4466 0.0000 -37.8820 0.0000
# 4 0.0000 0.0000 0.0000 32.4242 0.0000 -13.1120
# 5 -26.1049 -27.7021 -37.8820 0.0000 37.0736 0.0000
# 6 0.0000 0.0000 0.0000 -13.1120 0.0000 28.2416
#
#
#
# Elastic Compliance Matrix: (Units=1/GPa)
#
#
# Indices 1 2 3 4 5 6 
#
# 1 0.027857 -0.007907 0.010919 0.000000 0.024864 0.000000
# 2 -0.007907 0.015455 -0.002630 0.000000 0.003294 0.000000
# 3 0.010919 -0.002630 0.023258 0.000000 0.029489 0.000000
# 4 0.000000 0.000000 0.000000 0.037970 0.000000 0.017629
# 5 0.024864 0.003294 0.029489 0.000000 0.077074 0.000000
# 6 0.000000 0.000000 0.000000 0.017629 0.000000 0.043593
#
#
# Mechanical properties :
#
#
# Convention : Reuss Voigt Hill
#
# Bulk Modulus (GPa) = 14.85132 44.90116 29.87624
# Shear Modulus (GPa) = 20.25222 31.75902 26.00562
#
# Velocity S-wave (km/s) = 3.04752 3.81631 3.45338
# Velocity P-wave (km/s) = 4.38107 6.32535 5.44076
#
# Compressibility (1/GPa) = 0.06733408
#
# Stress axis : x y z
#
# Youngs Moduli (GPa) = 35.89801 64.70524 42.99596
#
# Poissons Ratio (x) = 0.51162 -0.46947
# Poissons Ratio (y) = 0.28385 0.11306
# Poissons Ratio (z) = -0.39197 0.17014
#
# Static dielectric constant tensor:
#      x y z
#    x 1.825870 0.000000 -0.006230 
#    y 0.000000 1.723330 0.000000 
#    z -0.006230 0.000000 1.780330 
# 
# From -- ./inp_files/55769.got.cif
#   From: 2010.05.17/outbox.cif.g08.bks.cpg/sg11_28_cif.got.tgz:55769.got - 2010.06.03 12:22:45.
