data_PCOD9165538
_publ_section_title
;
Structure prediction by ZEFSAII (Michael W. Deem and Ramdas Pophale) SiO2 
 PCOD9165538
Probable space group: P 21/M
;
_chemical_formula_sum "Si O2"
_cell_formula_units_Z 24
_cell_length_a 12.219080
_cell_length_b 8.779882
_cell_length_c 12.120532
_cell_angle_alpha 90.000000
_cell_angle_beta 90.717645
_cell_angle_gamma 90.000000
_cell_volume 1300.213893
_symmetry_space_group_name_H-M "P 21/M"
_symmetry_group_IT_number 11
_symmetry_cell_setting 'monoclinic'
loop_
_space_group_symop_operation_xyz
x,y,z
-x,1/2+y,-z
-x,-y,-z
x,1/2-y,z
loop_
_atom_site_type_symbol
_atom_site_label
_atom_site_fract_x
_atom_site_fract_y
_atom_site_fract_z
Si Si1 0.835367 0.933423 0.039468
Si Si2 0.324642 0.431611 0.462202
Si Si3 0.480152 0.433060 0.668823
Si Si4 0.087555 0.568561 0.416061
Si Si5 0.412643 0.433669 0.914521
Si Si6 0.032585 0.431875 0.177625
O O1 0.843095 0.750000 0.053501
O O2 0.710659 0.981012 0.056704
O O3 0.879126 0.969190 0.917201
O O4 0.917344 0.011365 0.126793
O O5 0.309790 0.250000 0.455785
O O6 0.385969 0.468721 0.578042
O O7 0.409002 0.486558 0.369311
O O8 0.208607 0.512008 0.449336
O O9 0.496604 0.250000 0.666070
O O10 0.443404 0.478288 0.790266
O O11 0.082356 0.750000 0.419611
O O12 0.060437 0.510600 0.292804
O O13 0.000000 0.500000 0.500000
O O14 0.415818 0.250000 0.919990
O O15 0.500000 0.500000 0.000000
O O16 0.031166 0.250000 0.192304
#
# Coordination Sequence:
#
# PCOD9165538 Si02
#       6
#     4   4   4   4   4   4
#     4   9  20  39  62  87 121 161 200 248 301 352
#     4  10  21  39  63  89 119 157 200 247 301 357
#     4   9  20  39  61  87 120 159 200 245 300 357
#     4  12  26  42  62  90 123 157 199 249 303 359
#     4  10  22  38  58  88 120 157 202 247 297 349
#     4  10  21  39  62  91 121 156 202 246 300 362
#
# _framework density 18.458500999999998
#
# number of rings (size 3 to 8) (size 9 to 14) (size 15 to 20)
#    0.000    2.000    0.000    2.500    4.667    2.667 
#    0.000    0.000    0.000    0.000    0.000    0.000 
#    0.000    0.000    0.000    0.000    0.000    0.000 
#
# Total GULP energy -134101.974045 kJ/mol
# GULP energy per Si atom -5587.582252 kJ/mol
# Density = 1.841649 g / cm^3
# Si number density = 18.458501 Si / 1000 Ang^3
#
#
#
# Elastic Constant Matrix: (Units=GPa)
#
#
# Indices 1 2 3 4 5 6 
#
# 1 196.2759 74.9764 112.9442 0.0000 -10.0293 0.0000
# 2 74.9764 72.9610 63.9375 0.0000 -0.8505 0.0000
# 3 112.9442 63.9375 147.5293 0.0000 -7.4703 0.0000
# 4 0.0000 0.0000 0.0000 33.4666 0.0000 3.4359
# 5 -10.0293 -0.8505 -7.4703 0.0000 14.0339 0.0000
# 6 0.0000 0.0000 0.0000 3.4359 0.0000 34.8404
#
#
#
# Elastic Compliance Matrix: (Units=1/GPa)
#
#
# Indices 1 2 3 4 5 6 
#
# 1 0.010817 -0.006461 -0.005251 0.000000 0.004544 0.000000
# 2 -0.006461 0.026164 -0.006728 0.000000 -0.006613 0.000000
# 3 -0.005251 -0.006728 0.013877 0.000000 0.003227 0.000000
# 4 0.000000 0.000000 0.000000 0.030186 0.000000 -0.002977
# 5 0.004544 -0.006613 0.003227 0.000000 0.075820 0.000000
# 6 0.000000 0.000000 0.000000 -0.002977 0.000000 0.028996
#
#
# Mechanical properties :
#
#
# Convention : Reuss Voigt Hill
#
# Bulk Modulus (GPa) = 71.53580 102.27581 86.90581
# Shear Modulus (GPa) = 21.98792 27.46206 24.72499
#
# Velocity S-wave (km/s) = 3.45513 3.86135 3.66388
# Velocity P-wave (km/s) = 7.39975 8.68383 8.06738
#
# Compressibility (1/GPa) = 0.01397902
#
# Stress axis : x y z
#
# Youngs Moduli (GPa) = 92.45107 38.22046 72.06159
#
# Poissons Ratio (x) = 0.24695 0.37836
# Poissons Ratio (y) = 0.59734 0.48480
# Poissons Ratio (z) = 0.48542 0.25713
#
# Static dielectric constant tensor:
#      x y z
#    x 1.602870 0.000000 -0.008800 
#    y 0.000000 1.623010 0.000000 
#    z -0.008800 0.000000 1.613550 
# 
# From -- ./inp_files/33795.got.cif
#   From: 2010.05.17/outbox.cif.g08.bks.cpg/sg11_17_cif.got.tgz:33795.got - 2010.06.03 12:22:45.
