data_PCOD9165991
_publ_section_title
;
Structure prediction by ZEFSAII (Michael W. Deem and Ramdas Pophale) SiO2 
 PCOD9165991
Probable space group: P 21/M
;
_chemical_formula_sum "Si O2"
_cell_formula_units_Z 28
_cell_length_a 17.337946
_cell_length_b 15.032581
_cell_length_c 5.600863
_cell_angle_alpha 90.000000
_cell_angle_beta 66.862064
_cell_angle_gamma 90.000000
_cell_volume 1342.353627
_symmetry_space_group_name_H-M "P 21/M"
_symmetry_group_IT_number 11
_symmetry_cell_setting 'monoclinic'
loop_
_space_group_symop_operation_xyz
x,y,z
-x,1/2+y,-z
-x,-y,-z
x,1/2-y,z
loop_
_atom_site_type_symbol
_atom_site_label
_atom_site_fract_x
_atom_site_fract_y
_atom_site_fract_z
Si Si1 0.509799 0.644468 0.513251
Si Si2 0.401362 0.406132 0.093639
Si Si3 0.787866 0.995066 0.219301
Si Si4 0.208273 0.649319 0.402973
Si Si5 0.095632 0.503709 0.309166
Si Si6 0.651743 0.426395 0.054655
Si Si7 0.784769 0.647123 0.603810
O O1 0.504904 0.750000 0.510487
O O2 0.547592 0.614478 0.212457
O O3 0.417791 0.605456 0.677312
O O4 0.560399 0.619852 0.695827
O O5 0.389315 0.512569 0.099279
O O6 0.310081 0.360066 0.182676
O O7 0.776463 0.900653 0.357238
O O8 0.775435 0.079879 0.404539
O O9 0.718410 0.009865 0.103341
O O10 0.881022 0.000032 0.997502
O O11 0.188110 0.750000 0.497227
O O12 0.135135 0.597058 0.351002
O O13 0.291259 0.647900 0.137221
O O14 0.148869 0.419894 0.350655
O O15 0.000000 0.500000 0.500000
O O16 0.810888 0.750000 0.569356
#
# Coordination Sequence:
#
# PCOD9165991 Si02
#       7
#     4   4   4   4   4   4   4
#     4  12  27  41  63  99 136 181 237 289 335 398
#     4  12  24  44  64  95 135 184 229 284 338 401
#     4  10  21  43  66  94 129 171 220 270 342 402
#     4  10  22  40  66  97 130 169 221 276 335 404
#     4  10  23  44  67  94 132 169 214 273 342 415
#     4  11  23  42  65  91 130 178 225 273 343 396
#     4  11  23  41  66  96 131 174 223 273 339 407
#
# _framework density 20.858885000000001
#
# number of rings (size 3 to 8) (size 9 to 14) (size 15 to 20)
#    0.000    1.143    4.286    3.429    2.000    6.286 
#    0.000    1.429    0.000    0.000    0.000    0.000 
#    0.000    0.000    0.000    0.000    0.000    0.000 
#
# Total GULP energy -156267.979334 kJ/mol
# GULP energy per Si atom -5580.999262 kJ/mol
# Density = 2.081141 g / cm^3
# Si number density = 20.858885 Si / 1000 Ang^3
#
#
#
# Elastic Constant Matrix: (Units=GPa)
#
#
# Indices 1 2 3 4 5 6 
#
# 1 63.6395 31.6071 49.3073 0.0000 -31.5361 0.0000
# 2 31.6071 127.4430 42.9317 0.0000 -9.4689 0.0000
# 3 49.3073 42.9317 130.4166 0.0000 -30.5851 0.0000
# 4 0.0000 0.0000 0.0000 11.7662 0.0000 -9.7207
# 5 -31.5361 -9.4689 -30.5851 0.0000 39.0858 0.0000
# 6 0.0000 0.0000 0.0000 -9.7207 0.0000 5.0320
#
#
#
# Elastic Compliance Matrix: (Units=1/GPa)
#
#
# Indices 1 2 3 4 5 6 
#
# 1 0.032994 -0.004587 -0.006102 0.000000 0.020736 0.000000
# 2 -0.004587 0.009464 -0.002096 0.000000 -0.003048 0.000000
# 3 -0.006102 -0.002096 0.011502 0.000000 0.003569 0.000000
# 4 0.000000 0.000000 0.000000 -0.142613 0.000000 -0.275497
# 5 0.020736 -0.003048 0.003569 0.000000 0.044370 0.000000
# 6 0.000000 0.000000 0.000000 -0.275497 0.000000 -0.333471
#
#
# Mechanical properties :
#
#
# Convention : Reuss Voigt Hill
#
# Bulk Modulus (GPa) = 35.22261 63.24347 49.23304
# Shear Modulus (GPa) = -14.58913 24.35367 4.88227
#
# Velocity S-wave (km/s) = -2.64752 3.42064 1.53157
# Velocity P-wave (km/s) = 2.75263 6.78134 5.17511
#
# Compressibility (1/GPa) = 0.02839085
#
# Stress axis : x y z
#
# Youngs Moduli (GPa) = 30.30816 105.66520 86.94370
#
# Poissons Ratio (x) = 0.48467 0.53049
# Poissons Ratio (y) = 0.13902 0.18224
# Poissons Ratio (z) = 0.18493 0.22149
#
# Static dielectric constant tensor:
#      x y z
#    x 1.801790 0.000000 0.028720 
#    y 0.000000 1.725790 0.000000 
#    z 0.028720 0.000000 1.830250 
# 
# From -- ./inp_files/8008.got.cif
#   From: 2010.05.17/outbox.cif.g08.bks.cpg/sg11_5_cif.got.tgz:8008.got - 2010.06.03 12:22:45.
