data_PCOD9165141
_publ_section_title
;
Structure prediction by ZEFSAII (Michael W. Deem and Ramdas Pophale) SiO2 
 PCOD9165141
Probable space group: P 21/M
;
_chemical_formula_sum "Si O2"
_cell_formula_units_Z 30
_cell_length_a 23.523888
_cell_length_b 12.278689
_cell_length_c 14.035326
_cell_angle_alpha 90.000000
_cell_angle_beta 18.923328
_cell_angle_gamma 90.000000
_cell_volume 1314.722286
_symmetry_space_group_name_H-M "P 21/M"
_symmetry_group_IT_number 11
_symmetry_cell_setting 'monoclinic'
loop_
_space_group_symop_operation_xyz
x,y,z
-x,1/2+y,-z
-x,-y,-z
x,1/2-y,z
loop_
_atom_site_type_symbol
_atom_site_label
_atom_site_fract_x
_atom_site_fract_y
_atom_site_fract_z
Si Si1 0.159471 0.632963 0.590613
Si Si2 0.599632 0.378247 0.504710
Si Si3 0.700831 0.958430 0.873865
Si Si4 0.355029 0.378192 0.734107
Si Si5 0.985106 0.123495 0.396105
Si Si6 0.304329 0.250000 0.247158
Si Si7 0.218132 0.418553 0.743789
Si Si8 0.386878 0.075278 0.280524
O O1 0.246331 0.750000 0.473396
O O2 0.094738 0.630310 0.584428
O O3 0.282285 0.534701 0.422631
O O4 0.978637 0.621086 0.935009
O O5 0.629711 0.250000 0.467950
O O6 0.764230 0.449880 0.276672
O O7 0.435694 0.417670 0.828856
O O8 0.539165 0.407210 0.492545
O O9 0.753665 0.848639 0.735123
O O10 0.863178 0.036253 0.643190
O O11 0.580809 0.037373 0.998830
O O12 0.343713 0.250000 0.774197
O O13 0.181700 0.420933 0.063740
O O14 0.326756 0.384899 0.665771
O O15 0.985711 0.250000 0.431885
O O16 0.365720 0.156701 0.227999
O O17 0.304094 0.380867 0.510011
#
# Coordination Sequence:
#
# PCOD9165141 Si02
#       8
#     4   4   4   4   4   2   4   4
#     4  10  21  38  59  81 117 156 194 235 283 345
#     4  10  21  39  61  85 113 152 193 236 297 345
#     4  11  23  39  59  85 119 159 194 236 282 341
#     4   9  19  38  64  85 112 148 187 244 294 341
#     4   9  19  36  59  88 115 152 198 235 283 342
#     4  12  24  38  56  84 126 154 192 238 276 350
#     4  10  21  39  57  87 112 146 195 241 287 343
#     4  11  25  36  58  87 116 160 191 233 292 335
#
# _framework density 22.818507
#
# number of rings (size 3 to 8) (size 9 to 14) (size 15 to 20)
#    0.000    1.867    2.000    2.400    3.733    1.067 
#    1.200    0.000    0.000    0.800    0.000    0.000 
#    0.000    0.000    0.000    0.000    0.000    0.000 
#
# Total GULP energy -167045.430798 kJ/mol
# GULP energy per Si atom -5568.181027 kJ/mol
# Density = 2.276657 g / cm^3
# Si number density = 22.818507 Si / 1000 Ang^3
#
#
#
# Elastic Constant Matrix: (Units=GPa)
#
#
# Indices 1 2 3 4 5 6 
#
# 1 55.5267 16.2742 4.6411 0.0000 -4.8639 0.0000
# 2 16.2742 124.4596 21.7164 0.0000 -0.1991 0.0000
# 3 4.6411 21.7164 55.2843 0.0000 2.9217 0.0000
# 4 0.0000 0.0000 0.0000 14.1467 0.0000 -5.0504
# 5 -4.8639 -0.1991 2.9217 0.0000 24.1517 0.0000
# 6 0.0000 0.0000 0.0000 -5.0504 0.0000 6.3743
#
#
#
# Elastic Compliance Matrix: (Units=1/GPa)
#
#
# Indices 1 2 3 4 5 6 
#
# 1 0.019114 -0.002337 -0.000895 0.000000 0.003938 0.000000
# 2 -0.002337 0.008917 -0.003307 0.000000 0.000003 0.000000
# 3 -0.000895 -0.003307 0.019599 0.000000 -0.002578 0.000000
# 4 0.000000 0.000000 0.000000 0.098567 0.000000 0.078095
# 5 0.003938 0.000003 -0.002578 0.000000 0.042510 0.000000
# 6 0.000000 0.000000 0.000000 0.078095 0.000000 0.218755
#
#
# Mechanical properties :
#
#
# Convention : Reuss Voigt Hill
#
# Bulk Modulus (GPa) = 28.94104 35.61488 32.27796
# Shear Modulus (GPa) = 11.57256 21.77715 16.67486
#
# Velocity S-wave (km/s) = 2.25446 3.09263 2.70619
# Velocity P-wave (km/s) = 4.41446 5.32863 4.89294
#
# Compressibility (1/GPa) = 0.03455301
#
# Stress axis : x y z
#
# Youngs Moduli (GPa) = 52.31757 112.14151 51.02391
#
# Poissons Ratio (x) = 0.26206 0.04566
# Poissons Ratio (y) = 0.12226 0.16873
# Poissons Ratio (z) = 0.04681 0.37083
#
# Static dielectric constant tensor:
#      x y z
#    x 1.885970 0.000000 0.007940 
#    y 0.000000 1.890100 0.000000 
#    z 0.007940 0.000000 1.883310 
# 
# From -- ./inp_files/56284.got.cif
#   From: 2010.05.17/outbox.cif.g08.bks.cpg/sg11_29_cif.got.tgz:56284.got - 2010.06.03 12:22:45.
