data_PCOD9165662
_publ_section_title
;
Structure prediction by ZEFSAII (Michael W. Deem and Ramdas Pophale) SiO2 
 PCOD9165662
Probable space group: P 21/M
;
_chemical_formula_sum "Si O2"
_cell_formula_units_Z 32
_cell_length_a 17.766939
_cell_length_b 14.717575
_cell_length_c 11.873058
_cell_angle_alpha 90.000000
_cell_angle_beta 29.059013
_cell_angle_gamma 90.000000
_cell_volume 1507.956031
_symmetry_space_group_name_H-M "P 21/M"
_symmetry_group_IT_number 11
_symmetry_cell_setting 'monoclinic'
loop_
_space_group_symop_operation_xyz
x,y,z
-x,1/2+y,-z
-x,-y,-z
x,1/2-y,z
loop_
_atom_site_type_symbol
_atom_site_label
_atom_site_fract_x
_atom_site_fract_y
_atom_site_fract_z
Si Si1 0.513316 0.142785 0.214696
Si Si2 0.831305 0.642904 0.662106
Si Si3 0.099738 0.915377 0.913946
Si Si4 0.830379 0.353187 0.417739
Si Si5 0.153004 0.352208 0.110808
Si Si6 0.661027 0.462507 0.831631
Si Si7 0.824474 0.647564 0.416995
Si Si8 0.651306 0.480037 0.229563
O O1 0.509248 0.250000 0.243812
O O2 0.337871 0.105154 0.415865
O O3 0.593683 0.090308 0.211444
O O4 0.621534 0.119670 0.966701
O O5 0.773297 0.750000 0.736677
O O6 0.728478 0.551649 0.805436
O O7 0.889283 0.625101 0.457917
O O8 0.918203 0.639116 0.668837
O O9 0.186332 0.874957 0.692155
O O10 0.218719 0.941552 0.856042
O O11 0.963710 0.856525 0.147753
O O12 0.000000 0.000000 0.000000
O O13 0.777430 0.250000 0.510113
O O14 0.754110 0.424124 0.603112
O O15 0.013263 0.358266 0.205803
O O16 0.220044 0.250000 0.015519
O O17 0.276483 0.429628 0.921788
O O18 0.500000 0.500000 0.000000
O O19 0.772167 0.750000 0.499143
O O20 0.500000 0.500000 0.500000
#
# Coordination Sequence:
#
# PCOD9165662 Si02
#       8
#     4   4   4   4   4   4   4   4
#     4  11  25  44  67 103 146 185 227 287 356 417
#     4  10  21  39  67  99 130 172 228 279 336 406
#     4  12  24  43  71  99 137 181 239 288 337 416
#     4  11  26  45  69 103 139 183 234 290 351 412
#     4  10  23  45  69  99 137 182 229 289 354 415
#     4  12  24  40  72  97 137 177 231 284 347 411
#     4  10  22  42  68  98 135 183 230 277 339 412
#     4  12  27  44  69 102 141 182 232 287 355 420
#
# _framework density 21.220776999999998
#
# number of rings (size 3 to 8) (size 9 to 14) (size 15 to 20)
#    0.000    1.000    3.750    2.250    1.750    3.500 
#    0.000    2.500    0.000    0.000    0.000    0.000 
#    0.000    0.000    0.000    0.000    0.000    0.000 
#
# Total GULP energy -178281.019291 kJ/mol
# GULP energy per Si atom -5571.281853 kJ/mol
# Density = 2.117248 g / cm^3
# Si number density = 21.220777 Si / 1000 Ang^3
#
#
#
# Elastic Constant Matrix: (Units=GPa)
#
#
# Indices 1 2 3 4 5 6 
#
# 1 129.8049 41.5516 42.4434 0.0000 25.6591 0.0000
# 2 41.5516 104.6335 34.4422 0.0000 9.0802 0.0000
# 3 42.4434 34.4422 82.7543 0.0000 14.4361 0.0000
# 4 0.0000 0.0000 0.0000 30.8419 0.0000 5.0033
# 5 25.6591 9.0802 14.4361 0.0000 22.9086 0.0000
# 6 0.0000 0.0000 0.0000 5.0033 0.0000 30.4149
#
#
#
# Elastic Compliance Matrix: (Units=1/GPa)
#
#
# Indices 1 2 3 4 5 6 
#
# 1 0.011531 -0.002713 -0.003055 0.000000 -0.009915 0.000000
# 2 -0.002713 0.011770 -0.003621 0.000000 0.000656 0.000000
# 3 -0.003055 -0.003621 0.016078 0.000000 -0.005274 0.000000
# 4 0.000000 0.000000 0.000000 0.033312 0.000000 -0.005480
# 5 -0.009915 0.000656 -0.005274 0.000000 0.057821 0.000000
# 6 0.000000 0.000000 0.000000 -0.005480 0.000000 0.033780
#
#
# Mechanical properties :
#
#
# Convention : Reuss Voigt Hill
#
# Bulk Modulus (GPa) = 48.54478 61.56302 55.05390
# Shear Modulus (GPa) = 26.32418 30.08345 28.20382
#
# Velocity S-wave (km/s) = 3.52588 3.76924 3.64959
# Velocity P-wave (km/s) = 6.28502 6.92940 6.61506
#
# Compressibility (1/GPa) = 0.02059954
#
# Stress axis : x y z
#
# Youngs Moduli (GPa) = 86.71980 84.96369 62.19543
#
# Poissons Ratio (x) = 0.23051 0.19003
# Poissons Ratio (y) = 0.23528 0.22524
# Poissons Ratio (z) = 0.26497 0.30769
#
# Static dielectric constant tensor:
#      x y z
#    x 1.716790 0.000000 0.027200 
#    y 0.000000 1.763540 0.000000 
#    z 0.027200 0.000000 1.791780 
# 
# From -- ./inp_files/41636.got.cif
#   From: 2010.05.17/outbox.cif.g08.bks.cpg/sg11_21_cif.got.tgz:41636.got - 2010.06.03 12:22:45.
