data_PCOD9165158
_publ_section_title
;
Structure prediction by ZEFSAII (Michael W. Deem and Ramdas Pophale) SiO2 
 PCOD9165158
Probable space group: P 21/M
;
_chemical_formula_sum "Si O2"
_cell_formula_units_Z 20
_cell_length_a 9.904232
_cell_length_b 10.643968
_cell_length_c 18.508365
_cell_angle_alpha 90.000000
_cell_angle_beta 29.725082
_cell_angle_gamma 90.000000
_cell_volume 967.459949
_symmetry_space_group_name_H-M "P 21/M"
_symmetry_group_IT_number 11
_symmetry_cell_setting 'monoclinic'
loop_
_space_group_symop_operation_xyz
x,y,z
-x,1/2+y,-z
-x,-y,-z
x,1/2-y,z
loop_
_atom_site_type_symbol
_atom_site_label
_atom_site_fract_x
_atom_site_fract_y
_atom_site_fract_z
Si Si1 0.595965 0.600258 0.676803
Si Si2 0.038534 0.892994 0.884400
Si Si3 0.699615 0.384625 0.396736
Si Si4 0.502959 0.397204 0.934469
Si Si5 0.037371 0.010864 0.363106
O O1 0.580918 0.750000 0.672588
O O2 0.285308 0.548815 0.816055
O O3 0.756282 0.572521 0.675749
O O4 0.782887 0.542266 0.526644
O O5 0.003010 0.750000 0.927573
O O6 0.162727 0.891242 0.745463
O O7 0.735010 0.939734 0.010632
O O8 0.500000 0.500000 0.500000
O O9 0.556297 0.250000 0.469189
O O10 0.923767 0.396218 0.355153
O O11 0.452919 0.250000 0.978778
O O12 0.790279 0.407039 0.760086
O O13 0.500000 0.500000 0.000000
#
# Coordination Sequence:
#
# PCOD9165158 Si02
#       5
#     4   4   4   4   4
#     4  10  21  38  59  84 118 160 199 242 301 359
#     4   9  19  37  58  83 119 157 193 239 301 356
#     4  11  21  36  60  89 121 157 200 250 300 352
#     4  11  23  39  62  91 124 158 200 250 301 356
#     4  11  22  36  60  90 119 155 202 251 294 354
#
# _framework density 20.672692000000001
#
# number of rings (size 3 to 8) (size 9 to 14) (size 15 to 20)
#    0.000    1.600    4.000    1.200    0.000    2.400 
#    0.000    0.000    0.000    0.000    0.000    0.000 
#    0.000    0.000    0.000    0.000    0.000    0.000 
#
# Total GULP energy -111524.702663 kJ/mol
# GULP energy per Si atom -5576.235133 kJ/mol
# Density = 2.062564 g / cm^3
# Si number density = 20.672692 Si / 1000 Ang^3
#
#
#
# Elastic Constant Matrix: (Units=GPa)
#
#
# Indices 1 2 3 4 5 6 
#
# 1 126.0051 22.3579 7.2160 0.0000 -19.0451 0.0000
# 2 22.3579 83.6640 16.8781 0.0000 -7.3486 0.0000
# 3 7.2160 16.8781 58.2875 0.0000 -23.9571 0.0000
# 4 0.0000 0.0000 0.0000 25.1588 0.0000 -8.8057
# 5 -19.0451 -7.3486 -23.9571 0.0000 34.1734 0.0000
# 6 0.0000 0.0000 0.0000 -8.8057 0.0000 21.4804
#
#
#
# Elastic Compliance Matrix: (Units=1/GPa)
#
#
# Indices 1 2 3 4 5 6 
#
# 1 0.009140 -0.002320 0.002007 0.000000 0.006002 0.000000
# 2 -0.002320 0.013284 -0.004097 0.000000 -0.001309 0.000000
# 3 0.002007 -0.004097 0.025556 0.000000 0.018153 0.000000
# 4 0.000000 0.000000 0.000000 0.046406 0.000000 0.019024
# 5 0.006002 -0.001309 0.018153 0.000000 0.045052 0.000000
# 6 0.000000 0.000000 0.000000 0.019024 0.000000 0.054353
#
#
# Mechanical properties :
#
#
# Convention : Reuss Voigt Hill
#
# Bulk Modulus (GPa) = 25.53687 40.09562 32.81625
# Shear Modulus (GPa) = 23.18413 30.92948 27.05681
#
# Velocity S-wave (km/s) = 3.35249 3.87221 3.62168
# Velocity P-wave (km/s) = 5.23119 6.27930 5.77905
#
# Compressibility (1/GPa) = 0.03915906
#
# Stress axis : x y z
#
# Youngs Moduli (GPa) = 109.40754 75.27701 39.13044
#
# Poissons Ratio (x) = 0.17467 -0.07855
# Poissons Ratio (y) = 0.25386 0.16033
# Poissons Ratio (z) = -0.21961 0.30844
#
# Static dielectric constant tensor:
#      x y z
#    x 1.768300 0.000000 -0.032740 
#    y 0.000000 1.726740 0.000000 
#    z -0.032740 0.000000 1.753700 
# 
# From -- ./inp_files/11867.got.cif
#   From: 2010.05.17/outbox.cif.g08.bks.cpg/sg11_6_cif.got.tgz:11867.got - 2010.06.03 12:22:45.
