data_PCOD9165995
_publ_section_title
;
Structure prediction by ZEFSAII (Michael W. Deem and Ramdas Pophale) SiO2 
 PCOD9165995
Probable space group: P 21/M
;
_chemical_formula_sum "Si O2"
_cell_formula_units_Z 24
_cell_length_a 6.849971
_cell_length_b 14.449134
_cell_length_c 13.979193
_cell_angle_alpha 90.000000
_cell_angle_beta 120.457273
_cell_angle_gamma 90.000000
_cell_volume 1192.679211
_symmetry_space_group_name_H-M "P 21/M"
_symmetry_group_IT_number 11
_symmetry_cell_setting 'monoclinic'
loop_
_space_group_symop_operation_xyz
x,y,z
-x,1/2+y,-z
-x,-y,-z
x,1/2-y,z
loop_
_atom_site_type_symbol
_atom_site_label
_atom_site_fract_x
_atom_site_fract_y
_atom_site_fract_z
Si Si1 0.831410 0.915352 0.452440
Si Si2 0.001218 0.145722 0.312558
Si Si3 0.353532 0.492894 0.322907
Si Si4 0.002082 0.649083 0.294299
Si Si5 0.475814 0.959356 0.846343
Si Si6 0.408130 0.146827 0.943348
O O1 0.591515 0.962895 0.415796
O O2 0.850977 0.872898 0.351057
O O3 0.933540 0.850434 0.559340
O O4 0.000000 0.000000 0.500000
O O5 0.953956 0.250000 0.266100
O O6 0.782887 0.078522 0.237923
O O7 0.229560 0.100602 0.326209
O O8 0.399077 0.474773 0.222329
O O9 0.180046 0.570614 0.315734
O O10 0.109270 0.750000 0.335744
O O11 0.841732 0.652807 0.162322
O O12 0.499911 0.058054 0.907177
O O13 0.579937 0.883229 0.943576
O O14 0.510882 0.250000 0.954623
#
# Coordination Sequence:
#
# PCOD9165995 Si02
#       6
#     4   4   4   4   4   4
#     4  12  22  45  67  90 132 176 212 265 328 384
#     4  12  26  43  65 100 134 172 220 266 321 389
#     4  12  23  43  66  97 129 170 217 267 325 384
#     4  11  24  42  66  99 129 167 218 268 322 383
#     4  11  23  44  70  92 135 176 212 271 331 380
#     4  10  21  43  69  95 130 174 219 265 325 390
#
# _framework density 20.122762000000002
#
# number of rings (size 3 to 8) (size 9 to 14) (size 15 to 20)
#    0.000    0.667    6.667    1.500    0.000    4.000 
#    0.000    0.000    0.000    0.000    0.000    0.000 
#    0.000    0.000    0.000    0.000    0.000    0.000 
#
# Total GULP energy -133652.352071 kJ/mol
# GULP energy per Si atom -5568.848003 kJ/mol
# Density = 2.007696 g / cm^3
# Si number density = 20.122762 Si / 1000 Ang^3
#
#
#
# Elastic Constant Matrix: (Units=GPa)
#
#
# Indices 1 2 3 4 5 6 
#
# 1 80.2293 34.8755 15.4587 0.0000 -5.0865 0.0000
# 2 34.8755 148.4721 13.6808 0.0000 -7.6975 0.0000
# 3 15.4587 13.6808 80.7919 0.0000 -9.4722 0.0000
# 4 0.0000 0.0000 0.0000 25.8165 0.0000 -4.9136
# 5 -5.0865 -7.6975 -9.4722 0.0000 18.6559 0.0000
# 6 0.0000 0.0000 0.0000 -4.9136 0.0000 7.6323
#
#
#
# Elastic Compliance Matrix: (Units=1/GPa)
#
#
# Indices 1 2 3 4 5 6 
#
# 1 0.014299 -0.003089 -0.002026 0.000000 0.001595 0.000000
# 2 -0.003089 0.007610 -0.000455 0.000000 0.002066 0.000000
# 3 -0.002026 -0.000455 0.013563 0.000000 0.006146 0.000000
# 4 0.000000 0.000000 0.000000 0.044144 0.000000 0.028420
# 5 0.001595 0.002066 0.006146 0.000000 0.058011 0.000000
# 6 0.000000 0.000000 0.000000 0.028420 0.000000 0.149318
#
#
# Mechanical properties :
#
#
# Convention : Reuss Voigt Hill
#
# Bulk Modulus (GPa) = 41.10020 48.61374 44.85697
# Shear Modulus (GPa) = 16.32945 26.78616 21.55780
#
# Velocity S-wave (km/s) = 2.85176 3.65243 3.27664
# Velocity P-wave (km/s) = 5.59575 6.48059 6.05436
#
# Compressibility (1/GPa) = 0.02433078
#
# Stress axis : x y z
#
# Youngs Moduli (GPa) = 69.93661 131.40558 73.73140
#
# Poissons Ratio (x) = 0.40596 0.14936
# Poissons Ratio (y) = 0.21606 0.03357
# Poissons Ratio (z) = 0.14167 0.05982
#
# Static dielectric constant tensor:
#      x y z
#    x 1.720390 0.000000 -0.011770 
#    y 0.000000 1.756750 0.000000 
#    z -0.011770 0.000000 1.771610 
# 
# From -- ./inp_files/45782.got.cif
#   From: 2010.05.17/outbox.cif.g08.bks.cpg/sg11_23_cif.got.tgz:45782.got - 2010.06.03 12:22:45.
