data_PCOD9165200
_publ_section_title
;
Structure prediction by ZEFSAII (Michael W. Deem and Ramdas Pophale) SiO2 
 PCOD9165200
Probable space group: P 21/M
;
_chemical_formula_sum "Si O2"
_cell_formula_units_Z 32
_cell_length_a 16.926001
_cell_length_b 18.592786
_cell_length_c 15.980784
_cell_angle_alpha 90.000000
_cell_angle_beta 162.660966
_cell_angle_gamma 90.000000
_cell_volume 1498.821744
_symmetry_space_group_name_H-M "P 21/M"
_symmetry_group_IT_number 11
_symmetry_cell_setting 'monoclinic'
loop_
_space_group_symop_operation_xyz
x,y,z
-x,1/2+y,-z
-x,-y,-z
x,1/2-y,z
loop_
_atom_site_type_symbol
_atom_site_label
_atom_site_fract_x
_atom_site_fract_y
_atom_site_fract_z
Si Si1 0.910249 0.411829 0.112637
Si Si2 0.839234 0.836246 0.475213
Si Si3 0.512122 0.549586 0.930243
Si Si4 0.324029 0.664070 0.858842
Si Si5 0.954208 0.664183 0.125894
Si Si6 0.012517 0.949150 0.319751
Si Si7 0.440571 0.597105 0.525660
Si Si8 0.402175 0.075463 0.503702
O O1 0.923394 0.492938 0.160769
O O2 0.036690 0.365470 0.314535
O O3 0.105031 0.406308 0.230308
O O4 0.613129 0.394865 0.784271
O O5 0.848599 0.750000 0.487370
O O6 0.540421 0.856347 0.148757
O O7 0.036539 0.860445 0.600010
O O8 0.294393 0.527157 0.641743
O O9 0.500000 0.500000 0.000000
O O10 0.416983 0.626761 0.868307
O O11 0.797015 0.550922 0.175472
O O12 0.324325 0.750000 0.850747
O O13 0.962339 0.750000 0.137332
O O14 0.665128 0.635464 0.807804
O O15 0.027786 0.626960 0.288517
O O16 0.163100 0.632933 0.269873
O O17 0.519223 0.603421 0.508041
O O18 0.427641 0.511446 0.529767
#
# Coordination Sequence:
#
# PCOD9165200 Si02
#       8
#     4   4   4   4   4   4   4   4
#     4  12  21  39  62  96 123 162 201 261 304 373
#     4  10  21  38  60  85 119 159 201 252 316 377
#     4  12  24  39  60  90 122 159 202 271 310 360
#     4  10  21  39  59  80 113 162 207 246 307 381
#     4  12  25  44  66  93 134 173 210 259 310 369
#     4  12  24  39  62  90 126 158 213 249 317 371
#     4  11  22  44  64  95 123 165 216 251 305 368
#     4  11  22  38  69  91 124 160 207 259 302 365
#
# _framework density 21.350104999999999
#
# number of rings (size 3 to 8) (size 9 to 14) (size 15 to 20)
#    0.000    0.750    2.500    6.000    0.000    3.000 
#    0.000    3.750    0.000    0.000    0.000    0.000 
#    0.000    0.000    0.000    0.000    0.000    0.000 
#
# Total GULP energy -179110.313682 kJ/mol
# GULP energy per Si atom -5597.197303 kJ/mol
# Density = 2.130151 g / cm^3
# Si number density = 21.350105 Si / 1000 Ang^3
#
#
#
# Elastic Constant Matrix: (Units=GPa)
#
#
# Indices 1 2 3 4 5 6 
#
# 1 61.6192 16.0667 -9.8540 0.0000 17.0840 0.0000
# 2 16.0667 47.2172 4.4974 0.0000 3.5931 0.0000
# 3 -9.8540 4.4974 54.0157 0.0000 3.8007 0.0000
# 4 0.0000 0.0000 0.0000 20.5959 0.0000 -3.8144
# 5 17.0840 3.5931 3.8007 0.0000 41.6475 0.0000
# 6 0.0000 0.0000 0.0000 -3.8144 0.0000 21.6168
#
#
#
# Elastic Compliance Matrix: (Units=1/GPa)
#
#
# Indices 1 2 3 4 5 6 
#
# 1 0.021258 -0.007064 0.005070 0.000000 -0.008573 0.000000
# 2 -0.007064 0.023814 -0.003352 0.000000 0.001149 0.000000
# 3 0.005070 -0.003352 0.019971 0.000000 -0.003613 0.000000
# 4 0.000000 0.000000 0.000000 0.050194 0.000000 0.008857
# 5 -0.008573 0.001149 -0.003613 0.000000 0.027759 0.000000
# 6 0.000000 0.000000 0.000000 0.008857 0.000000 0.047823
#
#
# Mechanical properties :
#
#
# Convention : Reuss Voigt Hill
#
# Bulk Modulus (GPa) = 18.39920 20.47468 19.43694
# Shear Modulus (GPa) = 22.76560 26.91485 24.84023
#
# Velocity S-wave (km/s) = 3.26897 3.55440 3.41467
# Velocity P-wave (km/s) = 4.78380 5.14352 4.96692
#
# Compressibility (1/GPa) = 0.05435020
#
# Stress axis : x y z
#
# Youngs Moduli (GPa) = 47.04038 41.99155 50.07185
#
# Poissons Ratio (x) = 0.29663 -0.25384
# Poissons Ratio (y) = 0.33230 0.16786
# Poissons Ratio (z) = -0.23847 0.14077
#
# Static dielectric constant tensor:
#      x y z
#    x 1.756120 0.000000 -0.009200 
#    y 0.000000 1.771000 0.000000 
#    z -0.009200 0.000000 1.749570 
# 
# From -- ./inp_files/52727.got.cif
#   From: 2010.05.17/outbox.cif.g08.bks.cpg/sg11_27_cif.got.tgz:52727.got - 2010.06.03 12:22:45.
