data_PCOD9165375
_publ_section_title
;
Structure prediction by ZEFSAII (Michael W. Deem and Ramdas Pophale) SiO2 
 PCOD9165375
Probable space group: P 21/M
;
_chemical_formula_sum "Si O2"
_cell_formula_units_Z 28
_cell_length_a 9.429151
_cell_length_b 13.911140
_cell_length_c 11.338769
_cell_angle_alpha 90.000000
_cell_angle_beta 66.146797
_cell_angle_gamma 90.000000
_cell_volume 1360.269882
_symmetry_space_group_name_H-M "P 21/M"
_symmetry_group_IT_number 11
_symmetry_cell_setting 'monoclinic'
loop_
_space_group_symop_operation_xyz
x,y,z
-x,1/2+y,-z
-x,-y,-z
x,1/2-y,z
loop_
_atom_site_type_symbol
_atom_site_label
_atom_site_fract_x
_atom_site_fract_y
_atom_site_fract_z
Si Si1 0.237056 0.139630 0.442641
Si Si2 0.936391 0.138208 0.694425
Si Si3 0.252942 0.860807 0.810635
Si Si4 0.373014 0.019341 0.943865
Si Si5 0.532445 0.141210 0.486240
Si Si6 0.955351 0.528904 0.881707
Si Si7 0.364842 0.551406 0.314062
O O1 0.248642 0.250000 0.394123
O O2 0.351026 0.134342 0.517987
O O3 0.065123 0.121231 0.549338
O O4 0.297378 0.057732 0.333431
O O5 0.950817 0.250000 0.726816
O O6 0.960152 0.061906 0.792035
O O7 0.767896 0.117613 0.696342
O O8 0.240562 0.750000 0.847609
O O9 0.306061 0.922933 0.905013
O O10 0.382640 0.873086 0.666795
O O11 0.091867 0.896734 0.807606
O O12 0.473354 0.068185 0.807541
O O13 0.220390 0.067734 0.050329
O O14 0.500000 0.000000 0.000000
O O15 0.565701 0.250000 0.514570
O O16 0.599797 0.072756 0.562028
O O17 0.000000 0.500000 0.000000
#
# Coordination Sequence:
#
# PCOD9165375 Si02
#       7
#     4   4   4   4   4   4   4
#     4  10  22  38  62  94 123 162 213 259 315 381
#     4  11  24  42  63  92 130 167 206 263 327 380
#     4  10  22  43  69  93 126 169 213 266 323 379
#     4  11  23  42  63  92 128 168 221 261 310 383
#     4  10  21  38  63  97 124 159 213 262 319 385
#     4  10  23  41  63  89 123 167 219 258 308 377
#     4  12  22  39  67  92 132 167 202 264 327 374
#
# _framework density 20.584150000000001
#
# number of rings (size 3 to 8) (size 9 to 14) (size 15 to 20)
#    0.000    1.429    2.857    2.143    4.000    2.286 
#    0.000    4.286    0.000    0.857    0.000    0.000 
#    0.000    0.000    0.000    0.000    0.000    0.000 
#
# Total GULP energy -156280.022718 kJ/mol
# GULP energy per Si atom -5581.429383 kJ/mol
# Density = 2.053730 g / cm^3
# Si number density = 20.584150 Si / 1000 Ang^3
#
#
#
# Elastic Constant Matrix: (Units=GPa)
#
#
# Indices 1 2 3 4 5 6 
#
# 1 112.7430 25.1309 15.9502 0.0000 -23.9101 0.0000
# 2 25.1309 66.2063 21.5035 0.0000 -10.4930 0.0000
# 3 15.9502 21.5035 31.6111 0.0000 -17.5213 0.0000
# 4 0.0000 0.0000 0.0000 18.5208 0.0000 1.4015
# 5 -23.9101 -10.4930 -17.5213 0.0000 41.1069 0.0000
# 6 0.0000 0.0000 0.0000 1.4015 0.0000 32.8697
#
#
#
# Elastic Compliance Matrix: (Units=1/GPa)
#
#
# Indices 1 2 3 4 5 6 
#
# 1 0.010739 -0.003120 -0.000361 0.000000 0.005297 0.000000
# 2 -0.003120 0.020319 -0.013589 0.000000 -0.002420 0.000000
# 3 -0.000361 -0.013589 0.051092 0.000000 0.018099 0.000000
# 4 0.000000 0.000000 0.000000 0.054168 0.000000 -0.002310
# 5 0.005297 -0.002420 0.018099 0.000000 0.034504 0.000000
# 6 0.000000 0.000000 0.000000 -0.002310 0.000000 0.030522
#
#
# Mechanical properties :
#
#
# Convention : Reuss Voigt Hill
#
# Bulk Modulus (GPa) = 20.82865 37.30330 29.06597
# Shear Modulus (GPa) = 19.88168 28.36454 24.12311
#
# Velocity S-wave (km/s) = 3.11122 3.71614 3.42705
# Velocity P-wave (km/s) = 4.80073 6.04770 5.45993
#
# Compressibility (1/GPa) = 0.04801080
#
# Stress axis : x y z
#
# Youngs Moduli (GPa) = 93.11430 49.21579 19.57237
#
# Poissons Ratio (x) = 0.15355 0.00706
# Poissons Ratio (y) = 0.29051 0.26597
# Poissons Ratio (z) = 0.03360 0.66880
#
# Static dielectric constant tensor:
#      x y z
#    x 1.732040 0.000000 -0.038800 
#    y 0.000000 1.769910 0.000000 
#    z -0.038800 0.000000 1.817990 
# 
# From -- ./inp_files/17811.got.cif
#   From: 2010.05.17/outbox.cif.g08.bks.cpg/sg11_9_cif.got.tgz:17811.got - 2010.06.03 12:22:45.
