data_PCOD9165129
_publ_section_title
;
Structure prediction by ZEFSAII (Michael W. Deem and Ramdas Pophale) SiO2 
 PCOD9165129
Probable space group: P 21/M
;
_chemical_formula_sum "Si O2"
_cell_formula_units_Z 32
_cell_length_a 12.168390
_cell_length_b 8.912825
_cell_length_c 12.639904
_cell_angle_alpha 90.000000
_cell_angle_beta 90.340323
_cell_angle_gamma 90.000000
_cell_volume 1370.833201
_symmetry_space_group_name_H-M "P 21/M"
_symmetry_group_IT_number 11
_symmetry_cell_setting 'monoclinic'
loop_
_space_group_symop_operation_xyz
x,y,z
-x,1/2+y,-z
-x,-y,-z
x,1/2-y,z
loop_
_atom_site_type_symbol
_atom_site_label
_atom_site_fract_x
_atom_site_fract_y
_atom_site_fract_z
Si Si1 0.116640 0.927110 0.480988
Si Si2 0.811657 0.427976 0.295469
Si Si3 0.514880 0.577074 0.611330
Si Si4 0.826781 0.579005 0.965761
Si Si5 0.991452 0.922040 0.167704
Si Si6 0.396665 0.070996 0.807023
Si Si7 0.286311 0.578306 0.313234
Si Si8 0.385823 0.922763 0.077664
O O1 0.102074 0.750000 0.493516
O O2 0.196087 0.972511 0.580390
O O3 0.167988 0.949931 0.365038
O O4 0.000000 0.000000 0.500000
O O5 0.799205 0.250000 0.286155
O O6 0.931018 0.479495 0.255108
O O7 0.722361 0.502714 0.217841
O O8 0.500000 0.500000 0.500000
O O9 0.479184 0.750000 0.615460
O O10 0.454698 0.476068 0.697682
O O11 0.641862 0.555794 0.639543
O O12 0.814171 0.750000 0.929490
O O13 0.704598 0.516363 0.987880
O O14 0.896278 0.486696 0.879566
O O15 0.905196 0.577714 0.068685
O O16 0.006464 0.750000 0.202268
O O17 0.388187 0.250000 0.819715
O O18 0.491101 0.019213 0.892384
O O19 0.315227 0.750000 0.350998
O O20 0.321063 0.580563 0.190927
O O21 0.393459 0.750000 0.040409
#
# Coordination Sequence:
#
# PCOD9165129 Si02
#       8
#     4   4   4   4   4   4   4   4
#     4  10  23  39  55  80 115 153 195 239 287 343
#     4  11  23  39  60  88 121 156 196 245 293 346
#     4  11  20  31  51  77 105 143 190 241 289 335
#     4  10  21  38  62  91 119 147 193 249 298 351
#     4  10  22  40  62  87 117 157 196 239 298 357
#     4  10  21  38  58  84 116 155 197 236 289 357
#     4   9  19  36  53  76 110 148 189 233 282 342
#     4   9  19  35  59  88 119 154 193 239 294 351
#
# _framework density 23.343467
#
# number of rings (size 3 to 8) (size 9 to 14) (size 15 to 20)
#    0.000    2.000    0.000    4.125    1.750    6.500 
#    0.000    0.625    0.000    0.000    0.000    0.000 
#    0.000    0.000    0.000    0.000    0.000    0.000 
#
# Total GULP energy -178690.678351 kJ/mol
# GULP energy per Si atom -5584.083698 kJ/mol
# Density = 2.329034 g / cm^3
# Si number density = 23.343467 Si / 1000 Ang^3
#
#
#
# Elastic Constant Matrix: (Units=GPa)
#
#
# Indices 1 2 3 4 5 6 
#
# 1 152.0011 28.2446 3.6025 0.0000 2.3912 0.0000
# 2 28.2446 56.4008 -1.0532 0.0000 18.6634 0.0000
# 3 3.6025 -1.0532 62.1299 0.0000 12.5442 0.0000
# 4 0.0000 0.0000 0.0000 21.2109 0.0000 -0.4127
# 5 2.3912 18.6634 12.5442 0.0000 35.9090 0.0000
# 6 0.0000 0.0000 0.0000 -0.4127 0.0000 41.8160
#
#
#
# Elastic Compliance Matrix: (Units=1/GPa)
#
#
# Indices 1 2 3 4 5 6 
#
# 1 0.007390 -0.004424 -0.000934 0.000000 0.002134 0.000000
# 2 -0.004424 0.024527 0.003428 0.000000 -0.013651 0.000000
# 3 -0.000934 0.003428 0.017811 0.000000 -0.007942 0.000000
# 4 0.000000 0.000000 0.000000 0.047155 0.000000 0.000465
# 5 0.002134 -0.013651 -0.007942 0.000000 0.037575 0.000000
# 6 0.000000 0.000000 0.000000 0.000465 0.000000 0.023919
#
#
# Mechanical properties :
#
#
# Convention : Reuss Voigt Hill
#
# Bulk Modulus (GPa) = 21.80188 36.90218 29.35203
# Shear Modulus (GPa) = 28.16502 35.76971 31.96736
#
# Velocity S-wave (km/s) = 3.47731 3.91874 3.70460
# Velocity P-wave (km/s) = 5.04798 6.02644 5.55878
#
# Compressibility (1/GPa) = 0.04586760
#
# Stress axis : x y z
#
# Youngs Moduli (GPa) = 135.32630 40.77160 56.14502
#
# Poissons Ratio (x) = 0.18038 0.05245
# Poissons Ratio (y) = 0.59869 -0.19249
# Poissons Ratio (z) = 0.12643 -0.13978
#
# Static dielectric constant tensor:
#      x y z
#    x 1.923470 0.000000 0.042670 
#    y 0.000000 1.803240 0.000000 
#    z 0.042670 0.000000 1.859070 
# 
# From -- ./inp_files/49324.got.cif
#   From: 2010.05.17/outbox.cif.g08.bks.cpg/sg11_25_cif.got.tgz:49324.got - 2010.06.03 12:22:45.
