data_PCOD9165148
_publ_section_title
;
Structure prediction by ZEFSAII (Michael W. Deem and Ramdas Pophale) SiO2 
 PCOD9165148
Probable space group: P 21/M
;
_chemical_formula_sum "Si O2"
_cell_formula_units_Z 32
_cell_length_a 7.127970
_cell_length_b 17.181388
_cell_length_c 15.909882
_cell_angle_alpha 90.000000
_cell_angle_beta 62.595002
_cell_angle_gamma 90.000000
_cell_volume 1729.792838
_symmetry_space_group_name_H-M "P 21/M"
_symmetry_group_IT_number 11
_symmetry_cell_setting 'monoclinic'
loop_
_space_group_symop_operation_xyz
x,y,z
-x,1/2+y,-z
-x,-y,-z
x,1/2-y,z
loop_
_atom_site_type_symbol
_atom_site_label
_atom_site_fract_x
_atom_site_fract_y
_atom_site_fract_z
Si Si1 0.376840 0.656228 0.571041
Si Si2 0.067021 0.083633 0.948444
Si Si3 0.432051 0.157489 0.291840
Si Si4 0.401304 0.342674 0.643874
Si Si5 0.101211 0.659382 0.857356
Si Si6 0.051173 0.080380 0.272798
Si Si7 0.055162 0.597028 0.221250
Si Si8 0.500416 0.842700 0.187533
O O1 0.331760 0.750000 0.577100
O O2 0.541174 0.645256 0.613868
O O3 0.474978 0.627822 0.463261
O O4 0.164557 0.610977 0.639806
O O5 0.316069 0.104733 0.892079
O O6 0.981096 0.091268 0.871579
O O7 0.967096 0.144559 0.033950
O O8 0.000000 0.000000 0.000000
O O9 0.404418 0.250000 0.283110
O O10 0.657665 0.132780 0.206453
O O11 0.244464 0.112393 0.286763
O O12 0.416442 0.250000 0.635586
O O13 0.498851 0.365298 0.713755
O O14 0.155083 0.364054 0.697600
O O15 0.094387 0.750000 0.836878
O O16 0.955669 0.615159 0.820339
O O17 0.064801 0.988531 0.258973
O O18 0.271098 0.641684 0.196551
O O19 0.553539 0.750000 0.170300
#
# Coordination Sequence:
#
# PCOD9165148 Si02
#       8
#     4   4   4   4   4   4   4   4
#     4   9  19  37  61  85 113 153 199 242 287 345
#     4  11  23  41  62  85 116 153 195 244 295 345
#     4   9  19  34  56  84 115 150 191 238 290 349
#     4   9  20  41  63  83 113 154 198 244 291 343
#     4  10  21  38  59  83 114 153 195 239 289 350
#     4  11  21  35  56  85 121 153 188 239 295 353
#     4  11  24  38  60  86 118 156 193 243 296 350
#     4  10  23  41  62  87 117 154 200 244 290 350
#
# _framework density 18.499324000000001
#
# number of rings (size 3 to 8) (size 9 to 14) (size 15 to 20)
#    0.000    2.000    1.250    2.625    1.750    5.500 
#    0.000    6.250    0.000    0.000    0.000    0.000 
#    0.000    0.000    0.000    0.000    0.000    0.000 
#
# Total GULP energy -178579.979384 kJ/mol
# GULP energy per Si atom -5580.624356 kJ/mol
# Density = 1.845722 g / cm^3
# Si number density = 18.499324 Si / 1000 Ang^3
#
#
#
# Elastic Constant Matrix: (Units=GPa)
#
#
# Indices 1 2 3 4 5 6 
#
# 1 84.9394 16.5670 21.2231 0.0000 2.6821 0.0000
# 2 16.5670 8.9357 22.0765 0.0000 -0.4229 0.0000
# 3 21.2231 22.0765 111.8473 0.0000 -2.4937 0.0000
# 4 0.0000 0.0000 0.0000 27.8403 0.0000 -5.4806
# 5 2.6821 -0.4229 -2.4937 0.0000 9.6520 0.0000
# 6 0.0000 0.0000 0.0000 -5.4806 0.0000 -61.6764
#
#
#
# Elastic Compliance Matrix: (Units=1/GPa)
#
#
# Indices 1 2 3 4 5 6 
#
# 1 0.021492 -0.058007 0.007223 0.000000 -0.006648 0.000000
# 2 -0.058007 0.375009 -0.062648 0.000000 0.016365 0.000000
# 3 0.007223 -0.062648 0.019945 0.000000 0.000401 0.000000
# 4 0.000000 0.000000 0.000000 0.035302 0.000000 -0.003137
# 5 -0.006648 0.016365 0.000401 0.000000 0.106273 0.000000
# 6 0.000000 0.000000 0.000000 -0.003137 0.000000 -0.015935
#
#
# Mechanical properties :
#
#
# Convention : Reuss Voigt Hill
#
# Bulk Modulus (GPa) = 5.27476 36.16174 20.71825
# Shear Modulus (GPa) = 6.00858 4.88690 5.44774
#
# Velocity S-wave (km/s) = 1.80418 1.62708 1.71791
# Velocity P-wave (km/s) = 2.68283 4.80832 3.89342
#
# Compressibility (1/GPa) = 0.18958208
#
# Stress axis : x y z
#
# Youngs Moduli (GPa) = 46.52829 2.66660 50.13905
#
# Poissons Ratio (x) = 0.15468 -0.36216
# Poissons Ratio (y) = 2.69898 3.14110
# Poissons Ratio (z) = -0.33608 0.16706
#
# Static dielectric constant tensor:
#      x y z
#    x 1.609930 0.000000 0.005320 
#    y 0.000000 1.660690 0.000000 
#    z 0.005320 0.000000 1.642250 
# 
# From -- ./inp_files/46018.got.cif
#   From: 2010.05.17/outbox.cif.g08.bks.cpg/sg11_24_cif.got.tgz:46018.got - 2010.06.03 12:22:45.
