data_PCOD9165061
_publ_section_title
;
Structure prediction by ZEFSAII (Michael W. Deem and Ramdas Pophale) SiO2 
 PCOD9165061
Probable space group: P 21/M
;
_chemical_formula_sum "Si O2"
_cell_formula_units_Z 28
_cell_length_a 9.339628
_cell_length_b 13.783421
_cell_length_c 11.742062
_cell_angle_alpha 90.000000
_cell_angle_beta 56.166138
_cell_angle_gamma 90.000000
_cell_volume 1255.601833
_symmetry_space_group_name_H-M "P 21/M"
_symmetry_group_IT_number 11
_symmetry_cell_setting 'monoclinic'
loop_
_space_group_symop_operation_xyz
x,y,z
-x,1/2+y,-z
-x,-y,-z
x,1/2-y,z
loop_
_atom_site_type_symbol
_atom_site_label
_atom_site_fract_x
_atom_site_fract_y
_atom_site_fract_z
Si Si1 0.099235 0.054212 0.089454
Si Si2 0.911498 0.404107 0.592832
Si Si3 0.747165 0.651033 0.452830
Si Si4 0.649996 0.863226 0.837071
Si Si5 0.599937 0.014234 0.648583
Si Si6 0.208201 0.428388 0.801591
Si Si7 0.733756 0.136936 0.914824
O O1 0.187671 0.107598 0.156179
O O2 0.193489 0.948215 0.037215
O O3 0.133615 0.106654 0.955184
O O4 0.900365 0.024261 0.186998
O O5 0.741260 0.399306 0.589831
O O6 0.818759 0.391870 0.756726
O O7 0.000000 0.500000 0.500000
O O8 0.087308 0.346963 0.537609
O O9 0.644887 0.750000 0.513530
O O10 0.639883 0.555502 0.525588
O O11 0.813366 0.642383 0.294964
O O12 0.662569 0.750000 0.795506
O O13 0.631068 0.940336 0.742485
O O14 0.474047 0.871726 0.989342
O O15 0.408260 0.051944 0.732675
O O16 0.772935 0.250000 0.923839
#
# Coordination Sequence:
#
# PCOD9165061 Si02
#       7
#     4   4   4   4   4   4   4
#     4  11  22  40  62  93 127 167 207 260 318 379
#     4  10  21  37  64  89 119 161 208 263 310 363
#     4  11  23  40  61  88 123 167 217 259 309 380
#     4  11  22  38  64  94 124 163 215 269 318 369
#     4  11  21  40  63  90 124 164 211 259 317 373
#     4  11  23  38  64  87 127 172 204 251 320 381
#     4  11  20  36  65  94 121 159 208 262 313 370
#
# _framework density 22.300063000000002
#
# number of rings (size 3 to 8) (size 9 to 14) (size 15 to 20)
#    0.000    1.143    4.286    2.571    0.000    0.571 
#    0.000    5.000    0.000    0.000    0.000    0.000 
#    0.000    0.000    0.000    0.000    0.000    0.000 
#
# Total GULP energy -155995.622884 kJ/mol
# GULP energy per Si atom -5571.272246 kJ/mol
# Density = 2.224931 g / cm^3
# Si number density = 22.300063 Si / 1000 Ang^3
#
#
#
# Elastic Constant Matrix: (Units=GPa)
#
#
# Indices 1 2 3 4 5 6 
#
# 1 113.0428 15.8365 -1.4128 0.0000 -14.5673 0.0000
# 2 15.8365 72.3215 4.7623 0.0000 13.7170 0.0000
# 3 -1.4128 4.7623 61.5438 0.0000 -3.2310 0.0000
# 4 0.0000 0.0000 0.0000 7.1007 0.0000 -14.2361
# 5 -14.5673 13.7170 -3.2310 0.0000 41.5621 0.0000
# 6 0.0000 0.0000 0.0000 -14.2361 0.0000 -9.1093
#
#
#
# Elastic Compliance Matrix: (Units=1/GPa)
#
#
# Indices 1 2 3 4 5 6 
#
# 1 0.009867 -0.003065 0.000701 0.000000 0.004525 0.000000
# 2 -0.003065 0.015824 -0.001632 0.000000 -0.006424 0.000000
# 3 0.000701 -0.001632 0.016500 0.000000 0.002067 0.000000
# 4 0.000000 0.000000 0.000000 0.034073 0.000000 -0.053249
# 5 0.004525 -0.006424 0.002067 0.000000 0.027927 0.000000
# 6 0.000000 0.000000 0.000000 -0.053249 0.000000 -0.026560
#
#
# Mechanical properties :
#
#
# Convention : Reuss Voigt Hill
#
# Bulk Modulus (GPa) = 29.24039 31.69779 30.46909
# Shear Modulus (GPa) = 51.53428 23.09216 37.31322
#
# Velocity S-wave (km/s) = 4.81245 3.22144 4.09496
# Velocity P-wave (km/s) = 6.63477 5.29924 6.00426
#
# Compressibility (1/GPa) = 0.03419927
#
# Stress axis : x y z
#
# Youngs Moduli (GPa) = 101.34356 63.19449 60.60784
#
# Poissons Ratio (x) = 0.19369 -0.04250
# Poissons Ratio (y) = 0.31062 0.09892
# Poissons Ratio (z) = -0.07107 0.10314
#
# Static dielectric constant tensor:
#      x y z
#    x 1.841750 0.000000 0.016020 
#    y 0.000000 1.834450 0.000000 
#    z 0.016020 0.000000 1.847380 
# 
# From -- ./inp_files/31780.got.cif
#   From: 2010.05.17/outbox.cif.g08.bks.cpg/sg11_16_cif.got.tgz:31780.got - 2010.06.03 12:22:45.
