data_PCOD9165111
_publ_section_title
;
Structure prediction by ZEFSAII (Michael W. Deem and Ramdas Pophale) SiO2 
 PCOD9165111
Probable space group: P 21/M
;
_chemical_formula_sum "Si O2"
_cell_formula_units_Z 28
_cell_length_a 31.685849
_cell_length_b 8.965745
_cell_length_c 5.487927
_cell_angle_alpha 90.000000
_cell_angle_beta 121.592954
_cell_angle_gamma 90.000000
_cell_volume 1327.985368
_symmetry_space_group_name_H-M "P 21/M"
_symmetry_group_IT_number 11
_symmetry_cell_setting 'monoclinic'
loop_
_space_group_symop_operation_xyz
x,y,z
-x,1/2+y,-z
-x,-y,-z
x,1/2-y,z
loop_
_atom_site_type_symbol
_atom_site_label
_atom_site_fract_x
_atom_site_fract_y
_atom_site_fract_z
Si Si1 0.221316 0.583597 0.563181
Si Si2 0.361128 0.572839 0.315447
Si Si3 0.519987 0.425782 0.310428
Si Si4 0.948806 0.420313 0.895940
Si Si5 0.682215 0.929736 0.316453
Si Si6 0.852286 0.585434 0.393546
Si Si7 0.875136 0.410667 0.062464
O O1 0.240476 0.750000 0.670743
O O2 0.261509 0.487180 0.544532
O O3 0.200034 0.498527 0.732756
O O4 0.169719 0.598973 0.263767
O O5 0.348569 0.750000 0.275326
O O6 0.420554 0.560691 0.508562
O O7 0.339138 0.496906 0.494604
O O8 0.343479 0.495944 0.008482
O O9 0.500000 0.500000 0.500000
O O10 0.506883 0.250000 0.270740
O O11 0.500000 0.500000 0.000000
O O12 0.951967 0.250000 0.821019
O O13 0.901979 0.504820 0.638860
O O14 0.929923 0.414284 0.117426
O O15 0.000000 0.500000 0.000000
O O16 0.678656 0.750000 0.307808
O O17 0.848395 0.750000 0.479691
O O18 0.864030 0.568583 0.147264
O O19 0.870377 0.250000 0.186982
#
# Coordination Sequence:
#
# PCOD9165111 Si02
#       7
#     4   4   4   4   4   4   4
#     4  10  22  41  63  85 117 162 205 251 314 385
#     4  11  25  46  68  97 138 184 229 274 338 411
#     4  11  24  42  69 101 136 180 229 281 338 402
#     4  10  21  38  58  81 112 148 191 241 300 367
#     4  12  26  43  67 100 136 175 226 287 341 393
#     4  11  22  36  58  86 116 149 193 249 303 365
#     4   9  20  38  59  82 110 150 197 242 298 371
#
# _framework density 21.084568999999998
#
# number of rings (size 3 to 8) (size 9 to 14) (size 15 to 20)
#    0.000    1.429    0.000    6.000    2.000    9.714 
#    0.000    0.000    0.000    0.000    0.000    0.000 
#    0.000    0.000    0.000    0.000    0.000    0.000 
#
# Total GULP energy -155987.577478 kJ/mol
# GULP energy per Si atom -5570.984910 kJ/mol
# Density = 2.103658 g / cm^3
# Si number density = 21.084569 Si / 1000 Ang^3
#
#
#
# Elastic Constant Matrix: (Units=GPa)
#
#
# Indices 1 2 3 4 5 6 
#
# 1 151.1163 80.7957 52.9838 0.0000 -3.6240 0.0000
# 2 80.7957 168.2397 43.9413 0.0000 -11.2188 0.0000
# 3 52.9838 43.9413 73.2932 0.0000 -10.5860 0.0000
# 4 0.0000 0.0000 0.0000 26.9067 0.0000 -3.9306
# 5 -3.6240 -11.2188 -10.5860 0.0000 27.8694 0.0000
# 6 0.0000 0.0000 0.0000 -3.9306 0.0000 27.9048
#
#
#
# Elastic Compliance Matrix: (Units=1/GPa)
#
#
# Indices 1 2 3 4 5 6 
#
# 1 0.010568 -0.003731 -0.005736 0.000000 -0.002306 0.000000
# 2 -0.003731 0.008410 -0.002038 0.000000 0.002126 0.000000
# 3 -0.005736 -0.002038 0.019876 0.000000 0.005984 0.000000
# 4 0.000000 0.000000 0.000000 0.037946 0.000000 0.005345
# 5 -0.002306 0.002126 0.005984 0.000000 0.038710 0.000000
# 6 0.000000 0.000000 0.000000 0.005345 0.000000 0.036589
#
#
# Mechanical properties :
#
#
# Convention : Reuss Voigt Hill
#
# Bulk Modulus (GPa) = 63.11198 83.12119 73.11659
# Shear Modulus (GPa) = 27.71770 30.86475 29.29122
#
# Velocity S-wave (km/s) = 3.62967 3.83019 3.73128
# Velocity P-wave (km/s) = 6.89665 7.68562 7.30180
#
# Compressibility (1/GPa) = 0.01584485
#
# Stress axis : x y z
#
# Youngs Moduli (GPa) = 94.62570 118.91196 50.31127
#
# Poissons Ratio (x) = 0.44364 0.28858
# Poissons Ratio (y) = 0.35303 0.10252
# Poissons Ratio (z) = 0.54277 0.24230
#
# Static dielectric constant tensor:
#      x y z
#    x 1.774050 0.000000 -0.102940 
#    y 0.000000 1.659270 0.000000 
#    z -0.102940 0.000000 1.874930 
# 
# From -- ./inp_files/9710.got.cif
#   From: 2010.05.17/outbox.cif.g08.bks.cpg/sg11_5_cif.got.tgz:9710.got - 2010.06.03 12:22:45.
