data_PCOD9165577
_publ_section_title
;
Structure prediction by ZEFSAII (Michael W. Deem and Ramdas Pophale) SiO2 
 PCOD9165577
Probable space group: P 21/M
;
_chemical_formula_sum "Si O2"
_cell_formula_units_Z 28
_cell_length_a 15.820594
_cell_length_b 8.825836
_cell_length_c 11.914853
_cell_angle_alpha 90.000000
_cell_angle_beta 119.741049
_cell_angle_gamma 90.000000
_cell_volume 1444.525746
_symmetry_space_group_name_H-M "P 21/M"
_symmetry_group_IT_number 11
_symmetry_cell_setting 'monoclinic'
loop_
_space_group_symop_operation_xyz
x,y,z
-x,1/2+y,-z
-x,-y,-z
x,1/2-y,z
loop_
_atom_site_type_symbol
_atom_site_label
_atom_site_fract_x
_atom_site_fract_y
_atom_site_fract_z
Si Si1 0.702332 0.067560 0.868964
Si Si2 0.466016 0.430313 0.096321
Si Si3 0.607039 0.930066 0.584170
Si Si4 0.927154 0.070217 0.041908
Si Si5 0.990501 0.927801 0.313479
Si Si6 0.149108 0.070451 0.568845
Si Si7 0.637532 0.929454 0.348795
O O1 0.695721 0.250000 0.868838
O O2 0.634458 0.998914 0.922119
O O3 0.661459 0.009280 0.722811
O O4 0.814865 0.019953 0.954753
O O5 0.457801 0.250000 0.080924
O O6 0.548207 0.475838 0.241632
O O7 0.500000 0.500000 0.000000
O O8 0.601050 0.750000 0.601947
O O9 0.654429 0.952263 0.492659
O O10 0.500000 0.000000 0.500000
O O11 0.927988 0.250000 0.029493
O O12 0.965633 0.023097 0.188578
O O13 0.000000 0.000000 0.000000
O O14 0.992567 0.750000 0.287933
O O15 0.907423 0.954959 0.352428
O O16 0.091301 0.978348 0.436599
O O17 0.142224 0.250000 0.538019
O O18 0.262473 0.031865 0.648056
O O19 0.615518 0.750000 0.318183
#
# Coordination Sequence:
#
# PCOD9165577 Si02
#       7
#     4   4   4   4   4   4   4
#     4  11  25  45  66  93 128 167 213 264 317 377
#     4  12  26  43  66  95 130 170 213 259 315 379
#     4  11  22  38  63  92 126 164 204 255 309 368
#     4  11  26  45  66  92 126 166 212 264 318 377
#     4  10  21  39  63  92 125 162 208 259 314 374
#     4   9  20  39  63  92 124 163 206 257 314 369
#     4  10  22  40  63  93 126 164 211 258 311 372
#
# _framework density 19.383524999999999
#
# number of rings (size 3 to 8) (size 9 to 14) (size 15 to 20)
#    0.000    1.429    1.429    3.000    4.000    4.000 
#    0.000    0.000    0.000    0.000    0.000    0.000 
#    0.000    0.000    0.000    0.000    0.000    0.000 
#
# Total GULP energy -156538.074407 kJ/mol
# GULP energy per Si atom -5590.645515 kJ/mol
# Density = 1.933941 g / cm^3
# Si number density = 19.383525 Si / 1000 Ang^3
#
#
#
# Elastic Constant Matrix: (Units=GPa)
#
#
# Indices 1 2 3 4 5 6 
#
# 1 126.3069 57.5297 39.9332 0.0000 14.0465 0.0000
# 2 57.5297 76.7028 34.9696 0.0000 -2.3223 0.0000
# 3 39.9332 34.9696 64.8248 0.0000 -5.3088 0.0000
# 4 0.0000 0.0000 0.0000 37.9088 0.0000 -3.2400
# 5 14.0465 -2.3223 -5.3088 0.0000 20.4808 0.0000
# 6 0.0000 0.0000 0.0000 -3.2400 0.0000 29.8129
#
#
#
# Elastic Compliance Matrix: (Units=1/GPa)
#
#
# Indices 1 2 3 4 5 6 
#
# 1 0.015401 -0.009461 -0.005453 0.000000 -0.013049 0.000000
# 2 -0.009461 0.023105 -0.006018 0.000000 0.007549 0.000000
# 3 -0.005453 -0.006018 0.022765 0.000000 0.008958 0.000000
# 4 0.000000 0.000000 0.000000 0.026626 0.000000 0.002894
# 5 -0.013049 0.007549 0.008958 0.000000 0.060954 0.000000
# 6 0.000000 0.000000 0.000000 0.002894 0.000000 0.033857
#
#
# Mechanical properties :
#
#
# Convention : Reuss Voigt Hill
#
# Bulk Modulus (GPa) = 51.52184 59.18886 55.35535
# Shear Modulus (GPa) = 21.64111 26.66730 24.15420
#
# Velocity S-wave (km/s) = 3.34499 3.71316 3.53387
# Velocity P-wave (km/s) = 6.44643 6.99896 6.72837
#
# Compressibility (1/GPa) = 0.01940925
#
# Stress axis : x y z
#
# Youngs Moduli (GPa) = 64.92889 43.27976 43.92681
#
# Poissons Ratio (x) = 0.40946 0.23952
# Poissons Ratio (y) = 0.61428 0.26435
# Poissons Ratio (z) = 0.35403 0.26046
#
# Static dielectric constant tensor:
#      x y z
#    x 1.684730 0.000000 -0.013030 
#    y 0.000000 1.652320 0.000000 
#    z -0.013030 0.000000 1.649380 
# 
# From -- ./inp_files/38473.got.cif
#   From: 2010.05.17/outbox.cif.g08.bks.cpg/sg11_20_cif.got.tgz:38473.got - 2010.06.03 12:22:45.
