data_PCOD9165101
_publ_section_title
;
Structure prediction by ZEFSAII (Michael W. Deem and Ramdas Pophale) SiO2 
 PCOD9165101
Probable space group: P 21/M
;
_chemical_formula_sum "Si O2"
_cell_formula_units_Z 20
_cell_length_a 5.217531
_cell_length_b 14.789650
_cell_length_c 14.264579
_cell_angle_alpha 90.000000
_cell_angle_beta 105.146358
_cell_angle_gamma 90.000000
_cell_volume 1062.495002
_symmetry_space_group_name_H-M "P 21/M"
_symmetry_group_IT_number 11
_symmetry_cell_setting 'monoclinic'
loop_
_space_group_symop_operation_xyz
x,y,z
-x,1/2+y,-z
-x,-y,-z
x,1/2-y,z
loop_
_atom_site_type_symbol
_atom_site_label
_atom_site_fract_x
_atom_site_fract_y
_atom_site_fract_z
Si Si1 0.514849 0.519460 0.794822
Si Si2 0.498396 0.348182 0.931461
Si Si3 0.935711 0.600862 0.959736
Si Si4 0.118104 0.645082 0.671964
Si Si5 0.446599 0.057175 0.402657
O O1 0.490907 0.433515 0.860214
O O2 0.248881 0.579908 0.763315
O O3 0.570549 0.494025 0.692244
O O4 0.748970 0.586123 0.852177
O O5 0.488832 0.250000 0.882915
O O6 0.253755 0.356259 0.979415
O O7 0.776619 0.353845 0.014914
O O8 0.000000 0.500000 0.000000
O O9 0.125776 0.750000 0.698498
O O10 0.312590 0.623907 0.602528
O O11 0.825097 0.612515 0.619096
O O12 0.500000 0.000000 0.500000
#
# Coordination Sequence:
#
# PCOD9165101 Si02
#       5
#     4   4   4   4   4
#     4   9  23  37  65  86 125 160 200 250 306 350
#     4  11  23  38  58  90 126 165 208 246 295 364
#     4  10  21  38  57  84 118 166 202 247 298 349
#     4  10  22  38  62  92 121 156 203 250 295 356
#     4  10  22  40  64  86 121 158 195 247 312 357
#
# _framework density 18.823616999999999
#
# number of rings (size 3 to 8) (size 9 to 14) (size 15 to 20)
#    1.200    0.800    0.000    4.200    8.400    1.600 
#    0.000    2.000    0.000    0.000    0.000    0.000 
#    0.000    0.000    0.000    0.000    0.000    0.000 
#
# Total GULP energy -111400.733158 kJ/mol
# GULP energy per Si atom -5570.036658 kJ/mol
# Density = 1.878077 g / cm^3
# Si number density = 18.823617 Si / 1000 Ang^3
#
#
#
# Elastic Constant Matrix: (Units=GPa)
#
#
# Indices 1 2 3 4 5 6 
#
# 1 136.5108 37.7679 20.9379 0.0000 -1.1700 0.0000
# 2 37.7679 121.9136 36.4917 0.0000 8.1287 0.0000
# 3 20.9379 36.4917 102.1722 0.0000 2.8119 0.0000
# 4 0.0000 0.0000 0.0000 18.9595 0.0000 -7.8676
# 5 -1.1700 8.1287 2.8119 0.0000 12.7399 0.0000
# 6 0.0000 0.0000 0.0000 -7.8676 0.0000 7.1578
#
#
#
# Elastic Compliance Matrix: (Units=1/GPa)
#
#
# Indices 1 2 3 4 5 6 
#
# 1 0.008153 -0.002431 -0.000871 0.000000 0.002492 0.000000
# 2 -0.002431 0.010260 -0.002998 0.000000 -0.006108 0.000000
# 3 -0.000871 -0.002998 0.011053 0.000000 -0.000607 0.000000
# 4 0.000000 0.000000 0.000000 0.096978 0.000000 0.106596
# 5 0.002492 -0.006108 -0.000607 0.000000 0.082754 0.000000
# 6 0.000000 0.000000 0.000000 0.106596 0.000000 0.256875
#
#
# Mechanical properties :
#
#
# Convention : Reuss Voigt Hill
#
# Bulk Modulus (GPa) = 59.29136 61.22130 60.25633
# Shear Modulus (GPa) = 10.32424 25.46471 17.89447
#
# Velocity S-wave (km/s) = 2.34449 3.68204 3.08659
# Velocity P-wave (km/s) = 6.23663 7.11835 6.69203
#
# Compressibility (1/GPa) = 0.01686586
#
# Stress axis : x y z
#
# Youngs Moduli (GPa) = 122.65399 97.46189 90.46949
#
# Poissons Ratio (x) = 0.23695 0.07880
# Poissons Ratio (y) = 0.29820 0.27125
# Poissons Ratio (z) = 0.10684 0.29222
#
# Static dielectric constant tensor:
#      x y z
#    x 1.694250 0.000000 -0.012420 
#    y 0.000000 1.677770 0.000000 
#    z -0.012420 0.000000 1.664230 
# 
# From -- ./inp_files/29646.got.cif
#   From: 2010.05.17/outbox.cif.g08.bks.cpg/sg11_15_cif.got.tgz:29646.got - 2010.06.03 12:22:45.
