data_PCOD9165279
_publ_section_title
;
Structure prediction by ZEFSAII (Michael W. Deem and Ramdas Pophale) SiO2 
 PCOD9165279
Probable space group: P 21/M
;
_chemical_formula_sum "Si O2"
_cell_formula_units_Z 28
_cell_length_a 31.284280
_cell_length_b 8.607710
_cell_length_c 31.283473
_cell_angle_alpha 90.000000
_cell_angle_beta 170.521444
_cell_angle_gamma 90.000000
_cell_volume 1387.284539
_symmetry_space_group_name_H-M "P 21/M"
_symmetry_group_IT_number 11
_symmetry_cell_setting 'monoclinic'
loop_
_space_group_symop_operation_xyz
x,y,z
-x,1/2+y,-z
-x,-y,-z
x,1/2-y,z
loop_
_atom_site_type_symbol
_atom_site_label
_atom_site_fract_x
_atom_site_fract_y
_atom_site_fract_z
Si Si1 0.924973 0.933616 0.760975
Si Si2 0.820291 0.064825 0.564900
Si Si3 0.042358 0.934520 0.494338
Si Si4 0.567894 0.433219 0.972984
Si Si5 0.738042 0.063889 0.762563
Si Si6 0.353389 0.064742 0.042604
Si Si7 0.397570 0.064722 0.278414
O O1 0.954158 0.750000 0.795684
O O2 0.864521 0.974626 0.652301
O O3 0.678807 0.994651 0.545053
O O4 0.187726 0.016688 0.035656
O O5 0.812207 0.250000 0.566684
O O6 0.063073 0.037588 0.772975
O O7 0.556928 0.022754 0.280548
O O8 0.080128 0.750000 0.533232
O O9 0.000000 0.000000 0.500000
O O10 0.792792 0.976039 0.219839
O O11 0.292539 0.013372 0.719910
O O12 0.602862 0.250000 0.014031
O O13 0.587206 0.474926 0.942135
O O14 0.739090 0.250000 0.763434
O O15 0.500000 0.000000 0.500000
O O16 0.704728 0.002301 0.777767
O O17 0.000000 0.000000 0.000000
O O18 0.383865 0.250000 0.064531
O O19 0.417775 0.250000 0.300561
#
# Coordination Sequence:
#
# PCOD9165279 Si02
#       7
#     4   4   4   4   4   4   4
#     4  12  25  42  65  96 130 165 209 264 319 372
#     4  10  21  38  61  89 123 164 208 254 309 374
#     4  12  25  44  67  93 127 167 211 258 313 374
#     4  12  25  42  65  96 130 165 209 260 315 372
#     4  12  25  44  67  96 130 167 211 260 315 374
#     4  10  21  38  61  89 123 164 208 254 309 370
#     4  12  25  44  67  93 127 170 214 258 313 376
#
# _framework density 20.183312999999998
#
# number of rings (size 3 to 8) (size 9 to 14) (size 15 to 20)
#    0.000    0.571    0.000    9.429    0.000    3.429 
#    0.000    0.000    0.000    0.000    0.000    0.000 
#    0.000    0.000    0.000    0.000    0.000    0.000 
#
# Total GULP energy -156871.109628 kJ/mol
# GULP energy per Si atom -5602.539630 kJ/mol
# Density = 2.013737 g / cm^3
# Si number density = 20.183313 Si / 1000 Ang^3
#
#
#
# Elastic Constant Matrix: (Units=GPa)
#
#
# Indices 1 2 3 4 5 6 
#
# 1 58.5679 17.6061 -23.2320 0.0000 -1.7912 0.0000
# 2 17.6061 102.2817 -14.8131 0.0000 5.3244 0.0000
# 3 -23.2320 -14.8131 63.8221 0.0000 -1.0054 0.0000
# 4 0.0000 0.0000 0.0000 31.4020 0.0000 -0.8554
# 5 -1.7912 5.3244 -1.0054 0.0000 36.6852 0.0000
# 6 0.0000 0.0000 0.0000 -0.8554 0.0000 54.0095
#
#
#
# Elastic Compliance Matrix: (Units=1/GPa)
#
#
# Indices 1 2 3 4 5 6 
#
# 1 0.020666 -0.002635 0.006936 0.000000 0.001582 0.000000
# 2 -0.002635 0.010526 0.001458 0.000000 -0.001616 0.000000
# 3 0.006936 0.001458 0.018542 0.000000 0.000635 0.000000
# 4 0.000000 0.000000 0.000000 0.031859 0.000000 0.000505
# 5 0.001582 -0.001616 0.000635 0.000000 0.027588 0.000000
# 6 0.000000 0.000000 0.000000 0.000505 0.000000 0.018523
#
#
# Mechanical properties :
#
#
# Convention : Reuss Voigt Hill
#
# Bulk Modulus (GPa) = 16.32596 20.42152 18.37374
# Shear Modulus (GPa) = 36.60243 40.76004 38.68123
#
# Velocity S-wave (km/s) = 4.26314 4.49875 4.38253
# Velocity P-wave (km/s) = 5.68673 6.09303 5.89338
#
# Compressibility (1/GPa) = 0.06125214
#
# Stress axis : x y z
#
# Youngs Moduli (GPa) = 48.38863 95.00404 53.93212
#
# Poissons Ratio (x) = 0.25035 -0.37407
# Poissons Ratio (y) = 0.12751 -0.07865
# Poissons Ratio (z) = -0.33562 -0.13855
#
# Static dielectric constant tensor:
#      x y z
#    x 1.678870 0.000000 -0.007890 
#    y 0.000000 1.683010 0.000000 
#    z -0.007890 0.000000 1.674180 
# 
# From -- ./inp_files/73878.got.cif
#   From: 2010.05.17/outbox.cif.g08.bks.cpg/sg11_37_cif.got.tgz:73878.got - 2010.06.03 12:22:45.
