data_PCOD9165458
_publ_section_title
;
Structure prediction by ZEFSAII (Michael W. Deem and Ramdas Pophale) SiO2 
 PCOD9165458
Probable space group: P 21/M
;
_chemical_formula_sum "Si O2"
_cell_formula_units_Z 30
_cell_length_a 7.233177
_cell_length_b 23.834688
_cell_length_c 10.657563
_cell_angle_alpha 90.000000
_cell_angle_beta 43.094475
_cell_angle_gamma 90.000000
_cell_volume 1255.296931
_symmetry_space_group_name_H-M "P 21/M"
_symmetry_group_IT_number 11
_symmetry_cell_setting 'monoclinic'
loop_
_space_group_symop_operation_xyz
x,y,z
-x,1/2+y,-z
-x,-y,-z
x,1/2-y,z
loop_
_atom_site_type_symbol
_atom_site_label
_atom_site_fract_x
_atom_site_fract_y
_atom_site_fract_z
Si Si1 0.662870 0.898309 0.649250
Si Si2 0.427550 0.688092 0.440056
Si Si3 0.033203 0.152929 0.721904
Si Si4 0.944380 0.889677 0.766040
Si Si5 0.280869 0.984426 0.501534
Si Si6 0.650055 0.558233 0.125559
Si Si7 0.258347 0.750000 0.273034
Si Si8 0.816675 0.441491 0.985015
O O1 0.768443 0.856154 0.494169
O O2 0.764679 0.878406 0.733207
O O3 0.775193 0.958573 0.545710
O O4 0.344443 0.907697 0.826490
O O5 0.439848 0.750000 0.496672
O O6 0.736616 0.665454 0.286901
O O7 0.328366 0.701662 0.347844
O O8 0.206863 0.650271 0.623053
O O9 0.832180 0.201601 0.783720
O O10 0.863949 0.097810 0.842732
O O11 0.049333 0.953134 0.691316
O O12 0.754908 0.893329 0.982095
O O13 0.388686 0.939898 0.343676
O O14 0.500000 0.000000 0.500000
O O15 0.886731 0.547552 0.109708
O O16 0.645709 0.498203 0.055944
#
# Coordination Sequence:
#
# PCOD9165458 Si02
#       8
#     4   4   4   4   4   4   2   4
#     4  11  23  38  61  96 132 167 212 262 326 394
#     4  10  22  41  67  95 121 170 218 269 336 379
#     4  12  21  44  75  89 130 173 212 275 333 389
#     4  12  22  38  63  94 130 173 217 269 326 386
#     4  11  22  38  63  94 129 178 217 262 328 396
#     4  10  21  39  60  95 137 166 223 267 311 414
#     4  10  22  44  68  98 126 160 228 282 322 394
#     4  10  22  38  63  95 129 173 213 261 329 390
#
# _framework density 23.898728999999999
#
# number of rings (size 3 to 8) (size 9 to 14) (size 15 to 20)
#    0.400    0.800    2.000    6.800    0.000    3.200 
#    2.400    0.667    1.467    0.800    0.000    0.000 
#    0.000    0.000    0.000    0.000    0.000    0.000 
#
# Total GULP energy -167054.066784 kJ/mol
# GULP energy per Si atom -5568.468893 kJ/mol
# Density = 2.384433 g / cm^3
# Si number density = 23.898729 Si / 1000 Ang^3
#
#
#
# Elastic Constant Matrix: (Units=GPa)
#
#
# Indices 1 2 3 4 5 6 
#
# 1 68.2934 2.2975 6.6115 0.0000 6.7518 0.0000
# 2 2.2975 52.3621 23.5050 0.0000 7.8947 0.0000
# 3 6.6115 23.5050 114.2170 0.0000 11.1534 0.0000
# 4 0.0000 0.0000 0.0000 207.7134 0.0000 32.2731
# 5 6.7518 7.8947 11.1534 0.0000 26.6320 0.0000
# 6 0.0000 0.0000 0.0000 32.2731 0.0000 34.0431
#
#
#
# Elastic Compliance Matrix: (Units=1/GPa)
#
#
# Indices 1 2 3 4 5 6 
#
# 1 0.015049 0.000131 -0.000544 0.000000 -0.003626 0.000000
# 2 0.000131 0.021601 -0.003987 0.000000 -0.004766 0.000000
# 3 -0.000544 -0.003987 0.009883 0.000000 -0.002819 0.000000
# 4 0.000000 0.000000 0.000000 0.005646 0.000000 -0.005352
# 5 -0.003626 -0.004766 -0.002819 0.000000 0.041062 0.000000
# 6 0.000000 0.000000 0.000000 -0.005352 0.000000 0.034449
#
#
# Mechanical properties :
#
#
# Convention : Reuss Voigt Hill
#
# Bulk Modulus (GPa) = 26.50320 33.30005 29.90163
# Shear Modulus (GPa) = 33.54189 67.17494 50.35841
#
# Velocity S-wave (km/s) = 3.75040 5.30746 4.59536
# Velocity P-wave (km/s) = 5.46515 7.17795 6.37930
#
# Compressibility (1/GPa) = 0.03773129
#
# Stress axis : x y z
#
# Youngs Moduli (GPa) = 66.44751 46.29500 101.18813
#
# Poissons Ratio (x) = -0.00604 0.05504
# Poissons Ratio (y) = -0.00868 0.40347
# Poissons Ratio (z) = 0.03614 0.18459
#
# Static dielectric constant tensor:
#      x y z
#    x 1.980930 0.000000 -0.001620 
#    y 0.000000 1.947630 0.000000 
#    z -0.001620 0.000000 1.881590 
# 
# From -- ./inp_files/33039.got.cif
#   From: 2010.05.17/outbox.cif.g08.bks.cpg/sg11_17_cif.got.tgz:33039.got - 2010.06.03 12:22:45.
