data_PCOD9165525
_publ_section_title
;
Structure prediction by ZEFSAII (Michael W. Deem and Ramdas Pophale) SiO2 
 PCOD9165525
Probable space group: P 21/M
;
_chemical_formula_sum "Si O2"
_cell_formula_units_Z 32
_cell_length_a 15.198343
_cell_length_b 8.704892
_cell_length_c 11.435532
_cell_angle_alpha 90.000000
_cell_angle_beta 100.058727
_cell_angle_gamma 90.000000
_cell_volume 1489.665416
_symmetry_space_group_name_H-M "P 21/M"
_symmetry_group_IT_number 11
_symmetry_cell_setting 'monoclinic'
loop_
_space_group_symop_operation_xyz
x,y,z
-x,1/2+y,-z
-x,-y,-z
x,1/2-y,z
loop_
_atom_site_type_symbol
_atom_site_label
_atom_site_fract_x
_atom_site_fract_y
_atom_site_fract_z
Si Si1 0.456696 0.065864 0.605819
Si Si2 0.041629 0.431837 0.391719
Si Si3 0.196788 0.566539 0.290776
Si Si4 0.297335 0.063051 0.714944
Si Si5 0.400191 0.066443 0.974724
Si Si6 0.628784 0.434132 0.789035
Si Si7 0.899778 0.434044 0.978812
Si Si8 0.881562 0.934387 0.217846
O O1 0.452777 0.250000 0.593876
O O2 0.359047 0.008491 0.622499
O O3 0.528572 0.031128 0.724304
O O4 0.500000 0.000000 0.500000
O O5 0.040987 0.250000 0.399274
O O6 0.140412 0.487338 0.379449
O O7 0.000000 0.500000 0.500000
O O8 0.974892 0.490769 0.275204
O O9 0.192854 0.750000 0.308298
O O10 0.299325 0.519396 0.292767
O O11 0.149333 0.532819 0.154731
O O12 0.297081 0.250000 0.710764
O O13 0.347798 0.017544 0.846251
O O14 0.194769 0.017021 0.707426
O O15 0.405126 0.250000 0.973709
O O16 0.500000 0.000000 0.000000
O O17 0.353789 0.011319 0.082948
O O18 0.636911 0.250000 0.805020
O O19 0.901764 0.250000 0.993338
O O20 0.855578 0.510636 0.082414
O O21 0.000000 0.500000 0.000000
O O22 0.890255 0.750000 0.221184
#
# Coordination Sequence:
#
# PCOD9165525 Si02
#       8
#     4   4   4   4   4   4   4   4
#     4  10  21  40  60  82 116 154 197 244 293 345
#     4  12  26  44  65  87 118 158 203 253 303 358
#     4  10  22  40  63  91 123 159 199 245 301 358
#     4   9  20  38  60  86 121 159 193 241 302 353
#     4  11  20  35  60  90 123 160 198 241 298 361
#     4  10  21  39  62  88 122 157 194 247 299 349
#     4  11  21  35  59  90 125 160 194 240 299 362
#     4  11  22  39  63  90 121 158 201 250 301 360
#
# _framework density 21.481335999999999
#
# number of rings (size 3 to 8) (size 9 to 14) (size 15 to 20)
#    0.000    1.500    2.500    3.000    0.000    2.500 
#    0.000    5.625    0.000    0.000    0.000    0.000 
#    0.000    0.000    0.000    0.000    0.000    0.000 
#
# Total GULP energy -178891.081290 kJ/mol
# GULP energy per Si atom -5590.346290 kJ/mol
# Density = 2.143244 g / cm^3
# Si number density = 21.481336 Si / 1000 Ang^3
#
#
#
# Elastic Constant Matrix: (Units=GPa)
#
#
# Indices 1 2 3 4 5 6 
#
# 1 104.0773 19.9792 3.8125 0.0000 -41.3011 0.0000
# 2 19.9792 39.8949 15.6747 0.0000 -12.3083 0.0000
# 3 3.8125 15.6747 66.4063 0.0000 -36.1879 0.0000
# 4 0.0000 0.0000 0.0000 32.3946 0.0000 -11.5331
# 5 -41.3011 -12.3083 -36.1879 0.0000 41.2743 0.0000
# 6 0.0000 0.0000 0.0000 -11.5331 0.0000 22.7465
#
#
#
# Elastic Compliance Matrix: (Units=1/GPa)
#
#
# Indices 1 2 3 4 5 6 
#
# 1 0.035368 -0.012167 0.034757 0.000000 0.062236 0.000000
# 2 -0.012167 0.032325 -0.015919 0.000000 -0.016493 0.000000
# 3 0.034757 -0.015919 0.063551 0.000000 0.085751 0.000000
# 4 0.000000 0.000000 0.000000 0.037669 0.000000 0.019099
# 5 0.062236 -0.016493 0.085751 0.000000 0.156770 0.000000
# 6 0.000000 0.000000 0.000000 0.019099 0.000000 0.053647
#
#
# Mechanical properties :
#
#
# Convention : Reuss Voigt Hill
#
# Bulk Modulus (GPa) = 6.91635 32.14569 19.53102
# Shear Modulus (GPa) = 12.07193 30.67721 21.37457
#
# Velocity S-wave (km/s) = 2.37317 3.78310 3.15783
# Velocity P-wave (km/s) = 3.27657 5.83776 4.73368
#
# Compressibility (1/GPa) = 0.14458483
#
# Stress axis : x y z
#
# Youngs Moduli (GPa) = 28.27428 30.93538 15.73545
#
# Poissons Ratio (x) = 0.37639 -0.54691
# Poissons Ratio (y) = 0.34401 0.25050
# Poissons Ratio (z) = -0.98272 0.49247
#
# Static dielectric constant tensor:
#      x y z
#    x 1.905880 0.000000 -0.178940 
#    y 0.000000 1.722570 0.000000 
#    z -0.178940 0.000000 2.052540 
# 
# From -- ./inp_files/38258.got.cif
#   From: 2010.05.17/outbox.cif.g08.bks.cpg/sg11_20_cif.got.tgz:38258.got - 2010.06.03 12:22:45.
