data_PCOD9165926
_publ_section_title
;
Structure prediction by ZEFSAII (Michael W. Deem and Ramdas Pophale) SiO2 
 PCOD9165926
Probable space group: P 21/M
;
_chemical_formula_sum "Si O2"
_cell_formula_units_Z 32
_cell_length_a 8.564634
_cell_length_b 28.904915
_cell_length_c 11.841942
_cell_angle_alpha 90.000000
_cell_angle_beta 144.946107
_cell_angle_gamma 90.000000
_cell_volume 1683.749787
_symmetry_space_group_name_H-M "P 21/M"
_symmetry_group_IT_number 11
_symmetry_cell_setting 'monoclinic'
loop_
_space_group_symop_operation_xyz
x,y,z
-x,1/2+y,-z
-x,-y,-z
x,1/2-y,z
loop_
_atom_site_type_symbol
_atom_site_label
_atom_site_fract_x
_atom_site_fract_y
_atom_site_fract_z
Si Si1 0.022540 0.890796 0.626652
Si Si2 0.750010 0.024739 0.087288
Si Si3 0.143739 0.199108 0.337614
Si Si4 0.642198 0.379783 0.402851
Si Si5 0.043085 0.339319 0.041810
Si Si6 0.729458 0.461115 0.627488
Si Si7 0.399191 0.915229 0.212814
Si Si8 0.227131 0.803301 0.338138
O O1 0.135904 0.932577 0.770544
O O2 0.213312 0.883221 0.631797
O O3 0.995351 0.843473 0.681528
O O4 0.717445 0.903777 0.406711
O O5 0.658340 0.045506 0.913279
O O6 0.985717 0.987136 0.211262
O O7 0.500000 0.000000 0.000000
O O8 0.070314 0.250000 0.338046
O O9 0.079875 0.195993 0.166580
O O10 0.470369 0.193104 0.537037
O O11 0.322400 0.368455 0.202566
O O12 0.681486 0.427495 0.493618
O O13 0.772192 0.339132 0.557663
O O14 0.789846 0.371536 0.925624
O O15 0.980266 0.316978 0.883606
O O16 0.500000 0.500000 0.500000
O O17 0.699197 0.431060 0.722176
O O18 0.188762 0.750000 0.351005
#
# Coordination Sequence:
#
# PCOD9165926 Si02
#       8
#     4   4   4   4   4   4   4   4
#     4  12  25  44  62  95 136 169 207 265 327 383
#     4  12  28  42  64  96 133 170 217 266 328 380
#     4  10  21  41  68  96 125 163 211 263 316 381
#     4  11  26  40  64  94 134 164 206 264 324 373
#     4  11  20  41  69  95 119 165 213 262 307 376
#     4  12  24  44  66  93 124 172 219 266 314 377
#     4  12  23  43  69  90 126 169 220 265 309 380
#     4  10  21  42  69  96 125 165 214 263 317 382
#
# _framework density 19.005199999999999
#
# number of rings (size 3 to 8) (size 9 to 14) (size 15 to 20)
#    0.000    0.750    5.000    3.000    3.500    3.000 
#    0.000    0.000    0.000    0.000    0.000    0.000 
#    0.000    0.000    0.000    0.000    0.000    0.000 
#
# Total GULP energy -178914.288902 kJ/mol
# GULP energy per Si atom -5591.071528 kJ/mol
# Density = 1.896194 g / cm^3
# Si number density = 19.005200 Si / 1000 Ang^3
#
#
#
# Elastic Constant Matrix: (Units=GPa)
#
#
# Indices 1 2 3 4 5 6 
#
# 1 66.4775 5.1756 13.6812 0.0000 7.6012 0.0000
# 2 5.1756 76.0504 16.0336 0.0000 10.0015 0.0000
# 3 13.6812 16.0336 94.4133 0.0000 5.7478 0.0000
# 4 0.0000 0.0000 0.0000 19.0857 0.0000 -5.3102
# 5 7.6012 10.0015 5.7478 0.0000 31.2182 0.0000
# 6 0.0000 0.0000 0.0000 -5.3102 0.0000 13.3552
#
#
#
# Elastic Compliance Matrix: (Units=1/GPa)
#
#
# Indices 1 2 3 4 5 6 
#
# 1 0.015873 -0.000196 -0.002058 0.000000 -0.003423 0.000000
# 2 -0.000196 0.014149 -0.002125 0.000000 -0.004094 0.000000
# 3 -0.002058 -0.002125 0.011306 0.000000 -0.000900 0.000000
# 4 0.000000 0.000000 0.000000 0.058912 0.000000 0.023424
# 5 -0.003423 -0.004094 -0.000900 0.000000 0.034343 0.000000
# 6 0.000000 0.000000 0.000000 0.023424 0.000000 0.084191
#
#
# Mechanical properties :
#
#
# Convention : Reuss Voigt Hill
#
# Bulk Modulus (GPa) = 30.70477 34.08023 32.39250
# Shear Modulus (GPa) = 20.97406 26.20188 23.58797
#
# Velocity S-wave (km/s) = 3.32565 3.71707 3.52679
# Velocity P-wave (km/s) = 5.56216 6.03267 5.80219
#
# Compressibility (1/GPa) = 0.03256822
#
# Stress axis : x y z
#
# Youngs Moduli (GPa) = 63.00018 70.67653 88.45115
#
# Poissons Ratio (x) = 0.01386 0.18207
# Poissons Ratio (y) = 0.01235 0.18797
# Poissons Ratio (z) = 0.12968 0.15020
#
# Static dielectric constant tensor:
#      x y z
#    x 1.601370 0.000000 -0.011360 
#    y 0.000000 1.717570 0.000000 
#    z -0.011360 0.000000 1.693070 
# 
# From -- ./inp_files/33222.got.cif
#   From: 2010.05.17/outbox.cif.g08.bks.cpg/sg11_17_cif.got.tgz:33222.got - 2010.06.03 12:22:45.
