data_PCOD9165125
_publ_section_title
;
Structure prediction by ZEFSAII (Michael W. Deem and Ramdas Pophale) SiO2 
 PCOD9165125
Probable space group: P 21/M
;
_chemical_formula_sum "Si O2"
_cell_formula_units_Z 24
_cell_length_a 32.588532
_cell_length_b 8.685879
_cell_length_c 9.489720
_cell_angle_alpha 90.000000
_cell_angle_beta 150.840840
_cell_angle_gamma 90.000000
_cell_volume 1308.797689
_symmetry_space_group_name_H-M "P 21/M"
_symmetry_group_IT_number 11
_symmetry_cell_setting 'monoclinic'
loop_
_space_group_symop_operation_xyz
x,y,z
-x,1/2+y,-z
-x,-y,-z
x,1/2-y,z
loop_
_atom_site_type_symbol
_atom_site_label
_atom_site_fract_x
_atom_site_fract_y
_atom_site_fract_z
Si Si1 0.077810 0.564362 0.821704
Si Si2 0.423804 0.933557 0.683461
Si Si3 0.579851 0.434417 0.657706
Si Si4 0.236619 0.936791 0.111073
Si Si5 0.237933 0.065935 0.799372
Si Si6 0.919832 0.064413 0.843845
O O1 0.074046 0.750000 0.808090
O O2 0.000000 0.500000 0.500000
O O3 0.163541 0.517877 0.999287
O O4 0.075674 0.516490 0.978581
O O5 0.426434 0.750000 0.705067
O O6 0.432028 0.971429 0.543142
O O7 0.329496 0.984233 0.442560
O O8 0.500000 0.000000 0.000000
O O9 0.500000 0.500000 0.500000
O O10 0.584711 0.250000 0.687675
O O11 0.669602 0.506755 0.969145
O O12 0.236351 0.750000 0.095743
O O13 0.223787 0.006229 0.917093
O O14 0.235534 0.250000 0.790385
O O15 0.164848 0.997968 0.482327
O O16 0.920295 0.250000 0.838811
O O17 0.000000 0.000000 0.000000
#
# Coordination Sequence:
#
# PCOD9165125 Si02
#       6
#     4   4   4   4   4   4
#     4  10  22  38  58  82 109 142 183 227 277 331
#     4   9  19  34  54  80 110 143 182 225 275 330
#     4  10  21  38  58  83 114 150 189 232 279 331
#     4   9  19  38  58  78 108 146 183 227 279 332
#     4  11  22  37  58  85 113 147 188 231 279 334
#     4  11  23  39  58  84 115 150 188 230 279 334
#
# _framework density 18.337441999999999
#
# number of rings (size 3 to 8) (size 9 to 14) (size 15 to 20)
#    0.000    2.000    0.000    4.500    0.000    9.333 
#    0.000    1.667    0.000    0.000    0.000    0.000 
#    0.000    0.000    0.000    0.000    0.000    0.000 
#
# Total GULP energy -134034.135102 kJ/mol
# GULP energy per Si atom -5584.755629 kJ/mol
# Density = 1.829571 g / cm^3
# Si number density = 18.337442 Si / 1000 Ang^3
#
#
#
# Elastic Constant Matrix: (Units=GPa)
#
#
# Indices 1 2 3 4 5 6 
#
# 1 160.8403 50.9043 114.3965 0.0000 28.4439 0.0000
# 2 50.9043 51.0407 54.9891 0.0000 6.4112 0.0000
# 3 114.3965 54.9891 216.4856 0.0000 9.4294 0.0000
# 4 0.0000 0.0000 0.0000 38.8575 0.0000 1.4029
# 5 28.4439 6.4112 9.4294 0.0000 29.6622 0.0000
# 6 0.0000 0.0000 0.0000 1.4029 0.0000 28.9493
#
#
#
# Elastic Compliance Matrix: (Units=1/GPa)
#
#
# Indices 1 2 3 4 5 6 
#
# 1 0.013875 -0.007076 -0.005092 0.000000 -0.010157 0.000000
# 2 -0.007076 0.030990 -0.004194 0.000000 0.001420 0.000000
# 3 -0.005092 -0.004194 0.008237 0.000000 0.003171 0.000000
# 4 0.000000 0.000000 0.000000 0.025780 0.000000 -0.001249
# 5 -0.010157 0.001420 0.003171 0.000000 0.042137 0.000000
# 6 0.000000 0.000000 0.000000 -0.001249 0.000000 0.034604
#
#
# Mechanical properties :
#
#
# Convention : Reuss Voigt Hill
#
# Bulk Modulus (GPa) = 49.07493 96.54959 72.81226
# Shear Modulus (GPa) = 25.62270 33.36559 29.49414
#
# Velocity S-wave (km/s) = 3.74209 4.27023 4.01485
# Velocity P-wave (km/s) = 6.74472 8.77947 7.82848
#
# Compressibility (1/GPa) = 0.02037700
#
# Stress axis : x y z
#
# Youngs Moduli (GPa) = 72.07446 32.26887 121.39949
#
# Poissons Ratio (x) = 0.22833 0.61816
# Poissons Ratio (y) = 0.50999 0.50920
# Poissons Ratio (z) = 0.36700 0.13535
#
# Static dielectric constant tensor:
#      x y z
#    x 1.621920 0.000000 0.004320 
#    y 0.000000 1.624450 0.000000 
#    z 0.004320 0.000000 1.614170 
# 
# From -- ./inp_files/20391.got.cif
#   From: 2010.05.17/outbox.cif.g08.bks.cpg/sg11_11_cif.got.tgz:20391.got - 2010.06.03 12:22:45.
