data_PCOD9165063
_publ_section_title
;
Structure prediction by ZEFSAII (Michael W. Deem and Ramdas Pophale) SiO2 
 PCOD9165063
Probable space group: P 21/M
;
_chemical_formula_sum "Si O2"
_cell_formula_units_Z 24
_cell_length_a 5.914933
_cell_length_b 19.182938
_cell_length_c 9.596277
_cell_angle_alpha 90.000000
_cell_angle_beta 70.583381
_cell_angle_gamma 90.000000
_cell_volume 1026.922269
_symmetry_space_group_name_H-M "P 21/M"
_symmetry_group_IT_number 11
_symmetry_cell_setting 'monoclinic'
loop_
_space_group_symop_operation_xyz
x,y,z
-x,1/2+y,-z
-x,-y,-z
x,1/2-y,z
loop_
_atom_site_type_symbol
_atom_site_label
_atom_site_fract_x
_atom_site_fract_y
_atom_site_fract_z
Si Si1 0.905734 0.424553 0.470300
Si Si2 0.421123 0.887834 0.999098
Si Si3 0.944063 0.879106 0.266396
Si Si4 0.237585 0.175659 0.266334
Si Si5 0.504921 0.825807 0.486949
Si Si6 0.744382 0.512377 0.125164
O O1 0.946117 0.380404 0.603394
O O2 0.065344 0.391099 0.314664
O O3 0.000000 0.500000 0.500000
O O4 0.639340 0.398821 0.489751
O O5 0.589926 0.829752 0.901284
O O6 0.383709 0.939335 0.873623
O O7 0.571906 0.932071 0.082269
O O8 0.162986 0.866818 0.114840
O O9 0.716047 0.829728 0.328504
O O10 0.824201 0.954211 0.253524
O O11 0.106789 0.250000 0.284592
O O12 0.384562 0.175773 0.380595
O O13 0.382353 0.750000 0.490882
O O14 0.000000 0.500000 0.000000
#
# Coordination Sequence:
#
# PCOD9165063 Si02
#       6
#     4   4   4   4   4   4
#     4  11  25  38  67  95 126 170 220 269 322 384
#     4  10  21  37  64  91 132 164 210 265 328 380
#     4  10  22  39  61  95 125 162 215 265 322 384
#     4  10  24  42  63  94 131 168 212 266 328 392
#     4  10  23  44  64  88 130 172 214 268 326 392
#     4   9  20  35  58  90 130 166 203 261 318 375
#
# _framework density 23.370802999999999
#
# number of rings (size 3 to 8) (size 9 to 14) (size 15 to 20)
#    0.000    2.000    0.000    1.500   11.667    4.000 
#    0.000    2.500    0.000    0.000    0.000    0.000 
#    0.000    0.000    0.000    0.000    0.000    0.000 
#
# Total GULP energy -133694.242623 kJ/mol
# GULP energy per Si atom -5570.593443 kJ/mol
# Density = 2.331761 g / cm^3
# Si number density = 23.370803 Si / 1000 Ang^3
#
#
#
# Elastic Constant Matrix: (Units=GPa)
#
#
# Indices 1 2 3 4 5 6 
#
# 1 53.3008 8.8139 23.7469 0.0000 -27.7197 0.0000
# 2 8.8139 102.2863 31.2997 0.0000 -39.6919 0.0000
# 3 23.7469 31.2997 112.5458 0.0000 -41.1495 0.0000
# 4 0.0000 0.0000 0.0000 14.1437 0.0000 1.4730
# 5 -27.7197 -39.6919 -41.1495 0.0000 46.5369 0.0000
# 6 0.0000 0.0000 0.0000 1.4730 0.0000 4.7293
#
#
#
# Elastic Compliance Matrix: (Units=1/GPa)
#
#
# Indices 1 2 3 4 5 6 
#
# 1 0.029812 0.006495 0.000623 0.000000 0.023848 0.000000
# 2 0.006495 0.016068 0.000866 0.000000 0.018339 0.000000
# 3 0.000623 0.000866 0.013180 0.000000 0.012764 0.000000
# 4 0.000000 0.000000 0.000000 0.073073 0.000000 -0.022760
# 5 0.023848 0.018339 0.012764 0.000000 0.062621 0.000000
# 6 0.000000 0.000000 0.000000 -0.022760 0.000000 0.218536
#
#
# Mechanical properties :
#
#
# Convention : Reuss Voigt Hill
#
# Bulk Modulus (GPa) = 13.32846 43.98378 28.65612
# Shear Modulus (GPa) = 11.83900 26.70015 19.26958
#
# Velocity S-wave (km/s) = 2.25316 3.38369 2.87455
# Velocity P-wave (km/s) = 3.53332 5.84180 4.82758
#
# Compressibility (1/GPa) = 0.07502745
#
# Stress axis : x y z
#
# Youngs Moduli (GPa) = 33.54324 62.23439 75.87436
#
# Poissons Ratio (x) = -0.40418 -0.04725
# Poissons Ratio (y) = -0.21785 -0.06573
# Poissons Ratio (z) = -0.02089 -0.05391
#
# Static dielectric constant tensor:
#      x y z
#    x 1.932900 0.000000 -0.030060 
#    y 0.000000 1.928380 0.000000 
#    z -0.030060 0.000000 1.856340 
# 
# From -- ./inp_files/29859.got.cif
#   From: 2010.05.17/outbox.cif.g08.bks.cpg/sg11_15_cif.got.tgz:29859.got - 2010.06.03 12:22:45.
