data_PCOD9165445
_publ_section_title
;
Structure prediction by ZEFSAII (Michael W. Deem and Ramdas Pophale) SiO2 
 PCOD9165445
Probable space group: P 21/M
;
_chemical_formula_sum "Si O2"
_cell_formula_units_Z 32
_cell_length_a 15.416217
_cell_length_b 9.021412
_cell_length_c 11.478354
_cell_angle_alpha 90.000000
_cell_angle_beta 94.429116
_cell_angle_gamma 90.000000
_cell_volume 1591.596756
_symmetry_space_group_name_H-M "P 21/M"
_symmetry_group_IT_number 11
_symmetry_cell_setting 'monoclinic'
loop_
_space_group_symop_operation_xyz
x,y,z
-x,1/2+y,-z
-x,-y,-z
x,1/2-y,z
loop_
_atom_site_type_symbol
_atom_site_label
_atom_site_fract_x
_atom_site_fract_y
_atom_site_fract_z
Si Si1 0.591812 0.580842 0.026429
Si Si2 0.227142 0.580067 0.377663
Si Si3 0.763828 0.570962 0.157740
Si Si4 0.344628 0.417890 0.227091
Si Si5 0.019956 0.922901 0.376184
Si Si6 0.480417 0.572646 0.621472
Si Si7 0.299807 0.074613 0.611139
Si Si8 0.048341 0.069325 0.891725
O O1 0.573391 0.750000 0.064023
O O2 0.639505 0.586558 0.907270
O O3 0.500000 0.500000 0.000000
O O4 0.669042 0.511534 0.111440
O O5 0.252487 0.750000 0.399995
O O6 0.268464 0.522745 0.262461
O O7 0.123910 0.568556 0.371399
O O8 0.268636 0.483003 0.484118
O O9 0.758606 0.750000 0.142923
O O10 0.771047 0.541659 0.296415
O O11 0.849416 0.524523 0.097518
O O12 0.326064 0.250000 0.266366
O O13 0.437161 0.464653 0.290379
O O14 0.993102 0.750000 0.385147
O O15 0.983577 0.973242 0.244101
O O16 0.000000 0.000000 0.500000
O O17 0.500000 0.500000 0.500000
O O18 0.473921 0.750000 0.613214
O O19 0.389916 0.504248 0.651937
O O20 0.314287 0.250000 0.609113
O O21 0.041263 0.250000 0.897765
O O22 0.000000 0.000000 0.000000
#
# Coordination Sequence:
#
# PCOD9165445 Si02
#       8
#     4   4   4   4   4   4   4   4
#     4  10  21  39  60  86 116 153 197 241 290 349
#     4  11  23  37  57  86 119 153 192 244 301 358
#     4   9  20  38  62  87 117 157 198 240 293 356
#     4  10  22  37  56  82 115 153 198 240 290 357
#     4  10  23  42  64  92 125 159 204 258 313 374
#     4  11  21  34  52  80 117 157 197 245 296 351
#     4  11  21  36  59  86 116 156 201 245 299 358
#     4  10  22  42  65  93 127 163 207 259 311 374
#
# _framework density 20.105595999999998
#
# number of rings (size 3 to 8) (size 9 to 14) (size 15 to 20)
#    0.000    1.750    1.250    2.625    1.750    3.500 
#    0.000    2.500    0.000    0.000    0.000    0.000 
#    0.000    0.000    0.000    0.000    0.000    0.000 
#
# Total GULP energy -178471.411374 kJ/mol
# GULP energy per Si atom -5577.231605 kJ/mol
# Density = 2.005984 g / cm^3
# Si number density = 20.105596 Si / 1000 Ang^3
#
#
#
# Elastic Constant Matrix: (Units=GPa)
#
#
# Indices 1 2 3 4 5 6 
#
# 1 93.0468 36.6732 39.4940 0.0000 -23.7162 0.0000
# 2 36.6732 49.7626 25.4463 0.0000 -9.4933 0.0000
# 3 39.4940 25.4463 108.2683 0.0000 -11.5011 0.0000
# 4 0.0000 0.0000 0.0000 24.3679 0.0000 -9.2564
# 5 -23.7162 -9.4933 -11.5011 0.0000 33.3381 0.0000
# 6 0.0000 0.0000 0.0000 -9.2564 0.0000 23.6564
#
#
#
# Elastic Compliance Matrix: (Units=1/GPa)
#
#
# Indices 1 2 3 4 5 6 
#
# 1 0.018520 -0.010174 -0.003397 0.000000 0.009106 0.000000
# 2 -0.010174 0.029204 -0.003154 0.000000 -0.000010 0.000000
# 3 -0.003397 -0.003154 0.011278 0.000000 0.000576 0.000000
# 4 0.000000 0.000000 0.000000 0.048202 0.000000 0.018861
# 5 0.009106 -0.000010 0.000576 0.000000 0.036669 0.000000
# 6 0.000000 0.000000 0.000000 0.018861 0.000000 0.049652
#
#
# Mechanical properties :
#
#
# Convention : Reuss Voigt Hill
#
# Bulk Modulus (GPa) = 39.13562 50.47831 44.80697
# Shear Modulus (GPa) = 21.23199 26.23673 23.73436
#
# Velocity S-wave (km/s) = 3.25318 3.61632 3.43955
# Velocity P-wave (km/s) = 5.79812 6.52673 6.17318
#
# Compressibility (1/GPa) = 0.02555217
#
# Stress axis : x y z
#
# Youngs Moduli (GPa) = 53.99470 34.24144 88.66892
#
# Poissons Ratio (x) = 0.34839 0.30123
# Poissons Ratio (y) = 0.54937 0.27962
# Poissons Ratio (z) = 0.18343 0.10798
#
# Static dielectric constant tensor:
#      x y z
#    x 1.718560 0.000000 0.037570 
#    y 0.000000 1.700910 0.000000 
#    z 0.037570 0.000000 1.808480 
# 
# From -- ./inp_files/38194.got.cif
#   From: 2010.05.17/outbox.cif.g08.bks.cpg/sg11_20_cif.got.tgz:38194.got - 2010.06.03 12:22:45.
