data_PCOD9165163
_publ_section_title
;
Structure prediction by ZEFSAII (Michael W. Deem and Ramdas Pophale) SiO2 
 PCOD9165163
Probable space group: P 21/M
;
_chemical_formula_sum "Si O2"
_cell_formula_units_Z 28
_cell_length_a 9.360365
_cell_length_b 8.804082
_cell_length_c 29.788725
_cell_angle_alpha 90.000000
_cell_angle_beta 38.077006
_cell_angle_gamma 90.000000
_cell_volume 1513.968430
_symmetry_space_group_name_H-M "P 21/M"
_symmetry_group_IT_number 11
_symmetry_cell_setting 'monoclinic'
loop_
_space_group_symop_operation_xyz
x,y,z
-x,1/2+y,-z
-x,-y,-z
x,1/2-y,z
loop_
_atom_site_type_symbol
_atom_site_label
_atom_site_fract_x
_atom_site_fract_y
_atom_site_fract_z
Si Si1 0.437073 0.567907 0.063436
Si Si2 0.653434 0.431946 0.502043
Si Si3 0.633384 0.431643 0.779000
Si Si4 0.010292 0.568923 0.228802
Si Si5 0.192944 0.433042 0.356899
Si Si6 0.254695 0.568678 0.933454
Si Si7 0.490692 0.931335 0.636535
O O1 0.467426 0.750000 0.056511
O O2 0.175890 0.536663 0.145305
O O3 0.602678 0.492414 0.059225
O O4 0.500000 0.500000 0.000000
O O5 0.500000 0.500000 0.500000
O O6 0.635284 0.250000 0.505521
O O7 0.565678 0.492140 0.571506
O O8 0.923099 0.473860 0.429032
O O9 0.605138 0.250000 0.786646
O O10 0.836569 0.468993 0.764851
O O11 0.704453 0.489631 0.712708
O O12 0.399063 0.508528 0.854995
O O13 0.965330 0.750000 0.241143
O O14 0.770459 0.481046 0.287688
O O15 0.207748 0.250000 0.348269
O O16 0.338091 0.476025 0.365241
O O17 0.246420 0.750000 0.935172
O O18 0.000000 0.500000 0.000000
O O19 0.502458 0.750000 0.628498
#
# Coordination Sequence:
#
# PCOD9165163 Si02
#       7
#     4   4   4   4   4   4   4
#     4  10  21  38  59  85 117 153 194 240 290 346
#     4  11  23  40  62  85 113 149 190 233 281 337
#     4  10  21  38  60  85 113 148 191 237 285 341
#     4   9  20  38  58  82 113 149 190 233 280 337
#     4  10  23  40  57  83 117 152 188 231 283 338
#     4  11  22  38  60  85 116 153 194 241 291 346
#     4  11  23  38  58  85 116 148 187 233 282 335
#
# _framework density 18.494441999999999
#
# number of rings (size 3 to 8) (size 9 to 14) (size 15 to 20)
#    0.000    1.714    0.000    5.143    0.000    9.143 
#    0.000    2.857    0.000    0.000    0.000    0.000 
#    0.000    0.000    0.000    0.000    0.000    0.000 
#
# Total GULP energy -156496.436183 kJ/mol
# GULP energy per Si atom -5589.158435 kJ/mol
# Density = 1.845235 g / cm^3
# Si number density = 18.494442 Si / 1000 Ang^3
#
#
#
# Elastic Constant Matrix: (Units=GPa)
#
#
# Indices 1 2 3 4 5 6 
#
# 1 128.2570 65.2033 109.8284 0.0000 -2.2874 0.0000
# 2 65.2033 87.1057 85.5233 0.0000 -4.6575 0.0000
# 3 109.8284 85.5233 187.4177 0.0000 1.5062 0.0000
# 4 0.0000 0.0000 0.0000 37.7982 0.0000 2.8930
# 5 -2.2874 -4.6575 1.5062 0.0000 39.4002 0.0000
# 6 0.0000 0.0000 0.0000 2.8930 0.0000 32.6265
#
#
#
# Elastic Compliance Matrix: (Units=1/GPa)
#
#
# Indices 1 2 3 4 5 6 
#
# 1 0.016919 -0.005236 -0.007530 0.000000 0.000651 0.000000
# 2 -0.005236 0.022738 -0.007329 0.000000 0.002664 0.000000
# 3 -0.007530 -0.007329 0.013107 0.000000 -0.001805 0.000000
# 4 0.000000 0.000000 0.000000 0.026637 0.000000 -0.002362
# 5 0.000651 0.002664 -0.001805 0.000000 0.025802 0.000000
# 6 0.000000 0.000000 0.000000 -0.002362 0.000000 0.030859
#
#
# Mechanical properties :
#
#
# Convention : Reuss Voigt Hill
#
# Bulk Modulus (GPa) = 79.53355 102.65450 91.09402
# Shear Modulus (GPa) = 27.70921 31.44666 29.57794
#
# Velocity S-wave (km/s) = 3.87492 4.12798 4.00345
# Velocity P-wave (km/s) = 7.94464 8.85135 8.41022
#
# Compressibility (1/GPa) = 0.01257331
#
# Stress axis : x y z
#
# Youngs Moduli (GPa) = 59.10554 43.97896 76.29269
#
# Poissons Ratio (x) = 0.23029 0.57452
# Poissons Ratio (y) = 0.30949 0.55914
# Poissons Ratio (z) = 0.44509 0.32232
#
# Static dielectric constant tensor:
#      x y z
#    x 1.604290 0.000000 -0.005780 
#    y 0.000000 1.561840 0.000000 
#    z -0.005780 0.000000 1.617650 
# 
# From -- ./inp_files/28240.got.cif
#   From: 2010.05.17/outbox.cif.g08.bks.cpg/sg11_15_cif.got.tgz:28240.got - 2010.06.03 12:22:45.
