data_PCOD9165837
_publ_section_title
;
Structure prediction by ZEFSAII (Michael W. Deem and Ramdas Pophale) SiO2 
 PCOD9165837
Probable space group: P 21/M
;
_chemical_formula_sum "Si O2"
_cell_formula_units_Z 26
_cell_length_a 16.680955
_cell_length_b 7.769254
_cell_length_c 16.718434
_cell_angle_alpha 90.000000
_cell_angle_beta 34.887492
_cell_angle_gamma 90.000000
_cell_volume 1239.272061
_symmetry_space_group_name_H-M "P 21/M"
_symmetry_group_IT_number 11
_symmetry_cell_setting 'monoclinic'
loop_
_space_group_symop_operation_xyz
x,y,z
-x,1/2+y,-z
-x,-y,-z
x,1/2-y,z
loop_
_atom_site_type_symbol
_atom_site_label
_atom_site_fract_x
_atom_site_fract_y
_atom_site_fract_z
Si Si1 0.660063 0.556072 0.372513
Si Si2 0.185169 0.448140 0.261140
Si Si3 0.354339 0.448678 0.876855
Si Si4 0.855684 0.440351 0.079286
Si Si5 0.649318 0.451033 0.553897
Si Si6 0.306958 0.750000 0.048814
Si Si7 0.869739 0.954760 0.508609
O O1 0.500000 0.500000 0.500000
O O2 0.676097 0.750000 0.329295
O O3 0.749937 0.441097 0.240352
O O4 0.698807 0.546598 0.433795
O O5 0.234882 0.250000 0.208504
O O6 0.265630 0.596253 0.148070
O O7 0.183562 0.486363 0.357598
O O8 0.020414 0.458293 0.372252
O O9 0.372429 0.250000 0.890988
O O10 0.218049 0.454513 0.931054
O O11 0.491669 0.493578 0.711061
O O12 0.340465 0.595595 0.954830
O O13 0.876336 0.250000 0.029088
O O14 0.000000 0.500000 0.000000
O O15 0.649398 0.250000 0.533351
O O16 0.754779 0.486237 0.539721
O O17 0.891987 0.750000 0.482726
#
# Coordination Sequence:
#
# PCOD9165837 Si02
#       7
#     4   4   4   4   4   2   4
#     4  12  24  41  68  99 133 176 229 280 334 403
#     4  10  22  42  69 101 136 173 221 277 341 411
#     4  11  25  45  67  96 135 180 227 278 334 401
#     4  12  25  45  69  98 136 183 225 279 345 402
#     4  11  24  41  68  99 132 175 226 281 336 394
#     4  12  24  42  70  96 132 186 220 274 344 406
#     4  10  21  40  70 102 134 173 218 279 343 399
#
# _framework density 20.980060000000002
#
# number of rings (size 3 to 8) (size 9 to 14) (size 15 to 20)
#    0.000    0.923    3.077    4.154    4.308    1.231 
#    2.769    3.846    0.000    0.000    0.000    0.000 
#    0.000    0.000    0.000    0.000    0.000    0.000 
#
# Total GULP energy -144789.392005 kJ/mol
# GULP energy per Si atom -5568.822769 kJ/mol
# Density = 2.093231 g / cm^3
# Si number density = 20.980060 Si / 1000 Ang^3
#
#
#
# Elastic Constant Matrix: (Units=GPa)
#
#
# Indices 1 2 3 4 5 6 
#
# 1 49.3798 -13.9321 -5.2261 0.0000 -2.8927 0.0000
# 2 -13.9321 118.4106 7.1330 0.0000 23.3465 0.0000
# 3 -5.2261 7.1330 15.4780 0.0000 12.0450 0.0000
# 4 0.0000 0.0000 0.0000 35.7601 0.0000 10.9254
# 5 -2.8927 23.3465 12.0450 0.0000 22.8098 0.0000
# 6 0.0000 0.0000 0.0000 10.9254 0.0000 29.7928
#
#
#
# Elastic Compliance Matrix: (Units=1/GPa)
#
#
# Indices 1 2 3 4 5 6 
#
# 1 0.021909 0.003130 0.010671 0.000000 -0.006060 0.000000
# 2 0.003130 0.011370 0.007748 0.000000 -0.015332 0.000000
# 3 0.010671 0.007748 0.118423 0.000000 -0.069112 0.000000
# 4 0.000000 0.000000 0.000000 0.031492 0.000000 -0.011549
# 5 -0.006060 -0.015332 -0.069112 0.000000 0.095261 0.000000
# 6 0.000000 0.000000 0.000000 -0.011549 0.000000 0.037800
#
#
# Mechanical properties :
#
#
# Convention : Reuss Voigt Hill
#
# Bulk Modulus (GPa) = 5.13348 17.69088 11.41218
# Shear Modulus (GPa) = 14.78897 30.69213 22.74055
#
# Velocity S-wave (km/s) = 2.65789 3.82896 3.29585
# Velocity P-wave (km/s) = 3.44548 5.29136 4.46485
#
# Compressibility (1/GPa) = 0.19479946
#
# Stress axis : x y z
#
# Youngs Moduli (GPa) = 45.64423 87.95383 8.44429
#
# Poissons Ratio (x) = -0.27527 -0.09011
# Poissons Ratio (y) = -0.14286 -0.06543
# Poissons Ratio (z) = -0.48706 -0.68150
#
# Static dielectric constant tensor:
#      x y z
#    x 1.762790 0.000000 -0.000310 
#    y 0.000000 1.797380 0.000000 
#    z -0.000310 0.000000 1.730860 
# 
# From -- ./inp_files/51922.got.cif
#   From: 2010.05.17/outbox.cif.g08.bks.cpg/sg11_26_cif.got.tgz:51922.got - 2010.06.03 12:22:45.
