data_PCOD9165539
_publ_section_title
;
Structure prediction by ZEFSAII (Michael W. Deem and Ramdas Pophale) SiO2 
 PCOD9165539
Probable space group: P 21/M
;
_chemical_formula_sum "Si O2"
_cell_formula_units_Z 28
_cell_length_a 12.736723
_cell_length_b 13.963121
_cell_length_c 9.053217
_cell_angle_alpha 90.000000
_cell_angle_beta 117.419134
_cell_angle_gamma 90.000000
_cell_volume 1429.192056
_symmetry_space_group_name_H-M "P 21/M"
_symmetry_group_IT_number 11
_symmetry_cell_setting 'monoclinic'
loop_
_space_group_symop_operation_xyz
x,y,z
-x,1/2+y,-z
-x,-y,-z
x,1/2-y,z
loop_
_atom_site_type_symbol
_atom_site_label
_atom_site_fract_x
_atom_site_fract_y
_atom_site_fract_z
Si Si1 0.211760 0.450467 0.266360
Si Si2 0.694585 0.357606 0.790564
Si Si3 0.012286 0.978011 0.680459
Si Si4 0.580018 0.637606 0.418434
Si Si5 0.239668 0.642399 0.826379
Si Si6 0.374256 0.463996 0.858411
Si Si7 0.176884 0.363313 0.928260
O O1 0.223641 0.559019 0.216747
O O2 0.109778 0.449130 0.322385
O O3 0.336270 0.417905 0.414899
O O4 0.182959 0.385113 0.106361
O O5 0.730733 0.250000 0.770845
O O6 0.560365 0.374780 0.651350
O O7 0.699635 0.361412 0.972425
O O8 0.071000 0.071765 0.794078
O O9 0.000000 0.000000 0.500000
O O10 0.105610 0.891711 0.760239
O O11 0.606089 0.750000 0.446960
O O12 0.608646 0.600928 0.272977
O O13 0.249237 0.750000 0.775142
O O14 0.302013 0.560385 0.771331
O O15 0.295373 0.407030 0.927669
O O16 0.500000 0.500000 0.000000
O O17 0.166294 0.250000 0.892670
#
# Coordination Sequence:
#
# PCOD9165539 Si02
#       7
#     4   4   4   4   4   4   4
#     4  12  22  42  65  94 126 170 214 258 315 380
#     4  10  21  39  64  94 127 165 206 257 314 372
#     4  11  25  44  64  89 125 167 213 267 322 378
#     4  11  23  39  63  94 133 171 206 253 319 382
#     4  10  21  39  62  91 123 162 208 254 312 372
#     4  11  20  38  62  93 125 166 209 258 309 371
#     4  11  24  40  61  93 128 164 214 267 317 376
#
# _framework density 19.591487999999998
#
# number of rings (size 3 to 8) (size 9 to 14) (size 15 to 20)
#    0.000    1.143    4.286    3.429    0.000    2.857 
#    0.000    2.143    0.000    0.000    0.000    0.000 
#    0.000    0.000    0.000    0.000    0.000    0.000 
#
# Total GULP energy -156458.211556 kJ/mol
# GULP energy per Si atom -5587.793270 kJ/mol
# Density = 1.954690 g / cm^3
# Si number density = 19.591488 Si / 1000 Ang^3
#
#
#
# Elastic Constant Matrix: (Units=GPa)
#
#
# Indices 1 2 3 4 5 6 
#
# 1 19.6575 18.9955 -12.5894 0.0000 -2.4625 0.0000
# 2 18.9955 98.8648 -3.9153 0.0000 2.0285 0.0000
# 3 -12.5894 -3.9153 81.8611 0.0000 1.1945 0.0000
# 4 0.0000 0.0000 0.0000 20.0905 0.0000 -5.0533
# 5 -2.4625 2.0285 1.1945 0.0000 28.1917 0.0000
# 6 0.0000 0.0000 0.0000 -5.0533 0.0000 15.8009
#
#
#
# Elastic Compliance Matrix: (Units=1/GPa)
#
#
# Indices 1 2 3 4 5 6 
#
# 1 0.071226 -0.013419 0.010213 0.000000 0.006754 0.000000
# 2 -0.013419 0.012678 -0.001428 0.000000 -0.002024 0.000000
# 3 0.010213 -0.001428 0.013712 0.000000 0.000414 0.000000
# 4 0.000000 0.000000 0.000000 0.054129 0.000000 0.017311
# 5 0.006754 -0.002024 0.000414 0.000000 0.036190 0.000000
# 6 0.000000 0.000000 0.000000 0.017311 0.000000 0.068824
#
#
# Mechanical properties :
#
#
# Convention : Reuss Voigt Hill
#
# Bulk Modulus (GPa) = 11.31877 22.81833 17.06855
# Shear Modulus (GPa) = 16.92189 26.00943 21.46566
#
# Velocity S-wave (km/s) = 2.94213 3.64756 3.31367
# Velocity P-wave (km/s) = 4.16310 5.42328 4.83443
#
# Compressibility (1/GPa) = 0.08834884
#
# Stress axis : x y z
#
# Youngs Moduli (GPa) = 14.03989 78.87619 72.92777
#
# Poissons Ratio (x) = 1.05845 -0.74484
# Poissons Ratio (y) = 0.18840 0.10413
# Poissons Ratio (z) = -0.14339 0.11262
#
# Static dielectric constant tensor:
#      x y z
#    x 1.679290 0.000000 0.014170 
#    y 0.000000 1.672580 0.000000 
#    z 0.014170 0.000000 1.678630 
# 
# From -- ./inp_files/17957.got.cif
#   From: 2010.05.17/outbox.cif.g08.bks.cpg/sg11_9_cif.got.tgz:17957.got - 2010.06.03 12:22:45.
