data_PCOD9165888
_publ_section_title
;
Structure prediction by ZEFSAII (Michael W. Deem and Ramdas Pophale) SiO2 
 PCOD9165888
Probable space group: P 21/M
;
_chemical_formula_sum "Si O2"
_cell_formula_units_Z 26
_cell_length_a 5.070526
_cell_length_b 29.897808
_cell_length_c 7.942627
_cell_angle_alpha 90.000000
_cell_angle_beta 61.313756
_cell_angle_gamma 90.000000
_cell_volume 1056.295836
_symmetry_space_group_name_H-M "P 21/M"
_symmetry_group_IT_number 11
_symmetry_cell_setting 'monoclinic'
loop_
_space_group_symop_operation_xyz
x,y,z
-x,1/2+y,-z
-x,-y,-z
x,1/2-y,z
loop_
_atom_site_type_symbol
_atom_site_label
_atom_site_fract_x
_atom_site_fract_y
_atom_site_fract_z
Si Si1 0.667502 0.823486 0.001635
Si Si2 0.814275 0.443462 0.484013
Si Si3 0.253751 0.897769 0.047540
Si Si4 0.862864 0.970796 0.285862
Si Si5 0.752161 0.250000 0.834044
Si Si6 0.825146 0.675669 0.326088
Si Si7 0.250105 0.855084 0.683890
O O1 0.971297 0.823215 0.805284
O O2 0.546846 0.874862 0.043397
O O3 0.420670 0.790012 0.006383
O O4 0.720552 0.805111 0.175014
O O5 0.477081 0.455804 0.653136
O O6 0.869897 0.475849 0.307286
O O7 0.827214 0.392035 0.432050
O O8 0.063794 0.454126 0.546425
O O9 0.135411 0.948246 0.099337
O O10 0.986851 0.870170 0.221894
O O11 0.290652 0.882261 0.845174
O O12 0.937262 0.210518 0.678034
O O13 0.550652 0.668119 0.531739
#
# Coordination Sequence:
#
# PCOD9165888 Si02
#       7
#     4   4   4   4   2   4   4
#     4  10  23  40  63  92 125 163 210 272 328 395
#     4  10  22  39  67  96 133 179 229 266 329 383
#     4  10  22  38  63  92 131 170 214 266 327 384
#     4  10  21  41  65  95 135 182 221 276 319 390
#     4  10  22  42  66  88 122 166 204 270 336 398
#     4  10  21  42  62  88 124 164 212 260 332 393
#     4  11  23  38  64  97 124 169 221 270 321 399
#
# _framework density 24.614315999999999
#
# number of rings (size 3 to 8) (size 9 to 14) (size 15 to 20)
#    0.000    1.846    1.538    1.385    4.308    3.692 
#    0.000    8.462    0.000    0.000    0.000    0.000 
#    0.000    0.000    0.000    0.000    0.000    0.000 
#
# Total GULP energy -144847.164983 kJ/mol
# GULP energy per Si atom -5571.044807 kJ/mol
# Density = 2.455829 g / cm^3
# Si number density = 24.614316 Si / 1000 Ang^3
#
#
#
# Elastic Constant Matrix: (Units=GPa)
#
#
# Indices 1 2 3 4 5 6 
#
# 1 65.3912 1.5849 30.5283 0.0000 -21.2374 0.0000
# 2 1.5849 48.5156 14.4424 0.0000 -5.4070 0.0000
# 3 30.5283 14.4424 116.7709 0.0000 -34.7912 0.0000
# 4 0.0000 0.0000 0.0000 7.7993 0.0000 -1.8351
# 5 -21.2374 -5.4070 -34.7912 0.0000 38.3614 0.0000
# 6 0.0000 0.0000 0.0000 -1.8351 0.0000 68.2344
#
#
#
# Elastic Compliance Matrix: (Units=1/GPa)
#
#
# Indices 1 2 3 4 5 6 
#
# 1 0.019234 0.001100 -0.002666 0.000000 0.008385 0.000000
# 2 0.001100 0.021483 -0.002550 0.000000 0.001324 0.000000
# 3 -0.002666 -0.002550 0.012373 0.000000 0.009386 0.000000
# 4 0.000000 0.000000 0.000000 0.129033 0.000000 0.003470
# 5 0.008385 0.001324 0.009386 0.000000 0.039409 0.000000
# 6 0.000000 0.000000 0.000000 0.003470 0.000000 0.014749
#
#
# Mechanical properties :
#
#
# Convention : Reuss Voigt Hill
#
# Bulk Modulus (GPa) = 22.29336 35.97654 29.13495
# Shear Modulus (GPa) = 19.27045 35.15384 27.21214
#
# Velocity S-wave (km/s) = 2.80106 3.78324 3.32858
# Velocity P-wave (km/s) = 4.42018 5.80790 5.16089
#
# Compressibility (1/GPa) = 0.04485641
#
# Stress axis : x y z
#
# Youngs Moduli (GPa) = 51.99145 46.54912 80.82372
#
# Poissons Ratio (x) = -0.05120 0.21549
# Poissons Ratio (y) = -0.05718 0.20610
# Poissons Ratio (z) = 0.13862 0.11870
#
# Static dielectric constant tensor:
#      x y z
#    x 2.155350 0.000000 0.039260 
#    y 0.000000 2.031530 0.000000 
#    z 0.039260 0.000000 1.948210 
# 
# From -- ./inp_files/10693.got.cif
#   From: 2010.05.17/outbox.cif.g08.bks.cpg/sg11_6_cif.got.tgz:10693.got - 2010.06.03 12:22:45.
