data_PCOD9165818
_publ_section_title
;
Structure prediction by ZEFSAII (Michael W. Deem and Ramdas Pophale) SiO2 
 PCOD9165818
Probable space group: P 21/M
;
_chemical_formula_sum "Si O2"
_cell_formula_units_Z 28
_cell_length_a 10.081269
_cell_length_b 27.714309
_cell_length_c 5.016363
_cell_angle_alpha 90.000000
_cell_angle_beta 92.845350
_cell_angle_gamma 90.000000
_cell_volume 1399.820882
_symmetry_space_group_name_H-M "P 21/M"
_symmetry_group_IT_number 11
_symmetry_cell_setting 'monoclinic'
loop_
_space_group_symop_operation_xyz
x,y,z
-x,1/2+y,-z
-x,-y,-z
x,1/2-y,z
loop_
_atom_site_type_symbol
_atom_site_label
_atom_site_fract_x
_atom_site_fract_y
_atom_site_fract_z
Si Si1 0.941415 0.077921 0.393273
Si Si2 0.116581 0.480387 0.826093
Si Si3 0.863000 0.750000 0.320615
Si Si4 0.308439 0.155275 0.658230
Si Si5 0.236180 0.668629 0.701493
Si Si6 0.791309 0.901605 0.848084
Si Si7 0.040324 0.750000 0.826412
Si Si8 0.400081 0.806345 0.201827
O O1 0.840397 0.121627 0.413432
O O2 0.044692 0.058551 0.627474
O O3 0.049605 0.097837 0.189592
O O4 0.853630 0.029853 0.325989
O O5 0.225672 0.454738 0.021183
O O6 0.000000 0.500000 0.000000
O O7 0.779291 0.703046 0.390760
O O8 0.989379 0.750000 0.520756
O O9 0.920010 0.750000 0.025236
O O10 0.280574 0.115602 0.427258
O O11 0.459977 0.171645 0.692533
O O12 0.257084 0.134567 0.932071
O O13 0.132267 0.703059 0.846458
O O14 0.302793 0.691769 0.447006
O O15 0.346711 0.663177 0.943567
O O16 0.416250 0.750000 0.121500
#
# Coordination Sequence:
#
# PCOD9165818 Si02
#       8
#     4   4   2   4   4   4   2   4
#     4  10  21  40  67 104 131 165 205 263 346 397
#     4   9  20  38  67 102 133 165 200 259 346 406
#     4  12  24  38  58  94 124 164 204 267 325 380
#     4  12  24  41  64  87 129 173 224 264 304 382
#     4  12  25  41  66  90 133 167 218 266 312 396
#     4  11  22  39  64  99 127 161 206 274 326 378
#     4  12  24  38  62  98 132 158 202 273 343 368
#     4  12  25  47  62  87 125 189 229 257 306 370
#
# _framework density 20.002559999999999
#
# number of rings (size 3 to 8) (size 9 to 14) (size 15 to 20)
#    0.000    0.857    3.571    4.286    4.000    0.000 
#    0.000    0.000    0.000    5.143    0.000    0.000 
#    0.000    0.000    0.000    0.000    0.000    0.000 
#
# Total GULP energy -156076.364587 kJ/mol
# GULP energy per Si atom -5574.155878 kJ/mol
# Density = 1.995703 g / cm^3
# Si number density = 20.002560 Si / 1000 Ang^3
#
#
#
# Elastic Constant Matrix: (Units=GPa)
#
#
# Indices 1 2 3 4 5 6 
#
# 1 60.1195 49.1147 13.7628 0.0000 7.5156 0.0000
# 2 49.1147 98.8372 27.2765 0.0000 10.3822 0.0000
# 3 13.7628 27.2765 82.4217 0.0000 -5.8982 0.0000
# 4 0.0000 0.0000 0.0000 190.6549 0.0000 -311.4269
# 5 7.5156 10.3822 -5.8982 0.0000 17.4513 0.0000
# 6 0.0000 0.0000 0.0000 -311.4269 0.0000 636.1365
#
#
#
# Elastic Compliance Matrix: (Units=1/GPa)
#
#
# Indices 1 2 3 4 5 6 
#
# 1 0.028294 -0.013435 -0.000593 0.000000 -0.004393 0.000000
# 2 -0.013435 0.018744 -0.004451 0.000000 -0.006870 0.000000
# 3 -0.000593 -0.004451 0.014257 0.000000 0.007722 0.000000
# 4 0.000000 0.000000 0.000000 0.026183 0.000000 0.012818
# 5 -0.004393 -0.006870 0.007722 0.000000 0.065891 0.000000
# 6 0.000000 0.000000 0.000000 0.012818 0.000000 0.007847
#
#
# Mechanical properties :
#
#
# Convention : Reuss Voigt Hill
#
# Bulk Modulus (GPa) = 41.08919 46.85404 43.97162
# Shear Modulus (GPa) = 24.23802 178.93016 101.58409
#
# Velocity S-wave (km/s) = 3.48479 9.46825 7.13413
# Velocity P-wave (km/s) = 6.06451 11.95848 9.48113
#
# Compressibility (1/GPa) = 0.02433730
#
# Stress axis : x y z
#
# Youngs Moduli (GPa) = 35.34298 53.35055 70.13894
#
# Poissons Ratio (x) = 0.71677 0.04157
# Poissons Ratio (y) = 0.47484 0.31221
# Poissons Ratio (z) = 0.02095 0.23748
#
# Static dielectric constant tensor:
#      x y z
#    x 1.684870 0.000000 -0.010280 
#    y 0.000000 1.611720 0.000000 
#    z -0.010280 0.000000 1.774030 
# 
# From -- ./inp_files/3056.got.cif
#   From: 2010.05.17/outbox.cif.g08.bks.cpg/sg11_2_cif.got.tgz:3056.got - 2010.06.03 12:22:45.
