data_PCOD9165495
_publ_section_title
;
Structure prediction by ZEFSAII (Michael W. Deem and Ramdas Pophale) SiO2 
 PCOD9165495
Probable space group: P 21/M
;
_chemical_formula_sum "Si O2"
_cell_formula_units_Z 32
_cell_length_a 14.418989
_cell_length_b 8.843109
_cell_length_c 14.974510
_cell_angle_alpha 90.000000
_cell_angle_beta 54.206203
_cell_angle_gamma 90.000000
_cell_volume 1548.750086
_symmetry_space_group_name_H-M "P 21/M"
_symmetry_group_IT_number 11
_symmetry_cell_setting 'monoclinic'
loop_
_space_group_symop_operation_xyz
x,y,z
-x,1/2+y,-z
-x,-y,-z
x,1/2-y,z
loop_
_atom_site_type_symbol
_atom_site_label
_atom_site_fract_x
_atom_site_fract_y
_atom_site_fract_z
Si Si1 0.960073 0.075966 0.384547
Si Si2 0.802213 0.572657 0.956608
Si Si3 0.047491 0.072014 0.788030
Si Si4 0.512935 0.070323 0.394598
Si Si5 0.420230 0.568102 0.273700
Si Si6 0.574740 0.429975 0.037042
Si Si7 0.253746 0.429098 0.803304
Si Si8 0.830644 0.426453 0.646513
O O1 0.957627 0.250000 0.357353
O O2 0.887989 0.062504 0.516009
O O3 0.911625 0.971475 0.334002
O O4 0.089372 0.024994 0.334820
O O5 0.791205 0.750000 0.942447
O O6 0.706218 0.480961 0.956985
O O7 0.775350 0.550091 0.076671
O O8 0.929878 0.516557 0.868226
O O9 0.025194 0.250000 0.807218
O O10 0.143317 0.032214 0.806297
O O11 0.497479 0.250000 0.406314
O O12 0.500000 0.000000 0.500000
O O13 0.427984 0.997068 0.369152
O O14 0.638763 0.026270 0.288220
O O15 0.430624 0.750000 0.270611
O O16 0.521498 0.497767 0.157918
O O17 0.300932 0.529945 0.292030
O O18 0.566326 0.250000 0.041262
O O19 0.500000 0.500000 0.000000
O O20 0.280231 0.250000 0.774637
O O21 0.836649 0.250000 0.670906
#
# Coordination Sequence:
#
# PCOD9165495 Si02
#       8
#     4   4   4   4   4   4   4   4
#     4  10  21  39  61  91 125 163 210 258 309 372
#     4  11  23  43  68  93 126 166 210 265 320 379
#     4  11  24  40  63  94 127 164 209 260 315 378
#     4  12  26  43  67  97 132 173 218 268 324 387
#     4  11  23  43  68  97 132 169 216 270 323 388
#     4  12  26  44  67  97 131 174 219 266 324 385
#     4  10  23  44  67  93 127 166 210 261 319 381
#     4   9  21  40  63  88 123 166 206 255 315 372
#
# _framework density 20.661825
#
# number of rings (size 3 to 8) (size 9 to 14) (size 15 to 20)
#    0.000    1.250    1.250    4.125    3.500    3.000 
#    0.000    0.000    0.000    0.000    0.000    0.000 
#    0.000    0.000    0.000    0.000    0.000    0.000 
#
# Total GULP energy -179075.312689 kJ/mol
# GULP energy per Si atom -5596.103522 kJ/mol
# Density = 2.061480 g / cm^3
# Si number density = 20.661825 Si / 1000 Ang^3
#
#
#
# Elastic Constant Matrix: (Units=GPa)
#
#
# Indices 1 2 3 4 5 6 
#
# 1 93.7450 29.3416 -3.8811 0.0000 8.8729 0.0000
# 2 29.3416 83.4692 13.5870 0.0000 6.1392 0.0000
# 3 -3.8811 13.5870 31.5444 0.0000 6.9176 0.0000
# 4 0.0000 0.0000 0.0000 34.1641 0.0000 -0.8981
# 5 8.8729 6.1392 6.9176 0.0000 35.2511 0.0000
# 6 0.0000 0.0000 0.0000 -0.8981 0.0000 34.0019
#
#
#
# Elastic Compliance Matrix: (Units=1/GPa)
#
#
# Indices 1 2 3 4 5 6 
#
# 1 0.012699 -0.004944 0.004393 0.000000 -0.003198 0.000000
# 2 -0.004944 0.014858 -0.007015 0.000000 0.000033 0.000000
# 3 0.004393 -0.007015 0.036823 0.000000 -0.007110 0.000000
# 4 0.000000 0.000000 0.000000 0.029291 0.000000 0.000774
# 5 -0.003198 0.000033 -0.007110 0.000000 0.030562 0.000000
# 6 0.000000 0.000000 0.000000 0.000774 0.000000 0.029431
#
#
# Mechanical properties :
#
#
# Convention : Reuss Voigt Hill
#
# Bulk Modulus (GPa) = 20.30560 31.87262 26.08911
# Shear Modulus (GPa) = 26.99615 31.99749 29.49682
#
# Velocity S-wave (km/s) = 3.61857 3.93953 3.78246
# Velocity P-wave (km/s) = 5.22568 6.01270 5.63295
#
# Compressibility (1/GPa) = 0.04924751
#
# Stress axis : x y z
#
# Youngs Moduli (GPa) = 78.74499 67.30420 27.15714
#
# Poissons Ratio (x) = 0.33276 -0.11931
# Poissons Ratio (y) = 0.38932 0.19052
# Poissons Ratio (z) = -0.34594 0.47216
#
# Static dielectric constant tensor:
#      x y z
#    x 1.722830 0.000000 0.009090 
#    y 0.000000 1.686080 0.000000 
#    z 0.009090 0.000000 1.764750 
# 
# From -- ./inp_files/51693.got.cif
#   From: 2010.05.17/outbox.cif.g08.bks.cpg/sg11_26_cif.got.tgz:51693.got - 2010.06.03 12:22:45.
