data_PCOD9165446
_publ_section_title
;
Structure prediction by ZEFSAII (Michael W. Deem and Ramdas Pophale) SiO2 
 PCOD9165446
Probable space group: P 21/M
;
_chemical_formula_sum "Si O2"
_cell_formula_units_Z 24
_cell_length_a 13.206112
_cell_length_b 7.849702
_cell_length_c 9.718370
_cell_angle_alpha 90.000000
_cell_angle_beta 78.711067
_cell_angle_gamma 90.000000
_cell_volume 987.953969
_symmetry_space_group_name_H-M "P 21/M"
_symmetry_group_IT_number 11
_symmetry_cell_setting 'monoclinic'
loop_
_space_group_symop_operation_xyz
x,y,z
-x,1/2+y,-z
-x,-y,-z
x,1/2-y,z
loop_
_atom_site_type_symbol
_atom_site_label
_atom_site_fract_x
_atom_site_fract_y
_atom_site_fract_z
Si Si1 0.991837 0.454666 0.842360
Si Si2 0.234888 0.548409 0.105799
Si Si3 0.431562 0.552881 0.208531
Si Si4 0.671547 0.946288 0.497322
Si Si5 0.103649 0.554928 0.550884
Si Si6 0.657519 0.957416 0.187010
O O1 0.997968 0.250000 0.826603
O O2 0.877973 0.516919 0.825898
O O3 0.076648 0.531806 0.719031
O O4 0.000000 0.500000 0.000000
O O5 0.232698 0.750000 0.137112
O O6 0.334759 0.471696 0.154933
O O7 0.255315 0.522413 0.938770
O O8 0.438693 0.750000 0.163933
O O9 0.400125 0.544190 0.376855
O O10 0.545967 0.480703 0.161124
O O11 0.638042 0.750000 0.506965
O O12 0.667220 0.011897 0.342365
O O13 0.791302 0.957027 0.510248
O O14 0.124611 0.750000 0.511285
O O15 0.000000 0.500000 0.500000
O O16 0.660672 0.750000 0.184974
#
# Coordination Sequence:
#
# PCOD9165446 Si02
#       6
#     4   4   4   4   4   4
#     4  11  23  40  61  89 122 160 204 251 302 360
#     4  10  22  38  59  85 115 152 196 242 295 354
#     4  10  21  39  60  86 119 156 197 246 298 350
#     4  11  23  39  60  89 120 155 198 244 295 359
#     4  12  25  42  64  90 120 158 200 249 304 362
#     4  10  22  38  59  87 120 155 196 244 295 351
#
# _framework density 24.292629999999999
#
# number of rings (size 3 to 8) (size 9 to 14) (size 15 to 20)
#    0.000    1.333    0.000    5.500    0.000    8.000 
#    0.000    0.000    0.000    0.000    0.000    0.000 
#    0.000    0.000    0.000    0.000    0.000    0.000 
#
# Total GULP energy -134370.682361 kJ/mol
# GULP energy per Si atom -5598.778432 kJ/mol
# Density = 2.423734 g / cm^3
# Si number density = 24.292630 Si / 1000 Ang^3
#
#
#
# Elastic Constant Matrix: (Units=GPa)
#
#
# Indices 1 2 3 4 5 6 
#
# 1 91.0117 -2.3519 -3.1472 0.0000 -10.3961 0.0000
# 2 -2.3519 46.0571 -9.8275 0.0000 4.8255 0.0000
# 3 -3.1472 -9.8275 73.2685 0.0000 -7.7586 0.0000
# 4 0.0000 0.0000 0.0000 27.9356 0.0000 0.4483
# 5 -10.3961 4.8255 -7.7586 0.0000 46.9994 0.0000
# 6 0.0000 0.0000 0.0000 0.4483 0.0000 11.8519
#
#
#
# Elastic Compliance Matrix: (Units=1/GPa)
#
#
# Indices 1 2 3 4 5 6 
#
# 1 0.011325 0.000483 0.000826 0.000000 0.002592 0.000000
# 2 0.000483 0.022529 0.002859 0.000000 -0.001734 0.000000
# 3 0.000826 0.002859 0.014306 0.000000 0.002251 0.000000
# 4 0.000000 0.000000 0.000000 0.035818 0.000000 -0.001355
# 5 0.002592 -0.001734 0.002251 0.000000 0.022400 0.000000
# 6 0.000000 0.000000 0.000000 -0.001355 0.000000 0.084426
#
#
# Mechanical properties :
#
#
# Convention : Reuss Voigt Hill
#
# Bulk Modulus (GPa) = 17.70106 19.96491 18.83299
# Shear Modulus (GPa) = 24.83863 32.40163 28.62013
#
# Velocity S-wave (km/s) = 3.20109 3.65609 3.43613
# Velocity P-wave (km/s) = 4.57876 5.10480 4.84892
#
# Compressibility (1/GPa) = 0.05649378
#
# Stress axis : x y z
#
# Youngs Moduli (GPa) = 88.30279 44.38815 69.90224
#
# Poissons Ratio (x) = -0.02144 -0.05772
# Poissons Ratio (y) = -0.04264 -0.19984
# Poissons Ratio (z) = -0.07291 -0.12690
#
# Static dielectric constant tensor:
#      x y z
#    x 1.949970 0.000000 0.070170 
#    y 0.000000 1.896830 0.000000 
#    z 0.070170 0.000000 1.930700 
# 
# From -- ./inp_files/20404.got.cif
#   From: 2010.05.17/outbox.cif.g08.bks.cpg/sg11_11_cif.got.tgz:20404.got - 2010.06.03 12:22:45.
