data_PCOD9165292
_publ_section_title
;
Structure prediction by ZEFSAII (Michael W. Deem and Ramdas Pophale) SiO2 
 PCOD9165292
Probable space group: P 21/M
;
_chemical_formula_sum "Si O2"
_cell_formula_units_Z 24
_cell_length_a 10.324252
_cell_length_b 17.663483
_cell_length_c 7.456537
_cell_angle_alpha 90.000000
_cell_angle_beta 103.312617
_cell_angle_gamma 90.000000
_cell_volume 1323.250821
_symmetry_space_group_name_H-M "P 21/M"
_symmetry_group_IT_number 11
_symmetry_cell_setting 'monoclinic'
loop_
_space_group_symop_operation_xyz
x,y,z
-x,1/2+y,-z
-x,-y,-z
x,1/2-y,z
loop_
_atom_site_type_symbol
_atom_site_label
_atom_site_fract_x
_atom_site_fract_y
_atom_site_fract_z
Si Si1 0.956857 0.985170 0.283441
Si Si2 0.184148 0.163472 0.905771
Si Si3 0.684483 0.036645 0.084760
Si Si4 0.505560 0.663787 0.116458
Si Si5 0.589238 0.552975 0.406119
Si Si6 0.785191 0.945879 0.784187
O O1 0.895727 0.901170 0.230566
O O2 0.839097 0.042885 0.189235
O O3 0.000000 0.000000 0.500000
O O4 0.086815 0.001779 0.207193
O O5 0.138145 0.250000 0.868765
O O6 0.341420 0.161954 0.905281
O O7 0.175506 0.131928 0.105537
O O8 0.624117 0.989902 0.232174
O O9 0.691846 0.989061 0.900639
O O10 0.595843 0.110338 0.024229
O O11 0.460646 0.750000 0.099659
O O12 0.516262 0.628801 0.319186
O O13 0.500000 0.500000 0.500000
O O14 0.715703 0.568258 0.572201
#
# Coordination Sequence:
#
# PCOD9165292 Si02
#       6
#     4   4   4   4   4   4
#     4  11  21  39  64  91 117 163 214 244 290 366
#     4  10  21  38  61  90 125 158 199 257 308 353
#     4  11  21  39  60  86 121 155 202 248 297 356
#     4  11  22  38  59  91 126 158 196 255 313 353
#     4  12  21  36  66  89 116 159 206 248 295 363
#     4  11  21  38  65  90 115 162 208 243 296 364
#
# _framework density 18.137150999999999
#
# number of rings (size 3 to 8) (size 9 to 14) (size 15 to 20)
#    0.000    1.000    6.667    3.500    0.000    0.667 
#    0.000    5.833    0.000    0.000    0.000    0.000 
#    0.000    0.000    0.000    0.000    0.000    0.000 
#
# Total GULP energy -133790.155436 kJ/mol
# GULP energy per Si atom -5574.589810 kJ/mol
# Density = 1.809587 g / cm^3
# Si number density = 18.137151 Si / 1000 Ang^3
#
#
#
# Elastic Constant Matrix: (Units=GPa)
#
#
# Indices 1 2 3 4 5 6 
#
# 1 66.1430 40.1504 38.5311 0.0000 -4.8393 0.0000
# 2 40.1504 147.1730 68.6681 0.0000 9.9739 0.0000
# 3 38.5311 68.6681 138.4210 0.0000 15.7019 0.0000
# 4 0.0000 0.0000 0.0000 20.4784 0.0000 4.3297
# 5 -4.8393 9.9739 15.7019 0.0000 41.0650 0.0000
# 6 0.0000 0.0000 0.0000 4.3297 0.0000 27.6804
#
#
#
# Elastic Compliance Matrix: (Units=1/GPa)
#
#
# Indices 1 2 3 4 5 6 
#
# 1 0.020346 -0.003880 -0.004304 0.000000 0.004986 0.000000
# 2 -0.003880 0.009591 -0.003514 0.000000 -0.001443 0.000000
# 3 -0.004304 -0.003514 0.010586 0.000000 -0.003701 0.000000
# 4 0.000000 0.000000 0.000000 0.050502 0.000000 -0.007899
# 5 0.004986 -0.001443 -0.003701 0.000000 0.026705 0.000000
# 6 0.000000 0.000000 0.000000 -0.007899 0.000000 0.037362
#
#
# Mechanical properties :
#
#
# Convention : Reuss Voigt Hill
#
# Bulk Modulus (GPa) = 58.39228 71.82623 65.10926
# Shear Modulus (GPa) = 27.14477 31.47058 29.30768
#
# Velocity S-wave (km/s) = 3.87284 4.17003 4.02418
# Velocity P-wave (km/s) = 7.22933 7.92926 7.58737
#
# Compressibility (1/GPa) = 0.01712555
#
# Stress axis : x y z
#
# Youngs Moduli (GPa) = 49.14859 104.26835 94.46853
#
# Poissons Ratio (x) = 0.40460 0.40662
# Poissons Ratio (y) = 0.19071 0.33195
# Poissons Ratio (z) = 0.21155 0.36639
#
# Static dielectric constant tensor:
#      x y z
#    x 1.676130 0.000000 0.009210 
#    y 0.000000 1.622570 0.000000 
#    z 0.009210 0.000000 1.644740 
# 
# From -- ./inp_files/17253.got.cif
#   From: 2010.05.17/outbox.cif.g08.bks.cpg/sg11_9_cif.got.tgz:17253.got - 2010.06.03 12:22:45.
