data_PCOD9165014
_publ_section_title
;
Structure prediction by ZEFSAII (Michael W. Deem and Ramdas Pophale) SiO2 
 PCOD9165014
Probable space group: P 21/M
;
_chemical_formula_sum "Si O2"
_cell_formula_units_Z 32
_cell_length_a 9.999314
_cell_length_b 8.713791
_cell_length_c 27.633212
_cell_angle_alpha 90.000000
_cell_angle_beta 38.876015
_cell_angle_gamma 90.000000
_cell_volume 1511.184193
_symmetry_space_group_name_H-M "P 21/M"
_symmetry_group_IT_number 11
_symmetry_cell_setting 'monoclinic'
loop_
_space_group_symop_operation_xyz
x,y,z
-x,1/2+y,-z
-x,-y,-z
x,1/2-y,z
loop_
_atom_site_type_symbol
_atom_site_label
_atom_site_fract_x
_atom_site_fract_y
_atom_site_fract_z
Si Si1 0.992619 0.433980 0.262336
Si Si2 0.600037 0.065496 0.307156
Si Si3 0.858248 0.070488 0.082688
Si Si4 0.389646 0.571212 0.103073
Si Si5 0.806932 0.073050 0.948788
Si Si6 0.004111 0.933934 0.631672
Si Si7 0.803961 0.064469 0.523654
Si Si8 0.530187 0.431963 0.759058
O O1 0.022708 0.250000 0.250880
O O2 0.821815 0.478794 0.269948
O O3 0.217860 0.514323 0.189807
O O4 0.909149 0.471803 0.339518
O O5 0.592601 0.250000 0.304118
O O6 0.409534 0.009569 0.395418
O O7 0.563409 0.988675 0.265791
O O8 0.833285 0.250000 0.082556
O O9 0.628758 0.994658 0.155121
O O10 0.000000 0.000000 0.000000
O O11 0.999298 0.034827 0.090764
O O12 0.444661 0.750000 0.094311
O O13 0.603040 0.471931 0.038843
O O14 0.272004 0.555171 0.083982
O O15 0.868291 0.250000 0.939477
O O16 0.979667 0.750000 0.635757
O O17 0.147384 0.978998 0.545675
O O18 0.769240 0.004805 0.694283
O O19 0.795147 0.250000 0.530338
O O20 0.000000 0.000000 0.500000
O O21 0.533339 0.250000 0.760112
#
# Coordination Sequence:
#
# PCOD9165014 Si02
#       8
#     4   4   4   4   4   4   4   4
#     4  10  23  41  62  90 126 168 210 258 320 382
#     4  11  23  41  67  97 130 169 213 264 320 381
#     4  12  26  43  63  89 125 165 209 263 319 375
#     4  10  21  37  61  89 121 160 206 257 313 376
#     4  10  21  39  61  87 119 160 208 259 313 374
#     4  10  23  43  65  92 128 170 213 263 320 382
#     4  11  22  39  66  96 129 167 216 264 316 381
#     4  12  25  42  66  95 127 168 218 266 318 383
#
# _framework density 21.175446999999998
#
# number of rings (size 3 to 8) (size 9 to 14) (size 15 to 20)
#    0.000    1.250    1.250    4.500    1.750    6.000 
#    0.000    0.000    0.000    0.000    0.000    0.000 
#    0.000    0.000    0.000    0.000    0.000    0.000 
#
# Total GULP energy -179106.636433 kJ/mol
# GULP energy per Si atom -5597.082389 kJ/mol
# Density = 2.112725 g / cm^3
# Si number density = 21.175447 Si / 1000 Ang^3
#
#
#
# Elastic Constant Matrix: (Units=GPa)
#
#
# Indices 1 2 3 4 5 6 
#
# 1 46.3606 -2.3013 -6.8934 0.0000 6.2792 0.0000
# 2 -2.3013 12.3669 2.4763 0.0000 8.9887 0.0000
# 3 -6.8934 2.4763 107.7016 0.0000 7.3923 0.0000
# 4 0.0000 0.0000 0.0000 35.3874 0.0000 2.0014
# 5 6.2792 8.9887 7.3923 0.0000 33.5929 0.0000
# 6 0.0000 0.0000 0.0000 2.0014 0.0000 18.3229
#
#
#
# Elastic Compliance Matrix: (Units=1/GPa)
#
#
# Indices 1 2 3 4 5 6 
#
# 1 0.023266 0.009210 0.001772 0.000000 -0.007203 0.000000
# 2 0.009210 0.104054 0.000230 0.000000 -0.029615 0.000000
# 3 0.001772 0.000230 0.009564 0.000000 -0.002497 0.000000
# 4 0.000000 0.000000 0.000000 0.028434 0.000000 -0.003106
# 5 -0.007203 -0.029615 -0.002497 0.000000 0.039588 0.000000
# 6 0.000000 0.000000 0.000000 -0.003106 0.000000 0.054916
#
#
# Mechanical properties :
#
#
# Convention : Reuss Voigt Hill
#
# Bulk Modulus (GPa) = 6.27712 16.99915 11.63814
# Shear Modulus (GPa) = 17.21154 29.00381 23.10767
#
# Velocity S-wave (km/s) = 2.85407 3.70495 3.30699
# Velocity P-wave (km/s) = 3.71910 5.13297 4.48214
#
# Compressibility (1/GPa) = 0.15930864
#
# Stress axis : x y z
#
# Youngs Moduli (GPa) = 42.98065 9.61037 104.55390
#
# Poissons Ratio (x) = -0.08851 -0.18525
# Poissons Ratio (y) = -0.39586 -0.02402
# Poissons Ratio (z) = -0.07615 -0.00221
#
# Static dielectric constant tensor:
#      x y z
#    x 1.796370 0.000000 0.031520 
#    y 0.000000 1.706600 0.000000 
#    z 0.031520 0.000000 1.760280 
# 
# From -- ./inp_files/73058.got.cif
#   From: 2010.05.17/outbox.cif.g08.bks.cpg/sg11_37_cif.got.tgz:73058.got - 2010.06.03 12:22:45.
