data_PCOD9165629
_publ_section_title
;
Structure prediction by ZEFSAII (Michael W. Deem and Ramdas Pophale) SiO2 
 PCOD9165629
Probable space group: P 21/M
;
_chemical_formula_sum "Si O2"
_cell_formula_units_Z 32
_cell_length_a 8.707394
_cell_length_b 28.600002
_cell_length_c 12.357714
_cell_angle_alpha 90.000000
_cell_angle_beta 149.340408
_cell_angle_gamma 90.000000
_cell_volume 1569.308744
_symmetry_space_group_name_H-M "P 21/M"
_symmetry_group_IT_number 11
_symmetry_cell_setting 'monoclinic'
loop_
_space_group_symop_operation_xyz
x,y,z
-x,1/2+y,-z
-x,-y,-z
x,1/2-y,z
loop_
_atom_site_type_symbol
_atom_site_label
_atom_site_fract_x
_atom_site_fract_y
_atom_site_fract_z
Si Si1 0.853548 0.428211 0.157009
Si Si2 0.998856 0.878456 0.139929
Si Si3 0.799263 0.613231 0.252540
Si Si4 0.896196 0.520262 0.051136
Si Si5 0.488243 0.198163 0.538674
Si Si6 0.617398 0.804012 0.287972
Si Si7 0.809128 0.452313 0.375904
Si Si8 0.944628 0.846514 0.872435
O O1 0.882193 0.428601 0.303809
O O2 0.039566 0.389152 0.204150
O O3 0.506335 0.416508 0.915239
O O4 0.928659 0.479829 0.159432
O O5 0.271978 0.842965 0.318453
O O6 0.802188 0.873922 0.128192
O O7 0.085141 0.932997 0.188370
O O8 0.860651 0.865943 0.939496
O O9 0.793761 0.660060 0.320052
O O10 0.077047 0.581624 0.459884
O O11 0.545445 0.535969 0.835532
O O12 0.000000 0.500000 0.000000
O O13 0.627086 0.250000 0.627426
O O14 0.296575 0.193279 0.533197
O O15 0.282802 0.191478 0.310459
O O16 0.636441 0.750000 0.265233
O O17 0.272697 0.822515 0.076455
O O18 0.000000 0.500000 0.500000
#
# Coordination Sequence:
#
# PCOD9165629 Si02
#       8
#     4   4   4   4   4   4   4   4
#     4  11  22  41  62  91 125 168 211 266 314 383
#     4  11  24  40  62  91 131 165 205 264 320 375
#     4  11  23  40  64  90 127 164 214 261 321 382
#     4  12  24  42  62  92 134 171 216 264 316 385
#     4  10  22  41  65  91 123 162 210 261 318 387
#     4   9  20  40  65  91 121 158 204 261 317 376
#     4  12  24  40  66  89 124 173 213 260 319 369
#     4  10  21  39  65  92 122 163 209 255 319 379
#
# _framework density 20.391143
#
# number of rings (size 3 to 8) (size 9 to 14) (size 15 to 20)
#    0.000    1.250    3.750    2.250    1.750    2.000 
#    0.000    1.875    0.000    0.000    0.000    0.000 
#    0.000    0.000    0.000    0.000    0.000    0.000 
#
# Total GULP energy -178752.452418 kJ/mol
# GULP energy per Si atom -5586.014138 kJ/mol
# Density = 2.034473 g / cm^3
# Si number density = 20.391143 Si / 1000 Ang^3
#
#
#
# Elastic Constant Matrix: (Units=GPa)
#
#
# Indices 1 2 3 4 5 6 
#
# 1 95.9339 45.7470 12.8909 0.0000 -22.0650 0.0000
# 2 45.7470 131.8155 20.3811 0.0000 -6.7958 0.0000
# 3 12.8909 20.3811 41.1257 0.0000 -15.5603 0.0000
# 4 0.0000 0.0000 0.0000 30.7410 0.0000 -5.8890
# 5 -22.0650 -6.7958 -15.5603 0.0000 24.8805 0.0000
# 6 0.0000 0.0000 0.0000 -5.8890 0.0000 32.5691
#
#
#
# Elastic Compliance Matrix: (Units=1/GPa)
#
#
# Indices 1 2 3 4 5 6 
#
# 1 0.015856 -0.005237 0.003150 0.000000 0.014602 0.000000
# 2 -0.005237 0.009949 -0.005263 0.000000 -0.005219 0.000000
# 3 0.003150 -0.005263 0.034649 0.000000 0.023025 0.000000
# 4 0.000000 0.000000 0.000000 0.033697 0.000000 0.006093
# 5 0.014602 -0.005219 0.023025 0.000000 0.066116 0.000000
# 6 0.000000 0.000000 0.000000 0.006093 0.000000 0.031806
#
#
# Mechanical properties :
#
#
# Convention : Reuss Voigt Hill
#
# Bulk Modulus (GPa) = 21.85685 47.43477 34.64581
# Shear Modulus (GPa) = 22.52003 30.29519 26.40761
#
# Velocity S-wave (km/s) = 3.32686 3.85866 3.60259
# Velocity P-wave (km/s) = 5.04969 6.57003 5.85938
#
# Compressibility (1/GPa) = 0.04575225
#
# Stress axis : x y z
#
# Youngs Moduli (GPa) = 63.06600 100.51545 28.86116
#
# Poissons Ratio (x) = 0.52643 -0.09091
# Poissons Ratio (y) = 0.33029 0.15191
# Poissons Ratio (z) = -0.19865 0.52906
#
# Static dielectric constant tensor:
#      x y z
#    x 1.733390 0.000000 -0.013500 
#    y 0.000000 1.718000 0.000000 
#    z -0.013500 0.000000 1.724420 
# 
# From -- ./inp_files/33214.got.cif
#   From: 2010.05.17/outbox.cif.g08.bks.cpg/sg11_17_cif.got.tgz:33214.got - 2010.06.03 12:22:45.
