data_PCOD9165134
_publ_section_title
;
Structure prediction by ZEFSAII (Michael W. Deem and Ramdas Pophale) SiO2 
 PCOD9165134
Probable space group: P 21/M
;
_chemical_formula_sum "Si O2"
_cell_formula_units_Z 24
_cell_length_a 5.079918
_cell_length_b 17.218814
_cell_length_c 11.961557
_cell_angle_alpha 90.000000
_cell_angle_beta 83.704554
_cell_angle_gamma 90.000000
_cell_volume 1039.969937
_symmetry_space_group_name_H-M "P 21/M"
_symmetry_group_IT_number 11
_symmetry_cell_setting 'monoclinic'
loop_
_space_group_symop_operation_xyz
x,y,z
-x,1/2+y,-z
-x,-y,-z
x,1/2-y,z
loop_
_atom_site_type_symbol
_atom_site_label
_atom_site_fract_x
_atom_site_fract_y
_atom_site_fract_z
Si Si1 0.536348 0.337473 0.285689
Si Si2 0.535153 0.340325 0.772038
Si Si3 0.938771 0.583891 0.334992
Si Si4 0.692772 0.929256 0.020791
Si Si5 0.999358 0.161358 0.437996
Si Si6 0.930326 0.045570 0.177681
O O1 0.573860 0.250000 0.238603
O O2 0.717580 0.342770 0.389451
O O3 0.233543 0.346277 0.336090
O O4 0.457356 0.363901 0.902208
O O5 0.491511 0.250000 0.754661
O O6 0.835202 0.363907 0.733348
O O7 0.347657 0.389395 0.697028
O O8 0.963065 0.601092 0.464401
O O9 0.991224 0.495733 0.292649
O O10 0.331928 0.903053 0.797008
O O11 0.853658 0.906724 0.902637
O O12 0.500000 0.000000 0.000000
O O13 0.887028 0.969481 0.102368
O O14 0.025016 0.250000 0.482906
#
# Coordination Sequence:
#
# PCOD9165134 Si02
#       6
#     4   4   4   4   4   4
#     4  10  23  40  60  88 121 158 199 240 289 354
#     4  11  22  37  61  91 118 153 201 243 294 357
#     4  11  22  38  62  89 120 157 194 246 296 351
#     4  10  21  41  60  83 120 156 191 248 300 345
#     4  10  21  38  58  85 122 156 194 246 295 341
#     4  10  23  39  62  86 119 158 198 244 301 350
#
# _framework density 23.077591000000002
#
# number of rings (size 3 to 8) (size 9 to 14) (size 15 to 20)
#    0.000    1.667    1.667    2.500    2.333    3.333 
#    0.000    0.833    0.000    0.000    0.000    0.000 
#    0.000    0.000    0.000    0.000    0.000    0.000 
#
# Total GULP energy -134176.087218 kJ/mol
# GULP energy per Si atom -5590.670301 kJ/mol
# Density = 2.302507 g / cm^3
# Si number density = 23.077591 Si / 1000 Ang^3
#
#
#
# Elastic Constant Matrix: (Units=GPa)
#
#
# Indices 1 2 3 4 5 6 
#
# 1 42.4230 -8.9470 3.3351 0.0000 2.8871 0.0000
# 2 -8.9470 78.3925 24.1049 0.0000 -6.4103 0.0000
# 3 3.3351 24.1049 77.7594 0.0000 -12.6955 0.0000
# 4 0.0000 0.0000 0.0000 34.4491 0.0000 -5.4059
# 5 2.8871 -6.4103 -12.6955 0.0000 35.7904 0.0000
# 6 0.0000 0.0000 0.0000 -5.4059 0.0000 33.4331
#
#
#
# Elastic Compliance Matrix: (Units=1/GPa)
#
#
# Indices 1 2 3 4 5 6 
#
# 1 0.024635 0.003388 -0.002476 0.000000 -0.002259 0.000000
# 2 0.003388 0.014603 -0.004553 0.000000 0.000727 0.000000
# 3 -0.002476 -0.004553 0.015155 0.000000 0.004760 0.000000
# 4 0.000000 0.000000 0.000000 0.029784 0.000000 0.004816
# 5 -0.002259 0.000727 0.004760 0.000000 0.029941 0.000000
# 6 0.000000 0.000000 0.000000 0.004816 0.000000 0.030689
#
#
# Mechanical properties :
#
#
# Convention : Reuss Voigt Hill
#
# Bulk Modulus (GPa) = 21.22648 26.17344 23.69996
# Shear Modulus (GPa) = 29.79874 32.74000 31.26937
#
# Velocity S-wave (km/s) = 3.59728 3.77064 3.68498
# Velocity P-wave (km/s) = 5.14507 5.50664 5.32892
#
# Compressibility (1/GPa) = 0.04711096
#
# Stress axis : x y z
#
# Youngs Moduli (GPa) = 40.59259 68.48110 65.98483
#
# Poissons Ratio (x) = -0.23203 0.16336
# Poissons Ratio (y) = -0.13753 0.30045
# Poissons Ratio (z) = 0.10049 0.31182
#
# Static dielectric constant tensor:
#      x y z
#    x 1.850610 0.000000 0.034730 
#    y 0.000000 1.832210 0.000000 
#    z 0.034730 0.000000 1.952370 
# 
# From -- ./inp_files/10531.got.cif
#   From: 2010.05.17/outbox.cif.g08.bks.cpg/sg11_6_cif.got.tgz:10531.got - 2010.06.03 12:22:45.
