data_PCOD9165082
_publ_section_title
;
Structure prediction by ZEFSAII (Michael W. Deem and Ramdas Pophale) SiO2 
 PCOD9165082
Probable space group: P 21/M
;
_chemical_formula_sum "Si O2"
_cell_formula_units_Z 32
_cell_length_a 13.079182
_cell_length_b 9.013917
_cell_length_c 31.003056
_cell_angle_alpha 90.000000
_cell_angle_beta 156.168788
_cell_angle_gamma 90.000000
_cell_volume 1476.817881
_symmetry_space_group_name_H-M "P 21/M"
_symmetry_group_IT_number 11
_symmetry_cell_setting 'monoclinic'
loop_
_space_group_symop_operation_xyz
x,y,z
-x,1/2+y,-z
-x,-y,-z
x,1/2-y,z
loop_
_atom_site_type_symbol
_atom_site_label
_atom_site_fract_x
_atom_site_fract_y
_atom_site_fract_z
Si Si1 0.346150 0.072554 0.768192
Si Si2 0.700152 0.580547 0.429829
Si Si3 0.331945 0.425819 0.347075
Si Si4 0.013243 0.925447 0.871464
Si Si5 0.521353 0.424410 0.054276
Si Si6 0.985923 0.571539 0.283195
Si Si7 0.096235 0.576323 0.994709
Si Si8 0.311082 0.920130 0.663512
O O1 0.329894 0.250000 0.756598
O O2 0.097222 0.027883 0.699991
O O3 0.604446 0.037586 0.894099
O O4 0.378586 0.998347 0.734308
O O5 0.608333 0.750000 0.395264
O O6 0.590507 0.494965 0.428818
O O7 0.618649 0.501892 0.353814
O O8 0.003373 0.580862 0.546133
O O9 0.353786 0.250000 0.362248
O O10 0.148035 0.449361 0.234043
O O11 0.218998 0.500393 0.346647
O O12 0.096844 0.750000 0.901785
O O13 0.919741 0.945388 0.884604
O O14 0.239638 0.042601 0.960984
O O15 0.580974 0.250000 0.076467
O O16 0.742272 0.512750 0.163213
O O17 0.500000 0.500000 0.000000
O O18 0.005707 0.750000 0.289157
O O19 0.094936 0.750000 0.002503
O O20 0.000000 0.500000 0.000000
O O21 0.398438 0.750000 0.695735
#
# Coordination Sequence:
#
# PCOD9165082 Si02
#       8
#     4   4   4   4   4   4   4   4
#     4  10  22  40  62  87 120 162 202 244 300 361
#     4  10  22  42  66  92 122 153 192 245 305 364
#     4  11  23  37  60  92 123 157 200 251 303 354
#     4  10  21  38  55  78 116 156 197 244 292 345
#     4  12  22  33  53  79 110 152 200 244 287 339
#     4  11  22  39  59  83 120 162 202 248 300 356
#     4  10  22  39  55  81 120 159 199 244 293 347
#     4  10  22  41  67  94 119 152 196 248 301 357
#
# _framework density 21.668210999999999
#
# number of rings (size 3 to 8) (size 9 to 14) (size 15 to 20)
#    0.000    1.500    2.500    2.625    1.750    4.000 
#    0.000    0.625    0.000    0.000    0.000    0.000 
#    0.000    0.000    0.000    0.000    0.000    0.000 
#
# Total GULP energy -178526.713128 kJ/mol
# GULP energy per Si atom -5578.959785 kJ/mol
# Density = 2.161889 g / cm^3
# Si number density = 21.668211 Si / 1000 Ang^3
#
#
#
# Elastic Constant Matrix: (Units=GPa)
#
#
# Indices 1 2 3 4 5 6 
#
# 1 105.7277 34.4713 4.1913 0.0000 14.0152 0.0000
# 2 34.4713 42.8416 13.6914 0.0000 7.9856 0.0000
# 3 4.1913 13.6914 32.3743 0.0000 -1.6181 0.0000
# 4 0.0000 0.0000 0.0000 23.7013 0.0000 4.2755
# 5 14.0152 7.9856 -1.6181 0.0000 32.7316 0.0000
# 6 0.0000 0.0000 0.0000 4.2755 0.0000 38.5705
#
#
#
# Elastic Compliance Matrix: (Units=1/GPa)
#
#
# Indices 1 2 3 4 5 6 
#
# 1 0.013348 -0.011110 0.002827 0.000000 -0.002865 0.000000
# 2 -0.011110 0.038024 -0.014905 0.000000 -0.005257 0.000000
# 3 0.002827 -0.014905 0.037039 0.000000 0.004257 0.000000
# 4 0.000000 0.000000 0.000000 0.043053 0.000000 -0.004772
# 5 -0.002865 -0.005257 0.004257 0.000000 0.033271 0.000000
# 6 0.000000 0.000000 0.000000 -0.004772 0.000000 0.026456
#
#
# Mechanical properties :
#
#
# Convention : Reuss Voigt Hill
#
# Bulk Modulus (GPa) = 23.78930 31.73907 27.76419
# Shear Modulus (GPa) = 19.87453 27.57333 23.72393
#
# Velocity S-wave (km/s) = 3.03185 3.57112 3.31248
# Velocity P-wave (km/s) = 4.82275 5.62880 5.24129
#
# Compressibility (1/GPa) = 0.04203570
#
# Stress axis : x y z
#
# Youngs Moduli (GPa) = 74.91668 26.29913 26.99855
#
# Poissons Ratio (x) = 0.29217 -0.07633
# Poissons Ratio (y) = 0.83229 0.40242
# Poissons Ratio (z) = -0.21179 0.39199
#
# Static dielectric constant tensor:
#      x y z
#    x 1.831620 0.000000 0.060520 
#    y 0.000000 1.721020 0.000000 
#    z 0.060520 0.000000 1.851160 
# 
# From -- ./inp_files/73183.got.cif
#   From: 2010.05.17/outbox.cif.g08.bks.cpg/sg11_37_cif.got.tgz:73183.got - 2010.06.03 12:22:45.
