data_PCOD9165291
_publ_section_title
;
Structure prediction by ZEFSAII (Michael W. Deem and Ramdas Pophale) SiO2 
 PCOD9165291
Probable space group: P 21/M
;
_chemical_formula_sum "Si O2"
_cell_formula_units_Z 28
_cell_length_a 14.586990
_cell_length_b 17.142433
_cell_length_c 11.284459
_cell_angle_alpha 90.000000
_cell_angle_beta 30.660778
_cell_angle_gamma 90.000000
_cell_volume 1438.964395
_symmetry_space_group_name_H-M "P 21/M"
_symmetry_group_IT_number 11
_symmetry_cell_setting 'monoclinic'
loop_
_space_group_symop_operation_xyz
x,y,z
-x,1/2+y,-z
-x,-y,-z
x,1/2-y,z
loop_
_atom_site_type_symbol
_atom_site_label
_atom_site_fract_x
_atom_site_fract_y
_atom_site_fract_z
Si Si1 0.969386 0.338244 0.215488
Si Si2 0.187664 0.954847 0.775249
Si Si3 0.702219 0.375838 0.723266
Si Si4 0.981964 0.078919 0.595628
Si Si5 0.348302 0.162430 0.238269
Si Si6 0.210171 0.010003 0.998830
Si Si7 0.419737 0.487410 0.296874
O O1 0.038324 0.250000 0.126570
O O2 0.866369 0.369385 0.212421
O O3 0.824561 0.340571 0.483319
O O4 0.117132 0.405725 0.080526
O O5 0.276221 0.969414 0.803953
O O6 0.302097 0.992496 0.542537
O O7 0.000000 0.000000 0.000000
O O8 0.819817 0.375949 0.711713
O O9 0.658535 0.463206 0.725971
O O10 0.509495 0.339001 0.963716
O O11 0.162066 0.129113 0.394284
O O12 0.000000 0.000000 0.500000
O O13 0.932318 0.048346 0.781504
O O14 0.322285 0.250000 0.310313
O O15 0.408480 0.102249 0.273203
O O16 0.378397 0.014656 0.899888
#
# Coordination Sequence:
#
# PCOD9165291 Si02
#       7
#     4   4   4   4   4   4   4
#     4  10  21  38  61  90 124 158 202 266 308 346
#     4   9  20  39  62  87 114 162 210 245 297 372
#     4  11  22  40  63  87 126 165 205 244 305 377
#     4  12  21  41  63  88 122 165 203 243 302 378
#     4  12  25  38  59  93 125 159 203 255 308 360
#     4  11  21  39  65  90 119 165 213 243 301 378
#     4  11  21  40  65  86 122 162 204 253 299 369
#
# _framework density 19.458438000000001
#
# number of rings (size 3 to 8) (size 9 to 14) (size 15 to 20)
#    0.000    1.143    4.286    3.857    0.000    1.143 
#    0.000   10.000    0.000    0.000    0.000    0.000 
#    0.000    0.000    0.000    0.000    0.000    0.000 
#
# Total GULP energy -156288.022402 kJ/mol
# GULP energy per Si atom -5581.715086 kJ/mol
# Density = 1.941415 g / cm^3
# Si number density = 19.458438 Si / 1000 Ang^3
#
#
#
# Elastic Constant Matrix: (Units=GPa)
#
#
# Indices 1 2 3 4 5 6 
#
# 1 92.9840 47.1384 30.1516 0.0000 -10.9924 0.0000
# 2 47.1384 141.0128 37.1838 0.0000 -5.9760 0.0000
# 3 30.1516 37.1838 95.2420 0.0000 -11.1074 0.0000
# 4 0.0000 0.0000 0.0000 12.4121 0.0000 -1.3521
# 5 -10.9924 -5.9760 -11.1074 0.0000 38.6603 0.0000
# 6 0.0000 0.0000 0.0000 -1.3521 0.0000 12.8744
#
#
#
# Elastic Compliance Matrix: (Units=1/GPa)
#
#
# Indices 1 2 3 4 5 6 
#
# 1 0.013844 -0.003837 -0.002581 0.000000 0.002602 0.000000
# 2 -0.003837 0.008973 -0.002332 0.000000 -0.000374 0.000000
# 3 -0.002581 -0.002332 0.012519 0.000000 0.002502 0.000000
# 4 0.000000 0.000000 0.000000 0.081499 0.000000 0.008559
# 5 0.002602 -0.000374 0.002502 0.000000 0.027267 0.000000
# 6 0.000000 0.000000 0.000000 0.008559 0.000000 0.078573
#
#
# Mechanical properties :
#
#
# Convention : Reuss Voigt Hill
#
# Bulk Modulus (GPa) = 56.06764 62.02070 59.04417
# Shear Modulus (GPa) = 20.31510 27.10702 23.71106
#
# Velocity S-wave (km/s) = 3.23464 3.73644 3.49456
# Velocity P-wave (km/s) = 6.54425 7.11036 6.83317
#
# Compressibility (1/GPa) = 0.01783560
#
# Stress axis : x y z
#
# Youngs Moduli (GPa) = 72.23168 111.44117 79.87763
#
# Poissons Ratio (x) = 0.42760 0.20620
# Poissons Ratio (y) = 0.27715 0.18629
# Poissons Ratio (z) = 0.18646 0.25991
#
# Static dielectric constant tensor:
#      x y z
#    x 1.738360 0.000000 -0.000940 
#    y 0.000000 1.682140 0.000000 
#    z -0.000940 0.000000 1.712520 
# 
# From -- ./inp_files/39834.got.cif
#   From: 2010.05.17/outbox.cif.g08.bks.cpg/sg11_20_cif.got.tgz:39834.got - 2010.06.03 12:22:45.
