data_PCOD9165264
_publ_section_title
;
Structure prediction by ZEFSAII (Michael W. Deem and Ramdas Pophale) SiO2 
 PCOD9165264
Probable space group: P 21/M
;
_chemical_formula_sum "Si O2"
_cell_formula_units_Z 32
_cell_length_a 21.922974
_cell_length_b 14.601717
_cell_length_c 15.412146
_cell_angle_alpha 90.000000
_cell_angle_beta 160.531813
_cell_angle_gamma 90.000000
_cell_volume 1644.296800
_symmetry_space_group_name_H-M "P 21/M"
_symmetry_group_IT_number 11
_symmetry_cell_setting 'monoclinic'
loop_
_space_group_symop_operation_xyz
x,y,z
-x,1/2+y,-z
-x,-y,-z
x,1/2-y,z
loop_
_atom_site_type_symbol
_atom_site_label
_atom_site_fract_x
_atom_site_fract_y
_atom_site_fract_z
Si Si1 0.309133 0.860015 0.539909
Si Si2 0.406050 0.361448 0.392015
Si Si3 0.702993 0.858035 0.477219
Si Si4 0.652395 0.639979 0.883178
Si Si5 0.654605 0.141972 0.880377
Si Si6 0.934107 0.861445 0.948158
Si Si7 0.042842 0.001502 0.659081
Si Si8 0.310371 0.998493 0.694129
O O1 0.305787 0.750000 0.544046
O O2 0.495289 0.886756 0.740588
O O3 0.135480 0.887932 0.248238
O O4 0.297900 0.908762 0.616988
O O5 0.403550 0.250000 0.390968
O O6 0.409972 0.387912 0.297207
O O7 0.575414 0.387748 0.680275
O O8 0.218828 0.392539 0.187640
O O9 0.723438 0.750000 0.485994
O O10 0.515414 0.869031 0.280852
O O11 0.698368 0.917557 0.385133
O O12 0.865648 0.887729 0.760786
O O13 0.670750 0.750000 0.909032
O O14 0.840270 0.591239 0.159363
O O15 0.698362 0.250000 0.935785
O O16 0.824871 0.082439 0.138108
O O17 0.928691 0.750000 0.941279
O O18 0.000000 0.000000 0.500000
O O19 0.857583 0.997871 0.465170
O O20 0.500000 0.000000 0.000000
#
# Coordination Sequence:
#
# PCOD9165264 Si02
#       8
#     4   4   4   4   4   4   4   4
#     4  10  21  38  61  88 118 151 189 236 286 337
#     4   8  15  31  57  88 119 150 185 226 278 340
#     4   9  19  38  63  89 119 153 188 232 285 339
#     4  10  21  38  61  88 118 151 189 236 286 337
#     4   9  19  38  63  89 119 153 188 232 285 339
#     4   8  15  31  57  88 119 150 185 226 278 340
#     4  12  26  42  60  82 112 151 196 243 286 338
#     4  12  26  42  60  82 112 151 196 243 286 338
#
# _framework density 19.461205
#
# number of rings (size 3 to 8) (size 9 to 14) (size 15 to 20)
#    0.000    2.250    0.000    4.500    0.000    5.000 
#    0.000    2.500    0.000    0.000    0.000    0.000 
#    0.000    0.000    0.000    0.000    0.000    0.000 
#
# Total GULP energy -178803.637268 kJ/mol
# GULP energy per Si atom -5587.613665 kJ/mol
# Density = 1.941691 g / cm^3
# Si number density = 19.461205 Si / 1000 Ang^3
#
#
#
# Elastic Constant Matrix: (Units=GPa)
#
#
# Indices 1 2 3 4 5 6 
#
# 1 137.1481 37.5789 71.6839 0.0000 -19.2969 0.0000
# 2 37.5789 71.7889 39.9355 0.0000 -3.5145 0.0000
# 3 71.6839 39.9355 158.1603 0.0000 -12.2695 0.0000
# 4 0.0000 0.0000 0.0000 29.5182 0.0000 -0.0239
# 5 -19.2969 -3.5145 -12.2695 0.0000 28.5985 0.0000
# 6 0.0000 0.0000 0.0000 -0.0239 0.0000 29.5006
#
#
#
# Elastic Compliance Matrix: (Units=1/GPa)
#
#
# Indices 1 2 3 4 5 6 
#
# 1 0.010892 -0.003402 -0.003662 0.000000 0.005360 0.000000
# 2 -0.003402 0.017270 -0.002930 0.000000 -0.001430 0.000000
# 3 -0.003662 -0.002930 0.008795 0.000000 0.000943 0.000000
# 4 0.000000 0.000000 0.000000 0.033877 0.000000 0.000027
# 5 0.005360 -0.001430 0.000943 0.000000 0.038812 0.000000
# 6 0.000000 0.000000 0.000000 0.000027 0.000000 0.033898
#
#
# Mechanical properties :
#
#
# Convention : Reuss Voigt Hill
#
# Bulk Modulus (GPa) = 58.92666 73.94377 66.43521
# Shear Modulus (GPa) = 29.55291 32.05006 30.80149
#
# Velocity S-wave (km/s) = 3.90109 4.06257 3.98265
# Velocity P-wave (km/s) = 7.11591 7.75138 7.44043
#
# Compressibility (1/GPa) = 0.01697025
#
# Stress axis : x y z
#
# Youngs Moduli (GPa) = 91.81418 57.90267 113.69871
#
# Poissons Ratio (x) = 0.19699 0.41632
# Poissons Ratio (y) = 0.31235 0.33311
# Poissons Ratio (z) = 0.33619 0.16964
#
# Static dielectric constant tensor:
#      x y z
#    x 1.657220 0.000000 0.005410 
#    y 0.000000 1.711740 0.000000 
#    z 0.005410 0.000000 1.653500 
# 
# From -- ./inp_files/55022.got.cif
#   From: 2010.05.17/outbox.cif.g08.bks.cpg/sg11_28_cif.got.tgz:55022.got - 2010.06.03 12:22:45.
