data_PCOD9165880
_publ_section_title
;
Structure prediction by ZEFSAII (Michael W. Deem and Ramdas Pophale) SiO2 
 PCOD9165880
Probable space group: P 21/M
;
_chemical_formula_sum "Si O2"
_cell_formula_units_Z 28
_cell_length_a 9.555272
_cell_length_b 8.282599
_cell_length_c 27.777960
_cell_angle_alpha 90.000000
_cell_angle_beta 142.547806
_cell_angle_gamma 90.000000
_cell_volume 1336.855652
_symmetry_space_group_name_H-M "P 21/M"
_symmetry_group_IT_number 11
_symmetry_cell_setting 'monoclinic'
loop_
_space_group_symop_operation_xyz
x,y,z
-x,1/2+y,-z
-x,-y,-z
x,1/2-y,z
loop_
_atom_site_type_symbol
_atom_site_label
_atom_site_fract_x
_atom_site_fract_y
_atom_site_fract_z
Si Si1 0.260831 0.561328 0.074528
Si Si2 0.305582 0.444271 0.983205
Si Si3 0.275927 0.947480 0.335336
Si Si4 0.554765 0.063254 0.241983
Si Si5 0.938726 0.439190 0.622178
Si Si6 0.797311 0.559983 0.479592
Si Si7 0.845087 0.055257 0.801283
O O1 0.264412 0.750000 0.088407
O O2 0.403568 0.465400 0.153069
O O3 0.354609 0.529513 0.047044
O O4 0.000000 0.500000 0.000000
O O5 0.303618 0.250000 0.988893
O O6 0.059010 0.493928 0.893211
O O7 0.500000 0.500000 0.000000
O O8 0.274953 0.750000 0.336499
O O9 0.539049 0.004199 0.400084
O O10 0.134737 0.994889 0.249016
O O11 0.172411 0.001112 0.358228
O O12 0.617931 0.250000 0.264442
O O13 0.786995 0.961656 0.301411
O O14 0.391173 0.009757 0.240970
O O15 0.882187 0.250000 0.602357
O O16 0.852833 0.524730 0.550436
O O17 0.785708 0.750000 0.468573
O O18 0.000000 0.500000 0.500000
O O19 0.836593 0.250000 0.800324
#
# Coordination Sequence:
#
# PCOD9165880 Si02
#       7
#     4   4   4   4   4   4   4
#     4  12  24  42  66  92 125 167 215 267 324 384
#     4  11  24  40  63  93 129 169 215 267 323 382
#     4   9  21  40  64  92 124 164 209 256 310 371
#     4  12  25  41  63  94 127 164 213 265 319 380
#     4  11  23  41  65  93 127 167 208 257 316 375
#     4  11  22  40  66  96 129 165 209 257 308 375
#     4  10  21  41  65  90 122 167 215 262 316 377
#
# _framework density 20.944671
#
# number of rings (size 3 to 8) (size 9 to 14) (size 15 to 20)
#    0.000    1.143    1.429    5.143    2.000    1.714 
#    0.000    4.286    0.000    0.000    0.000    0.000 
#    0.000    0.000    0.000    0.000    0.000    0.000 
#
# Total GULP energy -156590.987657 kJ/mol
# GULP energy per Si atom -5592.535273 kJ/mol
# Density = 2.089700 g / cm^3
# Si number density = 20.944671 Si / 1000 Ang^3
#
#
#
# Elastic Constant Matrix: (Units=GPa)
#
#
# Indices 1 2 3 4 5 6 
#
# 1 119.5277 0.2982 4.9117 0.0000 -14.5384 0.0000
# 2 0.2982 30.1439 -13.7909 0.0000 2.7120 0.0000
# 3 4.9117 -13.7909 61.1803 0.0000 -11.3132 0.0000
# 4 0.0000 0.0000 0.0000 24.6162 0.0000 -3.3085
# 5 -14.5384 2.7120 -11.3132 0.0000 38.3832 0.0000
# 6 0.0000 0.0000 0.0000 -3.3085 0.0000 31.9644
#
#
#
# Elastic Compliance Matrix: (Units=1/GPa)
#
#
# Indices 1 2 3 4 5 6 
#
# 1 0.008777 -0.000476 -0.000202 0.000000 0.003299 0.000000
# 2 -0.000476 0.037016 0.008318 0.000000 -0.000344 0.000000
# 3 -0.000202 0.008318 0.019158 0.000000 0.004982 0.000000
# 4 0.000000 0.000000 0.000000 0.041197 0.000000 0.004264
# 5 0.003299 -0.000344 0.004982 0.000000 0.028795 0.000000
# 6 0.000000 0.000000 0.000000 0.004264 0.000000 0.031726
#
#
# Mechanical properties :
#
#
# Convention : Reuss Voigt Hill
#
# Bulk Modulus (GPa) = 12.46397 21.52110 16.99254
# Shear Modulus (GPa) = 28.06919 33.62163 30.84541
#
# Velocity S-wave (km/s) = 3.66479 4.01092 3.84175
# Velocity P-wave (km/s) = 4.88584 5.63449 5.27346
#
# Compressibility (1/GPa) = 0.08023124
#
# Stress axis : x y z
#
# Youngs Moduli (GPa) = 113.93469 27.01567 52.19818
#
# Poissons Ratio (x) = 0.01286 0.01054
# Poissons Ratio (y) = 0.05423 -0.43421
# Poissons Ratio (z) = 0.02301 -0.22473
#
# Static dielectric constant tensor:
#      x y z
#    x 1.726480 0.000000 -0.014380 
#    y 0.000000 1.749370 0.000000 
#    z -0.014380 0.000000 1.742970 
# 
# From -- ./inp_files/28309.got.cif
#   From: 2010.05.17/outbox.cif.g08.bks.cpg/sg11_15_cif.got.tgz:28309.got - 2010.06.03 12:22:45.
