data_PCOD9165898
_publ_section_title
;
Structure prediction by ZEFSAII (Michael W. Deem and Ramdas Pophale) SiO2 
 PCOD9165898
Probable space group: P 21/M
;
_chemical_formula_sum "Si O2"
_cell_formula_units_Z 24
_cell_length_a 11.382920
_cell_length_b 13.950439
_cell_length_c 11.684395
_cell_angle_alpha 90.000000
_cell_angle_beta 44.251081
_cell_angle_gamma 90.000000
_cell_volume 1294.736009
_symmetry_space_group_name_H-M "P 21/M"
_symmetry_group_IT_number 11
_symmetry_cell_setting 'monoclinic'
loop_
_space_group_symop_operation_xyz
x,y,z
-x,1/2+y,-z
-x,-y,-z
x,1/2-y,z
loop_
_atom_site_type_symbol
_atom_site_label
_atom_site_fract_x
_atom_site_fract_y
_atom_site_fract_z
Si Si1 0.695612 0.529044 0.858760
Si Si2 0.574705 0.022119 0.324431
Si Si3 0.710618 0.863397 0.609787
Si Si4 0.263977 0.362829 0.933820
Si Si5 0.062030 0.638069 0.234172
Si Si6 0.908633 0.362371 0.057654
O O1 0.732936 0.582395 0.714226
O O2 0.808381 0.434426 0.797633
O O3 0.500000 0.500000 0.000000
O O4 0.732916 0.598471 0.939560
O O5 0.448468 0.090620 0.343227
O O6 0.754646 0.074094 0.207575
O O7 0.500000 0.000000 0.500000
O O8 0.605689 0.925430 0.230764
O O9 0.684533 0.750000 0.646376
O O10 0.876826 0.875713 0.416084
O O11 0.300073 0.250000 0.903249
O O12 0.080031 0.379480 0.006939
O O13 0.108973 0.750000 0.218609
O O14 0.062535 0.619560 0.097564
O O15 0.865861 0.250000 0.099891
#
# Coordination Sequence:
#
# PCOD9165898 Si02
#       6
#     4   4   4   4   4   4
#     4  12  23  42  66  92 127 173 211 258 314 374
#     4  12  24  39  67  94 127 166 209 266 318 377
#     4  11  24  43  64  95 130 167 210 258 315 382
#     4  11  24  41  63  93 130 167 212 264 315 372
#     4  10  22  41  69  95 126 166 211 259 312 376
#     4  10  21  41  66  93 124 165 208 258 318 378
#
# _framework density 18.536598000000001
#
# number of rings (size 3 to 8) (size 9 to 14) (size 15 to 20)
#    0.000    1.000    3.333    3.000    2.333    5.333 
#    0.000    0.000    0.000    0.000    0.000    0.000 
#    0.000    0.000    0.000    0.000    0.000    0.000 
#
# Total GULP energy -134241.142827 kJ/mol
# GULP energy per Si atom -5593.380951 kJ/mol
# Density = 1.849441 g / cm^3
# Si number density = 18.536598 Si / 1000 Ang^3
#
#
#
# Elastic Constant Matrix: (Units=GPa)
#
#
# Indices 1 2 3 4 5 6 
#
# 1 97.6411 62.4580 39.3653 0.0000 5.6583 0.0000
# 2 62.4580 127.4926 63.8722 0.0000 -11.2899 0.0000
# 3 39.3653 63.8722 120.1107 0.0000 14.0601 0.0000
# 4 0.0000 0.0000 0.0000 35.1422 0.0000 -4.1493
# 5 5.6583 -11.2899 14.0601 0.0000 35.5989 0.0000
# 6 0.0000 0.0000 0.0000 -4.1493 0.0000 41.5689
#
#
#
# Elastic Compliance Matrix: (Units=1/GPa)
#
#
# Indices 1 2 3 4 5 6 
#
# 1 0.015776 -0.007988 -0.000349 0.000000 -0.004903 0.000000
# 2 -0.007988 0.016071 -0.006997 0.000000 0.009130 0.000000
# 3 -0.000349 -0.006997 0.013016 0.000000 -0.007304 0.000000
# 4 0.000000 0.000000 0.000000 0.028795 0.000000 0.002874
# 5 -0.004903 0.009130 -0.007304 0.000000 0.034650 0.000000
# 6 0.000000 0.000000 0.000000 0.002874 0.000000 0.024343
#
#
# Mechanical properties :
#
#
# Convention : Reuss Voigt Hill
#
# Bulk Modulus (GPa) = 70.44509 75.18172 72.81341
# Shear Modulus (GPa) = 29.75306 34.43195 32.09250
#
# Velocity S-wave (km/s) = 4.01071 4.31456 4.16541
# Velocity P-wave (km/s) = 7.71580 8.09118 7.90572
#
# Compressibility (1/GPa) = 0.01419545
#
# Stress axis : x y z
#
# Youngs Moduli (GPa) = 63.38719 62.22500 76.83082
#
# Poissons Ratio (x) = 0.49707 0.02678
# Poissons Ratio (y) = 0.50635 0.53756
# Poissons Ratio (z) = 0.02209 0.43537
#
# Static dielectric constant tensor:
#      x y z
#    x 1.612210 0.000000 -0.000850 
#    y 0.000000 1.639880 0.000000 
#    z -0.000850 0.000000 1.605570 
# 
# From -- ./inp_files/35389.got.cif
#   From: 2010.05.17/outbox.cif.g08.bks.cpg/sg11_18_cif.got.tgz:35389.got - 2010.06.03 12:22:45.
