data_PCOD9165740
_publ_section_title
;
Structure prediction by ZEFSAII (Michael W. Deem and Ramdas Pophale) SiO2 
 PCOD9165740
Probable space group: P 21/M
;
_chemical_formula_sum "Si O2"
_cell_formula_units_Z 30
_cell_length_a 5.382626
_cell_length_b 19.737939
_cell_length_c 13.104534
_cell_angle_alpha 90.000000
_cell_angle_beta 92.243460
_cell_angle_gamma 90.000000
_cell_volume 1391.184018
_symmetry_space_group_name_H-M "P 21/M"
_symmetry_group_IT_number 11
_symmetry_cell_setting 'monoclinic'
loop_
_space_group_symop_operation_xyz
x,y,z
-x,1/2+y,-z
-x,-y,-z
x,1/2-y,z
loop_
_atom_site_type_symbol
_atom_site_label
_atom_site_fract_x
_atom_site_fract_y
_atom_site_fract_z
Si Si1 0.857414 0.131978 0.579595
Si Si2 0.205993 0.011444 0.343056
Si Si3 0.641285 0.672287 0.302215
Si Si4 0.102298 0.872778 0.765944
Si Si5 0.805834 0.445903 0.039625
Si Si6 0.494261 0.555280 0.158817
Si Si7 0.467315 0.632888 0.610435
Si Si8 0.187741 0.250000 0.341155
O O1 0.614890 0.156061 0.640587
O O2 0.773649 0.146559 0.462972
O O3 0.111080 0.163459 0.625339
O O4 0.884257 0.050891 0.591011
O O5 0.995315 0.060972 0.296641
O O6 0.407160 0.059804 0.401444
O O7 0.327651 0.976349 0.245740
O O8 0.630458 0.750000 0.266048
O O9 0.652140 0.615104 0.213634
O O10 0.943763 0.809221 0.729917
O O11 0.086184 0.889171 0.884586
O O12 0.378878 0.860846 0.726418
O O13 0.636880 0.491920 0.111474
O O14 0.663262 0.417139 0.939342
O O15 0.000000 0.500000 0.000000
O O16 0.662638 0.690974 0.592624
#
# Coordination Sequence:
#
# PCOD9165740 Si02
#       8
#     4   4   4   4   4   4   4   2
#     4  11  26  41  70  99 136 179 232 272 332 398
#     4  10  21  40  63  99 132 167 218 283 333 387
#     4  11  26  46  67  98 138 183 223 276 331 402
#     4  11  22  41  66  92 134 172 219 276 338 399
#     4  11  21  39  72  98 122 170 218 276 346 400
#     4  10  22  40  67  98 131 163 220 279 338 401
#     4  11  24  40  64  94 137 175 223 274 332 398
#     4  10  26  40  60  92 132 180 218 270 330 400
#
# _framework density 21.564366
#
# number of rings (size 3 to 8) (size 9 to 14) (size 15 to 20)
#    0.000    1.333    2.667    2.000    9.333    0.533 
#    1.200    0.000    1.467    0.000    0.000    0.000 
#    0.000    0.000    0.000    0.000    0.000    0.000 
#
# Total GULP energy -167173.067496 kJ/mol
# GULP energy per Si atom -5572.435583 kJ/mol
# Density = 2.151528 g / cm^3
# Si number density = 21.564366 Si / 1000 Ang^3
#
#
#
# Elastic Constant Matrix: (Units=GPa)
#
#
# Indices 1 2 3 4 5 6 
#
# 1 65.1975 12.4638 18.4624 0.0000 13.7562 0.0000
# 2 12.4638 120.3587 39.7526 0.0000 16.5356 0.0000
# 3 18.4624 39.7526 93.5616 0.0000 19.2040 0.0000
# 4 0.0000 0.0000 0.0000 -7.6565 0.0000 -22.3065
# 5 13.7562 16.5356 19.2040 0.0000 34.1360 0.0000
# 6 0.0000 0.0000 0.0000 -22.3065 0.0000 -45.3109
#
#
#
# Elastic Compliance Matrix: (Units=1/GPa)
#
#
# Indices 1 2 3 4 5 6 
#
# 1 0.017173 -0.000315 -0.002109 0.000000 -0.005581 0.000000
# 2 -0.000315 0.009893 -0.003599 0.000000 -0.002640 0.000000
# 3 -0.002109 -0.003599 0.013681 0.000000 -0.005103 0.000000
# 4 0.000000 0.000000 0.000000 0.300761 0.000000 -0.148064
# 5 -0.005581 -0.002640 -0.005103 0.000000 0.035694 0.000000
# 6 0.000000 0.000000 0.000000 -0.148064 0.000000 0.050822
#
#
# Mechanical properties :
#
#
# Convention : Reuss Voigt Hill
#
# Bulk Modulus (GPa) = 34.84318 46.71948 40.78133
# Shear Modulus (GPa) = 11.12010 10.12965 10.62487
#
# Velocity S-wave (km/s) = 2.27330 2.16970 2.22210
# Velocity P-wave (km/s) = 4.80451 5.29046 5.05333
#
# Compressibility (1/GPa) = 0.02870002
#
# Stress axis : x y z
#
# Youngs Moduli (GPa) = 58.23042 101.08592 73.09397
#
# Poissons Ratio (x) = 0.03183 0.15418
# Poissons Ratio (y) = 0.01834 0.26307
# Poissons Ratio (z) = 0.12283 0.36382
#
# Static dielectric constant tensor:
#      x y z
#    x 1.893140 0.000000 -0.033330 
#    y 0.000000 1.766320 0.000000 
#    z -0.033330 0.000000 1.842060 
# 
# From -- ./inp_files/46064.got.cif
#   From: 2010.05.17/outbox.cif.g08.bks.cpg/sg11_24_cif.got.tgz:46064.got - 2010.06.03 12:22:45.
