data_PCOD9165318
_publ_section_title
;
Structure prediction by ZEFSAII (Michael W. Deem and Ramdas Pophale) SiO2 
 PCOD9165318
Probable space group: P 21/M
;
_chemical_formula_sum "Si O2"
_cell_formula_units_Z 28
_cell_length_a 15.602483
_cell_length_b 8.283342
_cell_length_c 21.161854
_cell_angle_alpha 90.000000
_cell_angle_beta 152.543530
_cell_angle_gamma 90.000000
_cell_volume 1261.026475
_symmetry_space_group_name_H-M "P 21/M"
_symmetry_group_IT_number 11
_symmetry_cell_setting 'monoclinic'
loop_
_space_group_symop_operation_xyz
x,y,z
-x,1/2+y,-z
-x,-y,-z
x,1/2-y,z
loop_
_atom_site_type_symbol
_atom_site_label
_atom_site_fract_x
_atom_site_fract_y
_atom_site_fract_z
Si Si1 0.810787 0.441579 0.909671
Si Si2 0.613567 0.557765 0.906771
Si Si3 0.799916 0.939106 0.395690
Si Si4 0.609491 0.446373 0.653188
Si Si5 0.308800 0.443927 0.903365
Si Si6 0.928210 0.053823 0.610133
Si Si7 0.783044 0.064558 0.646464
O O1 0.823811 0.250000 0.923558
O O2 0.740226 0.506599 0.930373
O O3 0.655685 0.480933 0.755300
O O4 0.000000 0.500000 0.000000
O O5 0.616358 0.750000 0.910326
O O6 0.396468 0.507806 0.757819
O O7 0.697846 0.496383 0.028473
O O8 0.794873 0.750000 0.380306
O O9 0.000000 0.000000 0.500000
O O10 0.810688 0.977328 0.477578
O O11 0.581555 0.250000 0.627696
O O12 0.431637 0.546166 0.514915
O O13 0.777159 0.493884 0.714809
O O14 0.300291 0.250000 0.900781
O O15 0.500000 0.500000 0.000000
O O16 0.144596 0.490227 0.748040
O O17 0.904183 0.250000 0.591581
O O18 0.882078 0.992299 0.650565
O O19 0.846182 0.250000 0.690656
#
# Coordination Sequence:
#
# PCOD9165318 Si02
#       7
#     4   4   4   4   4   4   4
#     4  11  24  40  61  89 125 169 217 264 311 370
#     4  11  24  43  67  95 131 172 214 263 324 385
#     4  12  25  42  65  94 128 164 210 263 320 384
#     4   9  19  35  55  80 115 152 193 243 296 348
#     4  10  23  41  64  91 123 162 205 258 317 379
#     4  10  21  38  62  89 117 155 204 252 310 372
#     4   9  18  33  57  83 111 147 190 241 298 357
#
# _framework density 22.204134
#
# number of rings (size 3 to 8) (size 9 to 14) (size 15 to 20)
#    0.000    1.714    0.000    3.857    2.000    8.000 
#    0.000    0.000    0.000    0.000    0.000    0.000 
#    0.000    0.000    0.000    0.000    0.000    0.000 
#
# Total GULP energy -156259.144675 kJ/mol
# GULP energy per Si atom -5580.683738 kJ/mol
# Density = 2.215360 g / cm^3
# Si number density = 22.204134 Si / 1000 Ang^3
#
#
#
# Elastic Constant Matrix: (Units=GPa)
#
#
# Indices 1 2 3 4 5 6 
#
# 1 88.9857 6.6589 2.9757 0.0000 -5.5215 0.0000
# 2 6.6589 31.1827 6.5097 0.0000 -3.5709 0.0000
# 3 2.9757 6.5097 65.4439 0.0000 -7.3925 0.0000
# 4 0.0000 0.0000 0.0000 23.4162 0.0000 6.1560
# 5 -5.5215 -3.5709 -7.3925 0.0000 38.1206 0.0000
# 6 0.0000 0.0000 0.0000 6.1560 0.0000 30.3071
#
#
#
# Elastic Compliance Matrix: (Units=1/GPa)
#
#
# Indices 1 2 3 4 5 6 
#
# 1 0.011500 -0.002264 -0.000137 0.000000 0.001427 0.000000
# 2 -0.002264 0.033428 -0.002971 0.000000 0.002227 0.000000
# 3 -0.000137 -0.002971 0.015897 0.000000 0.002785 0.000000
# 4 0.000000 0.000000 0.000000 0.045115 0.000000 -0.009164
# 5 0.001427 0.002227 0.002785 0.000000 0.027188 0.000000
# 6 0.000000 0.000000 0.000000 -0.009164 0.000000 0.034857
#
#
# Mechanical properties :
#
#
# Convention : Reuss Voigt Hill
#
# Bulk Modulus (GPa) = 19.96700 24.21121 22.08911
# Shear Modulus (GPa) = 25.58592 29.66664 27.62628
#
# Velocity S-wave (km/s) = 3.39824 3.65922 3.53114
# Velocity P-wave (km/s) = 4.94059 5.36477 5.15704
#
# Compressibility (1/GPa) = 0.05008263
#
# Stress axis : x y z
#
# Youngs Moduli (GPa) = 86.95435 29.91534 62.90687
#
# Poissons Ratio (x) = 0.06772 0.00859
# Poissons Ratio (y) = 0.19685 0.18687
# Poissons Ratio (z) = 0.01187 0.08886
#
# Static dielectric constant tensor:
#      x y z
#    x 1.900180 0.000000 0.060450 
#    y 0.000000 1.791550 0.000000 
#    z 0.060450 0.000000 1.864370 
# 
# From -- ./inp_files/65437.got.cif
#   From: 2010.05.17/outbox.cif.g08.bks.cpg/sg11_33_cif.got.tgz:65437.got - 2010.06.03 12:22:45.
