data_PCOD9165842
_publ_section_title
;
Structure prediction by ZEFSAII (Michael W. Deem and Ramdas Pophale) SiO2 
 PCOD9165842
Probable space group: P 21/M
;
_chemical_formula_sum "Si O2"
_cell_formula_units_Z 28
_cell_length_a 8.601085
_cell_length_b 14.983775
_cell_length_c 11.229462
_cell_angle_alpha 90.000000
_cell_angle_beta 72.447341
_cell_angle_gamma 90.000000
_cell_volume 1379.834125
_symmetry_space_group_name_H-M "P 21/M"
_symmetry_group_IT_number 11
_symmetry_cell_setting 'monoclinic'
loop_
_space_group_symop_operation_xyz
x,y,z
-x,1/2+y,-z
-x,-y,-z
x,1/2-y,z
loop_
_atom_site_type_symbol
_atom_site_label
_atom_site_fract_x
_atom_site_fract_y
_atom_site_fract_z
Si Si1 0.023744 0.348612 0.207480
Si Si2 0.358912 0.916924 0.180111
Si Si3 0.147680 0.143820 0.431454
Si Si4 0.662038 0.911083 0.971757
Si Si5 0.205036 0.996744 0.826019
Si Si6 0.010196 0.354757 0.725696
Si Si7 0.541749 0.984452 0.627400
O O1 0.951016 0.250000 0.224867
O O2 0.043006 0.382445 0.339098
O O3 0.923457 0.417546 0.152361
O O4 0.205289 0.345906 0.112589
O O5 0.501099 0.870303 0.070134
O O6 0.178227 0.879703 0.206397
O O7 0.401039 0.928399 0.309827
O O8 0.372633 0.017705 0.124574
O O9 0.181149 0.250000 0.411529
O O10 0.313714 0.087479 0.396871
O O11 0.050764 0.130478 0.576756
O O12 0.747828 0.969219 0.055196
O O13 0.128142 0.080511 0.772797
O O14 0.369823 0.960873 0.727372
O O15 0.037583 0.250000 0.746028
O O16 0.500000 0.000000 0.500000
#
# Coordination Sequence:
#
# PCOD9165842 Si02
#       7
#     4   4   4   4   4   4   4
#     4  11  23  40  65  91 122 162 200 250 309 361
#     4  10  22  39  63  86 115 162 202 244 300 366
#     4  10  22  40  60  90 124 158 206 253 301 367
#     4  10  21  41  61  87 123 157 201 251 294 359
#     4  11  23  38  62  93 125 155 206 253 298 360
#     4  11  23  40  62  90 124 161 202 252 306 363
#     4  11  21  37  64  88 113 162 200 247 312 354
#
# _framework density 20.292294999999999
#
# number of rings (size 3 to 8) (size 9 to 14) (size 15 to 20)
#    0.000    1.429    4.286    0.429    2.000    2.857 
#    0.000    2.857    0.000    0.000    0.000    0.000 
#    0.000    0.000    0.000    0.000    0.000    0.000 
#
# Total GULP energy -156332.749550 kJ/mol
# GULP energy per Si atom -5583.312484 kJ/mol
# Density = 2.024611 g / cm^3
# Si number density = 20.292295 Si / 1000 Ang^3
#
#
#
# Elastic Constant Matrix: (Units=GPa)
#
#
# Indices 1 2 3 4 5 6 
#
# 1 88.6031 22.0912 30.2685 0.0000 -13.7700 0.0000
# 2 22.0912 49.6065 15.4955 0.0000 -8.3337 0.0000
# 3 30.2685 15.4955 87.9903 0.0000 7.1332 0.0000
# 4 0.0000 0.0000 0.0000 11.6882 0.0000 -6.2674
# 5 -13.7700 -8.3337 7.1332 0.0000 42.0376 0.0000
# 6 0.0000 0.0000 0.0000 -6.2674 0.0000 6.3512
#
#
#
# Elastic Compliance Matrix: (Units=1/GPa)
#
#
# Indices 1 2 3 4 5 6 
#
# 1 0.014694 -0.004280 -0.004687 0.000000 0.004760 0.000000
# 2 -0.004280 0.023638 -0.002998 0.000000 0.003793 0.000000
# 3 -0.004687 -0.002998 0.013869 0.000000 -0.004483 0.000000
# 4 0.000000 0.000000 0.000000 0.181701 0.000000 0.179304
# 5 0.004760 0.003793 -0.004483 0.000000 0.026860 0.000000
# 6 0.000000 0.000000 0.000000 0.179304 0.000000 0.334389
#
#
# Mechanical properties :
#
#
# Convention : Reuss Voigt Hill
#
# Bulk Modulus (GPa) = 35.37160 40.21224 37.79192
# Shear Modulus (GPa) = 7.95538 22.57172 15.26355
#
# Velocity S-wave (km/s) = 1.98215 3.33878 2.74557
# Velocity P-wave (km/s) = 4.76523 5.89260 5.35865
#
# Compressibility (1/GPa) = 0.02827127
#
# Stress axis : x y z
#
# Youngs Moduli (GPa) = 68.05328 42.30412 72.10542
#
# Poissons Ratio (x) = 0.18106 0.33796
# Poissons Ratio (y) = 0.29127 0.21617
# Poissons Ratio (z) = 0.31897 0.12683
#
# Static dielectric constant tensor:
#      x y z
#    x 1.735220 0.000000 -0.007300 
#    y 0.000000 1.720790 0.000000 
#    z -0.007300 0.000000 1.746060 
# 
# From -- ./inp_files/24940.got.cif
#   From: 2010.05.17/outbox.cif.g08.bks.cpg/sg11_13_cif.got.tgz:24940.got - 2010.06.03 12:22:45.
