data_PCOD9165356
_publ_section_title
;
Structure prediction by ZEFSAII (Michael W. Deem and Ramdas Pophale) SiO2 
 PCOD9165356
Probable space group: P 21/M
;
_chemical_formula_sum "Si O2"
_cell_formula_units_Z 28
_cell_length_a 14.529584
_cell_length_b 16.944090
_cell_length_c 5.618396
_cell_angle_alpha 90.000000
_cell_angle_beta 65.076532
_cell_angle_gamma 90.000000
_cell_volume 1254.381159
_symmetry_space_group_name_H-M "P 21/M"
_symmetry_group_IT_number 11
_symmetry_cell_setting 'monoclinic'
loop_
_space_group_symop_operation_xyz
x,y,z
-x,1/2+y,-z
-x,-y,-z
x,1/2-y,z
loop_
_atom_site_type_symbol
_atom_site_label
_atom_site_fract_x
_atom_site_fract_y
_atom_site_fract_z
Si Si1 0.707123 0.924472 0.660824
Si Si2 0.606094 0.464146 0.085902
Si Si3 0.092560 0.155392 0.392860
Si Si4 0.993631 0.405180 0.001761
Si Si5 0.451480 0.342014 0.461858
Si Si6 0.595520 0.166632 0.705851
Si Si7 0.762246 0.424957 0.287795
O O1 0.793768 0.878882 0.707723
O O2 0.657889 0.868642 0.511744
O O3 0.615086 0.954648 0.930900
O O4 0.755020 0.003307 0.486929
O O5 0.605689 0.399540 0.884195
O O6 0.516233 0.424646 0.339061
O O7 0.711937 0.463030 0.110590
O O8 0.091907 0.250000 0.393740
O O9 0.044302 0.126538 0.192750
O O10 0.038625 0.126179 0.700241
O O11 0.873254 0.390479 0.141525
O O12 0.000000 0.500000 0.000000
O O13 0.469133 0.250000 0.349370
O O14 0.488039 0.332138 0.691764
O O15 0.617263 0.250000 0.793980
O O16 0.684026 0.145818 0.425153
#
# Coordination Sequence:
#
# PCOD9165356 Si02
#       7
#     4   4   4   4   4   4   4
#     4  11  23  40  66  94 132 177 226 281 347 419
#     4  10  21  38  62  97 125 170 225 278 330 418
#     4  12  28  48  73 109 147 184 239 301 360 426
#     4  12  25  48  76 102 142 191 239 292 359 428
#     4  10  21  39  61  91 133 173 218 277 348 412
#     4   9  20  37  58  88 129 167 214 275 339 406
#     4  10  23  39  64  94 124 171 226 280 342 419
#
# _framework density 22.321767000000001
#
# number of rings (size 3 to 8) (size 9 to 14) (size 15 to 20)
#    0.000    1.429    1.429    3.000    4.000    8.000 
#    0.000    0.000    0.000    0.000    0.000    0.000 
#    0.000    0.000    0.000    0.000    0.000    0.000 
#
# Total GULP energy -155902.289354 kJ/mol
# GULP energy per Si atom -5567.938906 kJ/mol
# Density = 2.227096 g / cm^3
# Si number density = 22.321767 Si / 1000 Ang^3
#
#
#
# Elastic Constant Matrix: (Units=GPa)
#
#
# Indices 1 2 3 4 5 6 
#
# 1 94.5332 49.8490 6.4991 0.0000 24.8447 0.0000
# 2 49.8490 156.5848 61.3530 0.0000 -1.6378 0.0000
# 3 6.4991 61.3530 63.6545 0.0000 15.6550 0.0000
# 4 0.0000 0.0000 0.0000 13.5920 0.0000 9.1646
# 5 24.8447 -1.6378 15.6550 0.0000 28.3590 0.0000
# 6 0.0000 0.0000 0.0000 9.1646 0.0000 20.2903
#
#
#
# Elastic Compliance Matrix: (Units=1/GPa)
#
#
# Indices 1 2 3 4 5 6 
#
# 1 0.032530 -0.022479 0.029706 0.000000 -0.046196 0.000000
# 2 -0.022479 0.027156 -0.033681 0.000000 0.039854 0.000000
# 3 0.029706 -0.033681 0.060190 0.000000 -0.061197 0.000000
# 4 0.000000 0.000000 0.000000 0.105791 0.000000 -0.047783
# 5 -0.046196 0.039854 -0.061197 0.000000 0.111818 0.000000
# 6 0.000000 0.000000 0.000000 -0.047783 0.000000 0.070867
#
#
# Mechanical properties :
#
#
# Convention : Reuss Voigt Hill
#
# Bulk Modulus (GPa) = 14.93212 61.13053 38.03133
# Shear Modulus (GPa) = 10.33949 25.58636 17.96293
#
# Velocity S-wave (km/s) = 2.15455 3.38931 2.83985
# Velocity P-wave (km/s) = 3.59075 6.53927 5.27520
#
# Compressibility (1/GPa) = 0.06696972
#
# Stress axis : x y z
#
# Youngs Moduli (GPa) = 30.74051 36.82427 16.61397
#
# Poissons Ratio (x) = 0.82776 -0.49353
# Poissons Ratio (y) = 0.69100 0.55957
# Poissons Ratio (z) = -0.91317 1.24027
#
# Static dielectric constant tensor:
#      x y z
#    x 1.857900 0.000000 -0.057000 
#    y 0.000000 1.937720 0.000000 
#    z -0.057000 0.000000 2.006070 
# 
# From -- ./inp_files/6657.got.cif
#   From: 2010.05.17/outbox.cif.g08.bks.cpg/sg11_4_cif.got.tgz:6657.got - 2010.06.03 12:22:45.
