data_PCOD9165889
_publ_section_title
;
Structure prediction by ZEFSAII (Michael W. Deem and Ramdas Pophale) SiO2 
 PCOD9165889
Probable space group: P 21/M
;
_chemical_formula_sum "Si O2"
_cell_formula_units_Z 20
_cell_length_a 5.915264
_cell_length_b 14.245021
_cell_length_c 9.710355
_cell_angle_alpha 90.000000
_cell_angle_beta 94.823889
_cell_angle_gamma 90.000000
_cell_volume 815.325980
_symmetry_space_group_name_H-M "P 21/M"
_symmetry_group_IT_number 11
_symmetry_cell_setting 'monoclinic'
loop_
_space_group_symop_operation_xyz
x,y,z
-x,1/2+y,-z
-x,-y,-z
x,1/2-y,z
loop_
_atom_site_type_symbol
_atom_site_label
_atom_site_fract_x
_atom_site_fract_y
_atom_site_fract_z
Si Si1 0.348109 0.250000 0.561299
Si Si2 0.125622 0.250000 0.797165
Si Si3 0.227426 0.250000 0.240636
Si Si4 0.144048 0.920811 0.090170
Si Si5 0.440786 0.750000 0.001144
Si Si6 0.323525 0.447573 0.584404
Si Si7 0.951238 0.556992 0.700354
O O1 0.107503 0.250000 0.631238
O O2 0.347200 0.250000 0.396945
O O3 0.439627 0.348141 0.622302
O O4 0.015395 0.342465 0.851502
O O5 0.377965 0.250000 0.867553
O O6 0.416102 0.250000 0.132573
O O7 0.071801 0.157318 0.226998
O O8 0.215278 0.986148 0.224549
O O9 0.311974 0.851340 0.014406
O O10 0.000000 0.000000 0.000000
O O11 0.500000 0.500000 0.500000
O O12 0.128902 0.423803 0.460070
O O13 0.197354 0.507807 0.694933
#
# Coordination Sequence:
#
# PCOD9165889 Si02
#       7
#     2   2   2   4   2   4   4
#     4  10  21  41  65  96 135 167 226 285 328 411
#     4  11  23  44  68 102 134 174 230 289 337 409
#     4  10  23  43  65  97 141 181 230 281 345 414
#     4  11  25  43  71  97 137 179 230 283 338 412
#     4  11  27  46  70 101 134 186 230 277 352 408
#     4  10  22  39  65  97 132 175 221 277 347 404
#     4  10  22  41  63  95 132 175 221 279 337 399
#
# _framework density 24.530062999999998
#
# number of rings (size 3 to 8) (size 9 to 14) (size 15 to 20)
#    0.000    1.600    2.000    1.200    2.800    8.000 
#    0.000    1.000    0.000    0.000    0.000    0.000 
#    0.000    0.000    0.000    0.000    0.000    0.000 
#
# Total GULP energy -111451.176600 kJ/mol
# GULP energy per Si atom -5572.558830 kJ/mol
# Density = 2.447423 g / cm^3
# Si number density = 24.530063 Si / 1000 Ang^3
#
#
#
# Elastic Constant Matrix: (Units=GPa)
#
#
# Indices 1 2 3 4 5 6 
#
# 1 47.2634 56.3611 37.1194 0.0000 -31.6793 0.0000
# 2 56.3611 269.3938 69.9998 0.0000 -48.8820 0.0000
# 3 37.1194 69.9998 161.3168 0.0000 -35.7923 0.0000
# 4 0.0000 0.0000 0.0000 47.1653 0.0000 3.1534
# 5 -31.6793 -48.8820 -35.7923 0.0000 47.6796 0.0000
# 6 0.0000 0.0000 0.0000 3.1534 0.0000 -4.6767
#
#
#
# Elastic Compliance Matrix: (Units=1/GPa)
#
#
# Indices 1 2 3 4 5 6 
#
# 1 0.043697 -0.004261 -0.003279 0.000000 0.022203 0.000000
# 2 -0.004261 0.005154 -0.000854 0.000000 0.001812 0.000000
# 3 -0.003279 -0.000854 0.007975 0.000000 0.002932 0.000000
# 4 0.000000 0.000000 0.000000 0.020287 0.000000 0.013679
# 5 0.022203 0.001812 0.002932 0.000000 0.039784 0.000000
# 6 0.000000 0.000000 0.000000 0.013679 0.000000 -0.204602
#
#
# Mechanical properties :
#
#
# Convention : Reuss Voigt Hill
#
# Bulk Modulus (GPa) = 24.97725 89.43720 57.20723
# Shear Modulus (GPa) = -86.85022 38.99988 -23.92517
#
# Velocity S-wave (km/s) = -5.95672 3.99166 -3.12643
# Velocity P-wave (km/s) = 6.09143 7.60157 3.21545
#
# Compressibility (1/GPa) = 0.04003643
#
# Stress axis : x y z
#
# Youngs Moduli (GPa) = 22.88492 194.01579 125.39608
#
# Poissons Ratio (x) = 0.82673 0.41124
# Poissons Ratio (y) = 0.09752 0.10709
# Poissons Ratio (z) = 0.07505 0.16570
#
# Static dielectric constant tensor:
#      x y z
#    x 1.982510 0.000000 0.059120 
#    y 0.000000 2.020340 0.000000 
#    z 0.059120 0.000000 2.114710 
# 
# From -- ./inp_files/29618.got.cif
#   From: 2010.05.17/outbox.cif.g08.bks.cpg/sg11_15_cif.got.tgz:29618.got - 2010.06.03 12:22:45.
