data_PCOD9165428
_publ_section_title
;
Structure prediction by ZEFSAII (Michael W. Deem and Ramdas Pophale) SiO2 
 PCOD9165428
Probable space group: P 21/M
;
_chemical_formula_sum "Si O2"
_cell_formula_units_Z 24
_cell_length_a 9.829748
_cell_length_b 21.128605
_cell_length_c 5.231976
_cell_angle_alpha 90.000000
_cell_angle_beta 85.488850
_cell_angle_gamma 90.000000
_cell_volume 1083.256837
_symmetry_space_group_name_H-M "P 21/M"
_symmetry_group_IT_number 11
_symmetry_cell_setting 'monoclinic'
loop_
_space_group_symop_operation_xyz
x,y,z
-x,1/2+y,-z
-x,-y,-z
x,1/2-y,z
loop_
_atom_site_type_symbol
_atom_site_label
_atom_site_fract_x
_atom_site_fract_y
_atom_site_fract_z
Si Si1 0.603375 0.472137 0.282373
Si Si2 0.691411 0.325215 0.691621
Si Si3 0.155875 0.107160 0.103948
Si Si4 0.868201 0.175339 0.152385
Si Si5 0.137223 0.473709 0.596731
Si Si6 0.556793 0.894256 0.048632
O O1 0.500000 0.500000 0.500000
O O2 0.754369 0.470481 0.372810
O O3 0.608177 0.533511 0.094325
O O4 0.540722 0.409114 0.176042
O O5 0.663161 0.250000 0.735556
O O6 0.772661 0.331214 0.415192
O O7 0.548061 0.362745 0.737782
O O8 0.791207 0.347980 0.907157
O O9 0.191584 0.072259 0.365583
O O10 0.017443 0.145701 0.169167
O O11 0.117923 0.062153 0.867911
O O12 0.299497 0.141117 0.008864
O O13 0.889289 0.250000 0.109190
O O14 0.000000 0.500000 0.500000
#
# Coordination Sequence:
#
# PCOD9165428 Si02
#       6
#     4   4   4   4   4   4
#     4  10  21  39  59  87 132 169 205 257 315 371
#     4  10  23  42  66  94 122 163 215 262 317 383
#     4  11  23  41  62  92 125 165 208 260 313 376
#     4  10  23  43  64  92 126 162 209 265 320 372
#     4  11  24  39  59  92 128 164 215 254 306 378
#     4  10  23  39  63  92 128 167 210 258 316 378
#
# _framework density 22.155411000000001
#
# number of rings (size 3 to 8) (size 9 to 14) (size 15 to 20)
#    0.000    1.667    1.667    1.500    4.667    2.000 
#    0.000    0.000    0.000    7.000    0.000    0.000 
#    0.000    0.000    0.000    0.000    0.000    0.000 
#
# Total GULP energy -133919.614061 kJ/mol
# GULP energy per Si atom -5579.983919 kJ/mol
# Density = 2.210498 g / cm^3
# Si number density = 22.155411 Si / 1000 Ang^3
#
#
#
# Elastic Constant Matrix: (Units=GPa)
#
#
# Indices 1 2 3 4 5 6 
#
# 1 180.2101 32.2589 5.5259 0.0000 -2.0713 0.0000
# 2 32.2589 41.2598 4.6688 0.0000 4.1403 0.0000
# 3 5.5259 4.6688 74.8831 0.0000 0.1996 0.0000
# 4 0.0000 0.0000 0.0000 22.3857 0.0000 -4.7156
# 5 -2.0713 4.1403 0.1996 0.0000 37.3518 0.0000
# 6 0.0000 0.0000 0.0000 -4.7156 0.0000 31.3614
#
#
#
# Elastic Compliance Matrix: (Units=1/GPa)
#
#
# Indices 1 2 3 4 5 6 
#
# 1 0.006486 -0.005146 -0.000160 0.000000 0.000931 0.000000
# 2 -0.005146 0.028767 -0.001405 0.000000 -0.003467 0.000000
# 3 -0.000160 -0.001405 0.013453 0.000000 0.000075 0.000000
# 4 0.000000 0.000000 0.000000 0.046133 0.000000 0.006937
# 5 0.000931 -0.003467 0.000075 0.000000 0.027208 0.000000
# 6 0.000000 0.000000 0.000000 0.006937 0.000000 0.032929
#
#
# Mechanical properties :
#
#
# Convention : Reuss Voigt Hill
#
# Bulk Modulus (GPa) = 28.34132 42.36223 35.35178
# Shear Modulus (GPa) = 27.75314 35.14641 31.44977
#
# Velocity S-wave (km/s) = 3.54313 3.98723 3.77172
# Velocity P-wave (km/s) = 5.43674 6.35290 5.91259
#
# Compressibility (1/GPa) = 0.03528417
#
# Stress axis : x y z
#
# Youngs Moduli (GPa) = 154.18027 34.76195 74.33091
#
# Poissons Ratio (x) = 0.17889 0.01191
# Poissons Ratio (y) = 0.79346 0.10440
# Poissons Ratio (z) = 0.02471 0.04883
#
# Static dielectric constant tensor:
#      x y z
#    x 1.889700 0.000000 0.024140 
#    y 0.000000 1.928370 0.000000 
#    z 0.024140 0.000000 1.894990 
# 
# From -- ./inp_files/2721.got.cif
#   From: 2010.05.17/outbox.cif.g08.bks.cpg/sg11_2_cif.got.tgz:2721.got - 2010.06.03 12:22:45.
