data_PCOD9165489
_publ_section_title
;
Structure prediction by ZEFSAII (Michael W. Deem and Ramdas Pophale) SiO2 
 PCOD9165489
Probable space group: P 21/M
;
_chemical_formula_sum "Si O2"
_cell_formula_units_Z 32
_cell_length_a 15.693037
_cell_length_b 19.364981
_cell_length_c 15.730037
_cell_angle_alpha 90.000000
_cell_angle_beta 19.114404
_cell_angle_gamma 90.000000
_cell_volume 1565.330459
_symmetry_space_group_name_H-M "P 21/M"
_symmetry_group_IT_number 11
_symmetry_cell_setting 'monoclinic'
loop_
_space_group_symop_operation_xyz
x,y,z
-x,1/2+y,-z
-x,-y,-z
x,1/2-y,z
loop_
_atom_site_type_symbol
_atom_site_label
_atom_site_fract_x
_atom_site_fract_y
_atom_site_fract_z
Si Si1 0.730908 0.089533 0.284118
Si Si2 0.109419 0.962266 0.479657
Si Si3 0.491100 0.171380 0.765540
Si Si4 0.557940 0.332619 0.071778
Si Si5 0.183497 0.438565 0.725374
Si Si6 0.399620 0.121811 0.031244
Si Si7 0.100687 0.092634 0.606229
Si Si8 0.048949 0.667863 0.774252
O O1 0.437835 0.096297 0.527515
O O2 0.822591 0.151504 0.257240
O O3 0.761881 0.020290 0.312408
O O4 0.926988 0.079844 0.020824
O O5 0.402864 0.939868 0.180708
O O6 0.100337 0.016966 0.563877
O O7 0.000000 0.000000 0.500000
O O8 0.901155 0.900598 0.686927
O O9 0.503908 0.250000 0.722417
O O10 0.452848 0.171983 0.902108
O O11 0.757215 0.139522 0.480835
O O12 0.237751 0.136024 0.964198
O O13 0.577867 0.250000 0.062142
O O14 0.481475 0.350392 0.046069
O O15 0.828973 0.369576 0.840409
O O16 0.331859 0.363916 0.344301
O O17 0.146373 0.416793 0.663299
O O18 0.014076 0.750000 0.794984
#
# Coordination Sequence:
#
# PCOD9165489 Si02
#       8
#     4   4   4   4   4   4   4   4
#     4  10  21  42  62  92 118 158 201 248 323 373
#     4  12  23  41  61  94 126 159 198 262 306 360
#     4  10  22  37  57  91 127 160 203 243 289 370
#     4  12  25  44  65  87 128 174 213 257 301 353
#     4  10  23  40  64  88 123 154 202 261 304 377
#     4  12  23  39  63  91 125 168 207 246 303 364
#     4  12  25  43  65  95 127 160 211 257 314 363
#     4  10  21  39  61  89 125 159 199 253 307 373
#
# _framework density 20.442966999999999
#
# number of rings (size 3 to 8) (size 9 to 14) (size 15 to 20)
#    0.000    1.000    2.500    4.125    3.500    0.000 
#    0.000    7.500    0.000    0.000    0.000    0.000 
#    0.000    0.000    0.000    0.000    0.000    0.000 
#
# Total GULP energy -178799.336356 kJ/mol
# GULP energy per Si atom -5587.479261 kJ/mol
# Density = 2.039644 g / cm^3
# Si number density = 20.442967 Si / 1000 Ang^3
#
#
#
# Elastic Constant Matrix: (Units=GPa)
#
#
# Indices 1 2 3 4 5 6 
#
# 1 113.8508 26.3201 24.7421 0.0000 -2.5109 0.0000
# 2 26.3201 40.2005 28.5397 0.0000 -0.7725 0.0000
# 3 24.7421 28.5397 82.3883 0.0000 -14.1088 0.0000
# 4 0.0000 0.0000 0.0000 19.3645 0.0000 3.7052
# 5 -2.5109 -0.7725 -14.1088 0.0000 31.4313 0.0000
# 6 0.0000 0.0000 0.0000 3.7052 0.0000 25.9855
#
#
#
# Elastic Compliance Matrix: (Units=1/GPa)
#
#
# Indices 1 2 3 4 5 6 
#
# 1 0.010415 -0.006132 -0.000961 0.000000 0.000250 0.000000
# 2 -0.006132 0.037246 -0.011903 0.000000 -0.004917 0.000000
# 3 -0.000961 -0.011903 0.017859 0.000000 0.007647 0.000000
# 4 0.000000 0.000000 0.000000 0.053089 0.000000 -0.007570
# 5 0.000250 -0.004917 0.007647 0.000000 0.035147 0.000000
# 6 0.000000 0.000000 0.000000 -0.007570 0.000000 0.039562
#
#
# Mechanical properties :
#
#
# Convention : Reuss Voigt Hill
#
# Bulk Modulus (GPa) = 36.32571 43.96038 40.14305
# Shear Modulus (GPa) = 20.79117 25.81210 23.30164
#
# Velocity S-wave (km/s) = 3.19256 3.55722 3.37981
# Velocity P-wave (km/s) = 5.60337 6.19858 5.90847
#
# Compressibility (1/GPa) = 0.02752871
#
# Stress axis : x y z
#
# Youngs Moduli (GPa) = 96.01171 26.84865 55.99455
#
# Poissons Ratio (x) = 0.16464 0.05380
# Poissons Ratio (y) = 0.58877 0.66648
# Poissons Ratio (z) = 0.09225 0.31957
#
# Static dielectric constant tensor:
#      x y z
#    x 1.931020 0.000000 -0.321470 
#    y 0.000000 1.771470 0.000000 
#    z -0.321470 0.000000 2.161920 
# 
# From -- ./inp_files/52687.got.cif
#   From: 2010.05.17/outbox.cif.g08.bks.cpg/sg11_27_cif.got.tgz:52687.got - 2010.06.03 12:22:45.
