data_PCOD9165688
_publ_section_title
;
Structure prediction by ZEFSAII (Michael W. Deem and Ramdas Pophale) SiO2 
 PCOD9165688
Probable space group: P 21/M
;
_chemical_formula_sum "Si O2"
_cell_formula_units_Z 20
_cell_length_a 12.738098
_cell_length_b 13.425277
_cell_length_c 18.509500
_cell_angle_alpha 90.000000
_cell_angle_beta 161.438978
_cell_angle_gamma 90.000000
_cell_volume 1007.578554
_symmetry_space_group_name_H-M "P 21/M"
_symmetry_group_IT_number 11
_symmetry_cell_setting 'monoclinic'
loop_
_space_group_symop_operation_xyz
x,y,z
-x,1/2+y,-z
-x,-y,-z
x,1/2-y,z
loop_
_atom_site_type_symbol
_atom_site_label
_atom_site_fract_x
_atom_site_fract_y
_atom_site_fract_z
Si Si1 0.888777 0.369649 0.129523
Si Si2 0.673687 0.471937 0.242639
Si Si3 0.479506 0.132198 0.256503
Si Si4 0.137980 0.868227 0.052270
Si Si5 0.831444 0.542834 0.549134
O O1 0.858416 0.250000 0.120610
O O2 0.133679 0.419266 0.346923
O O3 0.548689 0.431366 0.916344
O O4 0.988900 0.387700 0.111592
O O5 0.491714 0.399365 0.180323
O O6 0.000000 0.500000 0.500000
O O7 0.829668 0.428777 0.271094
O O8 0.520654 0.250000 0.290178
O O9 0.757705 0.073348 0.484427
O O10 0.129569 0.100606 0.062901
O O11 0.166726 0.750000 0.078039
O O12 0.506107 0.908848 0.301875
#
# Coordination Sequence:
#
# PCOD9165688 Si02
#       5
#     4   4   4   4   4
#     4  11  23  39  64  93 121 156 204 253 300 360
#     4  10  21  40  61  89 118 159 201 245 304 356
#     4  10  22  40  62  89 126 164 200 248 302 353
#     4  10  21  40  63  90 122 162 203 246 302 359
#     4  11  22  40  65  91 121 161 205 246 302 360
#
# _framework density 19.849568000000001
#
# number of rings (size 3 to 8) (size 9 to 14) (size 15 to 20)
#    0.000    1.600    4.000    1.800    0.000    5.600 
#    0.000    1.000    0.000    0.000    0.000    0.000 
#    0.000    0.000    0.000    0.000    0.000    0.000 
#
# Total GULP energy -111494.165155 kJ/mol
# GULP energy per Si atom -5574.708258 kJ/mol
# Density = 1.980439 g / cm^3
# Si number density = 19.849568 Si / 1000 Ang^3
#
#
#
# Elastic Constant Matrix: (Units=GPa)
#
#
# Indices 1 2 3 4 5 6 
#
# 1 116.2584 61.4164 42.0673 0.0000 20.5157 0.0000
# 2 61.4164 102.2693 42.0371 0.0000 -3.8215 0.0000
# 3 42.0673 42.0371 46.2189 0.0000 -3.1799 0.0000
# 4 0.0000 0.0000 0.0000 29.5630 0.0000 -3.6178
# 5 20.5157 -3.8215 -3.1799 0.0000 39.7344 0.0000
# 6 0.0000 0.0000 0.0000 -3.6178 0.0000 21.6647
#
#
#
# Elastic Compliance Matrix: (Units=1/GPa)
#
#
# Indices 1 2 3 4 5 6 
#
# 1 0.018076 -0.006694 -0.011112 0.000000 -0.010866 0.000000
# 2 -0.006694 0.018101 -0.010068 0.000000 0.004391 0.000000
# 3 -0.011112 -0.010068 0.041463 0.000000 0.008087 0.000000
# 4 0.000000 0.000000 0.000000 0.034532 0.000000 0.005766
# 5 -0.010866 0.004391 0.008087 0.000000 0.031847 0.000000
# 6 0.000000 0.000000 0.000000 0.005766 0.000000 0.047121
#
#
# Mechanical properties :
#
#
# Convention : Reuss Voigt Hill
#
# Bulk Modulus (GPa) = 45.67772 61.75424 53.71598
# Shear Modulus (GPa) = 19.67078 26.14080 22.90579
#
# Velocity S-wave (km/s) = 3.15142 3.63291 3.40070
# Velocity P-wave (km/s) = 6.02527 6.98399 6.52227
#
# Compressibility (1/GPa) = 0.02189251
#
# Stress axis : x y z
#
# Youngs Moduli (GPa) = 55.32224 55.24697 24.11777
#
# Poissons Ratio (x) = 0.36982 0.26799
# Poissons Ratio (y) = 0.37032 0.24282
# Poissons Ratio (z) = 0.61472 0.55623
#
# Static dielectric constant tensor:
#      x y z
#    x 1.780690 0.000000 0.031070 
#    y 0.000000 1.734330 0.000000 
#    z 0.031070 0.000000 1.673700 
# 
# From -- ./inp_files/41459.got.cif
#   From: 2010.05.17/outbox.cif.g08.bks.cpg/sg11_21_cif.got.tgz:41459.got - 2010.06.03 12:22:45.
