data_PCOD9165530
_publ_section_title
;
Structure prediction by ZEFSAII (Michael W. Deem and Ramdas Pophale) SiO2 
 PCOD9165530
Probable space group: P 21/M
;
_chemical_formula_sum "Si O2"
_cell_formula_units_Z 24
_cell_length_a 12.347911
_cell_length_b 21.304086
_cell_length_c 6.737818
_cell_angle_alpha 90.000000
_cell_angle_beta 132.730753
_cell_angle_gamma 90.000000
_cell_volume 1301.959058
_symmetry_space_group_name_H-M "P 21/M"
_symmetry_group_IT_number 11
_symmetry_cell_setting 'monoclinic'
loop_
_space_group_symop_operation_xyz
x,y,z
-x,1/2+y,-z
-x,-y,-z
x,1/2-y,z
loop_
_atom_site_type_symbol
_atom_site_label
_atom_site_fract_x
_atom_site_fract_y
_atom_site_fract_z
Si Si1 0.636721 0.086134 0.673761
Si Si2 0.201197 0.383060 0.632017
Si Si3 0.978990 0.074459 0.017623
Si Si4 0.410770 0.322139 0.567303
Si Si5 0.424581 0.027207 0.102054
Si Si6 0.869122 0.821284 0.062706
O O1 0.807897 0.089753 0.837599
O O2 0.560221 0.144435 0.687349
O O3 0.540792 0.071843 0.358305
O O4 0.613986 0.027527 0.792768
O O5 0.329092 0.356090 0.648196
O O6 0.143214 0.332654 0.717962
O O7 0.277203 0.437060 0.856257
O O8 0.074103 0.408896 0.331261
O O9 0.039255 0.122023 0.923141
O O10 0.000000 0.000000 0.000000
O O11 0.434904 0.250000 0.647341
O O12 0.292660 0.325694 0.239900
O O13 0.500000 0.000000 0.000000
O O14 0.923266 0.750000 0.087127
#
# Coordination Sequence:
#
# PCOD9165530 Si02
#       6
#     4   4   4   4   4   4
#     4  11  23  38  60  91 123 156 195 254 312 353
#     4  11  21  40  65  89 119 165 208 248 302 374
#     4  11  25  40  62  94 130 161 204 258 315 365
#     4  10  21  39  62  89 120 158 205 254 303 362
#     4  11  21  36  63  89 122 154 201 248 304 362
#     4  10  22  42  64  87 122 170 211 249 306 378
#
# _framework density 18.433758999999998
#
# number of rings (size 3 to 8) (size 9 to 14) (size 15 to 20)
#    0.000    1.333    3.333    2.500    4.667    5.333 
#    0.000    0.000    0.000    0.000    0.000    0.000 
#    0.000    0.000    0.000    0.000    0.000    0.000 
#
# Total GULP energy -134015.673112 kJ/mol
# GULP energy per Si atom -5583.986380 kJ/mol
# Density = 1.839180 g / cm^3
# Si number density = 18.433759 Si / 1000 Ang^3
#
#
#
# Elastic Constant Matrix: (Units=GPa)
#
#
# Indices 1 2 3 4 5 6 
#
# 1 101.3012 33.0760 23.2776 0.0000 11.2509 0.0000
# 2 33.0760 92.4802 9.8340 0.0000 0.2383 0.0000
# 3 23.2776 9.8340 70.3507 0.0000 -11.8993 0.0000
# 4 0.0000 0.0000 0.0000 24.4801 0.0000 -0.0973
# 5 11.2509 0.2383 -11.8993 0.0000 31.3080 0.0000
# 6 0.0000 0.0000 0.0000 -0.0973 0.0000 27.3356
#
#
#
# Elastic Compliance Matrix: (Units=1/GPa)
#
#
# Indices 1 2 3 4 5 6 
#
# 1 0.013057 -0.004138 -0.004841 0.000000 -0.006501 0.000000
# 2 -0.004138 0.012303 -0.000123 0.000000 0.001347 0.000000
# 3 -0.004841 -0.000123 0.017236 0.000000 0.008292 0.000000
# 4 0.000000 0.000000 0.000000 0.040850 0.000000 0.000145
# 5 -0.006501 0.001347 0.008292 0.000000 0.037418 0.000000
# 6 0.000000 0.000000 0.000000 0.000145 0.000000 0.036583
#
#
# Mechanical properties :
#
#
# Convention : Reuss Voigt Hill
#
# Bulk Modulus (GPa) = 40.99845 44.05636 42.52740
# Shear Modulus (GPa) = 27.20604 29.82105 28.51355
#
# Velocity S-wave (km/s) = 3.84589 4.02648 3.93722
# Velocity P-wave (km/s) = 6.48154 6.75044 6.61736
#
# Compressibility (1/GPa) = 0.02439117
#
# Stress axis : x y z
#
# Youngs Moduli (GPa) = 76.58536 81.28212 58.01783
#
# Poissons Ratio (x) = 0.33638 0.28089
# Poissons Ratio (y) = 0.31694 0.00711
# Poissons Ratio (z) = 0.37079 0.00996
#
# Static dielectric constant tensor:
#      x y z
#    x 1.624340 0.000000 -0.018080 
#    y 0.000000 1.657900 0.000000 
#    z -0.018080 0.000000 1.626730 
# 
# From -- ./inp_files/2710.got.cif
#   From: 2010.05.17/outbox.cif.g08.bks.cpg/sg11_2_cif.got.tgz:2710.got - 2010.06.03 12:22:45.
