data_PCOD9165191
_publ_section_title
;
Structure prediction by ZEFSAII (Michael W. Deem and Ramdas Pophale) SiO2 
 PCOD9165191
Probable space group: P 21/M
;
_chemical_formula_sum "Si O2"
_cell_formula_units_Z 32
_cell_length_a 15.997928
_cell_length_b 8.148591
_cell_length_c 24.681000
_cell_angle_alpha 90.000000
_cell_angle_beta 29.833380
_cell_angle_gamma 90.000000
_cell_volume 1600.604881
_symmetry_space_group_name_H-M "P 21/M"
_symmetry_group_IT_number 11
_symmetry_cell_setting 'monoclinic'
loop_
_space_group_symop_operation_xyz
x,y,z
-x,1/2+y,-z
-x,-y,-z
x,1/2-y,z
loop_
_atom_site_type_symbol
_atom_site_label
_atom_site_fract_x
_atom_site_fract_y
_atom_site_fract_z
Si Si1 0.096048 0.444269 0.652487
Si Si2 0.058455 0.551006 0.145475
Si Si3 0.466114 0.939232 0.459107
Si Si4 0.044138 0.945983 0.561724
Si Si5 0.183828 0.064682 0.910034
Si Si6 0.375323 0.939333 0.901827
Si Si7 0.265972 0.051398 0.341382
Si Si8 0.763104 0.065267 0.229656
O O1 0.128770 0.250000 0.640126
O O2 0.271127 0.540022 0.556675
O O3 0.028853 0.477032 0.629881
O O4 0.985473 0.492715 0.767512
O O5 0.057246 0.750000 0.141891
O O6 0.911386 0.487544 0.187728
O O7 0.241977 0.492609 0.021027
O O8 0.518401 0.750000 0.423240
O O9 0.500000 0.000000 0.500000
O O10 0.584655 0.056163 0.358324
O O11 0.042390 0.750000 0.568553
O O12 0.884776 0.996122 0.614453
O O13 0.208803 0.992962 0.433399
O O14 0.185758 0.250000 0.929752
O O15 0.271566 0.950967 0.904418
O O16 0.262246 0.052907 0.806921
O O17 0.000000 0.000000 0.000000
O O18 0.405776 0.750000 0.900217
O O19 0.557642 0.010779 0.782981
O O20 0.274479 0.250000 0.339233
O O21 0.799889 0.250000 0.190213
#
# Coordination Sequence:
#
# PCOD9165191 Si02
#       8
#     4   4   4   4   4   4   4   4
#     4  11  23  39  60  87 119 157 201 245 296 356
#     4  10  21  38  60  83 116 158 201 246 293 347
#     4  12  24  39  58  84 118 157 201 247 295 350
#     4  10  21  39  63  90 120 153 192 243 301 359
#     4  12  24  38  56  83 119 158 202 247 295 351
#     4  10  21  39  62  87 116 153 200 248 300 355
#     4   9  20  40  65  90 118 152 192 242 302 363
#     4  12  24  38  57  81 115 159 202 248 299 349
#
# _framework density 19.992440999999999
#
# number of rings (size 3 to 8) (size 9 to 14) (size 15 to 20)
#    0.000    1.250    2.500    4.125    1.750    1.500 
#    0.000    0.625    0.000    0.000    0.000    0.000 
#    0.000    0.000    0.000    0.000    0.000    0.000 
#
# Total GULP energy -178549.082551 kJ/mol
# GULP energy per Si atom -5579.658830 kJ/mol
# Density = 1.994694 g / cm^3
# Si number density = 19.992441 Si / 1000 Ang^3
#
#
#
# Elastic Constant Matrix: (Units=GPa)
#
#
# Indices 1 2 3 4 5 6 
#
# 1 67.3210 -2.2602 33.2370 0.0000 14.6699 0.0000
# 2 -2.2602 53.6806 3.0223 0.0000 1.1362 0.0000
# 3 33.2370 3.0223 154.2148 0.0000 10.8743 0.0000
# 4 0.0000 0.0000 0.0000 20.7227 0.0000 3.0614
# 5 14.6699 1.1362 10.8743 0.0000 31.9500 0.0000
# 6 0.0000 0.0000 0.0000 3.0614 0.0000 23.6669
#
#
#
# Elastic Compliance Matrix: (Units=1/GPa)
#
#
# Indices 1 2 3 4 5 6 
#
# 1 0.018154 0.001110 -0.003426 0.000000 -0.007209 0.000000
# 2 0.001110 0.018727 -0.000536 0.000000 -0.000993 0.000000
# 3 -0.003426 -0.000536 0.007296 0.000000 -0.000891 0.000000
# 4 0.000000 0.000000 0.000000 0.049196 0.000000 -0.006364
# 5 -0.007209 -0.000993 -0.000891 0.000000 0.034947 0.000000
# 6 0.000000 0.000000 0.000000 -0.006364 0.000000 0.043076
#
#
# Mechanical properties :
#
#
# Convention : Reuss Voigt Hill
#
# Bulk Modulus (GPa) = 25.99300 38.13497 32.06399
# Shear Modulus (GPa) = 26.32613 31.34908 28.83760
#
# Velocity S-wave (km/s) = 3.63272 3.96415 3.80205
# Velocity P-wave (km/s) = 5.53400 6.32999 5.94533
#
# Compressibility (1/GPa) = 0.03847189
#
# Stress axis : x y z
#
# Youngs Moduli (GPa) = 55.08496 53.39985 137.05775
#
# Poissons Ratio (x) = -0.05926 0.46956
# Poissons Ratio (y) = -0.06113 0.07349
# Poissons Ratio (z) = 0.18872 0.02863
#
# Static dielectric constant tensor:
#      x y z
#    x 1.644140 0.000000 0.015050 
#    y 0.000000 1.689450 0.000000 
#    z 0.015050 0.000000 1.749330 
# 
# From -- ./inp_files/69039.got.cif
#   From: 2010.05.17/outbox.cif.g08.bks.cpg/sg11_35_cif.got.tgz:69039.got - 2010.06.03 12:22:45.
