data_PCOD9165210
_publ_section_title
;
Structure prediction by ZEFSAII (Michael W. Deem and Ramdas Pophale) SiO2 
 PCOD9165210
Probable space group: P 21/M
;
_chemical_formula_sum "Si O2"
_cell_formula_units_Z 32
_cell_length_a 16.066871
_cell_length_b 14.270600
_cell_length_c 12.806135
_cell_angle_alpha 90.000000
_cell_angle_beta 151.299350
_cell_angle_gamma 90.000000
_cell_volume 1410.080871
_symmetry_space_group_name_H-M "P 21/M"
_symmetry_group_IT_number 11
_symmetry_cell_setting 'monoclinic'
loop_
_space_group_symop_operation_xyz
x,y,z
-x,1/2+y,-z
-x,-y,-z
x,1/2-y,z
loop_
_atom_site_type_symbol
_atom_site_label
_atom_site_fract_x
_atom_site_fract_y
_atom_site_fract_z
Si Si1 0.708370 0.857435 0.429002
Si Si2 0.885851 0.969155 0.278275
Si Si3 0.414097 0.858844 0.663791
Si Si4 0.035228 0.863936 0.246814
Si Si5 0.889637 0.362927 0.142567
Si Si6 0.567266 0.601902 0.045907
Si Si7 0.540198 0.363855 0.661786
Si Si8 0.671881 0.863928 0.773003
O O1 0.730227 0.750000 0.485192
O O2 0.624350 0.857692 0.220658
O O3 0.570685 0.898174 0.359780
O O4 0.908446 0.891794 0.650861
O O5 0.738316 0.905105 0.164610
O O6 0.988109 0.909019 0.305908
O O7 0.824631 0.068134 0.162321
O O8 0.000000 0.000000 0.500000
O O9 0.410278 0.750000 0.630387
O O10 0.226304 0.897423 0.426123
O O11 0.573978 0.896721 0.770959
O O12 0.434019 0.861150 0.811634
O O13 0.037801 0.750000 0.257303
O O14 0.873098 0.891995 0.995920
O O15 0.884815 0.250000 0.159898
O O16 0.745837 0.383299 0.895655
O O17 0.500000 0.500000 0.000000
O O18 0.534274 0.250000 0.656070
O O19 0.440986 0.395084 0.449225
O O20 0.676255 0.750000 0.776296
#
# Coordination Sequence:
#
# PCOD9165210 Si02
#       8
#     4   4   4   4   4   4   4   4
#     4  10  21  38  60  86 121 162 204 253 310 370
#     4  12  23  39  61  92 125 167 209 255 310 373
#     4  10  21  38  61  91 123 160 206 253 310 376
#     4  10  22  39  62  92 127 164 205 255 312 370
#     4  10  22  40  61  88 123 164 209 258 310 371
#     4  12  23  37  60  87 123 164 203 258 313 371
#     4   9  19  37  63  92 121 160 213 261 308 365
#     4   9  18  37  64  92 123 161 206 260 311 365
#
# _framework density 22.693733000000002
#
# number of rings (size 3 to 8) (size 9 to 14) (size 15 to 20)
#    0.000    1.750    2.500    1.875    0.000    2.000 
#    0.000    8.750    0.000    1.500    0.000    0.000 
#    0.000    0.000    0.000    0.000    0.000    0.000 
#
# Total GULP energy -178457.867055 kJ/mol
# GULP energy per Si atom -5576.808345 kJ/mol
# Density = 2.264208 g / cm^3
# Si number density = 22.693733 Si / 1000 Ang^3
#
#
#
# Elastic Constant Matrix: (Units=GPa)
#
#
# Indices 1 2 3 4 5 6 
#
# 1 60.5705 -5.3062 39.7063 0.0000 -3.7249 0.0000
# 2 -5.3062 52.3694 3.4201 0.0000 7.5707 0.0000
# 3 39.7063 3.4201 184.8249 0.0000 -9.5089 0.0000
# 4 0.0000 0.0000 0.0000 -4.0321 0.0000 18.1236
# 5 -3.7249 7.5707 -9.5089 0.0000 32.5377 0.0000
# 6 0.0000 0.0000 0.0000 18.1236 0.0000 11.5755
#
#
#
# Elastic Compliance Matrix: (Units=1/GPa)
#
#
# Indices 1 2 3 4 5 6 
#
# 1 0.019485 0.002177 -0.004201 0.000000 0.000496 0.000000
# 2 0.002177 0.020071 -0.001083 0.000000 -0.004737 0.000000
# 3 -0.004201 -0.001083 0.006418 0.000000 0.001647 0.000000
# 4 0.000000 0.000000 0.000000 -0.030856 0.000000 0.048312
# 5 0.000496 -0.004737 0.001647 0.000000 0.032374 0.000000
# 6 0.000000 0.000000 0.000000 0.048312 0.000000 0.010748
#
#
# Mechanical properties :
#
#
# Convention : Reuss Voigt Hill
#
# Bulk Modulus (GPa) = 25.15077 41.48948 33.32012
# Shear Modulus (GPa) = 64.34525 25.34586 44.84556
#
# Velocity S-wave (km/s) = 5.33060 3.34558 4.45018
# Velocity P-wave (km/s) = 6.99956 5.76593 6.41248
#
# Compressibility (1/GPa) = 0.03976022
#
# Stress axis : x y z
#
# Youngs Moduli (GPa) = 51.32260 49.82259 155.81878
#
# Poissons Ratio (x) = -0.10845 0.65454
# Poissons Ratio (y) = -0.11172 0.16872
# Poissons Ratio (z) = 0.21559 0.05395
#
# Static dielectric constant tensor:
#      x y z
#    x 1.714000 0.000000 0.188870 
#    y 0.000000 1.874610 0.000000 
#    z 0.188870 0.000000 1.601860 
# 
# From -- ./inp_files/40031.got.cif
#   From: 2010.05.17/outbox.cif.g08.bks.cpg/sg11_21_cif.got.tgz:40031.got - 2010.06.03 12:22:45.
