data_PCOD9165751
_publ_section_title
;
Structure prediction by ZEFSAII (Michael W. Deem and Ramdas Pophale) SiO2 
 PCOD9165751
Probable space group: P 21/M
;
_chemical_formula_sum "Si O2"
_cell_formula_units_Z 30
_cell_length_a 14.520264
_cell_length_b 9.209407
_cell_length_c 22.171548
_cell_angle_alpha 90.000000
_cell_angle_beta 148.734549
_cell_angle_gamma 90.000000
_cell_volume 1538.766489
_symmetry_space_group_name_H-M "P 21/M"
_symmetry_group_IT_number 11
_symmetry_cell_setting 'monoclinic'
loop_
_space_group_symop_operation_xyz
x,y,z
-x,1/2+y,-z
-x,-y,-z
x,1/2-y,z
loop_
_atom_site_type_symbol
_atom_site_label
_atom_site_fract_x
_atom_site_fract_y
_atom_site_fract_z
Si Si1 0.354249 0.918940 0.331128
Si Si2 0.749578 0.574538 0.523589
Si Si3 0.322130 0.479579 0.971713
Si Si4 0.522318 0.916644 0.813315
Si Si5 0.823139 0.926170 0.426392
Si Si6 0.929813 0.924341 0.745536
Si Si7 0.187307 0.581016 0.104100
Si Si8 0.547660 0.750000 0.049624
O O1 0.359347 0.750000 0.354370
O O2 0.555118 0.975705 0.436118
O O3 0.268790 0.920594 0.216795
O O4 0.232027 0.012210 0.306499
O O5 0.737362 0.750000 0.514917
O O6 0.796640 0.531475 0.481958
O O7 0.892354 0.537342 0.654462
O O8 0.420004 0.415503 0.084882
O O9 0.341531 0.375075 0.925677
O O10 0.424007 0.625364 0.012104
O O11 0.116488 0.510343 0.870503
O O12 0.496988 0.750000 0.778731
O O13 0.344689 0.009497 0.703281
O O14 0.677225 0.995986 0.862919
O O15 0.829729 0.750000 0.425565
O O16 0.000000 0.000000 0.500000
O O17 0.934486 0.750000 0.753356
O O18 0.169199 0.750000 0.075321
O O19 0.000000 0.500000 0.000000
#
# Coordination Sequence:
#
# PCOD9165751 Si02
#       8
#     4   4   4   4   4   4   4   2
#     4  10  21  40  64  90 130 171 212 264 328 393
#     4   9  20  43  65  91 132 172 211 262 326 389
#     4  11  24  44  66  97 130 169 221 272 336 394
#     4  12  25  43  68  96 135 175 222 280 333 399
#     4  11  24  45  70 100 134 177 224 276 336 399
#     4  11  23  39  66  98 130 170 217 267 325 396
#     4  11  23  39  64  95 132 176 220 272 337 400
#     4  10  24  44  66  88 130 172 214 270 334 390
#
# _framework density 19.496134999999999
#
# number of rings (size 3 to 8) (size 9 to 14) (size 15 to 20)
#    0.000    1.333    2.667    2.400    2.800    5.333 
#    2.400    1.333    0.000    0.000    0.000    0.000 
#    0.000    0.000    0.000    0.000    0.000    0.000 
#
# Total GULP energy -167074.335571 kJ/mol
# GULP energy per Si atom -5569.144519 kJ/mol
# Density = 1.945176 g / cm^3
# Si number density = 19.496135 Si / 1000 Ang^3
#
#
#
# Elastic Constant Matrix: (Units=GPa)
#
#
# Indices 1 2 3 4 5 6 
#
# 1 90.2779 32.3459 37.3314 0.0000 30.2487 0.0000
# 2 32.3459 117.2134 32.0779 0.0000 14.5377 0.0000
# 3 37.3314 32.0779 73.5502 0.0000 23.1388 0.0000
# 4 0.0000 0.0000 0.0000 19.2636 0.0000 22.6143
# 5 30.2487 14.5377 23.1388 0.0000 29.6080 0.0000
# 6 0.0000 0.0000 0.0000 22.6143 0.0000 70.8458
#
#
#
# Elastic Compliance Matrix: (Units=1/GPa)
#
#
# Indices 1 2 3 4 5 6 
#
# 1 0.018350 -0.002220 -0.003700 0.000000 -0.014765 0.000000
# 2 -0.002220 0.010040 -0.003202 0.000000 -0.000160 0.000000
# 3 -0.003700 -0.003202 0.020138 0.000000 -0.010385 0.000000
# 4 0.000000 0.000000 0.000000 0.083022 0.000000 -0.026501
# 5 -0.014765 -0.000160 -0.010385 0.000000 0.057053 0.000000
# 6 0.000000 0.000000 0.000000 -0.026501 0.000000 0.022574
#
#
# Mechanical properties :
#
#
# Convention : Reuss Voigt Hill
#
# Bulk Modulus (GPa) = 33.02144 53.83911 43.43028
# Shear Modulus (GPa) = 20.87542 35.89592 28.38567
#
# Velocity S-wave (km/s) = 3.27578 4.29555 3.81985
# Velocity P-wave (km/s) = 5.59302 7.23032 6.46372
#
# Compressibility (1/GPa) = 0.03028335
#
# Stress axis : x y z
#
# Youngs Moduli (GPa) = 54.49727 99.60078 49.65719
#
# Poissons Ratio (x) = 0.22109 0.18375
# Poissons Ratio (y) = 0.12097 0.15900
# Poissons Ratio (z) = 0.20166 0.31892
#
# Static dielectric constant tensor:
#      x y z
#    x 1.664000 0.000000 -0.022450 
#    y 0.000000 1.678640 0.000000 
#    z -0.022450 0.000000 1.686900 
# 
# From -- ./inp_files/68903.got.cif
#   From: 2010.05.17/outbox.cif.g08.bks.cpg/sg11_35_cif.got.tgz:68903.got - 2010.06.03 12:22:45.
