data_PCOD9165096
_publ_section_title
;
Structure prediction by ZEFSAII (Michael W. Deem and Ramdas Pophale) SiO2 
 PCOD9165096
Probable space group: P 21/M
;
_chemical_formula_sum "Si O2"
_cell_formula_units_Z 28
_cell_length_a 9.199047
_cell_length_b 14.663652
_cell_length_c 14.792699
_cell_angle_alpha 90.000000
_cell_angle_beta 49.239051
_cell_angle_gamma 90.000000
_cell_volume 1511.404713
_symmetry_space_group_name_H-M "P 21/M"
_symmetry_group_IT_number 11
_symmetry_cell_setting 'monoclinic'
loop_
_space_group_symop_operation_xyz
x,y,z
-x,1/2+y,-z
-x,-y,-z
x,1/2-y,z
loop_
_atom_site_type_symbol
_atom_site_label
_atom_site_fract_x
_atom_site_fract_y
_atom_site_fract_z
Si Si1 0.107647 0.357059 0.173688
Si Si2 0.885451 0.641794 0.616506
Si Si3 0.468622 0.020668 0.235925
Si Si4 0.886612 0.003414 0.141445
Si Si5 0.953055 0.355607 0.790519
Si Si6 0.527826 0.143294 0.037529
Si Si7 0.813647 0.358268 0.658694
O O1 0.071578 0.250000 0.178661
O O2 0.085126 0.380818 0.289292
O O3 0.332936 0.374890 0.061385
O O4 0.972211 0.413317 0.164050
O O5 0.843656 0.750000 0.628232
O O6 0.704152 0.583763 0.656279
O O7 0.072060 0.624902 0.480388
O O8 0.661088 0.012863 0.215260
O O9 0.526676 0.073115 0.120433
O O10 0.370893 0.922568 0.260404
O O11 0.933564 0.916394 0.184730
O O12 0.000000 0.000000 0.000000
O O13 0.006669 0.250000 0.778750
O O14 0.957977 0.381050 0.682963
O O15 0.726470 0.365101 0.905131
O O16 0.512420 0.250000 0.074658
O O17 0.768607 0.250000 0.684593
#
# Coordination Sequence:
#
# PCOD9165096 Si02
#       7
#     4   4   4   4   4   4   4
#     4   9  20  37  60  83 110 146 193 242 279 324
#     4   9  19  41  66  88 108 140 197 251 282 321
#     4  11  21  35  59  84 118 150 189 230 286 337
#     4  12  25  36  51  85 125 157 181 221 288 349
#     4  10  21  38  57  80 114 153 192 235 284 340
#     4   9  18  35  59  83 106 146 199 245 279 323
#     4  10  22  39  63  86 109 147 194 241 289 335
#
# _framework density 18.525811999999998
#
# number of rings (size 3 to 8) (size 9 to 14) (size 15 to 20)
#    0.000    2.000    1.429    3.429    2.000    3.429 
#    0.000    2.857    0.000    5.143    0.000    0.000 
#    0.000    0.000    0.000    0.000    0.000    0.000 
#
# Total GULP energy -156298.389897 kJ/mol
# GULP energy per Si atom -5582.085353 kJ/mol
# Density = 1.848365 g / cm^3
# Si number density = 18.525812 Si / 1000 Ang^3
#
#
#
# Elastic Constant Matrix: (Units=GPa)
#
#
# Indices 1 2 3 4 5 6 
#
# 1 160.1622 78.8284 34.2650 0.0000 -4.1376 0.0000
# 2 78.8284 93.4219 30.2181 0.0000 -2.4148 0.0000
# 3 34.2650 30.2181 56.1305 0.0000 5.4022 0.0000
# 4 0.0000 0.0000 0.0000 5.4965 0.0000 28.8316
# 5 -4.1376 -2.4148 5.4022 0.0000 17.5329 0.0000
# 6 0.0000 0.0000 0.0000 28.8316 0.0000 -7.2486
#
#
#
# Elastic Compliance Matrix: (Units=1/GPa)
#
#
# Indices 1 2 3 4 5 6 
#
# 1 0.010947 -0.008419 -0.002357 0.000000 0.002150 0.000000
# 2 -0.008419 0.019722 -0.005718 0.000000 0.002491 0.000000
# 3 -0.002357 -0.005718 0.023149 0.000000 -0.008476 0.000000
# 4 0.000000 0.000000 0.000000 0.008321 0.000000 0.033098
# 5 0.002150 0.002491 -0.008476 0.000000 0.060498 0.000000
# 6 0.000000 0.000000 0.000000 0.033098 0.000000 -0.006310
#
#
# Mechanical properties :
#
#
# Convention : Reuss Voigt Hill
#
# Bulk Modulus (GPa) = 48.00855 66.25974 57.13415
# Shear Modulus (GPa) = 31.99834 14.24970 23.12402
#
# Velocity S-wave (km/s) = 4.16050 2.77642 3.53683
# Velocity P-wave (km/s) = 7.00360 6.79131 6.89827
#
# Compressibility (1/GPa) = 0.02082962
#
# Stress axis : x y z
#
# Youngs Moduli (GPa) = 91.34731 50.70503 43.19925
#
# Poissons Ratio (x) = 0.42689 0.10183
# Poissons Ratio (y) = 0.76906 0.24700
# Poissons Ratio (z) = 0.21533 0.28992
#
# Static dielectric constant tensor:
#      x y z
#    x 1.600960 0.000000 0.010540 
#    y 0.000000 1.677150 0.000000 
#    z 0.010540 0.000000 1.654740 
# 
# From -- ./inp_files/22122.got.cif
#   From: 2010.05.17/outbox.cif.g08.bks.cpg/sg11_12_cif.got.tgz:22122.got - 2010.06.03 12:22:45.
