data_PCOD9165696
_publ_section_title
;
Structure prediction by ZEFSAII (Michael W. Deem and Ramdas Pophale) SiO2 
 PCOD9165696
Probable space group: P 21/M
;
_chemical_formula_sum "Si O2"
_cell_formula_units_Z 20
_cell_length_a 12.325662
_cell_length_b 8.540793
_cell_length_c 18.574509
_cell_angle_alpha 90.000000
_cell_angle_beta 149.506635
_cell_angle_gamma 90.000000
_cell_volume 992.222969
_symmetry_space_group_name_H-M "P 21/M"
_symmetry_group_IT_number 11
_symmetry_cell_setting 'monoclinic'
loop_
_space_group_symop_operation_xyz
x,y,z
-x,1/2+y,-z
-x,-y,-z
x,1/2-y,z
loop_
_atom_site_type_symbol
_atom_site_label
_atom_site_fract_x
_atom_site_fract_y
_atom_site_fract_z
Si Si1 0.924814 0.562947 0.623761
Si Si2 0.145074 0.059554 0.252143
Si Si3 0.389182 0.062957 0.864194
Si Si4 0.482895 0.436772 0.332703
Si Si5 0.286921 0.560746 0.076890
O O1 0.941814 0.750000 0.634682
O O2 0.887351 0.505724 0.684697
O O3 0.715753 0.512581 0.460678
O O4 0.146777 0.495532 0.722100
O O5 0.148814 0.250000 0.256140
O O6 0.359257 0.007285 0.334014
O O7 0.940395 0.014718 0.087121
O O8 0.392132 0.250000 0.869162
O O9 0.530938 0.015630 0.876666
O O10 0.500000 0.000000 0.000000
O O11 0.504971 0.250000 0.348540
O O12 0.339204 0.483448 0.182604
O O13 0.288502 0.750000 0.085612
#
# Coordination Sequence:
#
# PCOD9165696 Si02
#       5
#     4   4   4   4   4
#     4  11  22  40  63  87 120 160 197 243 298 349
#     4   9  19  38  62  87 119 156 198 244 292 348
#     4  11  22  39  64  90 118 152 197 246 293 352
#     4  11  23  38  58  90 124 155 198 246 292 351
#     4  10  21  40  62  86 119 158 194 240 299 353
#
# _framework density 20.156759000000001
#
# number of rings (size 3 to 8) (size 9 to 14) (size 15 to 20)
#    0.000    1.600    2.000    3.000    0.000    2.400 
#    0.000    4.000    0.000    0.000    0.000    0.000 
#    0.000    0.000    0.000    0.000    0.000    0.000 
#
# Total GULP energy -111812.765782 kJ/mol
# GULP energy per Si atom -5590.638289 kJ/mol
# Density = 2.011088 g / cm^3
# Si number density = 20.156759 Si / 1000 Ang^3
#
#
#
# Elastic Constant Matrix: (Units=GPa)
#
#
# Indices 1 2 3 4 5 6 
#
# 1 56.6944 11.8674 -12.1115 0.0000 17.8597 0.0000
# 2 11.8674 24.0502 -3.2674 0.0000 6.2695 0.0000
# 3 -12.1115 -3.2674 62.6735 0.0000 15.7688 0.0000
# 4 0.0000 0.0000 0.0000 25.3579 0.0000 -1.8872
# 5 17.8597 6.2695 15.7688 0.0000 39.4965 0.0000
# 6 0.0000 0.0000 0.0000 -1.8872 0.0000 23.9604
#
#
#
# Elastic Compliance Matrix: (Units=1/GPa)
#
#
# Indices 1 2 3 4 5 6 
#
# 1 0.025106 -0.007894 0.007761 0.000000 -0.013198 0.000000
# 2 -0.007894 0.046997 0.002116 0.000000 -0.004736 0.000000
# 3 0.007761 0.002116 0.020603 0.000000 -0.012071 0.000000
# 4 0.000000 0.000000 0.000000 0.039668 0.000000 0.003124
# 5 -0.013198 -0.004736 -0.012071 0.000000 0.036858 0.000000
# 6 0.000000 0.000000 0.000000 0.003124 0.000000 0.041982
#
#
# Mechanical properties :
#
#
# Convention : Reuss Voigt Hill
#
# Bulk Modulus (GPa) = 10.34415 15.15501 12.74958
# Shear Modulus (GPa) = 20.87941 27.55827 24.21884
#
# Velocity S-wave (km/s) = 3.22196 3.70157 3.47006
# Velocity P-wave (km/s) = 4.35710 5.07974 4.73224
#
# Compressibility (1/GPa) = 0.09667299
#
# Stress axis : x y z
#
# Youngs Moduli (GPa) = 39.83060 21.27811 48.53691
#
# Poissons Ratio (x) = 0.16796 -0.37669
# Poissons Ratio (y) = 0.31440 -0.10271
# Poissons Ratio (z) = -0.30912 -0.04503
#
# Static dielectric constant tensor:
#      x y z
#    x 1.711360 0.000000 0.000940 
#    y 0.000000 1.683070 0.000000 
#    z 0.000940 0.000000 1.679150 
# 
# From -- ./inp_files/15914.got.cif
#   From: 2010.05.17/outbox.cif.g08.bks.cpg/sg11_8_cif.got.tgz:15914.got - 2010.06.03 12:22:45.
