data_PCOD9165765
_publ_section_title
;
Structure prediction by ZEFSAII (Michael W. Deem and Ramdas Pophale) SiO2 
 PCOD9165765
Probable space group: P 21/M
;
_chemical_formula_sum "Si O2"
_cell_formula_units_Z 30
_cell_length_a 10.681593
_cell_length_b 22.299759
_cell_length_c 6.134016
_cell_angle_alpha 90.000000
_cell_angle_beta 97.435192
_cell_angle_gamma 90.000000
_cell_volume 1448.818744
_symmetry_space_group_name_H-M "P 21/M"
_symmetry_group_IT_number 11
_symmetry_cell_setting 'monoclinic'
loop_
_space_group_symop_operation_xyz
x,y,z
-x,1/2+y,-z
-x,-y,-z
x,1/2-y,z
loop_
_atom_site_type_symbol
_atom_site_label
_atom_site_fract_x
_atom_site_fract_y
_atom_site_fract_z
Si Si1 0.458085 0.561392 0.602229
Si Si2 0.054598 0.887898 0.526882
Si Si3 0.818481 0.911318 0.177235
Si Si4 0.239007 0.543629 0.870493
Si Si5 0.354987 0.349834 0.516952
Si Si6 0.265982 0.863599 0.256697
Si Si7 0.115799 0.182140 0.184480
Si Si8 0.441264 0.750000 0.275699
O O1 0.500000 0.500000 0.500000
O O2 0.379826 0.548945 0.803061
O O3 0.576305 0.606223 0.640699
O O4 0.362550 0.596537 0.421464
O O5 0.139776 0.938559 0.659730
O O6 0.145908 0.851962 0.383888
O O7 0.938377 0.915187 0.365984
O O8 0.997592 0.845118 0.699394
O O9 0.701270 0.889526 0.298697
O O10 0.788992 0.975789 0.066582
O O11 0.852707 0.861470 0.007818
O O12 0.225025 0.593303 0.052071
O O13 0.237406 0.319410 0.370604
O O14 0.454081 0.302062 0.630692
O O15 0.336539 0.803389 0.202459
O O16 0.091361 0.250000 0.107132
#
# Coordination Sequence:
#
# PCOD9165765 Si02
#       8
#     4   4   4   4   4   4   4   2
#     4  10  21  40  64  93 133 169 211 265 325 383
#     4  10  24  45  65  95 130 174 212 273 333 386
#     4  11  24  40  69  97 136 167 213 273 323 393
#     4  11  23  43  66 103 130 170 220 264 337 390
#     4  10  22  43  65  93 129 177 207 267 322 382
#     4  10  24  41  67  97 127 174 219 274 321 391
#     4  11  25  42  67  98 126 172 221 264 322 389
#     4  10  22  46  64  88 132 172 220 262 322 380
#
# _framework density 20.706524999999999
#
# number of rings (size 3 to 8) (size 9 to 14) (size 15 to 20)
#    0.000    1.600    2.000    1.200    3.733    6.400 
#    3.600    2.667    0.000    0.000    0.000    0.000 
#    0.000    0.000    0.000    0.000    0.000    0.000 
#
# Total GULP energy -167105.841012 kJ/mol
# GULP energy per Si atom -5570.194700 kJ/mol
# Density = 2.065940 g / cm^3
# Si number density = 20.706525 Si / 1000 Ang^3
#
#
#
# Elastic Constant Matrix: (Units=GPa)
#
#
# Indices 1 2 3 4 5 6 
#
# 1 88.3269 48.8023 17.0594 0.0000 -24.9583 0.0000
# 2 48.8023 143.6609 25.6796 0.0000 -11.8032 0.0000
# 3 17.0594 25.6796 55.4340 0.0000 -18.8425 0.0000
# 4 0.0000 0.0000 0.0000 8.2541 0.0000 7.3679
# 5 -24.9583 -11.8032 -18.8425 0.0000 20.7520 0.0000
# 6 0.0000 0.0000 0.0000 7.3679 0.0000 13.3018
#
#
#
# Elastic Compliance Matrix: (Units=1/GPa)
#
#
# Indices 1 2 3 4 5 6 
#
# 1 0.021202 -0.005950 0.005422 0.000000 0.027039 0.000000
# 2 -0.005950 0.009297 -0.004500 0.000000 -0.005954 0.000000
# 3 0.005422 -0.004500 0.028642 0.000000 0.029968 0.000000
# 4 0.000000 0.000000 0.000000 0.239640 0.000000 -0.132738
# 5 0.027039 -0.005954 0.029968 0.000000 0.104532 0.000000
# 6 0.000000 0.000000 0.000000 -0.132738 0.000000 0.148702
#
#
# Mechanical properties :
#
#
# Convention : Reuss Voigt Hill
#
# Bulk Modulus (GPa) = 20.37226 52.27826 36.32526
# Shear Modulus (GPa) = 8.64406 21.52027 15.08216
#
# Velocity S-wave (km/s) = 2.04539 3.22731 2.70177
# Velocity P-wave (km/s) = 3.92913 6.26015 5.22626
#
# Compressibility (1/GPa) = 0.04908636
#
# Stress axis : x y z
#
# Youngs Moduli (GPa) = 47.16488 107.55811 34.91410
#
# Poissons Ratio (x) = 0.64000 -0.18932
# Poissons Ratio (y) = 0.28064 0.15710
# Poissons Ratio (z) = -0.25574 0.48396
#
# Static dielectric constant tensor:
#      x y z
#    x 1.758120 0.000000 0.006600 
#    y 0.000000 1.704590 0.000000 
#    z 0.006600 0.000000 1.742350 
# 
# From -- ./inp_files/5065.got.cif
#   From: 2010.05.17/outbox.cif.g08.bks.cpg/sg11_3_cif.got.tgz:5065.got - 2010.06.03 12:22:45.
