data_PCOD9165076
_publ_section_title
;
Structure prediction by ZEFSAII (Michael W. Deem and Ramdas Pophale) SiO2 
 PCOD9165076
Probable space group: P 21/M
;
_chemical_formula_sum "Si O2"
_cell_formula_units_Z 28
_cell_length_a 5.120722
_cell_length_b 29.605583
_cell_length_c 9.321119
_cell_angle_alpha 90.000000
_cell_angle_beta 73.641349
_cell_angle_gamma 90.000000
_cell_volume 1355.894072
_symmetry_space_group_name_H-M "P 21/M"
_symmetry_group_IT_number 11
_symmetry_cell_setting 'monoclinic'
loop_
_space_group_symop_operation_xyz
x,y,z
-x,1/2+y,-z
-x,-y,-z
x,1/2-y,z
loop_
_atom_site_type_symbol
_atom_site_label
_atom_site_fract_x
_atom_site_fract_y
_atom_site_fract_z
Si Si1 0.801235 0.037878 0.875048
Si Si2 0.705990 0.940672 0.852125
Si Si3 0.151565 0.698791 0.937456
Si Si4 0.764770 0.890667 0.548504
Si Si5 0.370350 0.905358 0.345953
Si Si6 0.171406 0.381291 0.907924
Si Si7 0.248693 0.198196 0.264729
O O1 0.650683 0.049234 0.747536
O O2 0.034121 0.075223 0.853600
O O3 0.880575 0.985655 0.857102
O O4 0.590683 0.046707 0.037951
O O5 0.725739 0.925052 0.686873
O O6 0.795659 0.898666 0.935196
O O7 0.093556 0.750000 0.993247
O O8 0.473636 0.693184 0.869861
O O9 0.007185 0.693351 0.803444
O O10 0.021252 0.661625 0.060249
O O11 0.545882 0.904214 0.462886
O O12 0.736681 0.840299 0.617490
O O13 0.065485 0.893182 0.435887
O O14 0.539348 0.873081 0.211440
O O15 0.246246 0.250000 0.320624
#
# Coordination Sequence:
#
# PCOD9165076 Si02
#       7
#     4   4   4   4   4   4   4
#     4  10  22  44  60  97 123 171 203 273 304 378
#     4  10  23  37  70  92 120 163 226 253 317 362
#     4  10  21  37  67  98 120 154 209 263 309 358
#     4  12  23  43  62  96 120 174 204 258 306 385
#     4  11  26  41  62  87 138 163 206 246 324 364
#     4  11  21  43  64  90 131 166 202 265 309 375
#     4  10  21  39  64  97 124 153 207 267 307 360
#
# _framework density 20.650583000000001
#
# number of rings (size 3 to 8) (size 9 to 14) (size 15 to 20)
#    0.000    1.429    2.857    2.143    4.000    1.143 
#    0.000    1.429    0.000    0.857    0.000    0.000 
#    0.000    0.000    0.000    0.000    0.000    0.000 
#
# Total GULP energy -156358.329579 kJ/mol
# GULP energy per Si atom -5584.226056 kJ/mol
# Density = 2.060358 g / cm^3
# Si number density = 20.650583 Si / 1000 Ang^3
#
#
#
# Elastic Constant Matrix: (Units=GPa)
#
#
# Indices 1 2 3 4 5 6 
#
# 1 71.0385 16.4139 0.8329 0.0000 2.7683 0.0000
# 2 16.4139 107.1101 41.4576 0.0000 -15.5376 0.0000
# 3 0.8329 41.4576 62.6201 0.0000 -4.8119 0.0000
# 4 0.0000 0.0000 0.0000 6.9250 0.0000 -2.4443
# 5 2.7683 -15.5376 -4.8119 0.0000 31.2537 0.0000
# 6 0.0000 0.0000 0.0000 -2.4443 0.0000 24.2352
#
#
#
# Elastic Compliance Matrix: (Units=1/GPa)
#
#
# Indices 1 2 3 4 5 6 
#
# 1 0.014947 -0.003400 0.001842 0.000000 -0.002730 0.000000
# 2 -0.003400 0.014156 -0.008868 0.000000 0.005973 0.000000
# 3 0.001842 -0.008868 0.021721 0.000000 -0.001227 0.000000
# 4 0.000000 0.000000 0.000000 0.149735 0.000000 0.015102
# 5 -0.002730 0.005973 -0.001227 0.000000 0.035019 0.000000
# 6 0.000000 0.000000 0.000000 0.015102 0.000000 0.042786
#
#
# Mechanical properties :
#
#
# Convention : Reuss Voigt Hill
#
# Bulk Modulus (GPa) = 33.36223 39.79750 36.57986
# Shear Modulus (GPa) = 16.17045 24.62038 20.39542
#
# Velocity S-wave (km/s) = 2.80134 3.45662 3.14609
# Velocity P-wave (km/s) = 5.16275 5.93672 5.56321
#
# Compressibility (1/GPa) = 0.02997402
#
# Stress axis : x y z
#
# Youngs Moduli (GPa) = 66.90220 70.64153 46.03757
#
# Poissons Ratio (x) = 0.24016 -0.08481
# Poissons Ratio (y) = 0.22744 0.40825
# Poissons Ratio (z) = -0.12324 0.62643
#
# Static dielectric constant tensor:
#      x y z
#    x 1.779480 0.000000 0.032570 
#    y 0.000000 1.736040 0.000000 
#    z 0.032570 0.000000 1.727380 
# 
# From -- ./inp_files/3200.got.cif
#   From: 2010.05.17/outbox.cif.g08.bks.cpg/sg11_2_cif.got.tgz:3200.got - 2010.06.03 12:22:45.
