data_PCOD9165386
_publ_section_title
;
Structure prediction by ZEFSAII (Michael W. Deem and Ramdas Pophale) SiO2 
 PCOD9165386
Probable space group: P 21/M
;
_chemical_formula_sum "Si O2"
_cell_formula_units_Z 28
_cell_length_a 14.809766
_cell_length_b 8.617374
_cell_length_c 11.953718
_cell_angle_alpha 90.000000
_cell_angle_beta 68.268003
_cell_angle_gamma 90.000000
_cell_volume 1417.121985
_symmetry_space_group_name_H-M "P 21/M"
_symmetry_group_IT_number 11
_symmetry_cell_setting 'monoclinic'
loop_
_space_group_symop_operation_xyz
x,y,z
-x,1/2+y,-z
-x,-y,-z
x,1/2-y,z
loop_
_atom_site_type_symbol
_atom_site_label
_atom_site_fract_x
_atom_site_fract_y
_atom_site_fract_z
Si Si1 0.780845 0.435363 0.781314
Si Si2 0.405884 0.564113 0.978450
Si Si3 0.859330 0.933505 0.149759
Si Si4 0.310732 0.931628 0.627424
Si Si5 0.937821 0.565066 0.869624
Si Si6 0.538524 0.566145 0.279986
Si Si7 0.322805 0.433319 0.382448
O O1 0.791754 0.250000 0.771064
O O2 0.875379 0.511154 0.792961
O O3 0.752116 0.501305 0.673944
O O4 0.689455 0.470218 0.904982
O O5 0.414098 0.750000 0.961837
O O6 0.405055 0.485009 0.857848
O O7 0.500000 0.500000 0.000000
O O8 0.839596 0.750000 0.168574
O O9 0.772885 0.028182 0.245365
O O10 0.877193 0.970945 0.010940
O O11 0.960098 0.977550 0.164457
O O12 0.312837 0.750000 0.600823
O O13 0.411454 0.982834 0.638248
O O14 0.292787 0.025636 0.522257
O O15 0.954775 0.750000 0.860210
O O16 0.543958 0.750000 0.291941
O O17 0.427361 0.514101 0.316297
O O18 0.333953 0.250000 0.362739
#
# Coordination Sequence:
#
# PCOD9165386 Si02
#       7
#     4   4   4   4   4   4   4
#     4  11  23  39  60  89 124 162 202 247 302 360
#     4  11  22  36  58  87 122 159 199 246 299 354
#     4  10  21  40  65  94 125 156 198 248 300 356
#     4  12  25  42  63  88 120 158 204 251 303 359
#     4  10  21  38  64  95 125 159 197 244 301 358
#     4  12  24  40  61  88 122 160 206 252 302 358
#     4  12  25  42  62  85 119 161 206 251 302 360
#
# _framework density 19.758355000000002
#
# number of rings (size 3 to 8) (size 9 to 14) (size 15 to 20)
#    0.000    0.857    1.429    6.857    0.000    5.714 
#    0.000    0.714    0.000    0.000    0.000    0.000 
#    0.000    0.000    0.000    0.000    0.000    0.000 
#
# Total GULP energy -156749.854718 kJ/mol
# GULP energy per Si atom -5598.209097 kJ/mol
# Density = 1.971338 g / cm^3
# Si number density = 19.758355 Si / 1000 Ang^3
#
#
#
# Elastic Constant Matrix: (Units=GPa)
#
#
# Indices 1 2 3 4 5 6 
#
# 1 82.6402 -6.9506 14.4808 0.0000 30.9996 0.0000
# 2 -6.9506 38.8331 -5.2814 0.0000 -2.4768 0.0000
# 3 14.4808 -5.2814 45.4002 0.0000 15.6340 0.0000
# 4 0.0000 0.0000 0.0000 25.7031 0.0000 2.1210
# 5 30.9996 -2.4768 15.6340 0.0000 26.0472 0.0000
# 6 0.0000 0.0000 0.0000 2.1210 0.0000 34.4519
#
#
#
# Elastic Compliance Matrix: (Units=1/GPa)
#
#
# Indices 1 2 3 4 5 6 
#
# 1 0.022342 0.002596 0.002833 0.000000 -0.028044 0.000000
# 2 0.002596 0.026481 0.003087 0.000000 -0.002424 0.000000
# 3 0.002833 0.003087 0.028415 0.000000 -0.020133 0.000000
# 4 0.000000 0.000000 0.000000 0.039104 0.000000 -0.002407
# 5 -0.028044 -0.002424 -0.020133 0.000000 0.083622 0.000000
# 6 0.000000 0.000000 0.000000 -0.002407 0.000000 0.029174
#
#
# Mechanical properties :
#
#
# Convention : Reuss Voigt Hill
#
# Bulk Modulus (GPa) = 10.60781 19.04123 14.82452
# Shear Modulus (GPa) = 20.53135 28.21542 24.37338
#
# Velocity S-wave (km/s) = 3.22704 3.78302 3.51604
# Velocity P-wave (km/s) = 4.38925 5.36094 4.89924
#
# Compressibility (1/GPa) = 0.09427014
#
# Stress axis : x y z
#
# Youngs Moduli (GPa) = 44.75837 37.76284 35.19268
#
# Poissons Ratio (x) = -0.09802 -0.09970
# Poissons Ratio (y) = -0.11618 -0.10866
# Poissons Ratio (z) = -0.12680 -0.11659
#
# Static dielectric constant tensor:
#      x y z
#    x 1.672950 0.000000 -0.003410 
#    y 0.000000 1.651470 0.000000 
#    z -0.003410 0.000000 1.691650 
# 
# From -- ./inp_files/37419.got.cif
#   From: 2010.05.17/outbox.cif.g08.bks.cpg/sg11_19_cif.got.tgz:37419.got - 2010.06.03 12:22:45.
