data_PCOD9165193
_publ_section_title
;
Structure prediction by ZEFSAII (Michael W. Deem and Ramdas Pophale) SiO2 
 PCOD9165193
Probable space group: P 21/M
;
_chemical_formula_sum "Si O2"
_cell_formula_units_Z 32
_cell_length_a 11.098228
_cell_length_b 13.572167
_cell_length_c 16.363637
_cell_angle_alpha 90.000000
_cell_angle_beta 147.663046
_cell_angle_gamma 90.000000
_cell_volume 1318.418128
_symmetry_space_group_name_H-M "P 21/M"
_symmetry_group_IT_number 11
_symmetry_cell_setting 'monoclinic'
loop_
_space_group_symop_operation_xyz
x,y,z
-x,1/2+y,-z
-x,-y,-z
x,1/2-y,z
loop_
_atom_site_type_symbol
_atom_site_label
_atom_site_fract_x
_atom_site_fract_y
_atom_site_fract_z
Si Si1 0.176510 0.463754 0.964360
Si Si2 0.350537 0.867320 0.462330
Si Si3 0.940820 0.133598 0.549446
Si Si4 0.060234 0.360476 0.395111
Si Si5 0.156642 0.362198 0.265493
Si Si6 0.741797 0.537657 0.165472
Si Si7 0.394857 0.028519 0.696485
Si Si8 0.237462 0.868873 0.212112
O O1 0.427874 0.492451 0.133541
O O2 0.180101 0.414243 0.876418
O O3 0.039939 0.565422 0.872499
O O4 0.027162 0.400431 0.942645
O O5 0.340287 0.750000 0.455153
O O6 0.180425 0.899429 0.434157
O O7 0.603633 0.891645 0.633651
O O8 0.296433 0.897282 0.339747
O O9 0.916151 0.250000 0.521670
O O10 0.199831 0.107360 0.723235
O O11 0.780158 0.065777 0.402347
O O12 0.974832 0.250000 0.356640
O O13 0.196434 0.362375 0.386870
O O14 0.207499 0.390495 0.557959
O O15 0.870667 0.438794 0.266110
O O16 0.100753 0.250000 0.210874
O O17 0.500000 0.500000 0.000000
O O18 0.595066 0.069703 0.749266
O O19 0.263498 0.750000 0.215474
#
# Coordination Sequence:
#
# PCOD9165193 Si02
#       8
#     4   4   4   4   4   4   4   4
#     4  11  23  36  54  85 119 152 191 237 288 338
#     4   9  16  29  53  80 105 144 189 225 263 321
#     4  10  21  38  60  84 113 151 193 234 284 341
#     4   9  18  35  57  81 109 145 188 233 283 340
#     4   9  17  31  53  80 110 147 192 235 272 324
#     4  10  22  40  63  85 108 144 196 252 291 331
#     4  11  22  35  55  86 121 155 182 226 285 350
#     4  11  21  34  55  85 120 159 192 224 275 342
#
# _framework density 24.271511
#
# number of rings (size 3 to 8) (size 9 to 14) (size 15 to 20)
#    0.000    2.000    2.500    1.500    0.000    3.000 
#    0.000    3.750    0.000    1.500    0.000    0.000 
#    0.000    0.000    0.000    0.000    0.000    0.000 
#
# Total GULP energy -178324.097459 kJ/mol
# GULP energy per Si atom -5572.628046 kJ/mol
# Density = 2.421627 g / cm^3
# Si number density = 24.271511 Si / 1000 Ang^3
#
#
#
# Elastic Constant Matrix: (Units=GPa)
#
#
# Indices 1 2 3 4 5 6 
#
# 1 20.1446 -7.0820 12.7308 0.0000 2.0932 0.0000
# 2 -7.0820 123.3531 24.5363 0.0000 0.9306 0.0000
# 3 12.7308 24.5363 151.5986 0.0000 3.7160 0.0000
# 4 0.0000 0.0000 0.0000 20.2168 0.0000 2.4494
# 5 2.0932 0.9306 3.7160 0.0000 32.2327 0.0000
# 6 0.0000 0.0000 0.0000 2.4494 0.0000 7.2567
#
#
#
# Elastic Compliance Matrix: (Units=1/GPa)
#
#
# Indices 1 2 3 4 5 6 
#
# 1 0.054723 0.004199 -0.005200 0.000000 -0.003076 0.000000
# 2 0.004199 0.008699 -0.001753 0.000000 -0.000322 0.000000
# 3 -0.005200 -0.001753 0.007328 0.000000 -0.000457 0.000000
# 4 0.000000 0.000000 0.000000 0.051573 0.000000 -0.017408
# 5 -0.003076 -0.000322 -0.000457 0.000000 0.031286 0.000000
# 6 0.000000 0.000000 0.000000 -0.017408 0.000000 0.143680
#
#
# Mechanical properties :
#
#
# Convention : Reuss Voigt Hill
#
# Bulk Modulus (GPa) = 15.32715 39.49627 27.41171
# Shear Modulus (GPa) = 15.40628 29.60197 22.50413
#
# Velocity S-wave (km/s) = 2.52215 3.49609 3.04827
# Velocity P-wave (km/s) = 3.84841 5.71007 4.86904
#
# Compressibility (1/GPa) = 0.06524370
#
# Stress axis : x y z
#
# Youngs Moduli (GPa) = 18.27381 114.95628 136.46500
#
# Poissons Ratio (x) = -0.48273 0.70958
# Poissons Ratio (y) = -0.07674 0.23918
# Poissons Ratio (z) = 0.09502 0.20148
#
# Static dielectric constant tensor:
#      x y z
#    x 2.210870 0.000000 0.018700 
#    y 0.000000 1.906530 0.000000 
#    z 0.018700 0.000000 1.942160 
# 
# From -- ./inp_files/65784.got.cif
#   From: 2010.05.17/outbox.cif.g08.bks.cpg/sg11_33_cif.got.tgz:65784.got - 2010.06.03 12:22:45.
