data_PCOD9165453
_publ_section_title
;
Structure prediction by ZEFSAII (Michael W. Deem and Ramdas Pophale) SiO2 
 PCOD9165453
Probable space group: P 21/M
;
_chemical_formula_sum "Si O2"
_cell_formula_units_Z 28
_cell_length_a 12.031785
_cell_length_b 8.812737
_cell_length_c 15.243386
_cell_angle_alpha 90.000000
_cell_angle_beta 118.099687
_cell_angle_gamma 90.000000
_cell_volume 1425.786950
_symmetry_space_group_name_H-M "P 21/M"
_symmetry_group_IT_number 11
_symmetry_cell_setting 'monoclinic'
loop_
_space_group_symop_operation_xyz
x,y,z
-x,1/2+y,-z
-x,-y,-z
x,1/2-y,z
loop_
_atom_site_type_symbol
_atom_site_label
_atom_site_fract_x
_atom_site_fract_y
_atom_site_fract_z
Si Si1 0.418375 0.068869 0.889329
Si Si2 0.853964 0.073329 0.191929
Si Si3 0.534760 0.928279 0.293375
Si Si4 0.132313 0.070548 0.321856
Si Si5 0.281934 0.074916 0.204833
Si Si6 0.376708 0.570039 0.503131
Si Si7 0.874377 0.074373 0.990526
O O1 0.431406 0.250000 0.900284
O O2 0.460679 0.022357 0.806653
O O3 0.272091 0.020344 0.838195
O O4 0.500000 0.000000 0.000000
O O5 0.834950 0.250000 0.211054
O O6 0.987937 0.018712 0.281228
O O7 0.871721 0.071979 0.093680
O O8 0.562832 0.750000 0.308263
O O9 0.393605 0.963972 0.272534
O O10 0.619629 0.017914 0.393937
O O11 0.137219 0.250000 0.345134
O O12 0.169197 0.058922 0.232589
O O13 0.245330 0.987541 0.413520
O O14 0.323978 0.250000 0.223027
O O15 0.235967 0.024769 0.092598
O O16 0.500000 0.500000 0.500000
O O17 0.386648 0.750000 0.499962
O O18 0.863036 0.250000 0.957625
O O19 0.000000 0.000000 0.000000
#
# Coordination Sequence:
#
# PCOD9165453 Si02
#       7
#     4   4   4   4   4   4   4
#     4  11  25  44  67  94 125 165 213 261 309 369
#     4  10  22  41  62  86 123 166 206 256 314 369
#     4  11  24  42  63  90 124 164 210 260 312 367
#     4  10  21  39  60  88 126 163 202 252 311 371
#     4  11  21  35  57  88 123 160 202 249 310 373
#     4  12  24  39  63  95 128 165 209 259 315 376
#     4  11  21  34  53  83 121 159 201 249 305 371
#
# _framework density 19.638278
#
# number of rings (size 3 to 8) (size 9 to 14) (size 15 to 20)
#    0.000    1.143    2.857    3.857    0.000    8.000 
#    0.000    0.714    0.000    0.000    0.000    0.000 
#    0.000    0.000    0.000    0.000    0.000    0.000 
#
# Total GULP energy -156341.265378 kJ/mol
# GULP energy per Si atom -5583.616621 kJ/mol
# Density = 1.959358 g / cm^3
# Si number density = 19.638278 Si / 1000 Ang^3
#
#
#
# Elastic Constant Matrix: (Units=GPa)
#
#
# Indices 1 2 3 4 5 6 
#
# 1 85.8358 30.9466 40.3220 0.0000 13.7519 0.0000
# 2 30.9466 70.2814 48.0201 0.0000 1.4525 0.0000
# 3 40.3220 48.0201 131.7445 0.0000 20.0714 0.0000
# 4 0.0000 0.0000 0.0000 31.2835 0.0000 5.1475
# 5 13.7519 1.4525 20.0714 0.0000 31.9461 0.0000
# 6 0.0000 0.0000 0.0000 5.1475 0.0000 27.9367
#
#
#
# Elastic Compliance Matrix: (Units=1/GPa)
#
#
# Indices 1 2 3 4 5 6 
#
# 1 0.015301 -0.005278 -0.001982 0.000000 -0.005101 0.000000
# 2 -0.005278 0.021205 -0.006981 0.000000 0.005694 0.000000
# 3 -0.001982 -0.006981 0.011682 0.000000 -0.006169 0.000000
# 4 0.000000 0.000000 0.000000 0.032965 0.000000 -0.006074
# 5 -0.005101 0.005694 -0.006169 0.000000 0.037116 0.000000
# 6 0.000000 0.000000 0.000000 -0.006074 0.000000 0.036914
#
#
# Mechanical properties :
#
#
# Convention : Reuss Voigt Hill
#
# Bulk Modulus (GPa) = 50.74781 58.49324 54.62053
# Shear Modulus (GPa) = 26.28346 29.47144 27.87745
#
# Velocity S-wave (km/s) = 3.66236 3.87811 3.77177
# Velocity P-wave (km/s) = 6.61673 7.06420 6.84413
#
# Compressibility (1/GPa) = 0.01970528
#
# Stress axis : x y z
#
# Youngs Moduli (GPa) = 65.35323 47.15946 85.60529
#
# Poissons Ratio (x) = 0.24890 0.16969
# Poissons Ratio (y) = 0.34492 0.59762
# Poissons Ratio (z) = 0.12955 0.32923
#
# Static dielectric constant tensor:
#      x y z
#    x 1.690930 0.000000 0.003830 
#    y 0.000000 1.664410 0.000000 
#    z 0.003830 0.000000 1.708570 
# 
# From -- ./inp_files/37855.got.cif
#   From: 2010.05.17/outbox.cif.g08.bks.cpg/sg11_19_cif.got.tgz:37855.got - 2010.06.03 12:22:45.
