data_PCOD9165919
_publ_section_title
;
Structure prediction by ZEFSAII (Michael W. Deem and Ramdas Pophale) SiO2 
 PCOD9165919
Probable space group: P 21/M
;
_chemical_formula_sum "Si O2"
_cell_formula_units_Z 28
_cell_length_a 17.222859
_cell_length_b 14.010621
_cell_length_c 6.486818
_cell_angle_alpha 90.000000
_cell_angle_beta 124.539550
_cell_angle_gamma 90.000000
_cell_volume 1289.382797
_symmetry_space_group_name_H-M "P 21/M"
_symmetry_group_IT_number 11
_symmetry_cell_setting 'monoclinic'
loop_
_space_group_symop_operation_xyz
x,y,z
-x,1/2+y,-z
-x,-y,-z
x,1/2-y,z
loop_
_atom_site_type_symbol
_atom_site_label
_atom_site_fract_x
_atom_site_fract_y
_atom_site_fract_z
Si Si1 0.957836 0.853363 0.924717
Si Si2 0.738400 0.853061 0.509916
Si Si3 0.376991 0.074356 0.290310
Si Si4 0.755899 0.478893 0.210306
Si Si5 0.741894 0.139929 0.559799
Si Si6 0.467620 0.556360 0.748234
Si Si7 0.102072 0.533503 0.921694
O O1 0.987399 0.750000 0.052008
O O2 0.850617 0.847303 0.691465
O O3 0.025471 0.884071 0.840074
O O4 0.951287 0.938810 0.078798
O O5 0.701090 0.750000 0.381194
O O6 0.698533 0.869877 0.682359
O O7 0.725939 0.939496 0.330843
O O8 0.447534 0.117197 0.225977
O O9 0.443887 0.032037 0.564413
O O10 0.323444 0.990935 0.083834
O O11 0.763576 0.383265 0.353568
O O12 0.852732 0.488835 0.230467
O O13 0.757216 0.250000 0.638918
O O14 0.630556 0.113824 0.400255
O O15 0.811487 0.070806 0.798222
O O16 0.500000 0.500000 0.000000
#
# Coordination Sequence:
#
# PCOD9165919 Si02
#       7
#     4   4   4   4   4   4   4
#     4  10  21  41  67  98 132 174 225 273 330 396
#     4  11  23  41  65  98 133 170 221 274 327 392
#     4  11  21  40  69  92 130 172 214 266 341 387
#     4  12  21  43  65  95 132 177 212 272 334 388
#     4  12  25  43  65  98 135 176 224 273 329 396
#     4  11  21  40  69  94 127 173 219 271 324 395
#     4  11  23  43  69  92 137 180 217 276 338 386
#
# _framework density 21.715817000000001
#
# number of rings (size 3 to 8) (size 9 to 14) (size 15 to 20)
#    0.000    0.857    7.143    0.429    0.000    3.429 
#    0.000    2.143    0.000    0.000    0.000    0.000 
#    0.000    0.000    0.000    0.000    0.000    0.000 
#
# Total GULP energy -155896.909058 kJ/mol
# GULP energy per Si atom -5567.746752 kJ/mol
# Density = 2.166639 g / cm^3
# Si number density = 21.715817 Si / 1000 Ang^3
#
#
#
# Elastic Constant Matrix: (Units=GPa)
#
#
# Indices 1 2 3 4 5 6 
#
# 1 150.7750 29.2028 21.3364 0.0000 -14.9868 0.0000
# 2 29.2028 105.3293 11.8244 0.0000 -10.5482 0.0000
# 3 21.3364 11.8244 61.3568 0.0000 -9.6906 0.0000
# 4 0.0000 0.0000 0.0000 14.7704 0.0000 0.8702
# 5 -14.9868 -10.5482 -9.6906 0.0000 30.1154 0.0000
# 6 0.0000 0.0000 0.0000 0.8702 0.0000 4.3571
#
#
#
# Elastic Compliance Matrix: (Units=1/GPa)
#
#
# Indices 1 2 3 4 5 6 
#
# 1 0.007462 -0.001602 -0.001884 0.000000 0.002546 0.000000
# 2 -0.001602 0.010303 -0.001037 0.000000 0.002478 0.000000
# 3 -0.001884 -0.001037 0.017855 0.000000 0.004445 0.000000
# 4 0.000000 0.000000 0.000000 0.068509 0.000000 -0.013683
# 5 0.002546 0.002478 0.004445 0.000000 0.036771 0.000000
# 6 0.000000 0.000000 0.000000 -0.013683 0.000000 0.232241
#
#
# Mechanical properties :
#
#
# Convention : Reuss Voigt Hill
#
# Bulk Modulus (GPa) = 37.63165 49.13202 43.38183
# Shear Modulus (GPa) = 12.78621 26.85509 19.82065
#
# Velocity S-wave (km/s) = 2.42915 3.52043 3.02442
# Velocity P-wave (km/s) = 5.02339 6.26089 5.67596
#
# Compressibility (1/GPa) = 0.02657338
#
# Stress axis : x y z
#
# Youngs Moduli (GPa) = 134.00381 97.06055 56.00638
#
# Poissons Ratio (x) = 0.15554 0.10552
# Poissons Ratio (y) = 0.21474 0.05808
# Poissons Ratio (z) = 0.25247 0.10065
#
# Static dielectric constant tensor:
#      x y z
#    x 1.913000 0.000000 -0.003760 
#    y 0.000000 1.847340 0.000000 
#    z -0.003760 0.000000 1.803450 
# 
# From -- ./inp_files/8146.got.cif
#   From: 2010.05.17/outbox.cif.g08.bks.cpg/sg11_5_cif.got.tgz:8146.got - 2010.06.03 12:22:45.
