data_PCOD9165040
_publ_section_title
;
Structure prediction by ZEFSAII (Michael W. Deem and Ramdas Pophale) SiO2 
 PCOD9165040
Probable space group: P 21/M
;
_chemical_formula_sum "Si O2"
_cell_formula_units_Z 28
_cell_length_a 8.372074
_cell_length_b 13.979706
_cell_length_c 11.494237
_cell_angle_alpha 90.000000
_cell_angle_beta 69.035750
_cell_angle_gamma 90.000000
_cell_volume 1256.223474
_symmetry_space_group_name_H-M "P 21/M"
_symmetry_group_IT_number 11
_symmetry_cell_setting 'monoclinic'
loop_
_space_group_symop_operation_xyz
x,y,z
-x,1/2+y,-z
-x,-y,-z
x,1/2-y,z
loop_
_atom_site_type_symbol
_atom_site_label
_atom_site_fract_x
_atom_site_fract_y
_atom_site_fract_z
Si Si1 0.188280 0.141316 0.764073
Si Si2 0.218022 0.640699 0.120788
Si Si3 0.257248 0.013454 0.310368
Si Si4 0.298578 0.984748 0.561078
Si Si5 0.225156 0.135415 0.003600
Si Si6 0.488215 0.637165 0.872233
Si Si7 0.971471 0.135633 0.260201
O O1 0.248732 0.250000 0.730296
O O2 0.225699 0.078631 0.642785
O O3 0.985055 0.142322 0.837540
O O4 0.262612 0.099181 0.864910
O O5 0.277500 0.750000 0.128067
O O6 0.263315 0.571323 0.214608
O O7 0.308458 0.610570 0.977130
O O8 0.235955 0.975231 0.445135
O O9 0.431414 0.074520 0.250435
O O10 0.101509 0.083810 0.315748
O O11 0.500000 0.000000 0.500000
O O12 0.217269 0.899958 0.659580
O O13 0.206733 0.250000 0.992645
O O14 0.377633 0.121565 0.055472
O O15 0.051510 0.104052 0.114622
O O16 0.487678 0.750000 0.842678
O O17 0.985022 0.250000 0.264126
#
# Coordination Sequence:
#
# PCOD9165040 Si02
#       7
#     4   4   4   4   4   4   4
#     4  10  22  41  62  89 124 160 201 255 313 371
#     4  10  21  37  62  94 123 156 202 257 315 366
#     4  11  22  42  62  90 127 164 212 252 301 376
#     4  12  28  43  58  92 129 167 214 253 310 377
#     4   8  17  36  63  91 120 154 200 251 308 366
#     4   9  19  37  64  96 122 156 203 255 312 367
#     4  10  22  44  69  91 120 166 213 259 311 368
#
# _framework density 22.28903
#
# number of rings (size 3 to 8) (size 9 to 14) (size 15 to 20)
#    0.000    2.000    1.429    2.143    2.000    4.000 
#    0.000    1.429    0.000    0.000    0.000    0.000 
#    0.000    0.000    0.000    0.000    0.000    0.000 
#
# Total GULP energy -156518.671866 kJ/mol
# GULP energy per Si atom -5589.952567 kJ/mol
# Density = 2.223830 g / cm^3
# Si number density = 22.289030 Si / 1000 Ang^3
#
#
#
# Elastic Constant Matrix: (Units=GPa)
#
#
# Indices 1 2 3 4 5 6 
#
# 1 37.6622 0.3849 3.5084 0.0000 -23.3637 0.0000
# 2 0.3849 86.1017 13.5035 0.0000 -6.0939 0.0000
# 3 3.5084 13.5035 62.3526 0.0000 -20.4006 0.0000
# 4 0.0000 0.0000 0.0000 30.6378 0.0000 -7.9374
# 5 -23.3637 -6.0939 -20.4006 0.0000 41.1888 0.0000
# 6 0.0000 0.0000 0.0000 -7.9374 0.0000 18.6440
#
#
#
# Elastic Compliance Matrix: (Units=1/GPa)
#
#
# Indices 1 2 3 4 5 6 
#
# 1 0.043216 0.000756 0.006518 0.000000 0.027854 0.000000
# 2 0.000756 0.012048 -0.002301 0.000000 0.001072 0.000000
# 3 0.006518 -0.002301 0.020607 0.000000 0.013563 0.000000
# 4 0.000000 0.000000 0.000000 0.036686 0.000000 0.015618
# 5 0.027854 0.001072 0.013563 0.000000 0.046954 0.000000
# 6 0.000000 0.000000 0.000000 0.015618 0.000000 0.060286
#
#
# Mechanical properties :
#
#
# Convention : Reuss Voigt Hill
#
# Bulk Modulus (GPa) = 11.65283 24.54557 18.09920
# Shear Modulus (GPa) = 20.96822 29.34210 25.15516
#
# Velocity S-wave (km/s) = 3.07048 3.63221 3.36309
# Velocity P-wave (km/s) = 4.22017 5.35041 4.81855
#
# Compressibility (1/GPa) = 0.08581607
#
# Stress axis : x y z
#
# Youngs Moduli (GPa) = 23.13959 83.00472 48.52709
#
# Poissons Ratio (x) = -0.06275 -0.31629
# Poissons Ratio (y) = -0.01749 0.11166
# Poissons Ratio (z) = -0.15082 0.19100
#
# Static dielectric constant tensor:
#      x y z
#    x 1.868810 0.000000 -0.009920 
#    y 0.000000 1.836220 0.000000 
#    z -0.009920 0.000000 1.803500 
# 
# From -- ./inp_files/17950.got.cif
#   From: 2010.05.17/outbox.cif.g08.bks.cpg/sg11_9_cif.got.tgz:17950.got - 2010.06.03 12:22:45.
