data_PCOD9165864
_publ_section_title
;
Structure prediction by ZEFSAII (Michael W. Deem and Ramdas Pophale) SiO2 
 PCOD9165864
Probable space group: P 21/M
;
_chemical_formula_sum "Si O2"
_cell_formula_units_Z 32
_cell_length_a 9.176106
_cell_length_b 14.039011
_cell_length_c 13.938278
_cell_angle_alpha 90.000000
_cell_angle_beta 118.240392
_cell_angle_gamma 90.000000
_cell_volume 1581.849734
_symmetry_space_group_name_H-M "P 21/M"
_symmetry_group_IT_number 11
_symmetry_cell_setting 'monoclinic'
loop_
_space_group_symop_operation_xyz
x,y,z
-x,1/2+y,-z
-x,-y,-z
x,1/2-y,z
loop_
_atom_site_type_symbol
_atom_site_label
_atom_site_fract_x
_atom_site_fract_y
_atom_site_fract_z
Si Si1 0.428932 0.360997 0.607495
Si Si2 0.103397 0.361634 0.973074
Si Si3 0.803031 0.865001 0.778992
Si Si4 0.528680 0.364629 0.422216
Si Si5 0.812242 0.477287 0.412622
Si Si6 0.281941 0.859110 0.155855
Si Si7 0.678732 0.470915 0.022044
Si Si8 0.119271 0.863871 0.759500
O O1 0.379249 0.250000 0.593752
O O2 0.460999 0.388085 0.507029
O O3 0.292650 0.425235 0.617007
O O4 0.602297 0.370725 0.716704
O O5 0.149409 0.250000 0.976741
O O6 0.130915 0.388398 0.094175
O O7 0.209527 0.434609 0.945010
O O8 0.912065 0.372351 0.886300
O O9 0.800061 0.750000 0.774755
O O10 0.616771 0.896462 0.696818
O O11 0.935782 0.893292 0.739300
O O12 0.544701 0.250000 0.421957
O O13 0.702981 0.411426 0.449870
O O14 0.822971 0.422435 0.314899
O O15 0.000000 0.500000 0.500000
O O16 0.302008 0.750000 0.127921
O O17 0.332199 0.929260 0.087597
O O18 0.500000 0.500000 0.000000
O O19 0.761042 0.392124 0.115840
O O20 0.121192 0.750000 0.742625
#
# Coordination Sequence:
#
# PCOD9165864 Si02
#       8
#     4   4   4   4   4   4   4   4
#     4  10  23  43  66  91 126 172 218 270 326 386
#     4  10  22  40  64  95 126 169 220 269 318 378
#     4   9  19  38  65  94 125 165 218 274 320 372
#     4  10  22  41  67  96 126 167 221 276 324 379
#     4  12  26  42  63  98 132 171 211 269 329 397
#     4  10  21  41  64  88 123 167 219 269 320 380
#     4  12  25  38  59  96 133 173 210 261 322 389
#     4  11  24  43  66  94 130 172 218 267 327 386
#
# _framework density 20.229479999999999
#
# number of rings (size 3 to 8) (size 9 to 14) (size 15 to 20)
#    0.000    1.500    1.250    3.000    3.500    4.000 
#    0.000    0.625    0.000    0.000    0.000    0.000 
#    0.000    0.000    0.000    0.000    0.000    0.000 
#
# Total GULP energy -178876.087626 kJ/mol
# GULP energy per Si atom -5589.877738 kJ/mol
# Density = 2.018344 g / cm^3
# Si number density = 20.229480 Si / 1000 Ang^3
#
#
#
# Elastic Constant Matrix: (Units=GPa)
#
#
# Indices 1 2 3 4 5 6 
#
# 1 113.5522 49.1186 32.7021 0.0000 19.2999 0.0000
# 2 49.1186 101.2001 18.0062 0.0000 1.6580 0.0000
# 3 32.7021 18.0062 73.5356 0.0000 17.6382 0.0000
# 4 0.0000 0.0000 0.0000 24.7756 0.0000 -4.9953
# 5 19.2999 1.6580 17.6382 0.0000 29.7904 0.0000
# 6 0.0000 0.0000 0.0000 -4.9953 0.0000 38.2280
#
#
#
# Elastic Compliance Matrix: (Units=1/GPa)
#
#
# Indices 1 2 3 4 5 6 
#
# 1 0.013275 -0.005818 -0.002906 0.000000 -0.006555 0.000000
# 2 -0.005818 0.012912 -0.001522 0.000000 0.003952 0.000000
# 3 -0.002906 -0.001522 0.017240 0.000000 -0.008240 0.000000
# 4 0.000000 0.000000 0.000000 0.041454 0.000000 0.005417
# 5 -0.006555 0.003952 -0.008240 0.000000 0.042474 0.000000
# 6 0.000000 0.000000 0.000000 0.005417 0.000000 0.026867
#
#
# Mechanical properties :
#
#
# Convention : Reuss Voigt Hill
#
# Bulk Modulus (GPa) = 43.60490 54.21576 48.91033
# Shear Modulus (GPa) = 27.41846 31.12287 29.27066
#
# Velocity S-wave (km/s) = 3.68553 3.92662 3.80798
# Velocity P-wave (km/s) = 6.30181 6.88595 6.60034
#
# Compressibility (1/GPa) = 0.02293320
#
# Stress axis : x y z
#
# Youngs Moduli (GPa) = 75.33214 77.45026 58.00321
#
# Poissons Ratio (x) = 0.45064 0.16857
# Poissons Ratio (y) = 0.43832 0.08828
# Poissons Ratio (z) = 0.21893 0.11788
#
# Static dielectric constant tensor:
#      x y z
#    x 1.675940 0.000000 0.007590 
#    y 0.000000 1.744250 0.000000 
#    z 0.007590 0.000000 1.715220 
# 
# From -- ./inp_files/47630.got.cif
#   From: 2010.05.17/outbox.cif.g08.bks.cpg/sg11_24_cif.got.tgz:47630.got - 2010.06.03 12:22:45.
