data_PCOD9165236
_publ_section_title
;
Structure prediction by ZEFSAII (Michael W. Deem and Ramdas Pophale) SiO2 
 PCOD9165236
Probable space group: P 21/M
;
_chemical_formula_sum "Si O2"
_cell_formula_units_Z 28
_cell_length_a 14.283053
_cell_length_b 8.399349
_cell_length_c 11.993719
_cell_angle_alpha 90.000000
_cell_angle_beta 70.356288
_cell_angle_gamma 90.000000
_cell_volume 1355.126411
_symmetry_space_group_name_H-M "P 21/M"
_symmetry_group_IT_number 11
_symmetry_cell_setting 'monoclinic'
loop_
_space_group_symop_operation_xyz
x,y,z
-x,1/2+y,-z
-x,-y,-z
x,1/2-y,z
loop_
_atom_site_type_symbol
_atom_site_label
_atom_site_fract_x
_atom_site_fract_y
_atom_site_fract_z
Si Si1 0.681504 0.933469 0.562732
Si Si2 0.517863 0.565986 0.369243
Si Si3 0.000277 0.940602 0.371713
Si Si4 0.185560 0.058719 0.699863
Si Si5 0.613713 0.936146 0.956566
Si Si6 0.309538 0.566517 0.845244
Si Si7 0.780058 0.437338 0.724413
O O1 0.648474 0.750000 0.576185
O O2 0.725236 0.972239 0.424127
O O3 0.591818 0.045205 0.636990
O O4 0.767035 0.960049 0.617942
O O5 0.500000 0.500000 0.500000
O O6 0.549459 0.750000 0.355972
O O7 0.595230 0.459832 0.272241
O O8 0.986945 0.750000 0.383045
O O9 0.912893 0.000728 0.325006
O O10 0.109183 0.973270 0.276402
O O11 0.000000 0.000000 0.500000
O O12 0.179137 0.250000 0.715712
O O13 0.216555 0.985174 0.805671
O O14 0.609830 0.750000 0.930440
O O15 0.663513 0.963402 0.057557
O O16 0.500000 0.000000 0.000000
O O17 0.689274 0.021035 0.841550
O O18 0.300044 0.750000 0.882547
O O19 0.777937 0.250000 0.697861
#
# Coordination Sequence:
#
# PCOD9165236 Si02
#       7
#     4   4   4   4   4   4   4
#     4  11  21  35  58  88 126 165 206 255 312 375
#     4  12  23  36  55  84 121 160 203 251 310 376
#     4  10  21  38  63  94 131 170 212 263 316 376
#     4  10  21  38  60  90 128 167 208 256 313 373
#     4  12  26  47  71  94 126 167 215 265 316 380
#     4  12  25  42  64  91 125 165 211 263 322 380
#     4  11  23  40  64  95 129 166 214 265 316 375
#
# _framework density 20.662279000000002
#
# number of rings (size 3 to 8) (size 9 to 14) (size 15 to 20)
#    0.000    0.857    2.857    5.571    0.000    1.714 
#    0.000    0.714    0.000    0.000    0.000    0.000 
#    0.000    0.000    0.000    0.000    0.000    0.000 
#
# Total GULP energy -156449.142332 kJ/mol
# GULP energy per Si atom -5587.469369 kJ/mol
# Density = 2.061525 g / cm^3
# Si number density = 20.662279 Si / 1000 Ang^3
#
#
#
# Elastic Constant Matrix: (Units=GPa)
#
#
# Indices 1 2 3 4 5 6 
#
# 1 131.0537 17.5985 14.3949 0.0000 7.0085 0.0000
# 2 17.5985 47.0016 -4.6372 0.0000 -5.5411 0.0000
# 3 14.3949 -4.6372 56.3379 0.0000 6.4955 0.0000
# 4 0.0000 0.0000 0.0000 27.7056 0.0000 5.5176
# 5 7.0085 -5.5411 6.4955 0.0000 32.9983 0.0000
# 6 0.0000 0.0000 0.0000 5.5176 0.0000 29.7866
#
#
#
# Elastic Compliance Matrix: (Units=1/GPa)
#
#
# Indices 1 2 3 4 5 6 
#
# 1 0.008468 -0.003623 -0.002235 0.000000 -0.001967 0.000000
# 2 -0.003623 0.023364 0.002361 0.000000 0.004228 0.000000
# 3 -0.002235 0.002361 0.018843 0.000000 -0.002838 0.000000
# 4 0.000000 0.000000 0.000000 0.037476 0.000000 -0.006942
# 5 -0.001967 0.004228 -0.002838 0.000000 0.031991 0.000000
# 6 0.000000 0.000000 0.000000 -0.006942 0.000000 0.034858
#
#
# Mechanical properties :
#
#
# Convention : Reuss Voigt Hill
#
# Bulk Modulus (GPa) = 22.89328 32.12284 27.50806
# Shear Modulus (GPa) = 28.32015 31.90056 30.11036
#
# Velocity S-wave (km/s) = 3.70621 3.93352 3.82155
# Velocity P-wave (km/s) = 5.42387 6.01751 5.72839
#
# Compressibility (1/GPa) = 0.04368093
#
# Stress axis : x y z
#
# Youngs Moduli (GPa) = 118.09681 42.80132 53.07103
#
# Poissons Ratio (x) = 0.15506 0.11861
# Poissons Ratio (y) = 0.42785 -0.12532
# Poissons Ratio (z) = 0.26395 -0.10107
#
# Static dielectric constant tensor:
#      x y z
#    x 1.841550 0.000000 0.035310 
#    y 0.000000 1.704000 0.000000 
#    z 0.035310 0.000000 1.730910 
# 
# From -- ./inp_files/37441.got.cif
#   From: 2010.05.17/outbox.cif.g08.bks.cpg/sg11_19_cif.got.tgz:37441.got - 2010.06.03 12:22:45.
