data_PCOD9165436
_publ_section_title
;
Structure prediction by ZEFSAII (Michael W. Deem and Ramdas Pophale) SiO2 
 PCOD9165436
Probable space group: P 21/M
;
_chemical_formula_sum "Si O2"
_cell_formula_units_Z 20
_cell_length_a 19.085331
_cell_length_b 8.562214
_cell_length_c 14.011541
_cell_angle_alpha 90.000000
_cell_angle_beta 152.989168
_cell_angle_gamma 90.000000
_cell_volume 1039.871185
_symmetry_space_group_name_H-M "P 21/M"
_symmetry_group_IT_number 11
_symmetry_cell_setting 'monoclinic'
loop_
_space_group_symop_operation_xyz
x,y,z
-x,1/2+y,-z
-x,-y,-z
x,1/2-y,z
loop_
_atom_site_type_symbol
_atom_site_label
_atom_site_fract_x
_atom_site_fract_y
_atom_site_fract_z
Si Si1 0.065282 0.437488 0.862172
Si Si2 0.532908 0.061404 0.934379
Si Si3 0.129718 0.937637 0.729053
Si Si4 0.664578 0.938577 0.665402
Si Si5 0.261568 0.439117 0.461130
O O1 0.064517 0.250000 0.857855
O O2 0.097756 0.502232 0.796449
O O3 0.900873 0.495909 0.700368
O O4 0.200332 0.488845 0.098531
O O5 0.532308 0.250000 0.936137
O O6 0.398843 0.011394 0.698683
O O7 0.700958 0.011119 0.101136
O O8 0.500000 0.000000 0.000000
O O9 0.125749 0.750000 0.724330
O O10 0.000000 0.000000 0.500000
O O11 0.660122 0.750000 0.660321
O O12 0.702052 0.989110 0.602894
O O13 0.500000 0.000000 0.500000
O O14 0.254646 0.250000 0.454110
#
# Coordination Sequence:
#
# PCOD9165436 Si02
#       5
#     4   4   4   4   4
#     4  11  23  38  58  88 119 150 191 240 291 346
#     4  10  22  38  58  83 112 147 189 234 284 339
#     4  11  23  40  61  86 117 154 193 237 287 343
#     4  10  22  39  60  86 117 152 195 242 290 344
#     4  10  21  39  60  83 113 153 195 237 288 346
#
# _framework density 19.233152
#
# number of rings (size 3 to 8) (size 9 to 14) (size 15 to 20)
#    0.000    1.600    0.000    4.200    0.000    9.600 
#    0.000    0.000    0.000    0.000    0.000    0.000 
#    0.000    0.000    0.000    0.000    0.000    0.000 
#
# Total GULP energy -111842.606349 kJ/mol
# GULP energy per Si atom -5592.130317 kJ/mol
# Density = 1.918938 g / cm^3
# Si number density = 19.233152 Si / 1000 Ang^3
#
#
#
# Elastic Constant Matrix: (Units=GPa)
#
#
# Indices 1 2 3 4 5 6 
#
# 1 242.9795 40.1809 150.2057 0.0000 -0.1860 0.0000
# 2 40.1809 23.7370 43.7703 0.0000 0.0166 0.0000
# 3 150.2057 43.7703 245.0856 0.0000 -0.1970 0.0000
# 4 0.0000 0.0000 0.0000 29.8301 0.0000 2.2099
# 5 -0.1860 0.0166 -0.1970 0.0000 47.0549 0.0000
# 6 0.0000 0.0000 0.0000 2.2099 0.0000 37.9438
#
#
#
# Elastic Compliance Matrix: (Units=1/GPa)
#
#
# Indices 1 2 3 4 5 6 
#
# 1 0.007157 -0.006004 -0.003314 0.000000 0.000017 0.000000
# 2 -0.006004 0.067852 -0.008438 0.000000 -0.000083 0.000000
# 3 -0.003314 -0.008438 0.007618 0.000000 0.000022 0.000000
# 4 0.000000 0.000000 0.000000 0.033668 0.000000 -0.001961
# 5 0.000017 -0.000083 0.000022 0.000000 0.021252 0.000000
# 6 0.000000 0.000000 0.000000 -0.001961 0.000000 0.026469
#
#
# Mechanical properties :
#
#
# Convention : Reuss Voigt Hill
#
# Bulk Modulus (GPa) = 21.22494 108.90176 65.06335
# Shear Modulus (GPa) = 23.23052 41.47545 32.35299
#
# Velocity S-wave (km/s) = 3.47917 4.64880 4.10585
# Velocity P-wave (km/s) = 5.21527 9.24986 7.50863
#
# Compressibility (1/GPa) = 0.04711439
#
# Stress axis : x y z
#
# Youngs Moduli (GPa) = 139.71883 14.73804 131.26278
#
# Poissons Ratio (x) = 0.08849 0.43502
# Poissons Ratio (y) = 0.83891 1.10759
# Poissons Ratio (z) = 0.46305 0.12436
#
# Static dielectric constant tensor:
#      x y z
#    x 1.621320 0.000000 -0.003990 
#    y 0.000000 1.655780 0.000000 
#    z -0.003990 0.000000 1.647020 
# 
# From -- ./inp_files/15890.got.cif
#   From: 2010.05.17/outbox.cif.g08.bks.cpg/sg11_8_cif.got.tgz:15890.got - 2010.06.03 12:22:45.
