data_PCOD9165879
_publ_section_title
;
Structure prediction by ZEFSAII (Michael W. Deem and Ramdas Pophale) SiO2 
 PCOD9165879
Probable space group: P 21/M
;
_chemical_formula_sum "Si O2"
_cell_formula_units_Z 20
_cell_length_a 7.203741
_cell_length_b 12.071984
_cell_length_c 14.522938
_cell_angle_alpha 90.000000
_cell_angle_beta 142.329105
_cell_angle_gamma 90.000000
_cell_volume 771.829371
_symmetry_space_group_name_H-M "P 21/M"
_symmetry_group_IT_number 11
_symmetry_cell_setting 'monoclinic'
loop_
_space_group_symop_operation_xyz
x,y,z
-x,1/2+y,-z
-x,-y,-z
x,1/2-y,z
loop_
_atom_site_type_symbol
_atom_site_label
_atom_site_fract_x
_atom_site_fract_y
_atom_site_fract_z
Si Si1 0.884717 0.873707 0.527408
Si Si2 0.580365 0.875347 0.764082
Si Si3 0.406512 0.878651 0.175352
Si Si4 0.015791 0.063904 0.242438
Si Si5 0.351463 0.367893 0.938241
O O1 0.874008 0.750000 0.564985
O O2 0.634281 0.878298 0.351085
O O3 0.216655 0.887586 0.613374
O O4 0.856761 0.951227 0.605385
O O5 0.624731 0.750000 0.820484
O O6 0.756442 0.875829 0.736145
O O7 0.691206 0.988644 0.858284
O O8 0.266485 0.750000 0.122794
O O9 0.561225 0.875979 0.135296
O O10 0.919799 0.951805 0.153890
O O11 0.675413 0.116525 0.115927
O O12 0.227256 0.250000 0.911172
#
# Coordination Sequence:
#
# PCOD9165879 Si02
#       5
#     4   4   4   4   4
#     4  10  21  41  65  89 125 167 206 252 310 369
#     4  11  23  39  65  96 124 164 212 255 304 373
#     4  10  22  43  65  92 130 165 202 259 316 365
#     4  11  23  41  64  90 125 164 213 253 306 374
#     4  10  22  42  64  89 127 165 204 261 316 363
#
# _framework density 25.912462999999999
#
# number of rings (size 3 to 8) (size 9 to 14) (size 15 to 20)
#    0.000    1.600    2.000    2.400    0.000    2.400 
#    0.000    0.000    0.000    0.000    0.000    0.000 
#    0.000    0.000    0.000    0.000    0.000    0.000 
#
# Total GULP energy -111544.669285 kJ/mol
# GULP energy per Si atom -5577.233464 kJ/mol
# Density = 2.585349 g / cm^3
# Si number density = 25.912463 Si / 1000 Ang^3
#
#
#
# Elastic Constant Matrix: (Units=GPa)
#
#
# Indices 1 2 3 4 5 6 
#
# 1 120.1447 10.6388 32.0607 0.0000 -12.5589 0.0000
# 2 10.6388 207.9828 -4.0533 0.0000 8.8845 0.0000
# 3 32.0607 -4.0533 101.5680 0.0000 -20.2154 0.0000
# 4 0.0000 0.0000 0.0000 -58.5790 0.0000 -29.2476
# 5 -12.5589 8.8845 -20.2154 0.0000 38.3651 0.0000
# 6 0.0000 0.0000 0.0000 -29.2476 0.0000 22.6918
#
#
#
# Elastic Compliance Matrix: (Units=1/GPa)
#
#
# Indices 1 2 3 4 5 6 
#
# 1 0.009255 -0.000601 -0.002586 0.000000 0.001806 0.000000
# 2 -0.000601 0.004895 0.000134 0.000000 -0.001260 0.000000
# 3 -0.002586 0.000134 0.011722 0.000000 0.005299 0.000000
# 4 0.000000 0.000000 0.000000 -0.010387 0.000000 -0.013388
# 5 0.001806 -0.001260 0.005299 0.000000 0.029740 0.000000
# 6 0.000000 0.000000 0.000000 -0.013388 0.000000 0.026813
#
#
# Mechanical properties :
#
#
# Convention : Reuss Voigt Hill
#
# Bulk Modulus (GPa) = 50.58848 56.33197 53.46023
# Shear Modulus (GPa) = 59.00811 26.56554 42.78682
#
# Velocity S-wave (km/s) = 4.77719 3.20535 4.06791
# Velocity P-wave (km/s) = 7.07064 5.95698 6.53756
#
# Compressibility (1/GPa) = 0.01976735
#
# Stress axis : x y z
#
# Youngs Moduli (GPa) = 108.04491 204.27942 85.31018
#
# Poissons Ratio (x) = 0.12277 0.22061
# Poissons Ratio (y) = 0.06493 -0.01146
# Poissons Ratio (z) = 0.27940 -0.02745
#
# Static dielectric constant tensor:
#      x y z
#    x 1.927540 0.000000 0.024500 
#    y 0.000000 2.214350 0.000000 
#    z 0.024500 0.000000 1.963210 
# 
# From -- ./inp_files/57641.got.cif
#   From: 2010.05.17/outbox.cif.g08.bks.cpg/sg11_29_cif.got.tgz:57641.got - 2010.06.03 12:22:45.
