data_PCOD9165637
_publ_section_title
;
Structure prediction by ZEFSAII (Michael W. Deem and Ramdas Pophale) SiO2 
 PCOD9165637
Probable space group: P 21/M
;
_chemical_formula_sum "Si O2"
_cell_formula_units_Z 30
_cell_length_a 12.024687
_cell_length_b 12.639941
_cell_length_c 20.262540
_cell_angle_alpha 90.000000
_cell_angle_beta 27.637859
_cell_angle_gamma 90.000000
_cell_volume 1428.630016
_symmetry_space_group_name_H-M "P 21/M"
_symmetry_group_IT_number 11
_symmetry_cell_setting 'monoclinic'
loop_
_space_group_symop_operation_xyz
x,y,z
-x,1/2+y,-z
-x,-y,-z
x,1/2-y,z
loop_
_atom_site_type_symbol
_atom_site_label
_atom_site_fract_x
_atom_site_fract_y
_atom_site_fract_z
Si Si1 0.519240 0.557368 0.355759
Si Si2 0.181120 0.453109 0.072847
Si Si3 0.689331 0.128671 0.812490
Si Si4 0.725920 0.750000 0.331903
Si Si5 0.872597 0.370213 0.127222
Si Si6 0.274613 0.535202 0.348316
Si Si7 0.678044 0.127653 0.092492
Si Si8 0.133833 0.042111 0.656638
O O1 0.654162 0.657138 0.314981
O O2 0.695544 0.460624 0.245455
O O3 0.374900 0.581050 0.364099
O O4 0.337950 0.511847 0.505966
O O5 0.112836 0.388841 0.042456
O O6 0.959619 0.460445 0.238449
O O7 0.425150 0.407779 0.973667
O O8 0.233361 0.571716 0.020100
O O9 0.723608 0.250000 0.811363
O O10 0.701917 0.110830 0.727137
O O11 0.899803 0.062436 0.734992
O O12 0.786791 0.653811 0.353622
O O13 0.786325 0.250000 0.184907
O O14 0.877441 0.381848 0.045545
O O15 0.444626 0.434787 0.240646
O O16 0.000000 0.500000 0.500000
O O17 0.629423 0.250000 0.107263
#
# Coordination Sequence:
#
# PCOD9165637 Si02
#       8
#     4   4   4   2   4   4   4   4
#     4  11  25  44  68 103 131 171 224 277 336 396
#     4  11  23  40  62  93 134 172 225 271 320 391
#     4  11  24  43  67  96 128 177 222 268 333 395
#     4  12  26  44  66 102 136 176 220 272 336 396
#     4  10  21  39  65  94 130 173 219 277 331 385
#     4  10  21  43  68  96 131 164 219 281 331 390
#     4   9  21  38  61  92 128 172 219 268 331 393
#     4  12  25  44  67  94 136 179 218 269 329 404
#
# _framework density 20.999139
#
# number of rings (size 3 to 8) (size 9 to 14) (size 15 to 20)
#    0.000    1.333    3.333    1.600    2.800    0.533 
#    1.200    0.000    0.000    0.000    0.000    0.000 
#    0.000    0.000    0.000    0.000    0.000    0.000 
#
# Total GULP energy -167168.803737 kJ/mol
# GULP energy per Si atom -5572.293458 kJ/mol
# Density = 2.095134 g / cm^3
# Si number density = 20.999139 Si / 1000 Ang^3
#
#
#
# Elastic Constant Matrix: (Units=GPa)
#
#
# Indices 1 2 3 4 5 6 
#
# 1 88.3770 -2.1003 -9.0408 0.0000 -8.5807 0.0000
# 2 -2.1003 70.1122 -7.1055 0.0000 -4.9633 0.0000
# 3 -9.0408 -7.1055 43.8859 0.0000 0.8181 0.0000
# 4 0.0000 0.0000 0.0000 4.6070 0.0000 -0.8148
# 5 -8.5807 -4.9633 0.8181 0.0000 27.1805 0.0000
# 6 0.0000 0.0000 0.0000 -0.8148 0.0000 35.9679
#
#
#
# Elastic Compliance Matrix: (Units=1/GPa)
#
#
# Indices 1 2 3 4 5 6 
#
# 1 0.011971 0.000889 0.002538 0.000000 0.003865 0.000000
# 2 0.000889 0.014750 0.002517 0.000000 0.002898 0.000000
# 3 0.002538 0.002517 0.023707 0.000000 0.000547 0.000000
# 4 0.000000 0.000000 0.000000 0.217935 0.000000 0.004937
# 5 0.003865 0.002898 0.000547 0.000000 0.038524 0.000000
# 6 0.000000 0.000000 0.000000 0.004937 0.000000 0.027914
#
#
# Mechanical properties :
#
#
# Convention : Reuss Voigt Hill
#
# Bulk Modulus (GPa) = 16.04686 18.43130 17.23908
# Shear Modulus (GPa) = 14.54826 28.25918 21.40372
#
# Velocity S-wave (km/s) = 2.63497 3.67240 3.19606
# Velocity P-wave (km/s) = 4.11287 5.17477 4.67407
#
# Compressibility (1/GPa) = 0.06231751
#
# Stress axis : x y z
#
# Youngs Moduli (GPa) = 83.53358 67.79750 42.18233
#
# Poissons Ratio (x) = -0.06030 -0.10706
# Poissons Ratio (y) = -0.07430 -0.10619
# Poissons Ratio (z) = -0.21202 -0.17067
#
# Static dielectric constant tensor:
#      x y z
#    x 1.800950 0.000000 0.002900 
#    y 0.000000 1.711960 0.000000 
#    z 0.002900 0.000000 1.775340 
# 
# From -- ./inp_files/43310.got.cif
#   From: 2010.05.17/outbox.cif.g08.bks.cpg/sg11_22_cif.got.tgz:43310.got - 2010.06.03 12:22:45.
