data_PCOD9165325
_publ_section_title
;
Structure prediction by ZEFSAII (Michael W. Deem and Ramdas Pophale) SiO2 
 PCOD9165325
Probable space group: P 21/M
;
_chemical_formula_sum "Si O2"
_cell_formula_units_Z 28
_cell_length_a 22.076457
_cell_length_b 9.015613
_cell_length_c 14.621317
_cell_angle_alpha 90.000000
_cell_angle_beta 148.996692
_cell_angle_gamma 90.000000
_cell_volume 1498.967420
_symmetry_space_group_name_H-M "P 21/M"
_symmetry_group_IT_number 11
_symmetry_cell_setting 'monoclinic'
loop_
_space_group_symop_operation_xyz
x,y,z
-x,1/2+y,-z
-x,-y,-z
x,1/2-y,z
loop_
_atom_site_type_symbol
_atom_site_label
_atom_site_fract_x
_atom_site_fract_y
_atom_site_fract_z
Si Si1 0.125122 0.427786 0.951696
Si Si2 0.239335 0.926375 0.277750
Si Si3 0.859081 0.073745 0.655984
Si Si4 0.280553 0.925392 0.002483
Si Si5 0.519499 0.573824 0.426452
Si Si6 0.609532 0.924291 0.022351
Si Si7 0.637448 0.575799 0.275025
O O1 0.137857 0.250000 0.970372
O O2 0.987826 0.465498 0.786126
O O3 0.193772 0.498115 0.126471
O O4 0.180776 0.493195 0.931741
O O5 0.251794 0.750000 0.279486
O O6 0.152372 0.952893 0.250098
O O7 0.365244 0.996663 0.465421
O O8 0.840926 0.250000 0.618409
O O9 0.755003 0.986776 0.471891
O O10 0.258064 0.750000 0.969743
O O11 0.403360 0.948844 0.215921
O O12 0.301969 0.992115 0.930305
O O13 0.500000 0.500000 0.500000
O O14 0.538835 0.750000 0.461076
O O15 0.608356 0.750000 0.999540
O O16 0.478838 0.990900 0.841798
O O17 0.641811 0.943279 0.170762
O O18 0.623531 0.750000 0.277286
#
# Coordination Sequence:
#
# PCOD9165325 Si02
#       7
#     4   4   4   4   4   4   4
#     4  11  23  39  58  81 114 155 196 238 285 340
#     4  11  22  37  57  83 115 151 194 239 286 341
#     4  10  23  40  59  84 114 152 195 238 287 340
#     4  11  23  38  58  86 117 152 194 237 286 343
#     4  11  22  35  54  81 114 148 187 233 284 338
#     4  10  21  38  62  90 119 150 185 232 289 345
#     4  10  21  38  62  91 118 147 188 236 286 340
#
# _framework density 18.679525000000002
#
# number of rings (size 3 to 8) (size 9 to 14) (size 15 to 20)
#    0.000    1.429    1.429    3.857    0.000    8.000 
#    0.000    0.714    0.000    0.000    0.000    0.000 
#    0.000    0.000    0.000    0.000    0.000    0.000 
#
# Total GULP energy -156568.118308 kJ/mol
# GULP energy per Si atom -5591.718511 kJ/mol
# Density = 1.863701 g / cm^3
# Si number density = 18.679525 Si / 1000 Ang^3
#
#
#
# Elastic Constant Matrix: (Units=GPa)
#
#
# Indices 1 2 3 4 5 6 
#
# 1 107.3841 54.8590 22.2921 0.0000 26.7384 0.0000
# 2 54.8590 64.3473 23.6584 0.0000 9.1130 0.0000
# 3 22.2921 23.6584 40.5911 0.0000 13.4961 0.0000
# 4 0.0000 0.0000 0.0000 28.5386 0.0000 0.1986
# 5 26.7384 9.1130 13.4961 0.0000 26.3063 0.0000
# 6 0.0000 0.0000 0.0000 0.1986 0.0000 30.3811
#
#
#
# Elastic Compliance Matrix: (Units=1/GPa)
#
#
# Indices 1 2 3 4 5 6 
#
# 1 0.022167 -0.017897 0.004446 0.000000 -0.018612 0.000000
# 2 -0.017897 0.034257 -0.014758 0.000000 0.013895 0.000000
# 3 0.004446 -0.014758 0.036891 0.000000 -0.018333 0.000000
# 4 0.000000 0.000000 0.000000 0.035042 0.000000 -0.000229
# 5 -0.018612 0.013895 -0.018333 0.000000 0.061523 0.000000
# 6 0.000000 0.000000 0.000000 -0.000229 0.000000 0.032917
#
#
# Mechanical properties :
#
#
# Convention : Reuss Voigt Hill
#
# Bulk Modulus (GPa) = 27.10227 45.99351 36.54789
# Shear Modulus (GPa) = 17.15190 24.47940 20.81565
#
# Velocity S-wave (km/s) = 3.03350 3.62400 3.34182
# Velocity P-wave (km/s) = 5.17785 6.49516 5.87355
#
# Compressibility (1/GPa) = 0.03689728
#
# Stress axis : x y z
#
# Youngs Moduli (GPa) = 45.11279 29.19147 27.10660
#
# Poissons Ratio (x) = 0.52243 -0.12051
# Poissons Ratio (y) = 0.80737 0.40003
# Poissons Ratio (z) = -0.20056 0.43079
#
# Static dielectric constant tensor:
#      x y z
#    x 1.654070 0.000000 -0.001170 
#    y 0.000000 1.622890 0.000000 
#    z -0.001170 0.000000 1.615790 
# 
# From -- ./inp_files/37669.got.cif
#   From: 2010.05.17/outbox.cif.g08.bks.cpg/sg11_19_cif.got.tgz:37669.got - 2010.06.03 12:22:45.
