data_PCOD9165782
_publ_section_title
;
Structure prediction by ZEFSAII (Michael W. Deem and Ramdas Pophale) SiO2 
 PCOD9165782
Probable space group: P 21/M
;
_chemical_formula_sum "Si O2"
_cell_formula_units_Z 20
_cell_length_a 14.891659
_cell_length_b 10.139818
_cell_length_c 11.942295
_cell_angle_alpha 90.000000
_cell_angle_beta 30.259256
_cell_angle_gamma 90.000000
_cell_volume 908.692721
_symmetry_space_group_name_H-M "P 21/M"
_symmetry_group_IT_number 11
_symmetry_cell_setting 'monoclinic'
loop_
_space_group_symop_operation_xyz
x,y,z
-x,1/2+y,-z
-x,-y,-z
x,1/2-y,z
loop_
_atom_site_type_symbol
_atom_site_label
_atom_site_fract_x
_atom_site_fract_y
_atom_site_fract_z
Si Si1 0.268916 0.902569 0.179479
Si Si2 0.215994 0.101899 0.863609
Si Si3 0.449636 0.101019 0.826470
Si Si4 0.116615 0.394373 0.517064
Si Si5 0.181590 0.530107 0.666102
O O1 0.319767 0.750000 0.146807
O O2 0.091419 0.900116 0.292823
O O3 0.207559 0.984401 0.354241
O O4 0.412791 0.991552 0.960049
O O5 0.272576 0.250000 0.773463
O O6 0.331093 0.061073 0.846443
O O7 0.233256 0.013420 0.735270
O O8 0.007815 0.101797 0.121337
O O9 0.395098 0.250000 0.919294
O O10 0.652019 0.103500 0.567045
O O11 0.183520 0.250000 0.408422
O O12 0.143932 0.411501 0.619758
#
# Coordination Sequence:
#
# PCOD9165782 Si02
#       5
#     4   4   4   4   4
#     4  10  22  40  64  94 126 165 208 258 316 372
#     4  10  22  40  61  90 128 167 206 257 309 366
#     4  11  23  41  64  95 129 166 208 255 310 370
#     4  10  21  40  65  93 125 165 209 258 314 373
#     4  11  22  39  64  93 124 166 211 255 307 374
#
# _framework density 22.009640000000001
#
# number of rings (size 3 to 8) (size 9 to 14) (size 15 to 20)
#    0.000    1.600    2.000    2.400    0.000    4.800 
#    0.000    1.000    0.000    0.000    0.000    0.000 
#    0.000    0.000    0.000    0.000    0.000    0.000 
#
# Total GULP energy -111753.733680 kJ/mol
# GULP energy per Si atom -5587.686684 kJ/mol
# Density = 2.195955 g / cm^3
# Si number density = 22.009640 Si / 1000 Ang^3
#
#
#
# Elastic Constant Matrix: (Units=GPa)
#
#
# Indices 1 2 3 4 5 6 
#
# 1 78.7034 22.6197 11.7693 0.0000 -2.7468 0.0000
# 2 22.6197 132.8644 42.7762 0.0000 16.8609 0.0000
# 3 11.7693 42.7762 94.7208 0.0000 9.1864 0.0000
# 4 0.0000 0.0000 0.0000 11.7421 0.0000 14.0585
# 5 -2.7468 16.8609 9.1864 0.0000 22.8595 0.0000
# 6 0.0000 0.0000 0.0000 14.0585 0.0000 -106.2517
#
#
#
# Elastic Compliance Matrix: (Units=1/GPa)
#
#
# Indices 1 2 3 4 5 6 
#
# 1 0.013708 -0.002524 -0.000940 0.000000 0.003887 0.000000
# 2 -0.002524 0.009882 -0.003551 0.000000 -0.006165 0.000000
# 3 -0.000940 -0.003551 0.012523 0.000000 -0.002526 0.000000
# 4 0.000000 0.000000 0.000000 0.073518 0.000000 0.009727
# 5 0.003887 -0.006165 -0.002526 0.000000 0.049775 0.000000
# 6 0.000000 0.000000 0.000000 0.009727 0.000000 -0.008125
#
#
# Mechanical properties :
#
#
# Convention : Reuss Voigt Hill
#
# Bulk Modulus (GPa) = 45.28730 51.17989 48.23359
# Shear Modulus (GPa) = 28.95664 0.94487 14.95075
#
# Velocity S-wave (km/s) = 3.63110 0.65592 2.60913
# Velocity P-wave (km/s) = 6.18067 4.88646 5.57127
#
# Compressibility (1/GPa) = 0.02208125
#
# Stress axis : x y z
#
# Youngs Moduli (GPa) = 72.95194 101.19546 79.85393
#
# Poissons Ratio (x) = 0.25544 0.07508
# Poissons Ratio (y) = 0.18415 0.28357
# Poissons Ratio (z) = 0.06859 0.35936
#
# Static dielectric constant tensor:
#      x y z
#    x 1.805060 0.000000 -0.019280 
#    y 0.000000 1.831530 0.000000 
#    z -0.019280 0.000000 1.786710 
# 
# From -- ./inp_files/24333.got.cif
#   From: 2010.05.17/outbox.cif.g08.bks.cpg/sg11_13_cif.got.tgz:24333.got - 2010.06.03 12:22:45.
