data_PCOD9165815
_publ_section_title
;
Structure prediction by ZEFSAII (Michael W. Deem and Ramdas Pophale) SiO2 
 PCOD9165815
Probable space group: P 21/M
;
_chemical_formula_sum "Si O2"
_cell_formula_units_Z 20
_cell_length_a 12.424515
_cell_length_b 14.389373
_cell_length_c 7.733023
_cell_angle_alpha 90.000000
_cell_angle_beta 35.948382
_cell_angle_gamma 90.000000
_cell_volume 811.615387
_symmetry_space_group_name_H-M "P 21/M"
_symmetry_group_IT_number 11
_symmetry_cell_setting 'monoclinic'
loop_
_space_group_symop_operation_xyz
x,y,z
-x,1/2+y,-z
-x,-y,-z
x,1/2-y,z
loop_
_atom_site_type_symbol
_atom_site_label
_atom_site_fract_x
_atom_site_fract_y
_atom_site_fract_z
Si Si1 0.594084 0.959262 0.175693
Si Si2 0.817085 0.638878 0.186059
Si Si3 0.183350 0.359226 0.412794
Si Si4 0.234985 0.857827 0.551919
Si Si5 0.757916 0.144607 0.873427
O O1 0.388808 0.922564 0.431754
O O2 0.302612 0.084802 0.796342
O O3 0.696602 0.919893 0.871515
O O4 0.627059 0.068756 0.125758
O O5 0.797690 0.750000 0.180755
O O6 0.777840 0.621394 0.438000
O O7 0.030810 0.616085 0.873952
O O8 0.221342 0.250000 0.329191
O O9 0.967614 0.374007 0.657310
O O10 0.266498 0.750000 0.562019
O O11 0.247535 0.861866 0.327400
O O12 0.710003 0.250000 0.985996
#
# Coordination Sequence:
#
# PCOD9165815 Si02
#       5
#     4   4   4   4   4
#     4  12  22  41  70  97 127 176 228 266 324 398
#     4  10  22  41  65  98 139 173 209 269 334 393
#     4  10  21  40  66  97 134 173 214 268 332 393
#     4  10  21  40  66  95 131 172 216 270 333 393
#     4  10  22  42  65  93 133 177 218 275 335 384
#
# _framework density 24.642216999999999
#
# number of rings (size 3 to 8) (size 9 to 14) (size 15 to 20)
#    0.000    1.600    2.000    3.000    0.000    0.800 
#    3.600    1.000    0.000    0.000    0.000    0.000 
#    0.000    0.000    0.000    0.000    0.000    0.000 
#
# Total GULP energy -112393.368242 kJ/mol
# GULP energy per Si atom -5619.668412 kJ/mol
# Density = 2.458613 g / cm^3
# Si number density = 24.642217 Si / 1000 Ang^3
#
#
#
# Elastic Constant Matrix: (Units=GPa)
#
#
# Indices 1 2 3 4 5 6 
#
# 1 131.8274 69.3626 68.9395 0.0000 -2.2653 0.0000
# 2 69.3626 104.9342 78.0210 0.0000 -4.8982 0.0000
# 3 68.9395 78.0210 101.5133 0.0000 -3.1961 0.0000
# 4 0.0000 0.0000 0.0000 30.7323 0.0000 2.3701
# 5 -2.2653 -4.8982 -3.1961 0.0000 37.4282 0.0000
# 6 0.0000 0.0000 0.0000 2.3701 0.0000 35.7005
#
#
#
# Elastic Compliance Matrix: (Units=1/GPa)
#
#
# Indices 1 2 3 4 5 6 
#
# 1 0.012654 -0.004623 -0.005049 0.000000 -0.000270 0.000000
# 2 -0.004623 0.024006 -0.015262 0.000000 0.001559 0.000000
# 3 -0.005049 -0.015262 0.025004 0.000000 -0.000168 0.000000
# 4 0.000000 0.000000 0.000000 0.032707 0.000000 -0.002171
# 5 -0.000270 0.001559 -0.000168 0.000000 0.026891 0.000000
# 6 0.000000 0.000000 0.000000 -0.002171 0.000000 0.028155
#
#
# Mechanical properties :
#
#
# Convention : Reuss Voigt Hill
#
# Bulk Modulus (GPa) = 84.76890 85.65790 85.21340
# Shear Modulus (GPa) = 24.60440 28.90232 26.75336
#
# Velocity S-wave (km/s) = 3.16328 3.42845 3.29853
# Velocity P-wave (km/s) = 6.91493 7.10693 7.01159
#
# Compressibility (1/GPa) = 0.01179678
#
# Stress axis : x y z
#
# Youngs Moduli (GPa) = 79.02802 41.65653 39.99329
#
# Poissons Ratio (x) = 0.19258 0.20192
# Poissons Ratio (y) = 0.36535 0.61037
# Poissons Ratio (z) = 0.39899 0.63575
#
# Static dielectric constant tensor:
#      x y z
#    x 1.887680 0.000000 0.005150 
#    y 0.000000 1.941330 0.000000 
#    z 0.005150 0.000000 1.908900 
# 
# From -- ./inp_files/41457.got.cif
#   From: 2010.05.17/outbox.cif.g08.bks.cpg/sg11_21_cif.got.tgz:41457.got - 2010.06.03 12:22:45.
