data_PCOD9165840
_publ_section_title
;
Structure prediction by ZEFSAII (Michael W. Deem and Ramdas Pophale) SiO2 
 PCOD9165840
Probable space group: P 21/M
;
_chemical_formula_sum "Si O2"
_cell_formula_units_Z 20
_cell_length_a 9.987238
_cell_length_b 10.116620
_cell_length_c 9.425720
_cell_angle_alpha 90.000000
_cell_angle_beta 72.399898
_cell_angle_gamma 90.000000
_cell_volume 907.768080
_symmetry_space_group_name_H-M "P 21/M"
_symmetry_group_IT_number 11
_symmetry_cell_setting 'monoclinic'
loop_
_space_group_symop_operation_xyz
x,y,z
-x,1/2+y,-z
-x,-y,-z
x,1/2-y,z
loop_
_atom_site_type_symbol
_atom_site_label
_atom_site_fract_x
_atom_site_fract_y
_atom_site_fract_z
Si Si1 0.289613 0.402868 0.349830
Si Si2 0.440769 0.250000 0.070921
Si Si3 0.304506 0.993795 0.630542
Si Si4 0.004716 0.096613 0.300173
Si Si5 0.968678 0.750000 0.971357
Si Si6 0.702190 0.250000 0.158282
Si Si7 0.316245 0.250000 0.797701
O O1 0.274938 0.250000 0.411118
O O2 0.377686 0.375614 0.178774
O O3 0.354606 0.492786 0.451643
O O4 0.135135 0.449840 0.351155
O O5 0.604465 0.250000 0.052544
O O6 0.388079 0.250000 0.928656
O O7 0.134390 0.988752 0.662557
O O8 0.330560 0.871533 0.725854
O O9 0.352208 0.121480 0.698648
O O10 0.966790 0.250000 0.356194
O O11 0.058626 0.123551 0.122350
O O12 0.135246 0.750000 0.941209
O O13 0.853289 0.750000 0.127374
#
# Coordination Sequence:
#
# PCOD9165840 Si02
#       7
#     4   2   4   4   2   2   2
#     4   9  17  36  57  86 115 148 191 238 277 353
#     4  10  21  41  59  82 118 161 192 235 296 341
#     4  11  21  35  61  92 114 150 196 243 289 341
#     4   8  15  33  55  81 115 147 176 234 290 333
#     4   8  16  36  52  87 109 148 186 234 280 341
#     4  10  24  39  57  84 124 155 185 249 294 337
#     4  12  21  36  66  87 109 158 201 236 284 353
#
# _framework density 22.032057999999999
#
# number of rings (size 3 to 8) (size 9 to 14) (size 15 to 20)
#    1.200    1.200    4.000    0.600    0.000    4.800 
#    0.000    0.000    0.000    1.200    5.200    0.000 
#    0.000    0.000    0.000    0.000    0.000    0.000 
#
# Total GULP energy -111447.885613 kJ/mol
# GULP energy per Si atom -5572.394281 kJ/mol
# Density = 2.198191 g / cm^3
# Si number density = 22.032058 Si / 1000 Ang^3
#
#
#
# Elastic Constant Matrix: (Units=GPa)
#
#
# Indices 1 2 3 4 5 6 
#
# 1 117.5309 38.7090 52.3511 0.0000 23.5448 0.0000
# 2 38.7090 72.6693 23.9349 0.0000 17.2589 0.0000
# 3 52.3511 23.9349 79.3998 0.0000 25.2994 0.0000
# 4 0.0000 0.0000 0.0000 -0.0560 0.0000 -17.8966
# 5 23.5448 17.2589 25.2994 0.0000 31.0558 0.0000
# 6 0.0000 0.0000 0.0000 -17.8966 0.0000 -30.1853
#
#
#
# Elastic Compliance Matrix: (Units=1/GPa)
#
#
# Indices 1 2 3 4 5 6 
#
# 1 0.013438 -0.004387 -0.006845 0.000000 -0.002173 0.000000
# 2 -0.004387 0.017714 -0.000500 0.000000 -0.006111 0.000000
# 3 -0.006845 -0.000500 0.020956 0.000000 -0.011604 0.000000
# 4 0.000000 0.000000 0.000000 0.094744 0.000000 -0.056173
# 5 -0.002173 -0.006111 -0.011604 0.000000 0.046697 0.000000
# 6 0.000000 0.000000 0.000000 -0.056173 0.000000 0.000176
#
#
# Mechanical properties :
#
#
# Convention : Reuss Voigt Hill
#
# Bulk Modulus (GPa) = 34.91253 55.51001 45.21127
# Shear Modulus (GPa) = 22.05211 10.46990 16.26101
#
# Velocity S-wave (km/s) = 3.16715 2.18230 2.71968
# Velocity P-wave (km/s) = 5.40880 5.62136 5.51610
#
# Compressibility (1/GPa) = 0.02864301
#
# Stress axis : x y z
#
# Youngs Moduli (GPa) = 74.41806 56.45269 47.71962
#
# Poissons Ratio (x) = 0.24767 0.32663
# Poissons Ratio (y) = 0.32649 0.02386
# Poissons Ratio (z) = 0.50938 0.02823
#
# Static dielectric constant tensor:
#      x y z
#    x 1.831560 0.000000 -0.023650 
#    y 0.000000 1.800190 0.000000 
#    z -0.023650 0.000000 1.821070 
# 
# From -- ./inp_files/16360.got.cif
#   From: 2010.05.17/outbox.cif.g08.bks.cpg/sg11_9_cif.got.tgz:16360.got - 2010.06.03 12:22:45.
