data_PCOD9165206
_publ_section_title
;
Structure prediction by ZEFSAII (Michael W. Deem and Ramdas Pophale) SiO2 
 PCOD9165206
Probable space group: P 21/M
;
_chemical_formula_sum "Si O2"
_cell_formula_units_Z 24
_cell_length_a 15.658951
_cell_length_b 8.821535
_cell_length_c 18.319679
_cell_angle_alpha 90.000000
_cell_angle_beta 31.010083
_cell_angle_gamma 90.000000
_cell_volume 1303.740612
_symmetry_space_group_name_H-M "P 21/M"
_symmetry_group_IT_number 11
_symmetry_cell_setting 'monoclinic'
loop_
_space_group_symop_operation_xyz
x,y,z
-x,1/2+y,-z
-x,-y,-z
x,1/2-y,z
loop_
_atom_site_type_symbol
_atom_site_label
_atom_site_fract_x
_atom_site_fract_y
_atom_site_fract_z
Si Si1 0.477431 0.931182 0.096042
Si Si2 0.658317 0.431229 0.585664
Si Si3 0.986053 0.569339 0.091056
Si Si4 0.670577 0.431883 0.405335
Si Si5 0.313317 0.069202 0.917887
Si Si6 0.832455 0.930389 0.591408
O O1 0.456324 0.750000 0.107883
O O2 0.628234 0.960533 0.041963
O O3 0.317542 0.005470 0.250175
O O4 0.500000 0.000000 0.000000
O O5 0.677327 0.250000 0.582653
O O6 0.679748 0.465720 0.485053
O O7 0.472612 0.468872 0.750342
O O8 0.789130 0.515146 0.541383
O O9 0.972055 0.750000 0.096760
O O10 0.825807 0.501885 0.249016
O O11 0.000000 0.500000 0.000000
O O12 0.151846 0.520938 0.012548
O O13 0.500000 0.500000 0.500000
O O14 0.670398 0.250000 0.396791
O O15 0.282480 0.250000 0.932706
O O16 0.838034 0.750000 0.590605
O O17 0.000000 0.000000 0.500000
#
# Coordination Sequence:
#
# PCOD9165206 Si02
#       6
#     4   4   4   4   4   4
#     4  10  21  38  60  86 118 154 193 238 289 344
#     4   9  20  39  61  85 115 150 189 237 292 345
#     4  12  25  40  60  86 117 153 195 240 286 341
#     4  11  23  40  63  89 119 153 190 235 287 343
#     4   9  19  38  61  85 115 150 189 237 291 342
#     4  11  22  37  59  85 116 154 196 241 288 341
#
# _framework density 18.408569
#
# number of rings (size 3 to 8) (size 9 to 14) (size 15 to 20)
#    0.000    1.667    0.000    6.000    0.000    7.333 
#    0.000    1.667    0.000    0.000    0.000    0.000 
#    0.000    0.000    0.000    0.000    0.000    0.000 
#
# Total GULP energy -134146.810265 kJ/mol
# GULP energy per Si atom -5589.450428 kJ/mol
# Density = 1.836667 g / cm^3
# Si number density = 18.408569 Si / 1000 Ang^3
#
#
#
# Elastic Constant Matrix: (Units=GPa)
#
#
# Indices 1 2 3 4 5 6 
#
# 1 180.1482 114.9376 110.9860 0.0000 0.8778 0.0000
# 2 114.9376 128.4491 79.8882 0.0000 -0.8101 0.0000
# 3 110.9860 79.8882 121.5010 0.0000 0.1248 0.0000
# 4 0.0000 0.0000 0.0000 34.9303 0.0000 -2.1851
# 5 0.8778 -0.8101 0.1248 0.0000 38.2053 0.0000
# 6 0.0000 0.0000 0.0000 -2.1851 0.0000 39.1909
#
#
#
# Elastic Compliance Matrix: (Units=1/GPa)
#
#
# Indices 1 2 3 4 5 6 
#
# 1 0.018008 -0.009960 -0.009900 0.000000 -0.000593 0.000000
# 2 -0.009960 0.018684 -0.003187 0.000000 0.000635 0.000000
# 3 -0.009900 -0.003187 0.019369 0.000000 0.000097 0.000000
# 4 0.000000 0.000000 0.000000 0.028729 0.000000 0.001602
# 5 -0.000593 0.000635 0.000097 0.000000 0.026201 0.000000
# 6 0.000000 0.000000 0.000000 0.001602 0.000000 0.025605
#
#
# Mechanical properties :
#
#
# Convention : Reuss Voigt Hill
#
# Bulk Modulus (GPa) = 100.33987 115.74687 108.04337
# Shear Modulus (GPa) = 26.87992 30.75106 28.81549
#
# Velocity S-wave (km/s) = 3.82538 4.09158 3.96072
# Velocity P-wave (km/s) = 8.61028 9.23767 8.92948
#
# Compressibility (1/GPa) = 0.00996613
#
# Stress axis : x y z
#
# Youngs Moduli (GPa) = 55.53214 53.52182 51.62865
#
# Poissons Ratio (x) = 0.53308 0.51111
# Poissons Ratio (y) = 0.55310 0.16457
# Poissons Ratio (z) = 0.54975 0.17060
#
# Static dielectric constant tensor:
#      x y z
#    x 1.624650 0.000000 0.006720 
#    y 0.000000 1.612410 0.000000 
#    z 0.006720 0.000000 1.597750 
# 
# From -- ./inp_files/53159.got.cif
#   From: 2010.05.17/outbox.cif.g08.bks.cpg/sg11_27_cif.got.tgz:53159.got - 2010.06.03 12:22:45.
