data_PCOD9165367
_publ_section_title
;
Structure prediction by ZEFSAII (Michael W. Deem and Ramdas Pophale) SiO2 
 PCOD9165367
Probable space group: P 21/M
;
_chemical_formula_sum "Si O2"
_cell_formula_units_Z 32
_cell_length_a 12.335241
_cell_length_b 8.710147
_cell_length_c 31.838513
_cell_angle_alpha 90.000000
_cell_angle_beta 29.636574
_cell_angle_gamma 90.000000
_cell_volume 1691.567693
_symmetry_space_group_name_H-M "P 21/M"
_symmetry_group_IT_number 11
_symmetry_cell_setting 'monoclinic'
loop_
_space_group_symop_operation_xyz
x,y,z
-x,1/2+y,-z
-x,-y,-z
x,1/2-y,z
loop_
_atom_site_type_symbol
_atom_site_label
_atom_site_fract_x
_atom_site_fract_y
_atom_site_fract_z
Si Si1 0.041515 0.434292 0.369784
Si Si2 0.680021 0.432582 0.083385
Si Si3 0.842356 0.567330 0.114450
Si Si4 0.562820 0.566546 0.524408
Si Si5 0.224760 0.566374 0.220857
Si Si6 0.164251 0.433381 0.711140
Si Si7 0.204090 0.065345 0.405551
Si Si8 0.697024 0.066329 0.251691
O O1 0.040441 0.250000 0.366233
O O2 0.795049 0.494943 0.458990
O O3 0.134615 0.505431 0.295745
O O4 0.178770 0.477042 0.365007
O O5 0.663368 0.250000 0.094803
O O6 0.704314 0.510418 0.120829
O O7 0.463873 0.495349 0.133965
O O8 0.903870 0.465239 0.982848
O O9 0.816038 0.750000 0.128356
O O10 0.773064 0.481753 0.179862
O O11 0.500000 0.500000 0.500000
O O12 0.580685 0.750000 0.516354
O O13 0.371433 0.516657 0.620230
O O14 0.239776 0.750000 0.217562
O O15 0.050865 0.524923 0.243244
O O16 0.193595 0.250000 0.698203
O O17 0.160235 0.485777 0.760562
O O18 0.194701 0.250000 0.411145
O O19 0.441929 0.016890 0.342183
O O20 0.000000 0.000000 0.500000
O O21 0.707609 0.250000 0.252790
#
# Coordination Sequence:
#
# PCOD9165367 Si02
#       8
#     4   4   4   4   4   4   4   4
#     4  11  22  37  59  85 117 153 195 248 302 356
#     4  10  21  38  63  93 124 153 191 244 299 357
#     4  10  21  39  64  93 122 156 195 239 296 359
#     4  12  23  37  57  83 115 155 201 247 297 353
#     4  11  23  38  59  87 118 153 197 246 300 358
#     4  11  24  41  59  84 118 157 203 251 298 356
#     4  10  23  39  56  83 115 151 192 238 290 344
#     4  11  23  40  62  88 119 158 202 245 296 359
#
# _framework density 18.917362000000001
#
# number of rings (size 3 to 8) (size 9 to 14) (size 15 to 20)
#    0.000    1.250    1.250    4.875    0.000    8.000 
#    0.000    0.625    0.000    0.000    0.000    0.000 
#    0.000    0.000    0.000    0.000    0.000    0.000 
#
# Total GULP energy -178978.731873 kJ/mol
# GULP energy per Si atom -5593.085371 kJ/mol
# Density = 1.887431 g / cm^3
# Si number density = 18.917362 Si / 1000 Ang^3
#
#
#
# Elastic Constant Matrix: (Units=GPa)
#
#
# Indices 1 2 3 4 5 6 
#
# 1 111.7340 23.5929 32.7388 0.0000 -10.7395 0.0000
# 2 23.5929 28.7561 13.4171 0.0000 -8.0185 0.0000
# 3 32.7388 13.4171 58.9141 0.0000 -9.8186 0.0000
# 4 0.0000 0.0000 0.0000 33.5727 0.0000 0.8145
# 5 -10.7395 -8.0185 -9.8186 0.0000 32.6407 0.0000
# 6 0.0000 0.0000 0.0000 0.8145 0.0000 31.1843
#
#
#
# Elastic Compliance Matrix: (Units=1/GPa)
#
#
# Indices 1 2 3 4 5 6 
#
# 1 0.012002 -0.007386 -0.004876 0.000000 0.000668 0.000000
# 2 -0.007386 0.045159 -0.004986 0.000000 0.007164 0.000000
# 3 -0.004876 -0.004986 0.021422 0.000000 0.003614 0.000000
# 4 0.000000 0.000000 0.000000 0.029805 0.000000 -0.000778
# 5 0.000668 0.007164 0.003614 0.000000 0.033703 0.000000
# 6 0.000000 0.000000 0.000000 -0.000778 0.000000 0.032088
#
#
# Mechanical properties :
#
#
# Convention : Reuss Voigt Hill
#
# Bulk Modulus (GPa) = 22.68298 37.65576 30.16937
# Shear Modulus (GPa) = 22.38424 28.12324 25.25374
#
# Velocity S-wave (km/s) = 3.44359 3.85988 3.65766
# Velocity P-wave (km/s) = 5.27520 6.30979 5.81555
#
# Compressibility (1/GPa) = 0.04408593
#
# Stress axis : x y z
#
# Youngs Moduli (GPa) = 83.31683 22.14401 46.68169
#
# Poissons Ratio (x) = 0.16355 0.22764
# Poissons Ratio (y) = 0.61537 0.23277
# Poissons Ratio (z) = 0.40629 0.11042
#
# Static dielectric constant tensor:
#      x y z
#    x 1.654530 0.000000 -0.005600 
#    y 0.000000 1.630610 0.000000 
#    z -0.005600 0.000000 1.646400 
# 
# From -- ./inp_files/45147.got.cif
#   From: 2010.05.17/outbox.cif.g08.bks.cpg/sg11_23_cif.got.tgz:45147.got - 2010.06.03 12:22:45.
