data_PCOD9165892
_publ_section_title
;
Structure prediction by ZEFSAII (Michael W. Deem and Ramdas Pophale) SiO2 
 PCOD9165892
Probable space group: P 21/M
;
_chemical_formula_sum "Si O2"
_cell_formula_units_Z 30
_cell_length_a 11.467908
_cell_length_b 19.292909
_cell_length_c 12.356978
_cell_angle_alpha 90.000000
_cell_angle_beta 32.546746
_cell_angle_gamma 90.000000
_cell_volume 1470.843270
_symmetry_space_group_name_H-M "P 21/M"
_symmetry_group_IT_number 11
_symmetry_cell_setting 'monoclinic'
loop_
_space_group_symop_operation_xyz
x,y,z
-x,1/2+y,-z
-x,-y,-z
x,1/2-y,z
loop_
_atom_site_type_symbol
_atom_site_label
_atom_site_fract_x
_atom_site_fract_y
_atom_site_fract_z
Si Si1 0.185270 0.441239 0.847983
Si Si2 0.639901 0.139632 0.825537
Si Si3 0.131707 0.750000 0.210161
Si Si4 0.561990 0.506280 0.665066
Si Si5 0.723876 0.013519 0.896292
Si Si6 0.052800 0.898537 0.595053
Si Si7 0.118828 0.112085 0.661408
Si Si8 0.789967 0.829104 0.978513
O O1 0.407646 0.483409 0.688394
O O2 0.162989 0.400230 0.753651
O O3 0.183632 0.385496 0.947322
O O4 0.000000 0.500000 0.000000
O O5 0.609162 0.063310 0.899424
O O6 0.858472 0.138150 0.581420
O O7 0.694958 0.190745 0.879507
O O8 0.437725 0.160714 0.908354
O O9 0.962163 0.688149 0.304780
O O10 0.749673 0.448537 0.526071
O O11 0.671270 0.581160 0.564502
O O12 0.414307 0.503522 0.887217
O O13 0.927182 0.059591 0.778698
O O14 0.844905 0.948481 0.745713
O O15 0.980037 0.844957 0.743561
O O16 0.799389 0.750000 0.010018
#
# Coordination Sequence:
#
# PCOD9165892 Si02
#       8
#     4   4   2   4   4   4   4   4
#     4  12  22  46  75  98 133 175 231 285 341 403
#     4  11  23  43  69  93 142 184 224 278 341 405
#     4  10  24  46  64  96 136 184 222 270 340 412
#     4  11  21  43  70 102 135 170 231 289 340 391
#     4  10  21  41  66 104 130 171 234 285 337 395
#     4  11  22  41  65 102 134 175 229 280 337 404
#     4  10  23  40  69  98 135 177 223 280 340 407
#     4  12  27  44  66 105 137 184 227 277 345 415
#
# _framework density 20.396463000000001
#
# number of rings (size 3 to 8) (size 9 to 14) (size 15 to 20)
#    0.000    1.067    4.667    1.600    1.867    5.333 
#    0.000    2.667    4.400    0.000    0.000    0.000 
#    0.000    0.000    0.000    0.000    0.000    0.000 
#
# Total GULP energy -167037.121705 kJ/mol
# GULP energy per Si atom -5567.904057 kJ/mol
# Density = 2.035004 g / cm^3
# Si number density = 20.396463 Si / 1000 Ang^3
#
#
#
# Elastic Constant Matrix: (Units=GPa)
#
#
# Indices 1 2 3 4 5 6 
#
# 1 46.0417 3.9500 -8.8462 0.0000 -11.3505 0.0000
# 2 3.9500 107.7929 6.0250 0.0000 -4.9777 0.0000
# 3 -8.8462 6.0250 84.3614 0.0000 -7.0157 0.0000
# 4 0.0000 0.0000 0.0000 6.5123 0.0000 -8.6952
# 5 -11.3505 -4.9777 -7.0157 0.0000 32.4174 0.0000
# 6 0.0000 0.0000 0.0000 -8.6952 0.0000 35.0452
#
#
#
# Elastic Compliance Matrix: (Units=1/GPa)
#
#
# Indices 1 2 3 4 5 6 
#
# 1 0.024723 -0.000668 0.003413 0.000000 0.009293 0.000000
# 2 -0.000668 0.009387 -0.000652 0.000000 0.001067 0.000000
# 3 0.003413 -0.000652 0.012576 0.000000 0.003817 0.000000
# 4 0.000000 0.000000 0.000000 0.229626 0.000000 0.056974
# 5 0.009293 0.001067 0.003817 0.000000 0.035091 0.000000
# 6 0.000000 0.000000 0.000000 0.056974 0.000000 0.042671
#
#
# Mechanical properties :
#
#
# Convention : Reuss Voigt Hill
#
# Bulk Modulus (GPa) = 19.65663 26.71707 23.18685
# Shear Modulus (GPa) = 13.62975 30.59947 22.11461
#
# Velocity S-wave (km/s) = 2.58784 3.87749 3.29635
# Velocity P-wave (km/s) = 4.31131 5.75968 5.08730
#
# Compressibility (1/GPa) = 0.05087342
#
# Stress axis : x y z
#
# Youngs Moduli (GPa) = 40.44760 106.52813 79.51919
#
# Poissons Ratio (x) = 0.07112 -0.27140
# Poissons Ratio (y) = 0.02700 0.05182
# Poissons Ratio (z) = -0.13805 0.06943
#
# Static dielectric constant tensor:
#      x y z
#    x 1.779850 0.000000 -0.009460 
#    y 0.000000 1.703560 0.000000 
#    z -0.009460 0.000000 1.750160 
# 
# From -- ./inp_files/36447.got.cif
#   From: 2010.05.17/outbox.cif.g08.bks.cpg/sg11_19_cif.got.tgz:36447.got - 2010.06.03 12:22:45.
