data_PCOD9165143
_publ_section_title
;
Structure prediction by ZEFSAII (Michael W. Deem and Ramdas Pophale) SiO2 
 PCOD9165143
Probable space group: P 21/M
;
_chemical_formula_sum "Si O2"
_cell_formula_units_Z 32
_cell_length_a 16.992788
_cell_length_b 8.872250
_cell_length_c 12.766402
_cell_angle_alpha 90.000000
_cell_angle_beta 112.977988
_cell_angle_gamma 90.000000
_cell_volume 1772.000310
_symmetry_space_group_name_H-M "P 21/M"
_symmetry_group_IT_number 11
_symmetry_cell_setting 'monoclinic'
loop_
_space_group_symop_operation_xyz
x,y,z
-x,1/2+y,-z
-x,-y,-z
x,1/2-y,z
loop_
_atom_site_type_symbol
_atom_site_label
_atom_site_fract_x
_atom_site_fract_y
_atom_site_fract_z
Si Si1 0.784120 0.570852 0.538068
Si Si2 0.532814 0.929346 0.909862
Si Si3 0.270725 0.578270 0.699595
Si Si4 0.637864 0.429677 0.582271
Si Si5 0.712014 0.928588 0.081018
Si Si6 0.494115 0.431167 0.334124
Si Si7 0.877625 0.421425 0.219156
Si Si8 0.031055 0.570231 0.405667
O O1 0.791749 0.750000 0.544195
O O2 0.734629 0.517109 0.407403
O O3 0.727126 0.509364 0.603644
O O4 0.877160 0.495707 0.578523
O O5 0.519719 0.750000 0.911079
O O6 0.316589 0.000111 0.821676
O O7 0.635463 0.956741 0.961245
O O8 0.500000 0.000000 0.000000
O O9 0.300490 0.750000 0.696306
O O10 0.493319 0.519116 0.779227
O O11 0.174222 0.585545 0.696907
O O12 0.648555 0.250000 0.592661
O O13 0.573305 0.464522 0.451755
O O14 0.588572 0.491590 0.657727
O O15 0.723816 0.750000 0.099860
O O16 0.803821 0.005609 0.108180
O O17 0.482286 0.250000 0.328224
O O18 0.897846 0.250000 0.199543
O O19 0.960523 0.519913 0.283386
O O20 0.034564 0.750000 0.416872
O O21 0.000000 0.500000 0.500000
#
# Coordination Sequence:
#
# PCOD9165143 Si02
#       8
#     4   4   4   4   4   4   4   4
#     4  12  23  33  50  75 106 143 184 228 275 328
#     4  10  22  36  54  82 113 144 181 227 276 329
#     4   9  18  30  45  66  98 137 175 216 261 315
#     4  10  21  38  59  82 107 143 190 232 277 328
#     4   9  17  31  47  70 101 137 176 214 262 319
#     4   9  20  40  60  80 110 146 184 230 280 327
#     4   9  18  30  45  65  96 137 175 212 263 320
#     4  12  21  31  46  70 104 141 182 225 273 327
#
# _framework density 18.058688
#
# number of rings (size 3 to 8) (size 9 to 14) (size 15 to 20)
#    0.750    1.250    1.250    3.375    1.750    2.000 
#    0.000    0.000    0.000    0.000    0.000    0.875 
#    0.000    0.000    0.000    0.000    0.000    0.000 
#
# Total GULP energy -178386.531518 kJ/mol
# GULP energy per Si atom -5574.579110 kJ/mol
# Density = 1.801759 g / cm^3
# Si number density = 18.058688 Si / 1000 Ang^3
#
#
#
# Elastic Constant Matrix: (Units=GPa)
#
#
# Indices 1 2 3 4 5 6 
#
# 1 93.7337 42.6747 16.9636 0.0000 1.0800 0.0000
# 2 42.6747 98.6032 17.1069 0.0000 6.4898 0.0000
# 3 16.9636 17.1069 59.0398 0.0000 -1.9344 0.0000
# 4 0.0000 0.0000 0.0000 16.7174 0.0000 1.1713
# 5 1.0800 6.4898 -1.9344 0.0000 20.2716 0.0000
# 6 0.0000 0.0000 0.0000 1.1713 0.0000 27.4228
#
#
#
# Elastic Compliance Matrix: (Units=1/GPa)
#
#
# Indices 1 2 3 4 5 6 
#
# 1 0.013594 -0.005544 -0.002272 0.000000 0.000834 0.000000
# 2 -0.005544 0.013228 -0.002376 0.000000 -0.004166 0.000000
# 3 -0.002272 -0.002376 0.018365 0.000000 0.002634 0.000000
# 4 0.000000 0.000000 0.000000 0.059998 0.000000 -0.002563
# 5 0.000834 -0.004166 0.002634 0.000000 0.050871 0.000000
# 6 0.000000 0.000000 0.000000 -0.002563 0.000000 0.036575
#
#
# Mechanical properties :
#
#
# Convention : Reuss Voigt Hill
#
# Bulk Modulus (GPa) = 40.31927 44.98523 42.65225
# Shear Modulus (GPa) = 22.59544 24.52445 23.55994
#
# Velocity S-wave (km/s) = 3.54110 3.68916 3.61589
# Velocity P-wave (km/s) = 6.25256 6.56591 6.41115
#
# Compressibility (1/GPa) = 0.02480203
#
# Stress axis : x y z
#
# Youngs Moduli (GPa) = 73.56046 75.59946 54.45011
#
# Poissons Ratio (x) = 0.41914 0.12372
# Poissons Ratio (y) = 0.40783 0.12939
# Poissons Ratio (z) = 0.16714 0.17964
#
# Static dielectric constant tensor:
#      x y z
#    x 1.642520 0.000000 0.025750 
#    y 0.000000 1.605600 0.000000 
#    z 0.025750 0.000000 1.637350 
# 
# From -- ./inp_files/59895.got.cif
#   From: 2010.05.17/outbox.cif.g08.bks.cpg/sg11_30_cif.got.tgz:59895.got - 2010.06.03 12:22:45.
