data_PCOD9165124
_publ_section_title
;
Structure prediction by ZEFSAII (Michael W. Deem and Ramdas Pophale) SiO2 
 PCOD9165124
Probable space group: P 21/M
;
_chemical_formula_sum "Si O2"
_cell_formula_units_Z 28
_cell_length_a 9.400215
_cell_length_b 8.607610
_cell_length_c 30.024821
_cell_angle_alpha 90.000000
_cell_angle_beta 38.226241
_cell_angle_gamma 90.000000
_cell_volume 1503.241698
_symmetry_space_group_name_H-M "P 21/M"
_symmetry_group_IT_number 11
_symmetry_cell_setting 'monoclinic'
loop_
_space_group_symop_operation_xyz
x,y,z
-x,1/2+y,-z
-x,-y,-z
x,1/2-y,z
loop_
_atom_site_type_symbol
_atom_site_label
_atom_site_fract_x
_atom_site_fract_y
_atom_site_fract_z
Si Si1 0.583126 0.435497 0.432874
Si Si2 0.642700 0.564755 0.276152
Si Si3 0.254007 0.435903 0.431237
Si Si4 0.498864 0.060998 0.135594
Si Si5 0.185587 0.936940 0.859326
Si Si6 0.028750 0.938758 0.726926
Si Si7 0.671338 0.436898 0.995464
O O1 0.500000 0.500000 0.500000
O O2 0.592942 0.250000 0.434317
O O3 0.399524 0.474633 0.439713
O O4 0.828456 0.487351 0.352200
O O5 0.652617 0.750000 0.272355
O O6 0.396850 0.509396 0.355566
O O7 0.695199 0.495091 0.215042
O O8 0.833130 0.502269 0.264402
O O9 0.251442 0.250000 0.426688
O O10 0.000000 0.500000 0.500000
O O11 0.498164 0.250000 0.136108
O O12 0.668511 0.011149 0.133367
O O13 0.235678 0.011237 0.208014
O O14 0.586004 0.012424 0.065494
O O15 0.176898 0.750000 0.861154
O O16 0.928064 0.002178 0.924632
O O17 0.036588 0.750000 0.727464
O O18 0.670403 0.250000 0.994210
O O19 0.500000 0.500000 0.000000
#
# Coordination Sequence:
#
# PCOD9165124 Si02
#       7
#     4   4   4   4   4   4   4
#     4   9  19  33  53  80 111 144 184 230 279 331
#     4  11  22  37  57  84 113 147 190 235 279 333
#     4  10  21  38  58  83 113 149 189 233 281 335
#     4   9  20  37  59  83 110 144 187 233 281 332
#     4  11  22  38  58  83 115 152 187 229 281 333
#     4   9  18  37  59  80 107 145 189 234 280 334
#     4  11  22  38  60  87 114 147 188 232 278 334
#
# _framework density 18.626412999999999
#
# number of rings (size 3 to 8) (size 9 to 14) (size 15 to 20)
#    0.000    2.000    0.000    4.714    0.000    5.143 
#    0.000    5.714    0.000    0.000    0.000    0.000 
#    0.000    0.000    0.000    0.000    0.000    0.000 
#
# Total GULP energy -156383.597726 kJ/mol
# GULP energy per Si atom -5585.128490 kJ/mol
# Density = 1.858402 g / cm^3
# Si number density = 18.626413 Si / 1000 Ang^3
#
#
#
# Elastic Constant Matrix: (Units=GPa)
#
#
# Indices 1 2 3 4 5 6 
#
# 1 133.6057 42.1265 116.9758 0.0000 1.7215 0.0000
# 2 42.1265 52.9948 51.1411 0.0000 -1.2007 0.0000
# 3 116.9758 51.1411 209.7129 0.0000 5.3015 0.0000
# 4 0.0000 0.0000 0.0000 33.3389 0.0000 -0.3758
# 5 1.7215 -1.2007 5.3015 0.0000 41.4287 0.0000
# 6 0.0000 0.0000 0.0000 -0.3758 0.0000 26.8946
#
#
#
# Elastic Compliance Matrix: (Units=1/GPa)
#
#
# Indices 1 2 3 4 5 6 
#
# 1 0.015677 -0.005252 -0.007467 0.000000 0.000152 0.000000
# 2 -0.005252 0.026529 -0.003576 0.000000 0.001445 0.000000
# 3 -0.007467 -0.003576 0.009832 0.000000 -0.001052 0.000000
# 4 0.000000 0.000000 0.000000 0.030000 0.000000 0.000419
# 5 0.000152 0.001445 -0.001052 0.000000 0.024308 0.000000
# 6 0.000000 0.000000 0.000000 0.000419 0.000000 0.037188
#
#
# Mechanical properties :
#
#
# Convention : Reuss Voigt Hill
#
# Bulk Modulus (GPa) = 51.42384 90.75557 71.08971
# Shear Modulus (GPa) = 27.38124 32.73713 30.05918
#
# Velocity S-wave (km/s) = 3.83825 4.19688 4.02156
# Velocity P-wave (km/s) = 6.87828 8.50382 7.73388
#
# Compressibility (1/GPa) = 0.01944623
#
# Stress axis : x y z
#
# Youngs Moduli (GPa) = 63.78922 37.69506 101.70515
#
# Poissons Ratio (x) = 0.19798 0.75947
# Poissons Ratio (y) = 0.33502 0.36373
# Poissons Ratio (z) = 0.47634 0.13481
#
# Static dielectric constant tensor:
#      x y z
#    x 1.621510 0.000000 0.001800 
#    y 0.000000 1.637410 0.000000 
#    z 0.001800 0.000000 1.636450 
# 
# From -- ./inp_files/70791.got.cif
#   From: 2010.05.17/outbox.cif.g08.bks.cpg/sg11_36_cif.got.tgz:70791.got - 2010.06.03 12:22:45.
