data_PCOD9165220
_publ_section_title
;
Structure prediction by ZEFSAII (Michael W. Deem and Ramdas Pophale) SiO2 
 PCOD9165220
Probable space group: P 21/M
;
_chemical_formula_sum "Si O2"
_cell_formula_units_Z 32
_cell_length_a 7.399742
_cell_length_b 23.643898
_cell_length_c 12.478622
_cell_angle_alpha 90.000000
_cell_angle_beta 48.722283
_cell_angle_gamma 90.000000
_cell_volume 1640.753222
_symmetry_space_group_name_H-M "P 21/M"
_symmetry_group_IT_number 11
_symmetry_cell_setting 'monoclinic'
loop_
_space_group_symop_operation_xyz
x,y,z
-x,1/2+y,-z
-x,-y,-z
x,1/2-y,z
loop_
_atom_site_type_symbol
_atom_site_label
_atom_site_fract_x
_atom_site_fract_y
_atom_site_fract_z
Si Si1 0.257497 0.890755 0.576642
Si Si2 0.209067 0.075068 0.125837
Si Si3 0.119158 0.685775 0.433637
Si Si4 0.619291 0.106499 0.819045
Si Si5 0.487005 0.472579 0.674447
Si Si6 0.445921 0.586309 0.804112
Si Si7 0.439840 0.184487 0.392060
Si Si8 0.076916 0.551025 0.115197
O O1 0.138406 0.856106 0.526282
O O2 0.365345 0.948092 0.483713
O O3 0.458305 0.850114 0.547456
O O4 0.054882 0.902958 0.743817
O O5 0.360771 0.076381 0.176857
O O6 0.185726 0.011414 0.091745
O O7 0.366639 0.109811 0.979579
O O8 0.173296 0.750000 0.443946
O O9 0.299977 0.662491 0.273471
O O10 0.848249 0.683290 0.496318
O O11 0.593908 0.058056 0.738406
O O12 0.817565 0.088326 0.829088
O O13 0.495822 0.539350 0.693294
O O14 0.209384 0.453621 0.773592
O O15 0.472250 0.648386 0.744968
O O16 0.189746 0.573762 0.960184
O O17 0.517779 0.250000 0.360424
#
# Coordination Sequence:
#
# PCOD9165220 Si02
#       8
#     4   4   4   4   4   4   4   4
#     4  11  24  39  63  94 123 156 205 251 304 365
#     4  11  21  39  61  92 127 161 192 245 308 366
#     4  10  22  43  64  84 116 159 204 258 302 350
#     4  10  21  38  60  88 121 157 202 243 300 365
#     4  11  22  36  63  93 123 163 198 245 306 367
#     4  11  21  39  61  91 125 162 202 248 304 366
#     4  11  24  42  63  85 118 163 205 251 302 353
#     4  11  21  37  60  89 130 162 192 245 303 366
#
# _framework density 19.503238
#
# number of rings (size 3 to 8) (size 9 to 14) (size 15 to 20)
#    0.000    1.250    3.750    3.000    1.750    3.500 
#    0.000    3.750    0.000    0.750    0.000    0.000 
#    0.000    0.000    0.000    0.000    0.000    0.000 
#
# Total GULP energy -178913.601183 kJ/mol
# GULP energy per Si atom -5591.050037 kJ/mol
# Density = 1.945885 g / cm^3
# Si number density = 19.503238 Si / 1000 Ang^3
#
#
#
# Elastic Constant Matrix: (Units=GPa)
#
#
# Indices 1 2 3 4 5 6 
#
# 1 45.3912 2.8643 2.6947 0.0000 5.8891 0.0000
# 2 2.8643 81.7170 37.3527 0.0000 3.6450 0.0000
# 3 2.6947 37.3527 94.2655 0.0000 6.9210 0.0000
# 4 0.0000 0.0000 0.0000 19.9540 0.0000 -0.0644
# 5 5.8891 3.6450 6.9210 0.0000 22.6830 0.0000
# 6 0.0000 0.0000 0.0000 -0.0644 0.0000 27.0644
#
#
#
# Elastic Compliance Matrix: (Units=1/GPa)
#
#
# Indices 1 2 3 4 5 6 
#
# 1 0.022822 -0.000534 -0.000012 0.000000 -0.005836 0.000000
# 2 -0.000534 0.014965 -0.005880 0.000000 -0.000472 0.000000
# 3 -0.000012 -0.005880 0.013164 0.000000 -0.003069 0.000000
# 4 0.000000 0.000000 0.000000 0.050116 0.000000 0.000119
# 5 -0.005836 -0.000472 -0.003069 0.000000 0.046613 0.000000
# 6 0.000000 0.000000 0.000000 0.000119 0.000000 0.036949
#
#
# Mechanical properties :
#
#
# Convention : Reuss Voigt Hill
#
# Bulk Modulus (GPa) = 26.24780 34.13303 30.19041
# Shear Modulus (GPa) = 23.78907 25.83778 24.81342
#
# Velocity S-wave (km/s) = 3.49628 3.64372 3.57076
# Velocity P-wave (km/s) = 5.45766 5.93645 5.70208
#
# Compressibility (1/GPa) = 0.03809843
#
# Stress axis : x y z
#
# Youngs Moduli (GPa) = 43.81691 66.82347 75.96545
#
# Poissons Ratio (x) = 0.03569 0.00094
# Poissons Ratio (y) = 0.02340 0.44667
# Poissons Ratio (z) = 0.00054 0.39291
#
# Static dielectric constant tensor:
#      x y z
#    x 1.714510 0.000000 0.007360 
#    y 0.000000 1.650070 0.000000 
#    z 0.007360 0.000000 1.682950 
# 
# From -- ./inp_files/48243.got.cif
#   From: 2010.05.17/outbox.cif.g08.bks.cpg/sg11_25_cif.got.tgz:48243.got - 2010.06.03 12:22:45.
