data_PCOD9165634
_publ_section_title
;
Structure prediction by ZEFSAII (Michael W. Deem and Ramdas Pophale) SiO2 
 PCOD9165634
Probable space group: P 21/M
;
_chemical_formula_sum "Si O2"
_cell_formula_units_Z 24
_cell_length_a 17.843993
_cell_length_b 13.747021
_cell_length_c 8.572549
_cell_angle_alpha 90.000000
_cell_angle_beta 31.305521
_cell_angle_gamma 90.000000
_cell_volume 1092.649739
_symmetry_space_group_name_H-M "P 21/M"
_symmetry_group_IT_number 11
_symmetry_cell_setting 'monoclinic'
loop_
_space_group_symop_operation_xyz
x,y,z
-x,1/2+y,-z
-x,-y,-z
x,1/2-y,z
loop_
_atom_site_type_symbol
_atom_site_label
_atom_site_fract_x
_atom_site_fract_y
_atom_site_fract_z
Si Si1 0.222882 0.940477 0.910907
Si Si2 0.486048 0.364197 0.724980
Si Si3 0.451661 0.863240 0.021148
Si Si4 0.766700 0.494149 0.781723
Si Si5 0.046141 0.140548 0.748116
Si Si6 0.758986 0.638806 0.300129
O O1 0.383871 0.898858 0.614314
O O2 0.220699 0.051104 0.854455
O O3 0.122834 0.877584 0.973452
O O4 0.171182 0.936068 0.181526
O O5 0.458828 0.250000 0.755064
O O6 0.530172 0.382641 0.827384
O O7 0.346199 0.428439 0.946305
O O8 0.415699 0.750000 0.066427
O O9 0.328021 0.926782 0.162736
O O10 0.607463 0.877942 0.661434
O O11 0.880183 0.556360 0.483667
O O12 0.084172 0.250000 0.625947
O O13 0.111568 0.133132 0.804361
O O14 0.755036 0.750000 0.245153
#
# Coordination Sequence:
#
# PCOD9165634 Si02
#       6
#     4   4   4   4   4   4
#     4  12  25  40  60  98 128 161 197 260 316 360
#     4  11  22  39  64  91 122 162 213 255 299 361
#     4  10  21  39  65  94 123 163 210 254 299 359
#     4  12  23  41  63  93 124 165 202 251 315 369
#     4  11  24  44  65  85 123 169 211 249 302 371
#     4  10  21  40  65  92 122 165 210 254 300 358
#
# _framework density 21.964953000000001
#
# number of rings (size 3 to 8) (size 9 to 14) (size 15 to 20)
#    0.000    1.000    3.333    4.000    0.000    2.667 
#    0.000    2.500    0.000    0.000    0.000    0.000 
#    0.000    0.000    0.000    0.000    0.000    0.000 
#
# Total GULP energy -134330.692972 kJ/mol
# GULP energy per Si atom -5597.112207 kJ/mol
# Density = 2.191496 g / cm^3
# Si number density = 21.964953 Si / 1000 Ang^3
#
#
#
# Elastic Constant Matrix: (Units=GPa)
#
#
# Indices 1 2 3 4 5 6 
#
# 1 53.5512 31.0690 -8.3949 0.0000 10.3806 0.0000
# 2 31.0690 82.0073 -8.6941 0.0000 3.3881 0.0000
# 3 -8.3949 -8.6941 13.0607 0.0000 -4.5244 0.0000
# 4 0.0000 0.0000 0.0000 26.3709 0.0000 4.2741
# 5 10.3806 3.3881 -4.5244 0.0000 20.2635 0.0000
# 6 0.0000 0.0000 0.0000 4.2741 0.0000 -2.2313
#
#
#
# Elastic Compliance Matrix: (Units=1/GPa)
#
#
# Indices 1 2 3 4 5 6 
#
# 1 0.027211 -0.009044 0.007765 0.000000 -0.010694 0.000000
# 2 -0.009044 0.016127 0.006062 0.000000 0.003290 0.000000
# 3 0.007765 0.006062 0.090893 0.000000 0.015303 0.000000
# 4 0.000000 0.000000 0.000000 0.028937 0.000000 0.055429
# 5 -0.010694 0.003290 0.015303 0.000000 0.057695 0.000000
# 6 0.000000 0.000000 0.000000 0.055429 0.000000 -0.341994
#
#
# Mechanical properties :
#
#
# Convention : Reuss Voigt Hill
#
# Bulk Modulus (GPa) = 6.95419 19.61993 13.28706
# Shear Modulus (GPa) = -60.41260 17.85656 -21.27802
#
# Velocity S-wave (km/s) = -5.25012 2.85433 -3.11581
# Velocity P-wave (km/s) = 5.79472 4.45137 2.62337
#
# Compressibility (1/GPa) = 0.14379814
#
# Stress axis : x y z
#
# Youngs Moduli (GPa) = 36.74972 62.00716 11.00190
#
# Poissons Ratio (x) = 0.56080 -0.08543
# Poissons Ratio (y) = 0.33237 -0.06669
# Poissons Ratio (z) = -0.28537 -0.37589
#
# Static dielectric constant tensor:
#      x y z
#    x 1.784920 0.000000 0.002990 
#    y 0.000000 1.784380 0.000000 
#    z 0.002990 0.000000 1.783170 
# 
# From -- ./inp_files/12470.got.cif
#   From: 2010.05.17/outbox.cif.g08.bks.cpg/sg11_7_cif.got.tgz:12470.got - 2010.06.03 12:22:45.
