data_PCOD9165214
_publ_section_title
;
Structure prediction by ZEFSAII (Michael W. Deem and Ramdas Pophale) SiO2 
 PCOD9165214
Probable space group: P 21/M
;
_chemical_formula_sum "Si O2"
_cell_formula_units_Z 28
_cell_length_a 8.083902
_cell_length_b 9.037790
_cell_length_c 28.384258
_cell_angle_alpha 90.000000
_cell_angle_beta 43.909786
_cell_angle_gamma 90.000000
_cell_volume 1438.211913
_symmetry_space_group_name_H-M "P 21/M"
_symmetry_group_IT_number 11
_symmetry_cell_setting 'monoclinic'
loop_
_space_group_symop_operation_xyz
x,y,z
-x,1/2+y,-z
-x,-y,-z
x,1/2-y,z
loop_
_atom_site_type_symbol
_atom_site_label
_atom_site_fract_x
_atom_site_fract_y
_atom_site_fract_z
Si Si1 0.409606 0.573418 0.207230
Si Si2 0.948007 0.573193 0.787810
Si Si3 0.214264 0.572918 0.346839
Si Si4 0.125528 0.921649 0.930295
Si Si5 0.327431 0.071812 0.573966
Si Si6 0.462638 0.925536 0.645922
Si Si7 0.271963 0.421411 0.068627
O O1 0.422579 0.750000 0.200677
O O2 0.176245 0.513301 0.228898
O O3 0.382995 0.534580 0.267642
O O4 0.633608 0.500395 0.135481
O O5 0.906877 0.750000 0.791143
O O6 0.825523 0.521621 0.861438
O O7 0.230733 0.550933 0.726823
O O8 0.226380 0.750000 0.351734
O O9 0.310420 0.491128 0.373287
O O10 0.944948 0.537115 0.385771
O O11 0.173837 0.750000 0.931661
O O12 0.941916 0.928955 0.924696
O O13 0.000000 0.000000 0.000000
O O14 0.349732 0.250000 0.570728
O O15 0.500000 0.000000 0.500000
O O16 0.399608 0.004790 0.609753
O O17 0.490445 0.750000 0.632353
O O18 0.335908 0.250000 0.062496
O O19 0.500000 0.500000 0.000000
#
# Coordination Sequence:
#
# PCOD9165214 Si02
#       7
#     4   4   4   4   4   4   4
#     4  11  22  38  61  90 121 160 206 257 317 375
#     4  10  21  38  60  87 120 159 204 257 315 374
#     4  10  23  42  65  94 131 171 213 263 321 384
#     4  11  23  39  57  82 117 157 204 258 315 379
#     4  11  24  45  69  97 134 173 215 267 324 387
#     4  11  23  40  67  99 129 168 218 268 323 383
#     4  10  22  38  55  79 113 153 199 252 309 369
#
# _framework density 19.468619
#
# number of rings (size 3 to 8) (size 9 to 14) (size 15 to 20)
#    0.000    1.429    1.429    3.429    0.000    8.571 
#    0.000    0.000    0.000    0.000    0.000    0.000 
#    0.000    0.000    0.000    0.000    0.000    0.000 
#
# Total GULP energy -156485.742689 kJ/mol
# GULP energy per Si atom -5588.776525 kJ/mol
# Density = 1.942431 g / cm^3
# Si number density = 19.468619 Si / 1000 Ang^3
#
#
#
# Elastic Constant Matrix: (Units=GPa)
#
#
# Indices 1 2 3 4 5 6 
#
# 1 133.0378 66.8388 54.3781 0.0000 9.0182 0.0000
# 2 66.8388 74.2576 55.4737 0.0000 1.6501 0.0000
# 3 54.3781 55.4737 113.1576 0.0000 5.4800 0.0000
# 4 0.0000 0.0000 0.0000 31.7544 0.0000 0.0573
# 5 9.0182 1.6501 5.4800 0.0000 25.6406 0.0000
# 6 0.0000 0.0000 0.0000 0.0573 0.0000 35.3780
#
#
#
# Elastic Compliance Matrix: (Units=1/GPa)
#
#
# Indices 1 2 3 4 5 6 
#
# 1 0.014181 -0.012197 -0.000638 0.000000 -0.004066 0.000000
# 2 -0.012197 0.031758 -0.009919 0.000000 0.004366 0.000000
# 3 -0.000638 -0.009919 0.014111 0.000000 -0.002153 0.000000
# 4 0.000000 0.000000 0.000000 0.031492 0.000000 -0.000051
# 5 -0.004066 0.004366 -0.002153 0.000000 0.040610 0.000000
# 6 0.000000 0.000000 0.000000 -0.000051 0.000000 0.028266
#
#
# Mechanical properties :
#
#
# Convention : Reuss Voigt Hill
#
# Bulk Modulus (GPa) = 68.77039 74.87045 71.82042
# Shear Modulus (GPa) = 23.72210 28.13876 25.93043
#
# Velocity S-wave (km/s) = 3.49446 3.80589 3.65349
# Velocity P-wave (km/s) = 7.18902 7.60615 7.40053
#
# Compressibility (1/GPa) = 0.01454114
#
# Stress axis : x y z
#
# Youngs Moduli (GPa) = 70.51643 31.48814 70.86714
#
# Poissons Ratio (x) = 0.38406 0.04524
# Poissons Ratio (y) = 0.86009 0.70293
# Poissons Ratio (z) = 0.04502 0.31233
#
# Static dielectric constant tensor:
#      x y z
#    x 1.667890 0.000000 -0.001330 
#    y 0.000000 1.653880 0.000000 
#    z -0.001330 0.000000 1.688970 
# 
# From -- ./inp_files/72722.got.cif
#   From: 2010.05.17/outbox.cif.g08.bks.cpg/sg11_37_cif.got.tgz:72722.got - 2010.06.03 12:22:45.
