data_PCOD9165753
_publ_section_title
;
Structure prediction by ZEFSAII (Michael W. Deem and Ramdas Pophale) SiO2 
 PCOD9165753
Probable space group: P 21/M
;
_chemical_formula_sum "Si O2"
_cell_formula_units_Z 24
_cell_length_a 9.457763
_cell_length_b 13.925771
_cell_length_c 14.585823
_cell_angle_alpha 90.000000
_cell_angle_beta 139.978496
_cell_angle_gamma 90.000000
_cell_volume 1235.379217
_symmetry_space_group_name_H-M "P 21/M"
_symmetry_group_IT_number 11
_symmetry_cell_setting 'monoclinic'
loop_
_space_group_symop_operation_xyz
x,y,z
-x,1/2+y,-z
-x,-y,-z
x,1/2-y,z
loop_
_atom_site_type_symbol
_atom_site_label
_atom_site_fract_x
_atom_site_fract_y
_atom_site_fract_z
Si Si1 0.509164 0.861877 0.156724
Si Si2 0.942095 0.135341 0.746881
Si Si3 0.986546 0.413297 0.566177
Si Si4 0.536188 0.862807 0.968936
Si Si5 0.466827 0.641939 0.733532
Si Si6 0.229410 0.976337 0.164420
O O1 0.453150 0.750000 0.126765
O O2 0.463653 0.902830 0.031584
O O3 0.369653 0.911663 0.165043
O O4 0.769348 0.869404 0.307370
O O5 0.885818 0.250000 0.707052
O O6 0.925525 0.076378 0.643536
O O7 0.812533 0.081918 0.763179
O O8 0.199746 0.133313 0.901554
O O9 0.778895 0.354645 0.426011
O O10 0.000000 0.500000 0.500000
O O11 0.472502 0.750000 0.938558
O O12 0.452616 0.900267 0.830183
O O13 0.558669 0.750000 0.783736
O O14 0.626235 0.573257 0.754795
O O15 0.000000 0.000000 0.000000
#
# Coordination Sequence:
#
# PCOD9165753 Si02
#       6
#     4   4   4   4   4   4
#     4  10  21  40  64  91 123 162 209 256 307 377
#     4  10  21  40  64  91 129 170 203 245 318 389
#     4  11  22  41  66  93 117 159 209 260 309 370
#     4   8  17  35  62  88 116 160 205 248 308 364
#     4  11  22  39  61  89 126 162 205 265 319 355
#     4  12  24  37  62  96 123 165 211 257 304 372
#
# _framework density 19.427232
#
# number of rings (size 3 to 8) (size 9 to 14) (size 15 to 20)
#    0.000    1.667    3.333    3.000    0.000    3.333 
#    0.000    0.000    0.000    2.000    0.000    0.000 
#    0.000    0.000    0.000    0.000    0.000    0.000 
#
# Total GULP energy -133824.636057 kJ/mol
# GULP energy per Si atom -5576.026502 kJ/mol
# Density = 1.938301 g / cm^3
# Si number density = 19.427232 Si / 1000 Ang^3
#
#
#
# Elastic Constant Matrix: (Units=GPa)
#
#
# Indices 1 2 3 4 5 6 
#
# 1 171.4572 62.5494 38.0288 0.0000 -22.4893 0.0000
# 2 62.5494 86.8528 10.1671 0.0000 -6.8541 0.0000
# 3 38.0288 10.1671 90.4161 0.0000 -13.8043 0.0000
# 4 0.0000 0.0000 0.0000 24.1832 0.0000 -5.3808
# 5 -22.4893 -6.8541 -13.8043 0.0000 32.7659 0.0000
# 6 0.0000 0.0000 0.0000 -5.3808 0.0000 12.6244
#
#
#
# Elastic Compliance Matrix: (Units=1/GPa)
#
#
# Indices 1 2 3 4 5 6 
#
# 1 0.009074 -0.005927 -0.002553 0.000000 0.003913 0.000000
# 2 -0.005927 0.015665 0.000653 0.000000 -0.000516 0.000000
# 3 -0.002553 0.000653 0.012626 0.000000 0.003704 0.000000
# 4 0.000000 0.000000 0.000000 0.045683 0.000000 0.019471
# 5 0.003913 -0.000516 0.003704 0.000000 0.034657 0.000000
# 6 0.000000 0.000000 0.000000 0.019471 0.000000 0.087511
#
#
# Mechanical properties :
#
#
# Convention : Reuss Voigt Hill
#
# Bulk Modulus (GPa) = 46.06083 63.35742 54.70912
# Shear Modulus (GPa) = 21.91940 29.78008 25.84974
#
# Velocity S-wave (km/s) = 3.36263 3.91948 3.65169
# Velocity P-wave (km/s) = 6.23196 7.29154 6.78247
#
# Compressibility (1/GPa) = 0.02171042
#
# Stress axis : x y z
#
# Youngs Moduli (GPa) = 110.20346 63.83518 79.20364
#
# Poissons Ratio (x) = 0.37838 0.20218
# Poissons Ratio (y) = 0.65322 -0.05169
# Poissons Ratio (z) = 0.28131 -0.04166
#
# Static dielectric constant tensor:
#      x y z
#    x 1.668460 0.000000 -0.033850 
#    y 0.000000 1.742790 0.000000 
#    z -0.033850 0.000000 1.678860 
# 
# From -- ./inp_files/47707.got.cif
#   From: 2010.05.17/outbox.cif.g08.bks.cpg/sg11_24_cif.got.tgz:47707.got - 2010.06.03 12:22:45.
