data_PCOD9165621
_publ_section_title
;
Structure prediction by ZEFSAII (Michael W. Deem and Ramdas Pophale) SiO2 
 PCOD9165621
Probable space group: P 21/M
;
_chemical_formula_sum "Si O2"
_cell_formula_units_Z 20
_cell_length_a 7.085062
_cell_length_b 28.198169
_cell_length_c 5.761367
_cell_angle_alpha 90.000000
_cell_angle_beta 44.052504
_cell_angle_gamma 90.000000
_cell_volume 800.337403
_symmetry_space_group_name_H-M "P 21/M"
_symmetry_group_IT_number 11
_symmetry_cell_setting 'monoclinic'
loop_
_space_group_symop_operation_xyz
x,y,z
-x,1/2+y,-z
-x,-y,-z
x,1/2-y,z
loop_
_atom_site_type_symbol
_atom_site_label
_atom_site_fract_x
_atom_site_fract_y
_atom_site_fract_z
Si Si1 0.120722 0.558939 0.148938
Si Si2 0.193722 0.382007 0.186865
Si Si3 0.245499 0.851557 0.802438
Si Si4 0.673187 0.531575 0.169028
Si Si5 0.247778 0.305669 0.502423
O O1 0.951642 0.583432 0.499215
O O2 0.317380 0.598981 0.868924
O O3 0.924936 0.547911 0.104492
O O4 0.245642 0.507961 0.093458
O O5 0.307342 0.336535 0.220091
O O6 0.952965 0.363173 0.234361
O O7 0.406782 0.417978 0.872823
O O8 0.048238 0.821258 0.146070
O O9 0.522169 0.823226 0.519309
O O10 0.500000 0.500000 0.500000
O O11 0.262553 0.250000 0.452883
#
# Coordination Sequence:
#
# PCOD9165621 Si02
#       5
#     4   4   4   4   4
#     4   9  21  40  61  98 139 181 226 274 336 415
#     4  10  23  44  70 101 136 187 235 278 350 423
#     4  10  24  44  70  99 140 176 228 291 350 412
#     4  10  21  39  65 100 143 182 226 280 342 408
#     4  11  25  47  70 101 136 176 234 300 357 419
#
# _framework density 24.989463000000001
#
# number of rings (size 3 to 8) (size 9 to 14) (size 15 to 20)
#    0.000    2.000    0.000    1.200    8.400    5.600 
#   14.400    0.000    0.000    0.000    0.000    0.000 
#    0.000    0.000    0.000    0.000    0.000    0.000 
#
# Total GULP energy -111872.333674 kJ/mol
# GULP energy per Si atom -5593.616684 kJ/mol
# Density = 2.493259 g / cm^3
# Si number density = 24.989463 Si / 1000 Ang^3
#
#
#
# Elastic Constant Matrix: (Units=GPa)
#
#
# Indices 1 2 3 4 5 6 
#
# 1 92.0260 57.6478 2.9818 0.0000 -4.3297 0.0000
# 2 57.6478 228.3163 43.4938 0.0000 12.7968 0.0000
# 3 2.9818 43.4938 73.7293 0.0000 -3.6726 0.0000
# 4 0.0000 0.0000 0.0000 29.7460 0.0000 -1.4742
# 5 -4.3297 12.7968 -3.6726 0.0000 33.0597 0.0000
# 6 0.0000 0.0000 0.0000 -1.4742 0.0000 36.0447
#
#
#
# Elastic Compliance Matrix: (Units=1/GPa)
#
#
# Indices 1 2 3 4 5 6 
#
# 1 0.013455 -0.003970 0.001973 0.000000 0.003518 0.000000
# 2 -0.003970 0.006278 -0.003710 0.000000 -0.003362 0.000000
# 3 0.001973 -0.003710 0.015844 0.000000 0.003455 0.000000
# 4 0.000000 0.000000 0.000000 0.033686 0.000000 0.001378
# 5 0.003518 -0.003362 0.003455 0.000000 0.032394 0.000000
# 6 0.000000 0.000000 0.000000 0.001378 0.000000 0.027800
#
#
# Mechanical properties :
#
#
# Convention : Reuss Voigt Hill
#
# Bulk Modulus (GPa) = 41.38661 66.92426 54.15543
# Shear Modulus (GPa) = 33.57375 39.09996 36.33685
#
# Velocity S-wave (km/s) = 3.66938 3.95987 3.81739
# Velocity P-wave (km/s) = 5.87793 6.90989 6.41469
#
# Compressibility (1/GPa) = 0.02416241
#
# Stress axis : x y z
#
# Youngs Moduli (GPa) = 74.32025 159.29643 63.11513
#
# Poissons Ratio (x) = 0.63248 -0.12455
# Poissons Ratio (y) = 0.29508 0.23417
# Poissons Ratio (z) = -0.14666 0.59101
#
# Static dielectric constant tensor:
#      x y z
#    x 1.999050 0.000000 0.019610 
#    y 0.000000 1.951900 0.000000 
#    z 0.019610 0.000000 2.086840 
# 
# From -- ./inp_files/948.got.cif
#   From: 2010.05.17/outbox.cif.g08.bks.cpg/sg11_1_cif.got.tgz:948.got - 2010.06.03 12:22:45.
