data_PCOD9165708
_publ_section_title
;
Structure prediction by ZEFSAII (Michael W. Deem and Ramdas Pophale) SiO2 
 PCOD9165708
Probable space group: P 21/M
;
_chemical_formula_sum "Si O2"
_cell_formula_units_Z 16
_cell_length_a 7.316202
_cell_length_b 21.619293
_cell_length_c 5.324283
_cell_angle_alpha 90.000000
_cell_angle_beta 129.984912
_cell_angle_gamma 90.000000
_cell_volume 645.265152
_symmetry_space_group_name_H-M "P 21/M"
_symmetry_group_IT_number 11
_symmetry_cell_setting 'monoclinic'
loop_
_space_group_symop_operation_xyz
x,y,z
-x,1/2+y,-z
-x,-y,-z
x,1/2-y,z
loop_
_atom_site_type_symbol
_atom_site_label
_atom_site_fract_x
_atom_site_fract_y
_atom_site_fract_z
Si Si1 0.590071 0.455589 0.358194
Si Si2 0.100157 0.068949 0.762956
Si Si3 0.598005 0.316367 0.581416
Si Si4 0.922067 0.851844 0.748039
O O1 0.500000 0.500000 0.500000
O O2 0.865236 0.473143 0.557784
O O3 0.610798 0.381865 0.446992
O O4 0.370028 0.454681 0.971236
O O5 0.058048 0.117687 0.505330
O O6 0.100077 0.099213 0.041938
O O7 0.615734 0.250000 0.456764
O O8 0.333666 0.317735 0.469874
O O9 0.827369 0.318720 0.968054
#
# Coordination Sequence:
#
# PCOD9165708 Si02
#       4
#     4   4   4   4
#     4  10  21  40  65  96 130 170 214 264 320 382
#     4  10  21  40  62  90 124 162 206 256 310 372
#     4  10  21  40  62  90 125 166 212 264 320 382
#     4  10  21  40  62  90 122 162 206 256 312 372
#
# _framework density 24.796009000000002
#
# number of rings (size 3 to 8) (size 9 to 14) (size 15 to 20)
#    0.000    2.000    0.000    3.000    0.000    0.000 
#    0.000   60.000    0.000    0.000    0.000    0.000 
#    0.000    0.000    0.000    0.000    0.000    0.000 
#
# Total GULP energy -89276.824149 kJ/mol
# GULP energy per Si atom -5579.801509 kJ/mol
# Density = 2.473957 g / cm^3
# Si number density = 24.796009 Si / 1000 Ang^3
#
#
#
# Elastic Constant Matrix: (Units=GPa)
#
#
# Indices 1 2 3 4 5 6 
#
# 1 147.3319 48.3643 60.7641 0.0000 53.4609 0.0000
# 2 48.3643 131.2050 52.0512 0.0000 13.9220 0.0000
# 3 60.7641 52.0512 160.8612 0.0000 58.2991 0.0000
# 4 0.0000 0.0000 0.0000 -42.1428 0.0000 -43.7896
# 5 53.4609 13.9220 58.2991 0.0000 73.2306 0.0000
# 6 0.0000 0.0000 0.0000 -43.7896 0.0000 -9.1512
#
#
#
# Elastic Compliance Matrix: (Units=1/GPa)
#
#
# Indices 1 2 3 4 5 6 
#
# 1 0.010353 -0.002880 -0.000616 0.000000 -0.006520 0.000000
# 2 -0.002880 0.009581 -0.002972 0.000000 0.002647 0.000000
# 3 -0.000616 -0.002972 0.009899 0.000000 -0.006866 0.000000
# 4 0.000000 0.000000 0.000000 0.005974 0.000000 -0.028586
# 5 -0.006520 0.002647 -0.006866 0.000000 0.023378 0.000000
# 6 0.000000 0.000000 0.000000 -0.028586 0.000000 0.027511
#
#
# Mechanical properties :
#
#
# Convention : Reuss Voigt Hill
#
# Bulk Modulus (GPa) = 59.17730 84.63969 71.90850
# Shear Modulus (GPa) = 47.49969 22.93521 35.21745
#
# Velocity S-wave (km/s) = 4.38153 3.04461 3.77276
# Velocity P-wave (km/s) = 7.03665 6.82408 6.93118
#
# Compressibility (1/GPa) = 0.01689837
#
# Stress axis : x y z
#
# Youngs Moduli (GPa) = 96.59368 104.36944 101.01879
#
# Poissons Ratio (x) = 0.30059 0.06220
# Poissons Ratio (y) = 0.27820 0.30019
# Poissons Ratio (z) = 0.05947 0.31015
#
# Static dielectric constant tensor:
#      x y z
#    x 2.068000 0.000000 0.046400 
#    y 0.000000 1.916310 0.000000 
#    z 0.046400 0.000000 1.947420 
# 
# From -- ./inp_files/428.got.cif
#   From: 2010.05.17/outbox.cif.g08.bks.cpg/sg11_1_cif.got.tgz:428.got - 2010.06.03 12:22:45.
