data_PCOD9165504
_publ_section_title
;
Structure prediction by ZEFSAII (Michael W. Deem and Ramdas Pophale) SiO2 
 PCOD9165504
Probable space group: P 21/M
;
_chemical_formula_sum "Si O2"
_cell_formula_units_Z 24
_cell_length_a 23.941295
_cell_length_b 8.857307
_cell_length_c 12.051093
_cell_angle_alpha 90.000000
_cell_angle_beta 146.562477
_cell_angle_gamma 90.000000
_cell_volume 1408.150067
_symmetry_space_group_name_H-M "P 21/M"
_symmetry_group_IT_number 11
_symmetry_cell_setting 'monoclinic'
loop_
_space_group_symop_operation_xyz
x,y,z
-x,1/2+y,-z
-x,-y,-z
x,1/2-y,z
loop_
_atom_site_type_symbol
_atom_site_label
_atom_site_fract_x
_atom_site_fract_y
_atom_site_fract_z
Si Si1 0.226903 0.428113 0.212299
Si Si2 0.082849 0.924037 0.802977
Si Si3 0.109224 0.570261 0.215199
Si Si4 0.388416 0.568390 0.316910
Si Si5 0.852596 0.924977 0.485463
Si Si6 0.237854 0.571988 0.868743
O O1 0.240543 0.250000 0.249123
O O2 0.193340 0.506372 0.270357
O O3 0.323271 0.501407 0.310708
O O4 0.133980 0.463300 0.974482
O O5 0.109989 0.750000 0.880537
O O6 0.135782 0.949616 0.772882
O O7 0.963034 0.936440 0.610623
O O8 0.101645 0.750000 0.193313
O O9 0.138664 0.520533 0.387954
O O10 0.000000 0.500000 0.000000
O O11 0.500000 0.500000 0.500000
O O12 0.390672 0.750000 0.328372
O O13 0.327542 0.529064 0.102459
O O14 0.835503 0.750000 0.485562
O O15 0.772394 0.982615 0.262243
O O16 0.246673 0.750000 0.859269
#
# Coordination Sequence:
#
# PCOD9165504 Si02
#       6
#     4   4   4   4   4   4
#     4  11  21  34  55  82 110 145 186 227 273 325
#     4   9  18  32  49  72 108 147 183 224 266 316
#     4  12  23  36  53  76 110 151 191 228 267 319
#     4  10  21  39  62  86 111 140 179 230 281 330
#     4  11  21  32  50  76 109 149 187 223 266 321
#     4   9  19  34  51  76 109 143 179 223 274 324
#
# _framework density 17.043638999999999
#
# number of rings (size 3 to 8) (size 9 to 14) (size 15 to 20)
#    0.000    1.667    1.667    5.500    0.000    4.000 
#    0.000    0.000    0.000    1.000    0.000    0.000 
#    0.000    0.000    0.000    0.000    0.000    0.000 
#
# Total GULP energy -133977.522745 kJ/mol
# GULP energy per Si atom -5582.396781 kJ/mol
# Density = 1.700485 g / cm^3
# Si number density = 17.043639 Si / 1000 Ang^3
#
#
#
# Elastic Constant Matrix: (Units=GPa)
#
#
# Indices 1 2 3 4 5 6 
#
# 1 89.7804 63.4967 69.8386 0.0000 -4.8673 0.0000
# 2 63.4967 122.1181 60.6073 0.0000 -7.6642 0.0000
# 3 69.8386 60.6073 79.9678 0.0000 -1.0718 0.0000
# 4 0.0000 0.0000 0.0000 26.9125 0.0000 -2.3081
# 5 -4.8673 -7.6642 -1.0718 0.0000 23.9245 0.0000
# 6 0.0000 0.0000 0.0000 -2.3081 0.0000 29.1774
#
#
#
# Elastic Compliance Matrix: (Units=1/GPa)
#
#
# Indices 1 2 3 4 5 6 
#
# 1 0.037118 -0.004721 -0.028775 0.000000 0.004750 0.000000
# 2 -0.004721 0.014074 -0.006500 0.000000 0.003257 0.000000
# 3 -0.028775 -0.006500 0.042481 0.000000 -0.006033 0.000000
# 4 0.000000 0.000000 0.000000 0.037411 0.000000 0.002959
# 5 0.004750 0.003257 -0.006033 0.000000 0.043538 0.000000
# 6 0.000000 0.000000 0.000000 0.002959 0.000000 0.034507
#
#
# Mechanical properties :
#
#
# Convention : Reuss Voigt Hill
#
# Bulk Modulus (GPa) = 73.09388 75.52792 74.31090
# Shear Modulus (GPa) = 17.02531 22.53112 19.77821
#
# Velocity S-wave (km/s) = 3.16401 3.63983 3.41023
# Velocity P-wave (km/s) = 7.50515 7.87878 7.69423
#
# Compressibility (1/GPa) = 0.01368104
#
# Stress axis : x y z
#
# Youngs Moduli (GPa) = 26.94101 71.05415 23.54017
#
# Poissons Ratio (x) = 0.33544 0.67737
# Poissons Ratio (y) = 0.12718 0.15301
# Poissons Ratio (z) = 0.77523 0.46185
#
# Static dielectric constant tensor:
#      x y z
#    x 1.576290 0.000000 -0.008410 
#    y 0.000000 1.579790 0.000000 
#    z -0.008410 0.000000 1.567270 
# 
# From -- ./inp_files/44015.got.cif
#   From: 2010.05.17/outbox.cif.g08.bks.cpg/sg11_23_cif.got.tgz:44015.got - 2010.06.03 12:22:45.
