data_PCOD9165389
_publ_section_title
;
Structure prediction by ZEFSAII (Michael W. Deem and Ramdas Pophale) SiO2 
 PCOD9165389
Probable space group: P 21/M
;
_chemical_formula_sum "Si O2"
_cell_formula_units_Z 32
_cell_length_a 11.788673
_cell_length_b 31.006741
_cell_length_c 7.949824
_cell_angle_alpha 90.000000
_cell_angle_beta 145.787753
_cell_angle_gamma 90.000000
_cell_volume 1633.863850
_symmetry_space_group_name_H-M "P 21/M"
_symmetry_group_IT_number 11
_symmetry_cell_setting 'monoclinic'
loop_
_space_group_symop_operation_xyz
x,y,z
-x,1/2+y,-z
-x,-y,-z
x,1/2-y,z
loop_
_atom_site_type_symbol
_atom_site_label
_atom_site_fract_x
_atom_site_fract_y
_atom_site_fract_z
Si Si1 0.533874 0.123501 0.739058
Si Si2 0.196016 0.164172 0.802963
Si Si3 0.702927 0.951342 0.383298
Si Si4 0.988710 0.200361 0.877078
Si Si5 0.381790 0.635084 0.546057
Si Si6 0.937866 0.417056 0.384743
Si Si7 0.665842 0.453726 0.328725
Si Si8 0.715327 0.799535 0.441079
O O1 0.372476 0.086200 0.585962
O O2 0.547997 0.132614 0.560031
O O3 0.463368 0.166507 0.747815
O O4 0.748388 0.106569 0.066870
O O5 0.113199 0.190381 0.860358
O O6 0.073262 0.119637 0.637549
O O7 0.178524 0.188915 0.604742
O O8 0.429666 0.152620 0.116726
O O9 0.921832 0.940568 0.578690
O O10 0.686679 0.999416 0.436971
O O11 0.545156 0.951168 0.032759
O O12 0.918524 0.250000 0.789217
O O13 0.804963 0.167213 0.663438
O O14 0.131756 0.194733 0.215213
O O15 0.325335 0.587336 0.540074
O O16 0.841664 0.448546 0.405204
O O17 0.646846 0.750000 0.355231
#
# Coordination Sequence:
#
# PCOD9165389 Si02
#       8
#     4   4   4   4   4   4   4   4
#     4  11  24  40  64  95 131 171 212 266 330 384
#     4  12  22  43  70  93 128 171 215 263 322 384
#     4  10  21  40  64  91 132 168 218 272 316 386
#     4  11  26  45  66  96 130 167 214 272 329 385
#     4  12  24  41  66  96 131 171 215 272 323 386
#     4  11  20  40  67  91 126 175 212 261 329 379
#     4  10  21  38  64  98 123 171 223 265 323 380
#     4  11  24  45  68  93 129 170 214 268 326 387
#
# _framework density 19.585474000000001
#
# number of rings (size 3 to 8) (size 9 to 14) (size 15 to 20)
#    0.000    1.000    5.000    2.250    0.000    2.000 
#    0.000    1.250    0.000    0.000    0.000    0.000 
#    0.000    0.000    0.000    0.000    0.000    0.000 
#
# Total GULP energy -178906.768665 kJ/mol
# GULP energy per Si atom -5590.836521 kJ/mol
# Density = 1.954090 g / cm^3
# Si number density = 19.585474 Si / 1000 Ang^3
#
#
#
# Elastic Constant Matrix: (Units=GPa)
#
#
# Indices 1 2 3 4 5 6 
#
# 1 125.0464 50.0397 32.9351 0.0000 1.8704 0.0000
# 2 50.0397 146.4717 34.8740 0.0000 12.5546 0.0000
# 3 32.9351 34.8740 45.2079 0.0000 11.1278 0.0000
# 4 0.0000 0.0000 0.0000 19.9228 0.0000 -6.9379
# 5 1.8704 12.5546 11.1278 0.0000 31.6272 0.0000
# 6 0.0000 0.0000 0.0000 -6.9379 0.0000 -41.3208
#
#
#
# Elastic Compliance Matrix: (Units=1/GPa)
#
#
# Indices 1 2 3 4 5 6 
#
# 1 0.010610 -0.002272 -0.006618 0.000000 0.002603 0.000000
# 2 -0.002272 0.008888 -0.004780 0.000000 -0.001712 0.000000
# 3 -0.006618 -0.004780 0.032916 0.000000 -0.009292 0.000000
# 4 0.000000 0.000000 0.000000 0.047421 0.000000 -0.007962
# 5 0.002603 -0.001712 -0.009292 0.000000 0.035414 0.000000
# 6 0.000000 0.000000 0.000000 -0.007962 0.000000 -0.022864
#
#
# Mechanical properties :
#
#
# Convention : Reuss Voigt Hill
#
# Bulk Modulus (GPa) = 39.88060 61.38039 50.63049
# Shear Modulus (GPa) = 33.76493 15.30431 24.53462
#
# Velocity S-wave (km/s) = 4.15659 2.79841 3.54318
# Velocity P-wave (km/s) = 6.59112 6.46910 6.53039
#
# Compressibility (1/GPa) = 0.02507485
#
# Stress axis : x y z
#
# Youngs Moduli (GPa) = 94.24703 112.50699 30.38076
#
# Poissons Ratio (x) = 0.25565 0.20105
# Poissons Ratio (y) = 0.21416 0.14521
# Poissons Ratio (z) = 0.62370 0.53775
#
# Static dielectric constant tensor:
#      x y z
#    x 1.670890 0.000000 -0.006020 
#    y 0.000000 1.683280 0.000000 
#    z -0.006020 0.000000 1.675820 
# 
# From -- ./inp_files/19889.got.cif
#   From: 2010.05.17/outbox.cif.g08.bks.cpg/sg11_10_cif.got.tgz:19889.got - 2010.06.03 12:22:45.
