data_PCOD9165990
_publ_section_title
;
Structure prediction by ZEFSAII (Michael W. Deem and Ramdas Pophale) SiO2 
 PCOD9165990
Probable space group: P 21/M
;
_chemical_formula_sum "Si O2"
_cell_formula_units_Z 16
_cell_length_a 9.694773
_cell_length_b 15.970179
_cell_length_c 5.378397
_cell_angle_alpha 90.000000
_cell_angle_beta 55.037058
_cell_angle_gamma 90.000000
_cell_volume 682.435096
_symmetry_space_group_name_H-M "P 21/M"
_symmetry_group_IT_number 11
_symmetry_cell_setting 'monoclinic'
loop_
_space_group_symop_operation_xyz
x,y,z
-x,1/2+y,-z
-x,-y,-z
x,1/2-y,z
loop_
_atom_site_type_symbol
_atom_site_label
_atom_site_fract_x
_atom_site_fract_y
_atom_site_fract_z
Si Si1 0.222703 0.842045 0.583037
Si Si2 0.141009 0.400449 0.935437
Si Si3 0.515317 0.904742 0.592295
Si Si4 0.242078 0.482762 0.336793
O O1 0.259057 0.750000 0.444632
O O2 0.344463 0.860386 0.692669
O O3 0.254905 0.918006 0.358747
O O4 0.026997 0.847763 0.862307
O O5 0.325608 0.359084 0.703494
O O6 0.133498 0.454542 0.690298
O O7 0.166004 0.454978 0.157157
O O8 0.588695 0.927511 0.788041
O O9 0.500000 0.000000 0.500000
#
# Coordination Sequence:
#
# PCOD9165990 Si02
#       4
#     4   4   4   4
#     4  11  22  39  63  97 128 158 206 265 314 357
#     4  10  21  43  66  87 123 167 212 247 304 374
#     4   8  20  38  65  91 116 162 212 243 304 366
#     4   9  21  43  68  85 122 168 212 245 303 374
#
# _framework density 23.445453000000001
#
# number of rings (size 3 to 8) (size 9 to 14) (size 15 to 20)
#    1.500    1.000    0.000    1.500    0.000    5.000 
#    4.500    6.250    0.000    0.000    0.000    0.000 
#    0.000    0.000    0.000    0.000    0.000    0.000 
#
# Total GULP energy -89149.881546 kJ/mol
# GULP energy per Si atom -5571.867597 kJ/mol
# Density = 2.339209 g / cm^3
# Si number density = 23.445453 Si / 1000 Ang^3
#
#
#
# Elastic Constant Matrix: (Units=GPa)
#
#
# Indices 1 2 3 4 5 6 
#
# 1 155.4694 31.2716 54.6937 0.0000 -26.1239 0.0000
# 2 31.2716 111.3188 22.0269 0.0000 -1.4865 0.0000
# 3 54.6937 22.0269 105.8619 0.0000 3.5835 0.0000
# 4 0.0000 0.0000 0.0000 2.8121 0.0000 3.5414
# 5 -26.1239 -1.4865 3.5835 0.0000 48.1675 0.0000
# 6 0.0000 0.0000 0.0000 3.5414 0.0000 6.0749
#
#
#
# Elastic Compliance Matrix: (Units=1/GPa)
#
#
# Indices 1 2 3 4 5 6 
#
# 1 0.009287 -0.001619 -0.004642 0.000000 0.005332 0.000000
# 2 -0.001619 0.009660 -0.001157 0.000000 -0.000494 0.000000
# 3 -0.004642 -0.001157 0.012202 0.000000 -0.003461 0.000000
# 4 0.000000 0.000000 0.000000 1.337664 0.000000 -0.779802
# 5 0.005332 -0.000494 -0.003461 0.000000 0.023895 0.000000
# 6 0.000000 0.000000 0.000000 -0.779802 0.000000 0.619204
#
#
# Mechanical properties :
#
#
# Convention : Reuss Voigt Hill
#
# Bulk Modulus (GPa) = 61.29632 65.40382 63.35007
# Shear Modulus (GPa) = 2.46041 29.05476 15.75758
#
# Velocity S-wave (km/s) = 1.02552 3.52412 2.59529
# Velocity P-wave (km/s) = 5.25388 6.67203 6.00496
#
# Compressibility (1/GPa) = 0.01631419
#
# Stress axis : x y z
#
# Youngs Moduli (GPa) = 107.68137 103.51585 81.95254
#
# Poissons Ratio (x) = 0.16761 0.38039
# Poissons Ratio (y) = 0.17435 0.09480
# Poissons Ratio (z) = 0.49981 0.11975
#
# Static dielectric constant tensor:
#      x y z
#    x 1.957410 0.000000 -0.087120 
#    y 0.000000 1.889410 0.000000 
#    z -0.087120 0.000000 2.009740 
# 
# From -- ./inp_files/1631.got.cif
#   From: 2010.05.17/outbox.cif.g08.bks.cpg/sg11_1_cif.got.tgz:1631.got - 2010.06.03 12:22:45.
