data_PCOD9165687
_publ_section_title
;
Structure prediction by ZEFSAII (Michael W. Deem and Ramdas Pophale) SiO2 
 PCOD9165687
Probable space group: P 21/M
;
_chemical_formula_sum "Si O2"
_cell_formula_units_Z 30
_cell_length_a 14.133132
_cell_length_b 9.608615
_cell_length_c 11.642139
_cell_angle_alpha 90.000000
_cell_angle_beta 80.465779
_cell_angle_gamma 90.000000
_cell_volume 1559.161829
_symmetry_space_group_name_H-M "P 21/M"
_symmetry_group_IT_number 11
_symmetry_cell_setting 'monoclinic'
loop_
_space_group_symop_operation_xyz
x,y,z
-x,1/2+y,-z
-x,-y,-z
x,1/2-y,z
loop_
_atom_site_type_symbol
_atom_site_label
_atom_site_fract_x
_atom_site_fract_y
_atom_site_fract_z
Si Si1 0.081156 0.091612 0.132387
Si Si2 0.876380 0.498706 0.616759
Si Si3 0.512735 0.585693 0.382714
Si Si4 0.137454 0.909390 0.909885
Si Si5 0.401246 0.413749 0.033294
Si Si6 0.303614 0.410787 0.803072
Si Si7 0.671657 0.086117 0.741735
Si Si8 0.974176 0.750000 0.475138
O O1 0.115542 0.250000 0.105860
O O2 0.095356 0.050082 0.260567
O O3 0.968151 0.087434 0.124572
O O4 0.130276 0.987481 0.033188
O O5 0.765948 0.452522 0.650471
O O6 0.944836 0.371108 0.570331
O O7 0.897366 0.626580 0.528186
O O8 0.500000 0.500000 0.500000
O O9 0.516286 0.750000 0.407346
O O10 0.611430 0.548131 0.299273
O O11 0.423861 0.564271 0.314433
O O12 0.166353 0.750000 0.920163
O O13 0.212015 0.991179 0.816438
O O14 0.419144 0.250000 0.055456
O O15 0.339634 0.488050 0.144875
O O16 0.500000 0.500000 0.000000
O O17 0.346853 0.419528 0.922717
O O18 0.276625 0.250000 0.787212
O O19 0.675895 0.250000 0.773672
#
# Coordination Sequence:
#
# PCOD9165687 Si02
#       8
#     4   4   4   4   4   4   4   2
#     4  10  21  40  61  86 128 159 198 248 314 362
#     4  11  22  43  64  93 123 164 200 264 310 364
#     4  10  23  45  62  85 121 162 205 252 296 358
#     4  10  22  37  60  93 119 160 203 248 298 372
#     4  11  22  37  63  94 127 160 200 256 311 366
#     4  10  21  41  60  86 126 162 199 249 310 359
#     4  11  23  42  66  92 127 164 204 253 318 367
#     4  10  24  42  62  88 126 154 212 254 308 362
#
# _framework density 19.241105999999998
#
# number of rings (size 3 to 8) (size 9 to 14) (size 15 to 20)
#    0.000    1.600    2.667    1.600    1.867    4.800 
#    4.800    0.000    0.000    0.000    0.000    0.000 
#    0.000    0.000    0.000    0.000    0.000    0.000 
#
# Total GULP energy -167105.698073 kJ/mol
# GULP energy per Si atom -5570.189936 kJ/mol
# Density = 1.919731 g / cm^3
# Si number density = 19.241106 Si / 1000 Ang^3
#
#
#
# Elastic Constant Matrix: (Units=GPa)
#
#
# Indices 1 2 3 4 5 6 
#
# 1 45.8163 40.3211 27.5035 0.0000 -31.5088 0.0000
# 2 40.3211 130.5756 51.5585 0.0000 -24.5450 0.0000
# 3 27.5035 51.5585 74.2407 0.0000 -31.2236 0.0000
# 4 0.0000 0.0000 0.0000 35.3418 0.0000 -8.2933
# 5 -31.5088 -24.5450 -31.2236 0.0000 36.2543 0.0000
# 6 0.0000 0.0000 0.0000 -8.2933 0.0000 32.3124
#
#
#
# Elastic Compliance Matrix: (Units=1/GPa)
#
#
# Indices 1 2 3 4 5 6 
#
# 1 0.068008 -0.013508 0.008151 0.000000 0.056981 0.000000
# 2 -0.013508 0.013275 -0.008423 0.000000 -0.010007 0.000000
# 3 0.008151 -0.008423 0.026468 0.000000 0.024176 0.000000
# 4 0.000000 0.000000 0.000000 0.030108 0.000000 0.007728
# 5 0.056981 -0.010007 0.024176 0.000000 0.091152 0.000000
# 6 0.000000 0.000000 0.000000 0.007728 0.000000 0.032931
#
#
# Mechanical properties :
#
#
# Convention : Reuss Voigt Hill
#
# Bulk Modulus (GPa) = 12.47047 54.37765 33.42406
# Shear Modulus (GPa) = 15.81119 29.53166 22.67142
#
# Velocity S-wave (km/s) = 2.86971 3.92193 3.43633
# Velocity P-wave (km/s) = 4.18038 6.98794 5.75790
#
# Compressibility (1/GPa) = 0.08018946
#
# Stress axis : x y z
#
# Youngs Moduli (GPa) = 14.70421 75.33239 37.78177
#
# Poissons Ratio (x) = 1.01759 -0.30796
# Poissons Ratio (y) = 0.19862 0.31825
# Poissons Ratio (z) = -0.11986 0.63455
#
# Static dielectric constant tensor:
#      x y z
#    x 1.681050 0.000000 -0.005360 
#    y 0.000000 1.647540 0.000000 
#    z -0.005360 0.000000 1.654900 
# 
# From -- ./inp_files/38057.got.cif
#   From: 2010.05.17/outbox.cif.g08.bks.cpg/sg11_20_cif.got.tgz:38057.got - 2010.06.03 12:22:45.
