data_PCOD9165041
_publ_section_title
;
Structure prediction by ZEFSAII (Michael W. Deem and Ramdas Pophale) SiO2 
 PCOD9165041
Probable space group: P 21/M
;
_chemical_formula_sum "Si O2"
_cell_formula_units_Z 20
_cell_length_a 7.540966
_cell_length_b 14.422796
_cell_length_c 11.832706
_cell_angle_alpha 90.000000
_cell_angle_beta 137.194759
_cell_angle_gamma 90.000000
_cell_volume 874.491029
_symmetry_space_group_name_H-M "P 21/M"
_symmetry_group_IT_number 11
_symmetry_cell_setting 'monoclinic'
loop_
_space_group_symop_operation_xyz
x,y,z
-x,1/2+y,-z
-x,-y,-z
x,1/2-y,z
loop_
_atom_site_type_symbol
_atom_site_label
_atom_site_fract_x
_atom_site_fract_y
_atom_site_fract_z
Si Si1 0.195104 0.949330 0.303117
Si Si2 0.214563 0.540646 0.744368
Si Si3 0.544417 0.357759 0.937947
Si Si4 0.431304 0.908210 0.622210
Si Si5 0.048469 0.147989 0.011669
O O1 0.304127 0.875544 0.445116
O O2 0.054787 0.025231 0.316615
O O3 0.435384 0.993719 0.348976
O O4 0.989461 0.919608 0.111878
O O5 0.379179 0.610886 0.899701
O O6 0.218530 0.579734 0.620307
O O7 0.348012 0.438499 0.806398
O O8 0.456697 0.250000 0.892668
O O9 0.805945 0.364774 0.983700
O O10 0.681445 0.859015 0.794427
O O11 0.025533 0.250000 0.951419
#
# Coordination Sequence:
#
# PCOD9165041 Si02
#       5
#     4   4   4   4   4
#     4  11  23  40  63  92 122 160 208 255 311 377
#     4  11  21  38  66  89 127 168 207 259 322 369
#     4  10  21  37  62  95 126 164 214 263 313 375
#     4  11  23  40  63  92 122 160 208 255 311 377
#     4  11  22  41  65  89 127 169 206 260 318 367
#
# _framework density 22.870446000000001
#
# number of rings (size 3 to 8) (size 9 to 14) (size 15 to 20)
#    0.000    1.200    4.000    3.600    0.000    4.000 
#    0.000    0.000    0.000    3.600    0.000    0.000 
#    0.000    0.000    0.000    0.000    0.000    0.000 
#
# Total GULP energy -111672.349754 kJ/mol
# GULP energy per Si atom -5583.617488 kJ/mol
# Density = 2.281839 g / cm^3
# Si number density = 22.870446 Si / 1000 Ang^3
#
#
#
# Elastic Constant Matrix: (Units=GPa)
#
#
# Indices 1 2 3 4 5 6 
#
# 1 83.6726 3.8541 8.9411 0.0000 -14.1981 0.0000
# 2 3.8541 73.5268 13.2265 0.0000 -6.9948 0.0000
# 3 8.9411 13.2265 93.2776 0.0000 -12.6226 0.0000
# 4 0.0000 0.0000 0.0000 5.7157 0.0000 5.9273
# 5 -14.1981 -6.9948 -12.6226 0.0000 42.0942 0.0000
# 6 0.0000 0.0000 0.0000 5.9273 0.0000 21.5204
#
#
#
# Elastic Compliance Matrix: (Units=1/GPa)
#
#
# Indices 1 2 3 4 5 6 
#
# 1 0.012718 -0.000163 -0.000645 0.000000 0.004069 0.000000
# 2 -0.000163 0.014090 -0.001744 0.000000 0.001763 0.000000
# 3 -0.000645 -0.001744 0.011425 0.000000 0.002918 0.000000
# 4 0.000000 0.000000 0.000000 0.244909 0.000000 -0.067454
# 5 0.004069 0.001763 0.002918 0.000000 0.026297 0.000000
# 6 0.000000 0.000000 0.000000 -0.067454 0.000000 0.065046
#
#
# Mechanical properties :
#
#
# Convention : Reuss Voigt Hill
#
# Bulk Modulus (GPa) = 30.18540 33.61340 31.89940
# Shear Modulus (GPa) = 12.79973 28.82975 20.81474
#
# Velocity S-wave (km/s) = 2.36828 3.55430 3.02008
# Velocity P-wave (km/s) = 4.55032 5.61901 5.11267
#
# Compressibility (1/GPa) = 0.03312859
#
# Stress axis : x y z
#
# Youngs Moduli (GPa) = 78.62683 70.96994 87.52944
#
# Poissons Ratio (x) = 0.01160 0.05648
# Poissons Ratio (y) = 0.01285 0.15262
# Poissons Ratio (z) = 0.05074 0.12375
#
# Static dielectric constant tensor:
#      x y z
#    x 1.849790 0.000000 0.018330 
#    y 0.000000 1.894870 0.000000 
#    z 0.018330 0.000000 1.927560 
# 
# From -- ./inp_files/31591.got.cif
#   From: 2010.05.17/outbox.cif.g08.bks.cpg/sg11_16_cif.got.tgz:31591.got - 2010.06.03 12:22:45.
