data_PCOD9165496
_publ_section_title
;
Structure prediction by ZEFSAII (Michael W. Deem and Ramdas Pophale) SiO2 
 PCOD9165496
Probable space group: P 21/M
;
_chemical_formula_sum "Si O2"
_cell_formula_units_Z 32
_cell_length_a 21.807536
_cell_length_b 14.139189
_cell_length_c 15.870789
_cell_angle_alpha 90.000000
_cell_angle_beta 161.627389
_cell_angle_gamma 90.000000
_cell_volume 1542.444343
_symmetry_space_group_name_H-M "P 21/M"
_symmetry_group_IT_number 11
_symmetry_cell_setting 'monoclinic'
loop_
_space_group_symop_operation_xyz
x,y,z
-x,1/2+y,-z
-x,-y,-z
x,1/2-y,z
loop_
_atom_site_type_symbol
_atom_site_label
_atom_site_fract_x
_atom_site_fract_y
_atom_site_fract_z
Si Si1 0.304455 0.858963 0.559221
Si Si2 0.416704 0.363839 0.400017
Si Si3 0.774781 0.859777 0.560373
Si Si4 0.645259 0.638450 0.873388
Si Si5 0.593095 0.138964 0.802632
Si Si6 0.969466 0.971021 0.055389
Si Si7 0.066296 0.989435 0.683821
Si Si8 0.312416 0.023658 0.702301
O O1 0.319391 0.750000 0.602323
O O2 0.486872 0.885160 0.738211
O O3 0.110824 0.881977 0.255295
O O4 0.288086 0.929656 0.614913
O O5 0.371997 0.250000 0.350207
O O6 0.445409 0.381047 0.337554
O O7 0.577776 0.382568 0.682459
O O8 0.239770 0.432794 0.192929
O O9 0.833075 0.750000 0.639216
O O10 0.619968 0.878526 0.433596
O O11 0.950958 0.935180 0.793215
O O12 0.664843 0.888007 0.331096
O O13 0.682270 0.750000 0.924392
O O14 0.841470 0.583493 0.153129
O O15 0.630974 0.250000 0.860928
O O16 0.758009 0.083173 0.068134
O O17 0.000000 0.000000 0.000000
O O18 0.000000 0.000000 0.500000
O O19 0.874877 0.959993 0.484715
O O20 0.500000 0.000000 0.000000
#
# Coordination Sequence:
#
# PCOD9165496 Si02
#       8
#     4   4   4   4   4   4   4   4
#     4  10  22  41  63  91 127 163 207 260 310 370
#     4  10  21  40  64  94 132 172 216 263 314 375
#     4  10  21  39  61  91 132 170 210 258 311 372
#     4  10  22  41  65  94 127 166 212 262 314 372
#     4  10  22  42  65  92 127 170 211 257 316 374
#     4  11  20  34  60  91 125 170 211 253 300 369
#     4  12  25  43  67  91 122 163 209 267 315 379
#     4  11  24  43  66  92 121 160 208 260 320 381
#
# _framework density 20.746292
#
# number of rings (size 3 to 8) (size 9 to 14) (size 15 to 20)
#    0.000    1.500    1.250    4.875    0.000    4.000 
#    4.500    0.000    0.000    0.000    0.000    0.000 
#    0.000    0.000    0.000    0.000    0.000    0.000 
#
# Total GULP energy -178671.374335 kJ/mol
# GULP energy per Si atom -5583.480448 kJ/mol
# Density = 2.069907 g / cm^3
# Si number density = 20.746292 Si / 1000 Ang^3
#
#
#
# Elastic Constant Matrix: (Units=GPa)
#
#
# Indices 1 2 3 4 5 6 
#
# 1 80.3791 17.0153 17.1554 0.0000 -16.6709 0.0000
# 2 17.0153 98.1931 29.1084 0.0000 1.3614 0.0000
# 3 17.1554 29.1084 84.3202 0.0000 -15.4494 0.0000
# 4 0.0000 0.0000 0.0000 23.8089 0.0000 -0.1060
# 5 -16.6709 1.3614 -15.4494 0.0000 35.9824 0.0000
# 6 0.0000 0.0000 0.0000 -0.1060 0.0000 14.8934
#
#
#
# Elastic Compliance Matrix: (Units=1/GPa)
#
#
# Indices 1 2 3 4 5 6 
#
# 1 0.014458 -0.002303 -0.000980 0.000000 0.006365 0.000000
# 2 -0.002303 0.011889 -0.004248 0.000000 -0.003341 0.000000
# 3 -0.000980 -0.004248 0.014622 0.000000 0.005985 0.000000
# 4 0.000000 0.000000 0.000000 0.042002 0.000000 0.000299
# 5 0.006365 -0.003341 0.005985 0.000000 0.033436 0.000000
# 6 0.000000 0.000000 0.000000 0.000299 0.000000 0.067146
#
#
# Mechanical properties :
#
#
# Convention : Reuss Voigt Hill
#
# Bulk Modulus (GPa) = 38.60047 43.27230 40.93638
# Shear Modulus (GPa) = 24.12547 28.24449 26.18498
#
# Velocity S-wave (km/s) = 3.41380 3.69375 3.55653
# Velocity P-wave (km/s) = 5.84680 6.25259 6.05310
#
# Compressibility (1/GPa) = 0.02590642
#
# Stress axis : x y z
#
# Youngs Moduli (GPa) = 69.16662 84.11449 68.39083
#
# Poissons Ratio (x) = 0.19371 0.06705
# Poissons Ratio (y) = 0.15929 0.29050
# Poissons Ratio (z) = 0.06781 0.35728
#
# Static dielectric constant tensor:
#      x y z
#    x 1.776410 0.000000 -0.031300 
#    y 0.000000 1.744520 0.000000 
#    z -0.031300 0.000000 1.793340 
# 
# From -- ./inp_files/55020.got.cif
#   From: 2010.05.17/outbox.cif.g08.bks.cpg/sg11_28_cif.got.tgz:55020.got - 2010.06.03 12:22:45.
