data_PCOD9165648
_publ_section_title
;
Structure prediction by ZEFSAII (Michael W. Deem and Ramdas Pophale) SiO2 
 PCOD9165648
Probable space group: P 21/M
;
_chemical_formula_sum "Si O2"
_cell_formula_units_Z 28
_cell_length_a 4.887369
_cell_length_b 20.979058
_cell_length_c 10.859492
_cell_angle_alpha 90.000000
_cell_angle_beta 109.778324
_cell_angle_gamma 90.000000
_cell_volume 1047.766074
_symmetry_space_group_name_H-M "P 21/M"
_symmetry_group_IT_number 11
_symmetry_cell_setting 'monoclinic'
loop_
_space_group_symop_operation_xyz
x,y,z
-x,1/2+y,-z
-x,-y,-z
x,1/2-y,z
loop_
_atom_site_type_symbol
_atom_site_label
_atom_site_fract_x
_atom_site_fract_y
_atom_site_fract_z
Si Si1 0.676960 0.062773 0.488518
Si Si2 0.424461 0.320925 0.069868
Si Si3 0.639545 0.821240 0.422308
Si Si4 0.046386 0.681439 0.682092
Si Si5 0.721056 0.924777 0.785829
Si Si6 0.598090 0.124870 0.848979
Si Si7 0.941956 0.949020 0.230264
O O1 0.530228 0.123542 0.532147
O O2 0.595051 0.065729 0.330312
O O3 0.977117 0.053242 0.610514
O O4 0.500000 0.000000 0.500000
O O5 0.286598 0.250000 0.031914
O O6 0.617149 0.337071 0.978980
O O7 0.629653 0.315691 0.220727
O O8 0.275042 0.388221 0.083352
O O9 0.528884 0.750000 0.431225
O O10 0.603877 0.834008 0.273591
O O11 0.967070 0.824498 0.526813
O O12 0.918289 0.750000 0.701827
O O13 0.886225 0.625322 0.725060
O O14 0.916230 0.987878 0.806248
O O15 0.883049 0.107298 0.814789
O O16 0.400241 0.061602 0.838141
#
# Coordination Sequence:
#
# PCOD9165648 Si02
#       7
#     4   4   4   4   4   4   4
#     4   8  17  38  62  99 131 171 213 274 330 389
#     4  11  25  41  63  93 128 171 215 268 331 389
#     4   9  18  38  65  93 126 171 224 274 323 390
#     4   9  20  39  63  92 126 166 216 270 328 386
#     4  10  21  39  66  94 129 170 216 271 327 388
#     4  11  25  44  65  94 133 171 218 266 327 387
#     4  10  24  43  67  98 130 174 218 268 323 395
#
# _framework density 26.723521000000002
#
# number of rings (size 3 to 8) (size 9 to 14) (size 15 to 20)
#    0.000    2.286    0.000    0.857    6.000    1.714 
#    0.000   10.714    0.000    0.000    0.000    0.000 
#    0.000    0.000    0.000    0.000    0.000    0.000 
#
# Total GULP energy -156418.243145 kJ/mol
# GULP energy per Si atom -5586.365827 kJ/mol
# Density = 2.666270 g / cm^3
# Si number density = 26.723521 Si / 1000 Ang^3
#
#
#
# Elastic Constant Matrix: (Units=GPa)
#
#
# Indices 1 2 3 4 5 6 
#
# 1 84.7868 9.9002 13.9328 0.0000 -5.5970 0.0000
# 2 9.9002 138.2091 23.9389 0.0000 -13.6149 0.0000
# 3 13.9328 23.9389 98.9324 0.0000 3.3227 0.0000
# 4 0.0000 0.0000 0.0000 20.5898 0.0000 -6.2236
# 5 -5.5970 -13.6149 3.3227 0.0000 34.9387 0.0000
# 6 0.0000 0.0000 0.0000 -6.2236 0.0000 29.0767
#
#
#
# Elastic Compliance Matrix: (Units=1/GPa)
#
#
# Indices 1 2 3 4 5 6 
#
# 1 0.012249 -0.000389 -0.001697 0.000000 0.001972 0.000000
# 2 -0.000389 0.007921 -0.001970 0.000000 0.003212 0.000000
# 3 -0.001697 -0.001970 0.010893 0.000000 -0.002075 0.000000
# 4 0.000000 0.000000 0.000000 0.051927 0.000000 0.011115
# 5 0.001972 0.003212 -0.002075 0.000000 0.030386 0.000000
# 6 0.000000 0.000000 0.000000 0.011115 0.000000 0.036771
#
#
# Mechanical properties :
#
#
# Convention : Reuss Voigt Hill
#
# Bulk Modulus (GPa) = 43.57120 46.38578 44.97849
# Shear Modulus (GPa) = 30.13692 35.19812 32.66752
#
# Velocity S-wave (km/s) = 3.36181 3.63315 3.50011
# Velocity P-wave (km/s) = 5.60436 5.91566 5.76212
#
# Compressibility (1/GPa) = 0.02295094
#
# Stress axis : x y z
#
# Youngs Moduli (GPa) = 81.64083 126.24950 91.80025
#
# Poissons Ratio (x) = 0.04914 0.15579
# Poissons Ratio (y) = 0.03178 0.18082
# Poissons Ratio (z) = 0.13855 0.24867
#
# Static dielectric constant tensor:
#      x y z
#    x 2.097150 0.000000 0.064980 
#    y 0.000000 2.181550 0.000000 
#    z 0.064980 0.000000 2.116560 
# 
# From -- ./inp_files/30018.got.cif
#   From: 2010.05.17/outbox.cif.g08.bks.cpg/sg11_16_cif.got.tgz:30018.got - 2010.06.03 12:22:45.
