data_PCOD9165910
_publ_section_title
;
Structure prediction by ZEFSAII (Michael W. Deem and Ramdas Pophale) SiO2 
 PCOD9165910
Probable space group: P 21/M
;
_chemical_formula_sum "Si O2"
_cell_formula_units_Z 22
_cell_length_a 14.424907
_cell_length_b 17.316488
_cell_length_c 9.565297
_cell_angle_alpha 90.000000
_cell_angle_beta 25.377681
_cell_angle_gamma 90.000000
_cell_volume 1024.015326
_symmetry_space_group_name_H-M "P 21/M"
_symmetry_group_IT_number 11
_symmetry_cell_setting 'monoclinic'
loop_
_space_group_symop_operation_xyz
x,y,z
-x,1/2+y,-z
-x,-y,-z
x,1/2-y,z
loop_
_atom_site_type_symbol
_atom_site_label
_atom_site_fract_x
_atom_site_fract_y
_atom_site_fract_z
Si Si1 0.328770 0.487058 0.984832
Si Si2 0.265463 0.885070 0.300168
Si Si3 0.258744 0.340842 0.235805
Si Si4 0.819413 0.061150 0.289581
Si Si5 0.255510 0.750000 0.098542
Si Si6 0.170333 0.620043 0.016602
O O1 0.586280 0.480294 0.617965
O O2 0.276036 0.536474 0.195799
O O3 0.240448 0.401297 0.133593
O O4 0.229612 0.535051 0.992643
O O5 0.142970 0.900067 0.611583
O O6 0.190924 0.817628 0.299963
O O7 0.509316 0.859528 0.011825
O O8 0.244848 0.250000 0.220945
O O9 0.071077 0.358152 0.603683
O O10 0.806997 0.121632 0.179669
O O11 0.000000 0.000000 0.000000
O O12 0.313201 0.681854 0.904937
#
# Coordination Sequence:
#
# PCOD9165910 Si02
#       6
#     4   4   4   4   2   4
#     4  10  22  40  66  91 124 171 206 259 314 387
#     4  10  21  41  67  88 127 163 218 248 313 388
#     4  11  20  37  62  95 119 164 212 257 310 385
#     4  11  22  39  65  97 123 164 217 265 317 375
#     4  10  22  40  58  92 122 172 200 260 312 374
#     4  11  22  39  62  92 133 156 211 262 325 366
#
# _framework density 21.484054
#
# number of rings (size 3 to 8) (size 9 to 14) (size 15 to 20)
#    0.000    1.455    1.818    5.455    0.000    2.182 
#    1.636    0.000    0.000    4.364    0.000    0.000 
#    0.000    0.000    0.000    0.000    0.000    0.000 
#
# Total GULP energy -122486.934714 kJ/mol
# GULP energy per Si atom -5567.587942 kJ/mol
# Density = 2.143516 g / cm^3
# Si number density = 21.484054 Si / 1000 Ang^3
#
#
#
# Elastic Constant Matrix: (Units=GPa)
#
#
# Indices 1 2 3 4 5 6 
#
# 1 67.1782 40.9212 9.8682 0.0000 30.3375 0.0000
# 2 40.9212 147.3103 35.5827 0.0000 13.8848 0.0000
# 3 9.8682 35.5827 58.1372 0.0000 17.3792 0.0000
# 4 0.0000 0.0000 0.0000 21.5926 0.0000 4.1929
# 5 30.3375 13.8848 17.3792 0.0000 42.6759 0.0000
# 6 0.0000 0.0000 0.0000 4.1929 0.0000 9.2985
#
#
#
# Elastic Compliance Matrix: (Units=1/GPa)
#
#
# Indices 1 2 3 4 5 6 
#
# 1 0.026988 -0.007005 0.005420 0.000000 -0.019114 0.000000
# 2 -0.007005 0.009802 -0.006086 0.000000 0.004269 0.000000
# 3 0.005420 -0.006086 0.023416 0.000000 -0.011409 0.000000
# 4 0.000000 0.000000 0.000000 0.050756 0.000000 -0.022887
# 5 -0.019114 0.004269 -0.011409 0.000000 0.040277 0.000000
# 6 0.000000 0.000000 0.000000 -0.022887 0.000000 0.117864
#
#
# Mechanical properties :
#
#
# Convention : Reuss Voigt Hill
#
# Bulk Modulus (GPa) = 22.28952 49.48553 35.88753
# Shear Modulus (GPa) = 16.70001 27.13031 21.91516
#
# Velocity S-wave (km/s) = 2.79107 3.55746 3.19731
# Velocity P-wave (km/s) = 4.55897 6.32121 5.51098
#
# Compressibility (1/GPa) = 0.04486413
#
# Stress axis : x y z
#
# Youngs Moduli (GPa) = 37.05341 102.01987 42.70513
#
# Poissons Ratio (x) = 0.71461 -0.23146
# Poissons Ratio (y) = 0.25955 0.25992
# Poissons Ratio (z) = -0.20083 0.62094
#
# Static dielectric constant tensor:
#      x y z
#    x 1.886970 0.000000 -0.063650 
#    y 0.000000 1.779200 0.000000 
#    z -0.063650 0.000000 1.778130 
# 
# From -- ./inp_files/22661.got.cif
#   From: 2010.05.17/outbox.cif.g08.bks.cpg/sg11_12_cif.got.tgz:22661.got - 2010.06.03 12:22:45.
