data_PCOD9165086
_publ_section_title
;
Structure prediction by ZEFSAII (Michael W. Deem and Ramdas Pophale) SiO2 
 PCOD9165086
Probable space group: P 21/M
;
_chemical_formula_sum "Si O2"
_cell_formula_units_Z 28
_cell_length_a 12.778659
_cell_length_b 8.725832
_cell_length_c 15.775155
_cell_angle_alpha 90.000000
_cell_angle_beta 123.802907
_cell_angle_gamma 90.000000
_cell_volume 1461.651777
_symmetry_space_group_name_H-M "P 21/M"
_symmetry_group_IT_number 11
_symmetry_cell_setting 'monoclinic'
loop_
_space_group_symop_operation_xyz
x,y,z
-x,1/2+y,-z
-x,-y,-z
x,1/2-y,z
loop_
_atom_site_type_symbol
_atom_site_label
_atom_site_fract_x
_atom_site_fract_y
_atom_site_fract_z
Si Si1 0.197342 0.066857 0.072135
Si Si2 0.726978 0.432719 0.273566
Si Si3 0.017118 0.068160 0.144201
Si Si4 0.528945 0.434630 0.783014
Si Si5 0.169867 0.433764 0.504217
Si Si6 0.437088 0.067180 0.554808
Si Si7 0.044302 0.068494 0.706434
O O1 0.194600 0.250000 0.057168
O O2 0.136893 0.036802 0.137813
O O3 0.337493 0.002418 0.130333
O O4 0.104312 0.985324 0.964093
O O5 0.721711 0.250000 0.269861
O O6 0.587161 0.502557 0.213923
O O7 0.793074 0.491531 0.389940
O O8 0.817360 0.495062 0.240617
O O9 0.011987 0.250000 0.158057
O O10 0.016286 0.978997 0.231711
O O11 0.529595 0.250000 0.786596
O O12 0.499923 0.482604 0.672184
O O13 0.160614 0.250000 0.510391
O O14 0.288768 0.468047 0.496535
O O15 0.044835 0.500429 0.406895
O O16 0.448896 0.250000 0.556649
O O17 0.500000 0.000000 0.500000
O O18 0.052990 0.250000 0.701762
#
# Coordination Sequence:
#
# PCOD9165086 Si02
#       7
#     4   4   4   4   4   4   4
#     4  10  21  39  63  89 117 152 192 236 290 348
#     4  11  22  39  60  85 116 154 197 241 288 344
#     4  10  22  40  61  88 119 151 191 241 289 342
#     4  10  21  38  59  84 115 155 193 234 289 346
#     4  10  21  38  56  81 116 156 196 238 288 341
#     4   9  20  34  51  78 114 150 189 234 278 333
#     4  12  24  38  59  86 117 154 196 242 290 343
#
# _framework density 19.156409
#
# number of rings (size 3 to 8) (size 9 to 14) (size 15 to 20)
#    0.000    1.714    0.000    5.571    2.000    5.143 
#    0.000    0.714    0.000    0.000    0.000    0.000 
#    0.000    0.000    0.000    0.000    0.000    0.000 
#
# Total GULP energy -156487.491463 kJ/mol
# GULP energy per Si atom -5588.838981 kJ/mol
# Density = 1.911281 g / cm^3
# Si number density = 19.156409 Si / 1000 Ang^3
#
#
#
# Elastic Constant Matrix: (Units=GPa)
#
#
# Indices 1 2 3 4 5 6 
#
# 1 64.3648 27.1806 13.0363 0.0000 22.9577 0.0000
# 2 27.1806 79.1964 4.7553 0.0000 8.1515 0.0000
# 3 13.0363 4.7553 20.0340 0.0000 16.6396 0.0000
# 4 0.0000 0.0000 0.0000 29.6219 0.0000 -2.0258
# 5 22.9577 8.1515 16.6396 0.0000 31.0166 0.0000
# 6 0.0000 0.0000 0.0000 -2.0258 0.0000 34.2135
#
#
#
# Elastic Compliance Matrix: (Units=1/GPa)
#
#
# Indices 1 2 3 4 5 6 
#
# 1 0.024077 -0.006601 -0.001334 0.000000 -0.015371 0.000000
# 2 -0.006601 0.014790 -0.000081 0.000000 0.001042 0.000000
# 3 -0.001334 -0.000081 0.090120 0.000000 -0.047339 0.000000
# 4 0.000000 0.000000 0.000000 0.033896 0.000000 0.002007
# 5 -0.015371 0.001042 -0.047339 0.000000 0.068740 0.000000
# 6 0.000000 0.000000 0.000000 0.002007 0.000000 0.029347
#
#
# Mechanical properties :
#
#
# Convention : Reuss Voigt Hill
#
# Bulk Modulus (GPa) = 8.85305 28.17105 18.51205
# Shear Modulus (GPa) = 15.89051 26.87859 21.38455
#
# Velocity S-wave (km/s) = 2.88325 3.74988 3.34475
# Velocity P-wave (km/s) = 3.96430 5.78675 4.95995
#
# Compressibility (1/GPa) = 0.11295548
#
# Stress axis : x y z
#
# Youngs Moduli (GPa) = 41.53427 67.61362 11.09626
#
# Poissons Ratio (x) = 0.44632 0.01480
# Poissons Ratio (y) = 0.27417 0.00090
# Poissons Ratio (z) = 0.05539 0.00548
#
# Static dielectric constant tensor:
#      x y z
#    x 1.683250 0.000000 -0.011560 
#    y 0.000000 1.633910 0.000000 
#    z -0.011560 0.000000 1.652650 
# 
# From -- ./inp_files/49487.got.cif
#   From: 2010.05.17/outbox.cif.g08.bks.cpg/sg11_25_cif.got.tgz:49487.got - 2010.06.03 12:22:45.
