data_PCOD9165297
_publ_section_title
;
Structure prediction by ZEFSAII (Michael W. Deem and Ramdas Pophale) SiO2 
 PCOD9165297
Probable space group: P 21/M
;
_chemical_formula_sum "Si O2"
_cell_formula_units_Z 26
_cell_length_a 11.451360
_cell_length_b 15.248659
_cell_length_c 8.247764
_cell_angle_alpha 90.000000
_cell_angle_beta 66.575533
_cell_angle_gamma 90.000000
_cell_volume 1321.512353
_symmetry_space_group_name_H-M "P 21/M"
_symmetry_group_IT_number 11
_symmetry_cell_setting 'monoclinic'
loop_
_space_group_symop_operation_xyz
x,y,z
-x,1/2+y,-z
-x,-y,-z
x,1/2-y,z
loop_
_atom_site_type_symbol
_atom_site_label
_atom_site_fract_x
_atom_site_fract_y
_atom_site_fract_z
Si Si1 0.713271 0.148119 0.472666
Si Si2 0.781050 0.485331 0.164700
Si Si3 0.987084 0.403923 0.855610
Si Si4 0.552434 0.911149 0.387985
Si Si5 0.115996 0.250000 0.942034
Si Si6 0.310211 0.250000 0.528080
Si Si7 0.849624 0.750000 0.716038
Si Si8 0.032403 0.603048 0.490578
O O1 0.730266 0.250000 0.434085
O O2 0.727001 0.095626 0.296727
O O3 0.572979 0.130317 0.621325
O O4 0.825594 0.115092 0.524564
O O5 0.669423 0.556711 0.211696
O O6 0.895712 0.528258 0.205352
O O7 0.855040 0.452052 0.966753
O O8 0.979842 0.361272 0.685136
O O9 0.025023 0.334357 0.972176
O O10 0.608241 0.838399 0.481633
O O11 0.500000 0.000000 0.500000
O O12 0.206858 0.250000 0.732896
O O13 0.189458 0.250000 0.072468
O O14 0.249115 0.250000 0.381540
O O15 0.936555 0.662963 0.646387
O O16 0.000000 0.500000 0.500000
#
# Coordination Sequence:
#
# PCOD9165297 Si02
#       8
#     4   4   4   4   2   2   2   4
#     4  11  22  39  63  92 127 174 220 268 326 393
#     4  10  21  38  61  91 122 167 219 259 334 390
#     4  11  22  38  62  96 132 170 207 279 334 380
#     4  10  22  41  67  91 127 177 222 265 327 399
#     4  12  24  40  67 100 137 170 217 281 335 398
#     4  12  22  45  70  94 132 175 225 270 334 399
#     4  12  26  41  65 102 131 171 224 275 339 403
#     4  12  23  39  63  99 136 168 220 272 332 400
#
# _framework density 19.674427000000001
#
# number of rings (size 3 to 8) (size 9 to 14) (size 15 to 20)
#    0.000    0.923    6.154    0.923    5.385    0.000 
#    0.000    0.769    6.769    0.000    0.000    0.000 
#    0.000    0.000    0.000    0.000    0.000    0.000 
#
# Total GULP energy -145039.696903 kJ/mol
# GULP energy per Si atom -5578.449881 kJ/mol
# Density = 1.962965 g / cm^3
# Si number density = 19.674427 Si / 1000 Ang^3
#
#
#
# Elastic Constant Matrix: (Units=GPa)
#
#
# Indices 1 2 3 4 5 6 
#
# 1 110.8645 48.9777 33.1430 0.0000 -7.6709 0.0000
# 2 48.9777 131.1900 17.1415 0.0000 -6.5916 0.0000
# 3 33.1430 17.1415 58.4394 0.0000 0.2507 0.0000
# 4 0.0000 0.0000 0.0000 26.0090 0.0000 -8.1085
# 5 -7.6709 -6.5916 0.2507 0.0000 36.1252 0.0000
# 6 0.0000 0.0000 0.0000 -8.1085 0.0000 38.2685
#
#
#
# Elastic Compliance Matrix: (Units=1/GPa)
#
#
# Indices 1 2 3 4 5 6 
#
# 1 0.012669 -0.003835 -0.006069 0.000000 0.002033 0.000000
# 2 -0.003835 0.009165 -0.000517 0.000000 0.000862 0.000000
# 3 -0.006069 -0.000517 0.020712 0.000000 -0.001527 0.000000
# 4 0.000000 0.000000 0.000000 0.041168 0.000000 0.008723
# 5 0.002033 0.000862 -0.001527 0.000000 0.028281 0.000000
# 6 0.000000 0.000000 0.000000 0.008723 0.000000 0.027979
#
#
# Mechanical properties :
#
#
# Convention : Reuss Voigt Hill
#
# Bulk Modulus (GPa) = 46.07394 55.44651 50.76022
# Shear Modulus (GPa) = 29.75297 33.49599 31.62448
#
# Velocity S-wave (km/s) = 3.89301 4.13063 4.01358
# Velocity P-wave (km/s) = 6.60881 7.14091 6.88001
#
# Compressibility (1/GPa) = 0.02170424
#
# Stress axis : x y z
#
# Youngs Moduli (GPa) = 78.93232 109.11046 48.28137
#
# Poissons Ratio (x) = 0.41840 0.29302
# Poissons Ratio (y) = 0.30268 0.02497
# Poissons Ratio (z) = 0.47904 0.05643
#
# Static dielectric constant tensor:
#      x y z
#    x 1.697100 0.000000 -0.030420 
#    y 0.000000 0.547110 0.000000 
#    z -0.030420 0.000000 1.719220 
# 
# From -- ./inp_files/17663.got.cif
#   From: 2010.05.17/outbox.cif.g08.bks.cpg/sg11_9_cif.got.tgz:17663.got - 2010.06.03 12:22:45.
