data_PCOD9165819
_publ_section_title
;
Structure prediction by ZEFSAII (Michael W. Deem and Ramdas Pophale) SiO2 
 PCOD9165819
Probable space group: P 21/M
;
_chemical_formula_sum "Si O2"
_cell_formula_units_Z 24
_cell_length_a 14.200572
_cell_length_b 10.958734
_cell_length_c 15.224541
_cell_angle_alpha 90.000000
_cell_angle_beta 27.482298
_cell_angle_gamma 90.000000
_cell_volume 1093.347407
_symmetry_space_group_name_H-M "P 21/M"
_symmetry_group_IT_number 11
_symmetry_cell_setting 'monoclinic'
loop_
_space_group_symop_operation_xyz
x,y,z
-x,1/2+y,-z
-x,-y,-z
x,1/2-y,z
loop_
_atom_site_type_symbol
_atom_site_label
_atom_site_fract_x
_atom_site_fract_y
_atom_site_fract_z
Si Si1 0.267578 0.992673 0.223535
Si Si2 0.911681 0.397394 0.253069
Si Si3 0.342311 0.002671 0.830773
Si Si4 0.926914 0.250000 0.697388
Si Si5 0.256264 0.250000 0.284900
Si Si6 0.347380 0.750000 0.929300
Si Si7 0.500000 0.000000 0.500000
Si Si8 0.257428 0.608936 0.423424
O O1 0.169479 0.876976 0.257530
O O2 0.244392 0.967394 0.346071
O O3 0.195979 0.132428 0.277576
O O4 0.500000 0.000000 0.000000
O O5 0.908237 0.250000 0.249254
O O6 0.711588 0.450981 0.372267
O O7 0.888790 0.429287 0.375501
O O8 0.118011 0.449810 0.041089
O O9 0.374645 0.870492 0.848883
O O10 0.384888 0.996422 0.692284
O O11 0.512474 0.090990 0.731540
O O12 0.146023 0.250000 0.470740
O O13 0.879062 0.250000 0.840205
O O14 0.492899 0.250000 0.120735
O O15 0.226965 0.750000 0.427097
#
# Coordination Sequence:
#
# PCOD9165819 Si02
#       8
#     4   4   4   2   2   2   2   4
#     4  12  22  45  65  96 137 179 230 288 343 401
#     4  10  23  44  67 101 133 173 227 272 333 411
#     4  11  23  44  68 100 134 176 221 274 347 406
#     4  12  26  44  70  97 135 188 235 286 353 408
#     4  12  26  44  66  98 137 181 233 289 342 412
#     4  12  26  44  66 101 136 173 226 283 339 414
#     4  10  24  44  70 100 136 174 214 278 336 404
#     4  10  21  40  67  92 130 173 223 280 335 396
#
# _framework density 21.950935999999999
#
# number of rings (size 3 to 8) (size 9 to 14) (size 15 to 20)
#    0.000    1.000    4.167    1.500    3.500    0.667 
#    4.500    0.000    0.000    0.000    0.000    0.000 
#    0.000    0.000    0.000    0.000    0.000    0.000 
#
# Total GULP energy -133719.334090 kJ/mol
# GULP energy per Si atom -5571.638920 kJ/mol
# Density = 2.190097 g / cm^3
# Si number density = 21.950936 Si / 1000 Ang^3
#
#
#
# Elastic Constant Matrix: (Units=GPa)
#
#
# Indices 1 2 3 4 5 6 
#
# 1 85.3312 60.5758 39.6858 0.0000 10.7175 0.0000
# 2 60.5758 131.1340 59.5466 0.0000 10.4751 0.0000
# 3 39.6858 59.5466 182.9382 0.0000 9.5989 0.0000
# 4 0.0000 0.0000 0.0000 29.4238 0.0000 -5.8996
# 5 10.7175 10.4751 9.5989 0.0000 34.7583 0.0000
# 6 0.0000 0.0000 0.0000 -5.8996 0.0000 -1.4762
#
#
#
# Elastic Compliance Matrix: (Units=1/GPa)
#
#
# Indices 1 2 3 4 5 6 
#
# 1 0.018017 -0.007491 -0.001316 0.000000 -0.002935 0.000000
# 2 -0.007491 0.012191 -0.002305 0.000000 -0.000728 0.000000
# 3 -0.001316 -0.002305 0.006539 0.000000 -0.000705 0.000000
# 4 0.000000 0.000000 0.000000 0.018867 0.000000 -0.075404
# 5 -0.002935 -0.000728 -0.000705 0.000000 0.030089 0.000000
# 6 0.000000 0.000000 0.000000 -0.075404 0.000000 -0.376070
#
#
# Mechanical properties :
#
#
# Convention : Reuss Voigt Hill
#
# Bulk Modulus (GPa) = 68.85507 79.89109 74.37308
# Shear Modulus (GPa) = -18.98970 28.51420 4.76225
#
# Velocity S-wave (km/s) = -2.94444 3.60807 1.47452
# Velocity P-wave (km/s) = 4.45827 7.33702 6.07075
#
# Compressibility (1/GPa) = 0.01452326
#
# Stress axis : x y z
#
# Youngs Moduli (GPa) = 55.50160 82.02873 152.92467
#
# Poissons Ratio (x) = 0.61446 0.20131
# Poissons Ratio (y) = 0.41575 0.35248
# Poissons Ratio (z) = 0.07306 0.18907
#
# Static dielectric constant tensor:
#      x y z
#    x 1.778330 0.000000 -0.030520 
#    y 0.000000 1.814070 0.000000 
#    z -0.030520 0.000000 1.809350 
# 
# From -- ./inp_files/52091.got.cif
#   From: 2010.05.17/outbox.cif.g08.bks.cpg/sg11_27_cif.got.tgz:52091.got - 2010.06.03 12:22:45.
