data_PCOD9165501
_publ_section_title
;
Structure prediction by ZEFSAII (Michael W. Deem and Ramdas Pophale) SiO2 
 PCOD9165501
Probable space group: P 21/M
;
_chemical_formula_sum "Si O2"
_cell_formula_units_Z 32
_cell_length_a 12.782733
_cell_length_b 8.170850
_cell_length_c 29.349801
_cell_angle_alpha 90.000000
_cell_angle_beta 30.050845
_cell_angle_gamma 90.000000
_cell_volume 1535.086905
_symmetry_space_group_name_H-M "P 21/M"
_symmetry_group_IT_number 11
_symmetry_cell_setting 'monoclinic'
loop_
_space_group_symop_operation_xyz
x,y,z
-x,1/2+y,-z
-x,-y,-z
x,1/2-y,z
loop_
_atom_site_type_symbol
_atom_site_label
_atom_site_fract_x
_atom_site_fract_y
_atom_site_fract_z
Si Si1 0.801176 0.051664 0.764474
Si Si2 0.561051 0.064158 0.526577
Si Si3 0.245130 0.549351 0.322728
Si Si4 0.995217 0.945716 0.151743
Si Si5 0.201313 0.439562 0.482082
Si Si6 0.552544 0.944010 0.280991
Si Si7 0.862896 0.062318 0.294721
Si Si8 0.441036 0.445955 0.970948
O O1 0.817087 0.250000 0.759601
O O2 0.764901 0.999873 0.726150
O O3 0.612977 0.001141 0.869027
O O4 0.011409 0.980366 0.707236
O O5 0.634623 0.250000 0.497262
O O6 0.500000 0.000000 0.500000
O O7 0.721813 0.957010 0.494583
O O8 0.338130 0.051243 0.635901
O O9 0.240818 0.750000 0.324915
O O10 0.448455 0.492840 0.273598
O O11 0.035148 0.495564 0.428554
O O12 0.984078 0.750000 0.161938
O O13 0.780314 0.007661 0.209576
O O14 0.006437 0.028722 0.197145
O O15 0.210817 0.988477 0.045926
O O16 0.201319 0.250000 0.468885
O O17 0.373938 0.527662 0.386353
O O18 0.579771 0.750000 0.265488
O O19 0.792811 0.250000 0.321888
O O20 0.437168 0.250000 0.971975
O O21 0.500000 0.500000 0.000000
#
# Coordination Sequence:
#
# PCOD9165501 Si02
#       8
#     4   4   4   4   4   4   4   4
#     4  10  21  39  62  86 118 157 198 246 301 361
#     4  12  24  38  55  81 120 160 200 243 297 360
#     4   9  20  39  61  86 115 154 202 247 296 351
#     4  11  22  37  59  86 118 155 195 242 297 353
#     4  11  21  35  59  88 118 154 198 250 298 349
#     4  10  21  39  62  85 116 159 203 246 292 350
#     4  12  23  36  58  86 119 155 195 243 297 355
#     4  11  22  36  60  89 119 154 195 246 304 361
#
# _framework density 20.845725000000002
#
# number of rings (size 3 to 8) (size 9 to 14) (size 15 to 20)
#    0.000    1.250    2.500    4.500    0.000    2.000 
#    0.000    2.500    0.000    0.000    0.000    0.000 
#    0.000    0.000    0.000    0.000    0.000    0.000 
#
# Total GULP energy -178868.042193 kJ/mol
# GULP energy per Si atom -5589.626319 kJ/mol
# Density = 2.079828 g / cm^3
# Si number density = 20.845725 Si / 1000 Ang^3
#
#
#
# Elastic Constant Matrix: (Units=GPa)
#
#
# Indices 1 2 3 4 5 6 
#
# 1 125.7927 6.5675 32.9729 0.0000 -19.6462 0.0000
# 2 6.5675 35.5679 3.0817 0.0000 -2.7670 0.0000
# 3 32.9729 3.0817 91.6063 0.0000 -17.5140 0.0000
# 4 0.0000 0.0000 0.0000 24.9006 0.0000 0.4563
# 5 -19.6462 -2.7670 -17.5140 0.0000 30.8199 0.0000
# 6 0.0000 0.0000 0.0000 0.4563 0.0000 13.8489
#
#
#
# Elastic Compliance Matrix: (Units=1/GPa)
#
#
# Indices 1 2 3 4 5 6 
#
# 1 0.009355 -0.001166 -0.002477 0.000000 0.004451 0.000000
# 2 -0.001166 0.028481 -0.000215 0.000000 0.001691 0.000000
# 3 -0.002477 -0.000215 0.012912 0.000000 0.005739 0.000000
# 4 0.000000 0.000000 0.000000 0.040184 0.000000 -0.001324
# 5 0.004451 0.001691 0.005739 0.000000 0.038697 0.000000
# 6 0.000000 0.000000 0.000000 -0.001324 0.000000 0.072252
#
#
# Mechanical properties :
#
#
# Convention : Reuss Voigt Hill
#
# Bulk Modulus (GPa) = 23.23884 37.57901 30.40892
# Shear Modulus (GPa) = 22.32724 27.93686 25.13205
#
# Velocity S-wave (km/s) = 3.27627 3.66481 3.47597
# Velocity P-wave (km/s) = 5.04818 5.99784 5.54339
#
# Compressibility (1/GPa) = 0.04303142
#
# Stress axis : x y z
#
# Youngs Moduli (GPa) = 106.89577 35.11135 77.44485
#
# Poissons Ratio (x) = 0.04096 0.19183
# Poissons Ratio (y) = 0.12469 0.01664
# Poissons Ratio (z) = 0.26478 0.00754
#
# Static dielectric constant tensor:
#      x y z
#    x 1.762100 0.000000 0.006500 
#    y 0.000000 1.718390 0.000000 
#    z 0.006500 0.000000 1.781610 
# 
# From -- ./inp_files/38120.got.cif
#   From: 2010.05.17/outbox.cif.g08.bks.cpg/sg11_20_cif.got.tgz:38120.got - 2010.06.03 12:22:45.
