data_PCOD9165563
_publ_section_title
;
Structure prediction by ZEFSAII (Michael W. Deem and Ramdas Pophale) SiO2 
 PCOD9165563
Probable space group: P 21/M
;
_chemical_formula_sum "Si O2"
_cell_formula_units_Z 32
_cell_length_a 14.748605
_cell_length_b 11.344049
_cell_length_c 18.073990
_cell_angle_alpha 90.000000
_cell_angle_beta 30.603024
_cell_angle_gamma 90.000000
_cell_volume 1539.447738
_symmetry_space_group_name_H-M "P 21/M"
_symmetry_group_IT_number 11
_symmetry_cell_setting 'monoclinic'
loop_
_space_group_symop_operation_xyz
x,y,z
-x,1/2+y,-z
-x,-y,-z
x,1/2-y,z
loop_
_atom_site_type_symbol
_atom_site_label
_atom_site_fract_x
_atom_site_fract_y
_atom_site_fract_z
Si Si1 0.578388 0.969214 0.749933
Si Si2 0.328649 0.377093 0.832305
Si Si3 0.075173 0.612699 0.493145
Si Si4 0.967247 0.525003 0.728951
Si Si5 0.384332 0.989563 0.653549
Si Si6 0.035538 0.880003 0.838391
Si Si7 0.594472 0.390849 0.978422
Si Si8 0.688471 0.624846 0.524436
O O1 0.671209 0.884785 0.624976
O O2 0.409960 0.023102 0.826420
O O3 0.715524 0.079150 0.660568
O O4 0.510288 0.903950 0.870184
O O5 0.397225 0.250000 0.808034
O O6 0.379027 0.400319 0.712448
O O7 0.119532 0.379543 0.992267
O O8 0.045010 0.750000 0.491260
O O9 0.000000 0.500000 0.500000
O O10 0.992855 0.597282 0.634083
O O11 0.802365 0.433193 0.836766
O O12 0.946411 0.592723 0.821299
O O13 0.163247 0.468680 0.601585
O O14 0.188887 0.961866 0.762099
O O15 0.495066 0.895714 0.624909
O O16 0.500000 0.000000 0.500000
O O17 0.116835 0.750000 0.774565
O O18 0.583563 0.250000 0.962937
O O19 0.500000 0.500000 0.000000
O O20 0.758811 0.750000 0.451175
#
# Coordination Sequence:
#
# PCOD9165563 Si02
#       8
#     4   4   4   4   4   4   4   4
#     4  10  22  42  66  91 129 166 222 269 328 396
#     4  10  22  40  65  91 126 172 217 269 324 390
#     4  11  25  43  67  97 130 172 220 278 341 407
#     4  11  23  43  66  96 131 172 222 273 330 402
#     4  11  22  39  60  95 132 165 218 265 322 381
#     4  11  22  40  64  92 131 173 217 269 326 394
#     4  12  27  45  69 101 136 175 223 280 343 411
#     4  10  21  39  63  90 126 172 214 263 318 380
#
# _framework density 20.786676
#
# number of rings (size 3 to 8) (size 9 to 14) (size 15 to 20)
#    0.000    1.250    2.500    3.000    0.000    8.000 
#    0.000    0.000    0.000    0.000    0.000    0.000 
#    0.000    0.000    0.000    0.000    0.000    0.000 
#
# Total GULP energy -178158.377866 kJ/mol
# GULP energy per Si atom -5567.449308 kJ/mol
# Density = 2.073936 g / cm^3
# Si number density = 20.786676 Si / 1000 Ang^3
#
#
#
# Elastic Constant Matrix: (Units=GPa)
#
#
# Indices 1 2 3 4 5 6 
#
# 1 70.6012 24.0797 13.6523 0.0000 0.0833 0.0000
# 2 24.0797 100.0032 9.8487 0.0000 0.8832 0.0000
# 3 13.6523 9.8487 84.1365 0.0000 6.6124 0.0000
# 4 0.0000 0.0000 0.0000 4.1707 0.0000 -3.4157
# 5 0.0833 0.8832 6.6124 0.0000 35.0762 0.0000
# 6 0.0000 0.0000 0.0000 -3.4157 0.0000 18.1750
#
#
#
# Elastic Compliance Matrix: (Units=1/GPa)
#
#
# Indices 1 2 3 4 5 6 
#
# 1 0.015812 -0.003597 -0.002181 0.000000 0.000464 0.000000
# 2 -0.003597 0.010934 -0.000686 0.000000 -0.000138 0.000000
# 3 -0.002181 -0.000686 0.012503 0.000000 -0.002335 0.000000
# 4 0.000000 0.000000 0.000000 0.283381 0.000000 0.053257
# 5 0.000464 -0.000138 -0.002335 0.000000 0.028952 0.000000
# 6 0.000000 0.000000 0.000000 0.053257 0.000000 0.065029
#
#
# Mechanical properties :
#
#
# Convention : Reuss Voigt Hill
#
# Bulk Modulus (GPa) = 37.98986 38.87803 38.43394
# Shear Modulus (GPa) = 11.40738 25.29508 18.35123
#
# Velocity S-wave (km/s) = 2.34515 3.49218 2.97448
# Velocity P-wave (km/s) = 5.06446 5.91645 5.50695
#
# Compressibility (1/GPa) = 0.02632282
#
# Stress axis : x y z
#
# Youngs Moduli (GPa) = 63.24311 91.45412 79.98020
#
# Poissons Ratio (x) = 0.32893 0.17445
# Poissons Ratio (y) = 0.22746 0.05483
# Poissons Ratio (z) = 0.13795 0.06269
#
# Static dielectric constant tensor:
#      x y z
#    x 1.448310 0.000000 0.091450 
#    y 0.000000 1.788700 0.000000 
#    z 0.091450 0.000000 1.722760 
# 
# From -- ./inp_files/53660.got.cif
#   From: 2010.05.17/outbox.cif.g08.bks.cpg/sg11_27_cif.got.tgz:53660.got - 2010.06.03 12:22:45.
