data_PCOD9165511
_publ_section_title
;
Structure prediction by ZEFSAII (Michael W. Deem and Ramdas Pophale) SiO2 
 PCOD9165511
Probable space group: P 21/M
;
_chemical_formula_sum "Si O2"
_cell_formula_units_Z 28
_cell_length_a 29.441777
_cell_length_b 8.590561
_cell_length_c 9.155375
_cell_angle_alpha 90.000000
_cell_angle_beta 141.059700
_cell_angle_gamma 90.000000
_cell_volume 1455.372207
_symmetry_space_group_name_H-M "P 21/M"
_symmetry_group_IT_number 11
_symmetry_cell_setting 'monoclinic'
loop_
_space_group_symop_operation_xyz
x,y,z
-x,1/2+y,-z
-x,-y,-z
x,1/2-y,z
loop_
_atom_site_type_symbol
_atom_site_label
_atom_site_fract_x
_atom_site_fract_y
_atom_site_fract_z
Si Si1 0.215602 0.063348 0.456519
Si Si2 0.357244 0.562882 0.971523
Si Si3 0.930593 0.563210 0.740817
Si Si4 0.786082 0.061584 0.876094
Si Si5 0.069299 0.563121 0.587406
Si Si6 0.501933 0.562875 0.840494
Si Si7 0.642693 0.439423 0.690815
O O1 0.220438 0.250000 0.471968
O O2 0.142546 0.015633 0.358042
O O3 0.285156 0.992979 0.710412
O O4 0.212719 0.006699 0.282792
O O5 0.359966 0.750000 0.974963
O O6 0.427228 0.497223 0.064803
O O7 0.356556 0.510472 0.138844
O O8 0.933690 0.750000 0.745893
O O9 0.929809 0.500446 0.574428
O O10 0.000000 0.500000 0.000000
O O11 0.784692 0.250000 0.862310
O O12 0.714270 0.010705 0.783189
O O13 0.857668 0.016919 0.144726
O O14 0.066308 0.750000 0.575753
O O15 0.000000 0.500000 0.500000
O O16 0.502735 0.750000 0.845818
O O17 0.429982 0.511156 0.573825
O O18 0.500000 0.500000 0.000000
O O19 0.643161 0.250000 0.692497
#
# Coordination Sequence:
#
# PCOD9165511 Si02
#       7
#     4   4   4   4   4   4   4
#     4  11  24  40  59  88 121 154 195 246 297 349
#     4  11  22  39  62  86 116 156 197 241 294 353
#     4  11  24  41  62  88 121 159 202 251 303 358
#     4  10  21  39  62  87 115 154 200 244 293 354
#     4  11  23  39  62  90 122 159 201 247 298 357
#     4  11  22  38  60  88 120 154 195 243 294 351
#     4   9  20  38  60  85 114 150 195 242 289 344
#
# _framework density 19.239063999999999
#
# number of rings (size 3 to 8) (size 9 to 14) (size 15 to 20)
#    0.000    1.429    0.000    5.143    0.000    8.000 
#    0.000    4.286    0.000    0.000    0.000    0.000 
#    0.000    0.000    0.000    0.000    0.000    0.000 
#
# Total GULP energy -156624.798535 kJ/mol
# GULP energy per Si atom -5593.742805 kJ/mol
# Density = 1.919528 g / cm^3
# Si number density = 19.239064 Si / 1000 Ang^3
#
#
#
# Elastic Constant Matrix: (Units=GPa)
#
#
# Indices 1 2 3 4 5 6 
#
# 1 241.8582 53.7711 145.7630 0.0000 -0.1140 0.0000
# 2 53.7711 47.1228 57.0048 0.0000 2.2169 0.0000
# 3 145.7630 57.0048 235.1036 0.0000 0.3074 0.0000
# 4 0.0000 0.0000 0.0000 29.2321 0.0000 -2.2785
# 5 -0.1140 2.2169 0.3074 0.0000 47.0294 0.0000
# 6 0.0000 0.0000 0.0000 -2.2785 0.0000 35.2472
#
#
#
# Elastic Compliance Matrix: (Units=1/GPa)
#
#
# Indices 1 2 3 4 5 6 
#
# 1 0.007080 -0.003933 -0.003436 0.000000 0.000225 0.000000
# 2 -0.003933 0.032302 -0.005392 0.000000 -0.001497 0.000000
# 3 -0.003436 -0.005392 0.007691 0.000000 0.000196 0.000000
# 4 0.000000 0.000000 0.000000 0.034382 0.000000 0.002223
# 5 0.000225 -0.001497 0.000196 0.000000 0.021333 0.000000
# 6 0.000000 0.000000 0.000000 0.002223 0.000000 0.028515
#
#
# Mechanical properties :
#
#
# Convention : Reuss Voigt Hill
#
# Bulk Modulus (GPa) = 46.40150 115.24027 80.82089
# Shear Modulus (GPa) = 30.48623 40.13811 35.31217
#
# Velocity S-wave (km/s) = 3.98502 4.57254 4.28885
# Velocity P-wave (km/s) = 6.73384 9.37585 8.16245
#
# Compressibility (1/GPa) = 0.02155103
#
# Stress axis : x y z
#
# Youngs Moduli (GPa) = 141.24041 30.95820 130.01998
#
# Poissons Ratio (x) = 0.12174 0.44680
# Poissons Ratio (y) = 0.55543 0.70106
# Poissons Ratio (z) = 0.48536 0.16693
#
# Static dielectric constant tensor:
#      x y z
#    x 1.631190 0.000000 0.007400 
#    y 0.000000 1.660050 0.000000 
#    z 0.007400 0.000000 1.635070 
# 
# From -- ./inp_files/28454.got.cif
#   From: 2010.05.17/outbox.cif.g08.bks.cpg/sg11_15_cif.got.tgz:28454.got - 2010.06.03 12:22:45.
