data_PCOD9165079
_publ_section_title
;
Structure prediction by ZEFSAII (Michael W. Deem and Ramdas Pophale) SiO2 
 PCOD9165079
Probable space group: P 21/M
;
_chemical_formula_sum "Si O2"
_cell_formula_units_Z 20
_cell_length_a 13.852173
_cell_length_b 7.469431
_cell_length_c 10.287347
_cell_angle_alpha 90.000000
_cell_angle_beta 43.811370
_cell_angle_gamma 90.000000
_cell_volume 736.876334
_symmetry_space_group_name_H-M "P 21/M"
_symmetry_group_IT_number 11
_symmetry_cell_setting 'monoclinic'
loop_
_space_group_symop_operation_xyz
x,y,z
-x,1/2+y,-z
-x,-y,-z
x,1/2-y,z
loop_
_atom_site_type_symbol
_atom_site_label
_atom_site_fract_x
_atom_site_fract_y
_atom_site_fract_z
Si Si1 0.783793 0.545505 0.372321
Si Si2 0.895233 0.536288 0.718606
Si Si3 0.482916 0.458486 0.715574
Si Si4 0.828218 0.968945 0.055417
Si Si5 0.322550 0.032479 0.261313
O O1 0.827406 0.750000 0.340070
O O2 0.614032 0.546310 0.514309
O O3 0.852110 0.461641 0.178326
O O4 0.780945 0.466517 0.519835
O O5 0.883862 0.750000 0.741333
O O6 0.748323 0.469756 0.801294
O O7 0.000000 0.500000 0.500000
O O8 0.918782 0.472274 0.843013
O O9 0.486717 0.250000 0.680438
O O10 0.329521 0.522915 0.831546
O O11 0.529936 0.474446 0.822285
O O12 0.831805 0.750000 0.060240
O O13 0.322820 0.250000 0.262166
#
# Coordination Sequence:
#
# PCOD9165079 Si02
#       5
#     4   4   4   4   4
#     4   8  15  30  49  73 101 131 155 185 240 295
#     4  10  21  38  53  68  93 129 168 205 242 282
#     4   9  16  27  49  78 104 126 155 193 234 286
#     4   9  17  30  51  74 100 131 159 190 240 293
#     4   8  17  32  50  70  99 130 157 192 242 290
#
# _framework density 27.141594999999999
#
# number of rings (size 3 to 8) (size 9 to 14) (size 15 to 20)
#    1.200    2.000    0.000    0.600    0.000    1.600 
#    0.000    4.000    0.000    0.000    0.000    0.000 
#    0.000    0.000    0.000    0.000    0.000    0.000 
#
# Total GULP energy -111574.351674 kJ/mol
# GULP energy per Si atom -5578.717584 kJ/mol
# Density = 2.707982 g / cm^3
# Si number density = 27.141595 Si / 1000 Ang^3
#
#
#
# Elastic Constant Matrix: (Units=GPa)
#
#
# Indices 1 2 3 4 5 6 
#
# 1 119.1307 13.3041 44.7264 0.0000 31.5695 0.0000
# 2 13.3041 101.0189 3.0296 0.0000 2.7464 0.0000
# 3 44.7264 3.0296 130.6667 0.0000 11.6790 0.0000
# 4 0.0000 0.0000 0.0000 10.0952 0.0000 -4.0139
# 5 31.5695 2.7464 11.6790 0.0000 58.2376 0.0000
# 6 0.0000 0.0000 0.0000 -4.0139 0.0000 21.0429
#
#
#
# Elastic Compliance Matrix: (Units=1/GPa)
#
#
# Indices 1 2 3 4 5 6 
#
# 1 0.011197 -0.001230 -0.003326 0.000000 -0.005344 0.000000
# 2 -0.001230 0.010052 0.000174 0.000000 0.000158 0.000000
# 3 -0.003326 0.000174 0.008785 0.000000 0.000033 0.000000
# 4 0.000000 0.000000 0.000000 0.107186 0.000000 0.020446
# 5 -0.005344 0.000158 0.000033 0.000000 0.020054 0.000000
# 6 0.000000 0.000000 0.000000 0.020446 0.000000 0.051422
#
#
# Mechanical properties :
#
#
# Convention : Reuss Voigt Hill
#
# Bulk Modulus (GPa) = 47.01791 52.54850 49.78320
# Shear Modulus (GPa) = 22.26694 37.19224 29.72959
#
# Velocity S-wave (km/s) = 2.86737 3.70578 3.31320
# Velocity P-wave (km/s) = 5.32195 6.14111 5.74615
#
# Compressibility (1/GPa) = 0.02126849
#
# Stress axis : x y z
#
# Youngs Moduli (GPa) = 89.31335 99.48699 113.83515
#
# Poissons Ratio (x) = 0.12232 0.37865
# Poissons Ratio (y) = 0.10981 -0.01977
# Poissons Ratio (z) = 0.29708 -0.01728
#
# Static dielectric constant tensor:
#      x y z
#    x 2.222180 0.000000 0.033030 
#    y 0.000000 1.994240 0.000000 
#    z 0.033030 0.000000 2.359090 
# 
# From -- ./inp_files/36931.got.cif
#   From: 2010.05.17/outbox.cif.g08.bks.cpg/sg11_19_cif.got.tgz:36931.got - 2010.06.03 12:22:45.
