data_PCOD9165382
_publ_section_title
;
Structure prediction by ZEFSAII (Michael W. Deem and Ramdas Pophale) SiO2 
 PCOD9165382
Probable space group: P 21/M
;
_chemical_formula_sum "Si O2"
_cell_formula_units_Z 32
_cell_length_a 12.182682
_cell_length_b 17.253199
_cell_length_c 15.864206
_cell_angle_alpha 90.000000
_cell_angle_beta 27.658862
_cell_angle_gamma 90.000000
_cell_volume 1547.896203
_symmetry_space_group_name_H-M "P 21/M"
_symmetry_group_IT_number 11
_symmetry_cell_setting 'monoclinic'
loop_
_space_group_symop_operation_xyz
x,y,z
-x,1/2+y,-z
-x,-y,-z
x,1/2-y,z
loop_
_atom_site_type_symbol
_atom_site_label
_atom_site_fract_x
_atom_site_fract_y
_atom_site_fract_z
Si Si1 0.299803 0.656292 0.304501
Si Si2 0.086775 0.343087 0.559728
Si Si3 0.722804 0.842346 0.388492
Si Si4 0.885127 0.425971 0.962408
Si Si5 0.478447 0.341769 0.149648
Si Si6 0.221461 0.662889 0.799476
Si Si7 0.078480 0.343085 0.291756
Si Si8 0.165088 0.397887 0.050561
O O1 0.322919 0.750000 0.283574
O O2 0.153294 0.628796 0.321562
O O3 0.132122 0.639618 0.499180
O O4 0.557067 0.620351 0.137127
O O5 0.062846 0.250000 0.582088
O O6 0.164542 0.369234 0.598800
O O7 0.298004 0.356637 0.349773
O O8 0.765494 0.750000 0.348535
O O9 0.443055 0.853742 0.587990
O O10 0.855923 0.889616 0.226461
O O11 0.713171 0.388754 0.008689
O O12 0.788648 0.396854 0.117319
O O13 0.882275 0.516909 0.952340
O O14 0.532750 0.250000 0.110542
O O15 0.326398 0.360444 0.170263
O O16 0.260604 0.750000 0.807701
O O17 0.981365 0.658695 0.910393
O O18 0.074443 0.250000 0.279279
O O19 0.068479 0.386929 0.210808
#
# Coordination Sequence:
#
# PCOD9165382 Si02
#       8
#     4   4   4   4   4   4   4   4
#     4   9  19  38  63  89 119 161 210 252 291 350
#     4   8  15  33  61  90 117 150 204 262 297 331
#     4  10  21  38  64  92 114 154 212 260 299 344
#     4  12  25  39  60  93 129 161 194 249 313 367
#     4   9  17  36  63  88 119 158 206 259 298 340
#     4  11  24  45  67  85 114 157 214 263 293 347
#     4   9  20  39  62  88 120 161 209 256 295 346
#     4  12  26  40  59  92 131 167 193 235 313 384
#
# _framework density 20.673220000000001
#
# number of rings (size 3 to 8) (size 9 to 14) (size 15 to 20)
#    0.000    2.000    1.250    4.125    1.750    3.000 
#    0.000    2.500    0.000    0.000    0.000    0.000 
#    0.000    0.000    0.000    0.000    0.000    0.000 
#
# Total GULP energy -178807.206188 kJ/mol
# GULP energy per Si atom -5587.725193 kJ/mol
# Density = 2.062617 g / cm^3
# Si number density = 20.673220 Si / 1000 Ang^3
#
#
#
# Elastic Constant Matrix: (Units=GPa)
#
#
# Indices 1 2 3 4 5 6 
#
# 1 43.6844 1.8089 4.3681 0.0000 -18.5784 0.0000
# 2 1.8089 40.1979 18.2338 0.0000 -2.3736 0.0000
# 3 4.3681 18.2338 62.2947 0.0000 -18.8724 0.0000
# 4 0.0000 0.0000 0.0000 -4.5272 0.0000 24.3550
# 5 -18.5784 -2.3736 -18.8724 0.0000 24.2272 0.0000
# 6 0.0000 0.0000 0.0000 24.3550 0.0000 -15.5725
#
#
#
# Elastic Compliance Matrix: (Units=1/GPa)
#
#
# Indices 1 2 3 4 5 6 
#
# 1 0.037116 -0.003749 0.009170 0.000000 0.035238 0.000000
# 2 -0.003749 0.029512 -0.010956 0.000000 -0.008518 0.000000
# 3 0.009170 -0.010956 0.026730 0.000000 0.026781 0.000000
# 4 0.000000 0.000000 0.000000 0.029794 0.000000 0.046598
# 5 0.035238 -0.008518 0.026781 0.000000 0.088325 0.000000
# 6 0.000000 0.000000 0.000000 0.046598 0.000000 0.008662
#
#
# Mechanical properties :
#
#
# Convention : Reuss Voigt Hill
#
# Bulk Modulus (GPa) = 12.15239 21.66652 16.90945
# Shear Modulus (GPa) = 19.33201 8.94325 14.13763
#
# Velocity S-wave (km/s) = 3.06130 2.08216 2.61791
# Velocity P-wave (km/s) = 4.28794 4.03531 4.16355
#
# Compressibility (1/GPa) = 0.08228832
#
# Stress axis : x y z
#
# Youngs Moduli (GPa) = 26.94257 33.88408 37.41131
#
# Poissons Ratio (x) = 0.12704 -0.34307
# Poissons Ratio (y) = 0.10101 0.40988
# Poissons Ratio (z) = -0.24707 0.37124
#
# Static dielectric constant tensor:
#      x y z
#    x 1.747650 0.000000 0.005110 
#    y 0.000000 1.704790 0.000000 
#    z 0.005110 0.000000 1.738480 
# 
# From -- ./inp_files/39958.got.cif
#   From: 2010.05.17/outbox.cif.g08.bks.cpg/sg11_20_cif.got.tgz:39958.got - 2010.06.03 12:22:45.
