data_PCOD9165140
_publ_section_title
;
Structure prediction by ZEFSAII (Michael W. Deem and Ramdas Pophale) SiO2 
 PCOD9165140
Probable space group: P 21/M
;
_chemical_formula_sum "Si O2"
_cell_formula_units_Z 32
_cell_length_a 11.949294
_cell_length_b 9.295568
_cell_length_c 27.138724
_cell_angle_alpha 90.000000
_cell_angle_beta 28.675989
_cell_angle_gamma 90.000000
_cell_volume 1446.499920
_symmetry_space_group_name_H-M "P 21/M"
_symmetry_group_IT_number 11
_symmetry_cell_setting 'monoclinic'
loop_
_space_group_symop_operation_xyz
x,y,z
-x,1/2+y,-z
-x,-y,-z
x,1/2-y,z
loop_
_atom_site_type_symbol
_atom_site_label
_atom_site_fract_x
_atom_site_fract_y
_atom_site_fract_z
Si Si1 0.445170 0.079800 0.590181
Si Si2 0.709071 0.919323 0.658151
Si Si3 0.856558 0.592376 0.192370
Si Si4 0.574526 0.421649 0.801100
Si Si5 0.065383 0.421037 0.025304
Si Si6 0.716680 0.091102 0.902601
Si Si7 0.195898 0.080058 0.488197
Si Si8 0.013372 0.425143 0.695590
O O1 0.503251 0.250000 0.560925
O O2 0.273726 0.029379 0.612299
O O3 0.299733 0.070911 0.698151
O O4 0.667707 0.982886 0.517656
O O5 0.716488 0.750000 0.665587
O O6 0.660476 0.936689 0.618679
O O7 0.546565 0.999448 0.759739
O O8 0.962007 0.991084 0.569048
O O9 0.789654 0.750000 0.197318
O O10 0.899348 0.477396 0.133198
O O11 0.112401 0.602097 0.117544
O O12 0.583985 0.250000 0.790244
O O13 0.829533 0.466616 0.723963
O O14 0.346143 0.450578 0.922867
O O15 0.038263 0.250000 0.030958
O O16 0.000000 0.500000 0.000000
O O17 0.641449 0.250000 0.915703
O O18 0.863901 0.029448 0.800956
O O19 0.500000 0.000000 0.000000
O O20 0.148183 0.250000 0.512969
O O21 0.029348 0.250000 0.687752
#
# Coordination Sequence:
#
# PCOD9165140 Si02
#       8
#     4   4   4   4   4   4   4   4
#     4   9  18  34  59  85 113 148 186 233 282 330
#     4  10  22  39  60  86 113 145 182 228 283 335
#     4   9  19  34  51  76 108 145 186 230 276 324
#     4  10  21  38  59  81 111 151 191 231 277 332
#     4  11  24  38  54  78 111 152 194 236 280 334
#     4   9  16  28  48  72 101 137 182 229 273 319
#     4  10  21  38  60  87 115 141 181 232 280 336
#     4   8  16  33  54  78 108 145 186 226 275 330
#
# _framework density 22.122367000000001
#
# number of rings (size 3 to 8) (size 9 to 14) (size 15 to 20)
#    0.000    2.500    0.000    3.375    1.750    4.500 
#    0.000    3.750    0.000    0.000    0.000    0.000 
#    0.000    0.000    0.000    0.000    0.000    0.000 
#
# Total GULP energy -178468.172801 kJ/mol
# GULP energy per Si atom -5577.130400 kJ/mol
# Density = 2.207202 g / cm^3
# Si number density = 22.122367 Si / 1000 Ang^3
#
#
#
# Elastic Constant Matrix: (Units=GPa)
#
#
# Indices 1 2 3 4 5 6 
#
# 1 115.6501 36.8416 19.0327 0.0000 -6.4864 0.0000
# 2 36.8416 45.3254 9.1456 0.0000 -4.4338 0.0000
# 3 19.0327 9.1456 54.6308 0.0000 -5.6953 0.0000
# 4 0.0000 0.0000 0.0000 21.1876 0.0000 -5.3017
# 5 -6.4864 -4.4338 -5.6953 0.0000 44.7790 0.0000
# 6 0.0000 0.0000 0.0000 -5.3017 0.0000 25.7321
#
#
#
# Elastic Compliance Matrix: (Units=1/GPa)
#
#
# Indices 1 2 3 4 5 6 
#
# 1 0.012037 -0.009210 -0.002599 0.000000 0.000501 0.000000
# 2 -0.009210 0.030025 -0.001669 0.000000 0.001427 0.000000
# 3 -0.002599 -0.001669 0.019694 0.000000 0.001963 0.000000
# 4 0.000000 0.000000 0.000000 0.049763 0.000000 0.010253
# 5 0.000501 0.001427 0.001963 0.000000 0.022795 0.000000
# 6 0.000000 0.000000 0.000000 0.010253 0.000000 0.040975
#
#
# Mechanical properties :
#
#
# Convention : Reuss Voigt Hill
#
# Bulk Modulus (GPa) = 28.73635 38.40513 33.57074
# Shear Modulus (GPa) = 23.38131 28.37881 25.88006
#
# Velocity S-wave (km/s) = 3.25454 3.58552 3.42403
# Velocity P-wave (km/s) = 5.20967 5.87701 5.55337
#
# Compressibility (1/GPa) = 0.03479913
#
# Stress axis : x y z
#
# Youngs Moduli (GPa) = 83.07956 33.30529 50.77604
#
# Poissons Ratio (x) = 0.30675 0.13198
# Poissons Ratio (y) = 0.76518 0.08475
# Poissons Ratio (z) = 0.21595 0.05559
#
# Static dielectric constant tensor:
#      x y z
#    x 1.854870 0.000000 0.007300 
#    y 0.000000 1.772140 0.000000 
#    z 0.007300 0.000000 1.880790 
# 
# From -- ./inp_files/73106.got.cif
#   From: 2010.05.17/outbox.cif.g08.bks.cpg/sg11_37_cif.got.tgz:73106.got - 2010.06.03 12:22:45.
