data_PCOD9165283
_publ_section_title
;
Structure prediction by ZEFSAII (Michael W. Deem and Ramdas Pophale) SiO2 
 PCOD9165283
Probable space group: P 21/M
;
_chemical_formula_sum "Si O2"
_cell_formula_units_Z 24
_cell_length_a 15.463316
_cell_length_b 8.720805
_cell_length_c 15.124452
_cell_angle_alpha 90.000000
_cell_angle_beta 140.007970
_cell_angle_gamma 90.000000
_cell_volume 1310.793700
_symmetry_space_group_name_H-M "P 21/M"
_symmetry_group_IT_number 11
_symmetry_cell_setting 'monoclinic'
loop_
_space_group_symop_operation_xyz
x,y,z
-x,1/2+y,-z
-x,-y,-z
x,1/2-y,z
loop_
_atom_site_type_symbol
_atom_site_label
_atom_site_fract_x
_atom_site_fract_y
_atom_site_fract_z
Si Si1 0.385247 0.934866 0.347409
Si Si2 0.607502 0.065614 0.852364
Si Si3 0.419707 0.566026 0.852883
Si Si4 0.115250 0.065718 0.851250
Si Si5 0.888491 0.433800 0.347170
Si Si6 0.917889 0.065138 0.852917
O O1 0.389010 0.750000 0.354189
O O2 0.404212 0.979172 0.259601
O O3 0.236743 0.985642 0.262201
O O4 0.500000 0.000000 0.500000
O O5 0.610905 0.250000 0.860883
O O6 0.487337 0.001563 0.818138
O O7 0.746311 0.000285 0.000650
O O8 0.432585 0.750000 0.863078
O O9 0.262618 0.526196 0.739286
O O10 0.500000 0.500000 0.000000
O O11 0.124308 0.250000 0.854866
O O12 0.994835 0.022061 0.823478
O O13 0.093763 0.000518 0.736955
O O14 0.898008 0.250000 0.351764
O O15 0.000000 0.500000 0.500000
O O16 0.919455 0.250000 0.860309
O O17 0.000000 0.000000 0.000000
#
# Coordination Sequence:
#
# PCOD9165283 Si02
#       6
#     4   4   4   4   4   4
#     4  10  23  41  60  87 125 161 200 251 304 360
#     4  11  22  38  62  91 123 160 205 253 302 360
#     4  11  23  39  63  92 122 160 205 251 302 363
#     4  11  22  37  63  93 121 159 205 252 304 362
#     4  11  25  43  63  89 125 163 201 253 309 362
#     4  10  21  38  61  90 121 157 202 250 299 359
#
# _framework density 18.309519000000002
#
# number of rings (size 3 to 8) (size 9 to 14) (size 15 to 20)
#    0.000    1.333    3.333    2.000    0.000    6.000 
#    0.000    5.000    0.000    0.000    0.000    0.000 
#    0.000    0.000    0.000    0.000    0.000    0.000 
#
# Total GULP energy -134162.295584 kJ/mol
# GULP energy per Si atom -5590.095649 kJ/mol
# Density = 1.826785 g / cm^3
# Si number density = 18.309519 Si / 1000 Ang^3
#
#
#
# Elastic Constant Matrix: (Units=GPa)
#
#
# Indices 1 2 3 4 5 6 
#
# 1 223.9907 65.4282 122.2849 0.0000 -0.8765 0.0000
# 2 65.4282 46.5241 54.5836 0.0000 1.1650 0.0000
# 3 122.2849 54.5836 196.5404 0.0000 -2.8139 0.0000
# 4 0.0000 0.0000 0.0000 37.3224 0.0000 -0.9514
# 5 -0.8765 1.1650 -2.8139 0.0000 33.4330 0.0000
# 6 0.0000 0.0000 0.0000 -0.9514 0.0000 30.8680
#
#
#
# Elastic Compliance Matrix: (Units=1/GPa)
#
#
# Indices 1 2 3 4 5 6 
#
# 1 0.008598 -0.008644 -0.002945 0.000000 0.000279 0.000000
# 2 -0.008644 0.040687 -0.005953 0.000000 -0.002145 0.000000
# 3 -0.002945 -0.005953 0.008586 0.000000 0.000853 0.000000
# 4 0.000000 0.000000 0.000000 0.026815 0.000000 0.000826
# 5 0.000279 -0.002145 0.000853 0.000000 0.030064 0.000000
# 6 0.000000 0.000000 0.000000 0.000826 0.000000 0.032421
#
#
# Mechanical properties :
#
#
# Convention : Reuss Voigt Hill
#
# Bulk Modulus (GPa) = 43.88120 105.73873 74.80997
# Shear Modulus (GPa) = 26.33642 35.30858 30.82250
#
# Velocity S-wave (km/s) = 3.79674 4.39615 4.10739
# Velocity P-wave (km/s) = 6.57561 9.14572 7.96501
#
# Compressibility (1/GPa) = 0.02278880
#
# Stress axis : x y z
#
# Youngs Moduli (GPa) = 116.30241 24.57761 116.47011
#
# Poissons Ratio (x) = 0.21244 0.34303
# Poissons Ratio (y) = 1.00526 0.69330
# Poissons Ratio (z) = 0.34254 0.14630
#
# Static dielectric constant tensor:
#      x y z
#    x 1.630150 0.000000 0.011580 
#    y 0.000000 1.618910 0.000000 
#    z 0.011580 0.000000 1.582790 
# 
# From -- ./inp_files/51820.got.cif
#   From: 2010.05.17/outbox.cif.g08.bks.cpg/sg11_26_cif.got.tgz:51820.got - 2010.06.03 12:22:45.
