data_PCOD9165857
_publ_section_title
;
Structure prediction by ZEFSAII (Michael W. Deem and Ramdas Pophale) SiO2 
 PCOD9165857
Probable space group: P 21/M
;
_chemical_formula_sum "Si O2"
_cell_formula_units_Z 32
_cell_length_a 11.740278
_cell_length_b 13.977222
_cell_length_c 9.785493
_cell_angle_alpha 90.000000
_cell_angle_beta 89.684286
_cell_angle_gamma 90.000000
_cell_volume 1605.740500
_symmetry_space_group_name_H-M "P 21/M"
_symmetry_group_IT_number 11
_symmetry_cell_setting 'monoclinic'
loop_
_space_group_symop_operation_xyz
x,y,z
-x,1/2+y,-z
-x,-y,-z
x,1/2-y,z
loop_
_atom_site_type_symbol
_atom_site_label
_atom_site_fract_x
_atom_site_fract_y
_atom_site_fract_z
Si Si1 0.578257 0.529145 0.808936
Si Si2 0.703048 0.638526 0.564063
Si Si3 0.033884 0.090014 0.408110
Si Si4 0.259931 0.637036 0.227454
Si Si5 0.663669 0.523162 0.301024
Si Si6 0.788189 0.353371 0.449503
Si Si7 0.294808 0.135185 0.970550
Si Si8 0.905492 0.980562 0.888328
O O1 0.656910 0.582945 0.696372
O O2 0.627179 0.421138 0.815631
O O3 0.451375 0.524147 0.754227
O O4 0.599551 0.586570 0.948729
O O5 0.675973 0.750000 0.575154
O O6 0.840377 0.626571 0.552905
O O7 0.645721 0.590636 0.432423
O O8 0.923678 0.153698 0.432880
O O9 0.042027 0.060456 0.250540
O O10 0.000000 0.000000 0.500000
O O11 0.262044 0.750000 0.197373
O O12 0.241441 0.625941 0.391402
O O13 0.160560 0.578263 0.151641
O O14 0.744328 0.438399 0.354335
O O15 0.711572 0.589091 0.179567
O O16 0.736064 0.250000 0.414842
O O17 0.301014 0.250000 0.969005
O O18 0.185132 0.095619 0.052602
O O19 0.000000 0.000000 0.000000
#
# Coordination Sequence:
#
# PCOD9165857 Si02
#       8
#     4   4   4   4   4   4   4   4
#     4  11  23  45  66  95 129 174 218 273 326 387
#     4  12  24  40  68  99 131 171 221 272 328 388
#     4  12  20  42  65  92 133 169 214 265 326 383
#     4  10  21  41  63  92 130 173 214 262 328 389
#     4  12  24  44  65  99 132 168 220 279 325 378
#     4  11  23  39  65  98 131 170 213 265 328 388
#     4  11  25  45  66  93 133 177 220 265 329 394
#     4  11  23  40  64  94 130 172 215 270 318 384
#
# _framework density 19.928498999999999
#
# number of rings (size 3 to 8) (size 9 to 14) (size 15 to 20)
#    0.000    0.750    6.250    2.625    0.000    3.000 
#    0.000    5.000    0.000    0.000    0.000    0.000 
#    0.000    0.000    0.000    0.000    0.000    0.000 
#
# Total GULP energy -178809.698224 kJ/mol
# GULP energy per Si atom -5587.803070 kJ/mol
# Density = 1.988314 g / cm^3
# Si number density = 19.928499 Si / 1000 Ang^3
#
#
#
# Elastic Constant Matrix: (Units=GPa)
#
#
# Indices 1 2 3 4 5 6 
#
# 1 68.3716 31.0882 8.2861 0.0000 15.0935 0.0000
# 2 31.0882 174.9546 47.3686 0.0000 10.2994 0.0000
# 3 8.2861 47.3686 105.9641 0.0000 13.3048 0.0000
# 4 0.0000 0.0000 0.0000 22.3919 0.0000 5.2447
# 5 15.0935 10.2994 13.3048 0.0000 32.8056 0.0000
# 6 0.0000 0.0000 0.0000 5.2447 0.0000 7.8978
#
#
#
# Elastic Compliance Matrix: (Units=1/GPa)
#
#
# Indices 1 2 3 4 5 6 
#
# 1 0.017494 -0.002903 0.000870 0.000000 -0.007490 0.000000
# 2 -0.002903 0.007010 -0.002948 0.000000 0.000331 0.000000
# 3 0.000870 -0.002948 0.011191 0.000000 -0.004013 0.000000
# 4 0.000000 0.000000 0.000000 0.052885 0.000000 -0.035119
# 5 -0.007490 0.000331 -0.004013 0.000000 0.035453 0.000000
# 6 0.000000 0.000000 0.000000 -0.035119 0.000000 0.149939
#
#
# Mechanical properties :
#
#
# Convention : Reuss Voigt Hill
#
# Bulk Modulus (GPa) = 38.86057 58.08625 48.47341
# Shear Modulus (GPa) = 17.09332 30.12221 23.60777
#
# Velocity S-wave (km/s) = 2.93188 3.89204 3.44557
# Velocity P-wave (km/s) = 5.56809 7.02907 6.34080
#
# Compressibility (1/GPa) = 0.02573302
#
# Stress axis : x y z
#
# Youngs Moduli (GPa) = 57.16208 142.64411 89.35751
#
# Poissons Ratio (x) = 0.41413 -0.07777
# Poissons Ratio (y) = 0.16596 0.26345
# Poissons Ratio (z) = -0.04975 0.42056
#
# Static dielectric constant tensor:
#      x y z
#    x 1.691300 0.000000 -0.019340 
#    y 0.000000 1.609590 0.000000 
#    z -0.019340 0.000000 1.679100 
# 
# From -- ./inp_files/18090.got.cif
#   From: 2010.05.17/outbox.cif.g08.bks.cpg/sg11_10_cif.got.tgz:18090.got - 2010.06.03 12:22:45.
