data_PCOD9165117
_publ_section_title
;
Structure prediction by ZEFSAII (Michael W. Deem and Ramdas Pophale) SiO2 
 PCOD9165117
Probable space group: P 21/M
;
_chemical_formula_sum "Si O2"
_cell_formula_units_Z 24
_cell_length_a 9.779420
_cell_length_b 7.685877
_cell_length_c 12.895396
_cell_angle_alpha 90.000000
_cell_angle_beta 102.944288
_cell_angle_gamma 90.000000
_cell_volume 944.631495
_symmetry_space_group_name_H-M "P 21/M"
_symmetry_group_IT_number 11
_symmetry_cell_setting 'monoclinic'
loop_
_space_group_symop_operation_xyz
x,y,z
-x,1/2+y,-z
-x,-y,-z
x,1/2-y,z
loop_
_atom_site_type_symbol
_atom_site_label
_atom_site_fract_x
_atom_site_fract_y
_atom_site_fract_z
Si Si1 0.297620 0.453969 0.462926
Si Si2 0.504954 0.947951 0.674752
Si Si3 0.276176 0.960042 0.776386
Si Si4 0.023818 0.544317 0.324099
Si Si5 0.890759 0.040781 0.888979
Si Si6 0.342199 0.541750 0.006778
O O1 0.335470 0.250000 0.478927
O O2 0.363995 0.523736 0.365384
O O3 0.379559 0.550089 0.567652
O O4 0.131960 0.469046 0.425250
O O5 0.541229 0.750000 0.707705
O O6 0.423589 0.031421 0.757138
O O7 0.286473 0.750000 0.777695
O O8 0.255964 0.019990 0.890726
O O9 0.140074 0.009426 0.688538
O O10 0.044618 0.750000 0.328776
O O11 0.064137 0.472076 0.216012
O O12 0.886407 0.250000 0.878785
O O13 0.738158 0.977098 0.904661
O O14 0.000000 0.000000 0.000000
O O15 0.333824 0.750000 0.010273
O O16 0.500000 0.500000 0.000000
#
# Coordination Sequence:
#
# PCOD9165117 Si02
#       6
#     4   4   4   4   4   4
#     4  10  21  38  61  86 112 148 187 229 284 340
#     4   9  20  39  61  85 113 145 186 235 283 334
#     4  10  21  39  60  83 114 150 188 234 282 331
#     4  11  23  37  57  86 116 150 190 232 277 331
#     4  10  21  38  58  82 114 151 189 230 276 327
#     4  10  22  38  57  84 116 150 188 229 278 334
#
# _framework density 25.406732999999999
#
# number of rings (size 3 to 8) (size 9 to 14) (size 15 to 20)
#    0.000    2.000    1.667    1.000    2.333    4.000 
#    0.000    0.000    0.000    0.000    0.000    0.000 
#    0.000    0.000    0.000    0.000    0.000    0.000 
#
# Total GULP energy -134157.747505 kJ/mol
# GULP energy per Si atom -5589.906146 kJ/mol
# Density = 2.534891 g / cm^3
# Si number density = 25.406733 Si / 1000 Ang^3
#
#
#
# Elastic Constant Matrix: (Units=GPa)
#
#
# Indices 1 2 3 4 5 6 
#
# 1 105.2385 -6.7839 -0.9107 0.0000 5.1128 0.0000
# 2 -6.7839 68.2990 0.5789 0.0000 -5.0514 0.0000
# 3 -0.9107 0.5789 50.6415 0.0000 -3.5345 0.0000
# 4 0.0000 0.0000 0.0000 16.6006 0.0000 6.9633
# 5 5.1128 -5.0514 -3.5345 0.0000 50.6406 0.0000
# 6 0.0000 0.0000 0.0000 6.9633 0.0000 25.4105
#
#
#
# Elastic Compliance Matrix: (Units=1/GPa)
#
#
# Indices 1 2 3 4 5 6 
#
# 1 0.009603 0.000888 0.000102 0.000000 -0.000874 0.000000
# 2 0.000888 0.014833 -0.000057 0.000000 0.001386 0.000000
# 3 0.000102 -0.000057 0.019845 0.000000 0.001369 0.000000
# 4 0.000000 0.000000 0.000000 0.068063 0.000000 -0.018651
# 5 -0.000874 0.001386 0.001369 0.000000 0.020069 0.000000
# 6 0.000000 0.000000 0.000000 -0.018651 0.000000 0.044465
#
#
# Mechanical properties :
#
#
# Convention : Reuss Voigt Hill
#
# Bulk Modulus (GPa) = 21.67023 23.32751 22.49887
# Shear Modulus (GPa) = 26.26150 33.94999 30.10575
#
# Velocity S-wave (km/s) = 3.21852 3.65945 3.44605
# Velocity P-wave (km/s) = 4.72860 5.20164 4.97075
#
# Compressibility (1/GPa) = 0.04614627
#
# Stress axis : x y z
#
# Youngs Moduli (GPa) = 104.13609 67.41846 50.39138
#
# Poissons Ratio (x) = -0.05989 -0.00512
# Poissons Ratio (y) = -0.09251 0.00287
# Poissons Ratio (z) = -0.01057 0.00383
#
# Static dielectric constant tensor:
#      x y z
#    x 2.031590 0.000000 -0.040920 
#    y 0.000000 1.916300 0.000000 
#    z -0.040920 0.000000 2.066920 
# 
# From -- ./inp_files/25927.got.cif
#   From: 2010.05.17/outbox.cif.g08.bks.cpg/sg11_13_cif.got.tgz:25927.got - 2010.06.03 12:22:45.
