data_PCOD9165746
_publ_section_title
;
Structure prediction by ZEFSAII (Michael W. Deem and Ramdas Pophale) SiO2 
 PCOD9165746
Probable space group: P 21/M
;
_chemical_formula_sum "Si O2"
_cell_formula_units_Z 32
_cell_length_a 11.098109
_cell_length_b 14.674402
_cell_length_c 18.346023
_cell_angle_alpha 90.000000
_cell_angle_beta 149.511852
_cell_angle_gamma 90.000000
_cell_volume 1515.889895
_symmetry_space_group_name_H-M "P 21/M"
_symmetry_group_IT_number 11
_symmetry_cell_setting 'monoclinic'
loop_
_space_group_symop_operation_xyz
x,y,z
-x,1/2+y,-z
-x,-y,-z
x,1/2-y,z
loop_
_atom_site_type_symbol
_atom_site_label
_atom_site_fract_x
_atom_site_fract_y
_atom_site_fract_z
Si Si1 0.381781 0.851798 0.645705
Si Si2 0.065282 0.401865 0.505093
Si Si3 0.850120 0.642120 0.613677
Si Si4 0.077219 0.639699 0.880181
Si Si5 0.784653 0.983362 0.833373
Si Si6 0.691510 0.140790 0.673294
Si Si7 0.397696 0.358059 0.806596
Si Si8 0.047869 0.640011 0.335054
O O1 0.489262 0.750000 0.696601
O O2 0.564922 0.932362 0.757068
O O3 0.253696 0.875181 0.502100
O O4 0.168833 0.847030 0.593074
O O5 0.109010 0.402936 0.442656
O O6 0.290287 0.369408 0.669775
O O7 0.000000 0.500000 0.500000
O O8 0.875701 0.750000 0.613934
O O9 0.577669 0.627216 0.495168
O O10 0.029394 0.616698 0.770930
O O11 0.057733 0.750000 0.877662
O O12 0.877391 0.589420 0.822390
O O13 0.336704 0.607793 0.042259
O O14 0.722574 0.077074 0.759687
O O15 0.000000 0.000000 0.000000
O O16 0.720893 0.250000 0.703226
O O17 0.870553 0.110612 0.702379
O O18 0.411513 0.250000 0.827303
O O19 0.198314 0.395272 0.758834
O O20 0.027286 0.750000 0.320059
#
# Coordination Sequence:
#
# PCOD9165746 Si02
#       8
#     4   4   4   4   4   4   4   4
#     4  10  21  40  64  90 123 167 210 260 315 373
#     4  11  22  36  63  96 131 166 214 260 310 376
#     4  10  21  40  65  96 124 163 216 264 315 378
#     4  10  23  42  66  94 128 167 208 265 325 378
#     4  12  27  42  61  88 126 162 221 262 320 389
#     4  10  22  40  64  89 122 161 207 265 321 376
#     4   9  19  38  64  90 123 167 206 250 314 379
#     4   8  16  36  64  93 119 156 208 251 307 382
#
# _framework density 21.109712999999999
#
# number of rings (size 3 to 8) (size 9 to 14) (size 15 to 20)
#    0.000    2.000    0.000    3.750    3.500    7.000 
#    2.250    1.250    0.000    0.000    0.000    0.000 
#    0.000    0.000    0.000    0.000    0.000    0.000 
#
# Total GULP energy -178775.443599 kJ/mol
# GULP energy per Si atom -5586.732612 kJ/mol
# Density = 2.106167 g / cm^3
# Si number density = 21.109713 Si / 1000 Ang^3
#
#
#
# Elastic Constant Matrix: (Units=GPa)
#
#
# Indices 1 2 3 4 5 6 
#
# 1 84.9002 18.3944 20.9459 0.0000 -3.3665 0.0000
# 2 18.3944 67.8801 14.7328 0.0000 6.7509 0.0000
# 3 20.9459 14.7328 74.2880 0.0000 8.7667 0.0000
# 4 0.0000 0.0000 0.0000 24.4114 0.0000 4.9731
# 5 -3.3665 6.7509 8.7667 0.0000 24.1995 0.0000
# 6 0.0000 0.0000 0.0000 4.9731 0.0000 28.6190
#
#
#
# Elastic Compliance Matrix: (Units=1/GPa)
#
#
# Indices 1 2 3 4 5 6 
#
# 1 0.013558 -0.003291 -0.003657 0.000000 0.004129 0.000000
# 2 -0.003291 0.016455 -0.001817 0.000000 -0.004390 0.000000
# 3 -0.003657 -0.001817 0.015516 0.000000 -0.005623 0.000000
# 4 0.000000 0.000000 0.000000 0.042468 0.000000 -0.007380
# 5 0.004129 -0.004390 -0.005623 0.000000 0.045159 0.000000
# 6 0.000000 0.000000 0.000000 -0.007380 0.000000 0.036224
#
#
# Mechanical properties :
#
#
# Convention : Reuss Voigt Hill
#
# Bulk Modulus (GPa) = 35.71730 37.24605 36.48167
# Shear Modulus (GPa) = 25.47860 26.97898 26.22879
#
# Velocity S-wave (km/s) = 3.47790 3.57884 3.52873
# Velocity P-wave (km/s) = 5.75190 5.89575 5.82427
#
# Compressibility (1/GPa) = 0.02799764
#
# Stress axis : x y z
#
# Youngs Moduli (GPa) = 73.75982 60.77321 64.44833
#
# Poissons Ratio (x) = 0.19999 0.23570
# Poissons Ratio (y) = 0.24272 0.11713
# Poissons Ratio (z) = 0.26976 0.11045
#
# Static dielectric constant tensor:
#      x y z
#    x 1.783780 0.000000 0.027540 
#    y 0.000000 1.819800 0.000000 
#    z 0.027540 0.000000 1.730410 
# 
# From -- ./inp_files/41700.got.cif
#   From: 2010.05.17/outbox.cif.g08.bks.cpg/sg11_21_cif.got.tgz:41700.got - 2010.06.03 12:22:45.
