data_PCOD9165449
_publ_section_title
;
Structure prediction by ZEFSAII (Michael W. Deem and Ramdas Pophale) SiO2 
 PCOD9165449
Probable space group: P 21/M
;
_chemical_formula_sum "Si O2"
_cell_formula_units_Z 32
_cell_length_a 13.730138
_cell_length_b 8.724137
_cell_length_c 23.930527
_cell_angle_alpha 90.000000
_cell_angle_beta 33.709940
_cell_angle_gamma 90.000000
_cell_volume 1590.866815
_symmetry_space_group_name_H-M "P 21/M"
_symmetry_group_IT_number 11
_symmetry_cell_setting 'monoclinic'
loop_
_space_group_symop_operation_xyz
x,y,z
-x,1/2+y,-z
-x,-y,-z
x,1/2-y,z
loop_
_atom_site_type_symbol
_atom_site_label
_atom_site_fract_x
_atom_site_fract_y
_atom_site_fract_z
Si Si1 0.359960 0.565740 0.450881
Si Si2 0.153957 0.065722 0.888489
Si Si3 0.527224 0.434724 0.195048
Si Si4 0.803896 0.434681 0.590244
Si Si5 0.237875 0.436628 0.727427
Si Si6 0.119577 0.431307 0.662018
Si Si7 0.767885 0.926123 0.848171
Si Si8 0.611700 0.070970 0.028893
O O1 0.362415 0.750000 0.450557
O O2 0.277400 0.519767 0.431084
O O3 0.560370 0.513253 0.362031
O O4 0.242309 0.507320 0.557613
O O5 0.152998 0.250000 0.891448
O O6 0.135978 0.017922 0.832221
O O7 0.339022 0.005257 0.823855
O O8 0.000000 0.000000 0.000000
O O9 0.525709 0.250000 0.199230
O O10 0.332260 0.497912 0.299505
O O11 0.599576 0.477129 0.098991
O O12 0.807245 0.250000 0.592725
O O13 0.000000 0.500000 0.500000
O O14 0.235231 0.250000 0.727754
O O15 0.164716 0.488875 0.702981
O O16 0.147283 0.250000 0.647019
O O17 0.916777 0.470883 0.749663
O O18 0.824023 0.750000 0.819113
O O19 0.584414 0.939879 0.902976
O O20 0.732427 0.977386 0.928827
O O21 0.666159 0.250000 0.000753
#
# Coordination Sequence:
#
# PCOD9165449 Si02
#       8
#     4   4   4   4   4   4   4   4
#     4  10  21  42  64  84 117 160 198 246 305 359
#     4  11  23  42  64  92 126 166 207 252 311 370
#     4  11  23  41  65  94 125 163 207 255 310 370
#     4  11  24  42  65  92 126 165 207 256 310 369
#     4   9  20  41  63  83 118 159 195 243 305 359
#     4  11  23  37  60  91 119 153 198 249 300 357
#     4  10  21  39  60  87 119 156 199 246 296 357
#     4   9  21  40  61  83 118 160 196 242 303 357
#
# _framework density 20.114820999999999
#
# number of rings (size 3 to 8) (size 9 to 14) (size 15 to 20)
#    0.000    1.750    1.250    2.250    3.500    2.500 
#    0.000    2.500    0.000    0.000    0.000    0.000 
#    0.000    0.000    0.000    0.000    0.000    0.000 
#
# Total GULP energy -178840.168274 kJ/mol
# GULP energy per Si atom -5588.755259 kJ/mol
# Density = 2.006904 g / cm^3
# Si number density = 20.114821 Si / 1000 Ang^3
#
#
#
# Elastic Constant Matrix: (Units=GPa)
#
#
# Indices 1 2 3 4 5 6 
#
# 1 26.4671 9.1729 -9.1631 0.0000 13.2201 0.0000
# 2 9.1729 19.4635 5.5576 0.0000 1.9535 0.0000
# 3 -9.1631 5.5576 84.6980 0.0000 8.7068 0.0000
# 4 0.0000 0.0000 0.0000 38.3226 0.0000 1.7242
# 5 13.2201 1.9535 8.7068 0.0000 37.8832 0.0000
# 6 0.0000 0.0000 0.0000 1.7242 0.0000 26.8092
#
#
#
# Elastic Compliance Matrix: (Units=1/GPa)
#
#
# Indices 1 2 3 4 5 6 
#
# 1 0.064242 -0.031181 0.011405 0.000000 -0.023432 0.000000
# 2 -0.031181 0.067636 -0.008779 0.000000 0.009411 0.000000
# 3 0.011405 -0.008779 0.014317 0.000000 -0.006818 0.000000
# 4 0.000000 0.000000 0.000000 0.026170 0.000000 -0.001683
# 5 -0.023432 0.009411 -0.006818 0.000000 0.035656 0.000000
# 6 0.000000 0.000000 0.000000 -0.001683 0.000000 0.037409
#
#
# Mechanical properties :
#
#
# Convention : Reuss Voigt Hill
#
# Bulk Modulus (GPa) = 11.22529 15.75150 13.48840
# Shear Modulus (GPa) = 15.04963 28.94042 21.99503
#
# Velocity S-wave (km/s) = 2.73827 3.79722 3.31036
# Velocity P-wave (km/s) = 3.94844 5.20316 4.61861
#
# Compressibility (1/GPa) = 0.08908454
#
# Stress axis : x y z
#
# Youngs Moduli (GPa) = 15.56622 14.78510 69.84518
#
# Poissons Ratio (x) = 0.46101 -0.79657
# Poissons Ratio (y) = 0.48537 0.61316
# Poissons Ratio (z) = -0.17753 0.12980
#
# Static dielectric constant tensor:
#      x y z
#    x 1.717840 0.000000 -0.003140 
#    y 0.000000 1.686010 0.000000 
#    z -0.003140 0.000000 1.686340 
# 
# From -- ./inp_files/55592.got.cif
#   From: 2010.05.17/outbox.cif.g08.bks.cpg/sg11_28_cif.got.tgz:55592.got - 2010.06.03 12:22:45.
