data_PCOD9165416
_publ_section_title
;
Structure prediction by ZEFSAII (Michael W. Deem and Ramdas Pophale) SiO2 
 PCOD9165416
Probable space group: P 21/M
;
_chemical_formula_sum "Si O2"
_cell_formula_units_Z 32
_cell_length_a 16.108683
_cell_length_b 8.734729
_cell_length_c 24.421063
_cell_angle_alpha 90.000000
_cell_angle_beta 27.732346
_cell_angle_gamma 90.000000
_cell_volume 1598.991350
_symmetry_space_group_name_H-M "P 21/M"
_symmetry_group_IT_number 11
_symmetry_cell_setting 'monoclinic'
loop_
_space_group_symop_operation_xyz
x,y,z
-x,1/2+y,-z
-x,-y,-z
x,1/2-y,z
loop_
_atom_site_type_symbol
_atom_site_label
_atom_site_fract_x
_atom_site_fract_y
_atom_site_fract_z
Si Si1 0.685680 0.069027 0.373478
Si Si2 0.930743 0.934712 0.810963
Si Si3 0.824280 0.067171 0.667909
Si Si4 0.796283 0.432076 0.002376
Si Si5 0.405336 0.430718 0.784658
Si Si6 0.321755 0.566238 0.131007
Si Si7 0.842693 0.068512 0.163253
Si Si8 0.230686 0.070565 0.419001
O O1 0.677011 0.250000 0.387545
O O2 0.724633 0.043952 0.286612
O O3 0.864109 0.013663 0.300455
O O4 0.500000 0.000000 0.500000
O O5 0.924665 0.750000 0.814694
O O6 0.822858 0.994862 0.927072
O O7 0.841461 0.001493 0.809209
O O8 0.802854 0.250000 0.669519
O O9 0.706139 0.024090 0.789132
O O10 0.034360 0.042004 0.558218
O O11 0.784080 0.975598 0.636268
O O12 0.779704 0.250000 0.008270
O O13 0.974742 0.478695 0.931860
O O14 0.636011 0.503851 0.130778
O O15 0.379895 0.250000 0.799135
O O16 0.267022 0.509277 0.824110
O O17 0.606689 0.475046 0.651415
O O18 0.324334 0.750000 0.126408
O O19 0.500000 0.500000 0.000000
O O20 0.881878 0.250000 0.135679
O O21 0.271400 0.250000 0.400538
#
# Coordination Sequence:
#
# PCOD9165416 Si02
#       8
#     4   4   4   4   4   4   4   4
#     4   9  20  37  60  86 117 156 196 242 295 351
#     4  10  22  41  60  86 121 158 200 248 301 359
#     4   9  21  42  63  85 119 157 196 247 304 358
#     4  11  22  38  60  85 116 155 196 240 294 353
#     4  12  24  37  57  86 118 154 195 240 292 351
#     4  11  24  41  63  91 123 161 205 254 308 363
#     4  10  21  39  57  82 118 154 194 241 292 346
#     4  10  21  39  63  89 116 153 200 247 299 359
#
# _framework density 20.012616999999999
#
# number of rings (size 3 to 8) (size 9 to 14) (size 15 to 20)
#    0.000    1.750    0.000    4.875    1.750    5.500 
#    0.000    3.750    0.000    0.000    0.000    0.000 
#    0.000    0.000    0.000    0.000    0.000    0.000 
#
# Total GULP energy -178886.803974 kJ/mol
# GULP energy per Si atom -5590.212624 kJ/mol
# Density = 1.996707 g / cm^3
# Si number density = 20.012617 Si / 1000 Ang^3
#
#
#
# Elastic Constant Matrix: (Units=GPa)
#
#
# Indices 1 2 3 4 5 6 
#
# 1 39.2857 5.2916 -0.0049 0.0000 7.6095 0.0000
# 2 5.2916 59.6334 26.3971 0.0000 11.1914 0.0000
# 3 -0.0049 26.3971 83.8826 0.0000 9.8963 0.0000
# 4 0.0000 0.0000 0.0000 35.4618 0.0000 -2.4760
# 5 7.6095 11.1914 9.8963 0.0000 10.0427 0.0000
# 6 0.0000 0.0000 0.0000 -2.4760 0.0000 33.3558
#
#
#
# Elastic Compliance Matrix: (Units=1/GPa)
#
#
# Indices 1 2 3 4 5 6 
#
# 1 0.030581 0.001135 0.002860 0.000000 -0.027255 0.000000
# 2 0.001135 0.022782 -0.004608 0.000000 -0.021707 0.000000
# 3 0.002860 -0.004608 0.014735 0.000000 -0.011552 0.000000
# 4 0.000000 0.000000 0.000000 0.028346 0.000000 0.002104
# 5 -0.027255 -0.021707 -0.011552 0.000000 0.155799 0.000000
# 6 0.000000 0.000000 0.000000 0.002104 0.000000 0.030136
#
#
# Mechanical properties :
#
#
# Convention : Reuss Voigt Hill
#
# Bulk Modulus (GPa) = 14.95394 27.35216 21.15305
# Shear Modulus (GPa) = 16.34545 25.84661 21.09603
#
# Velocity S-wave (km/s) = 2.86100 3.59766 3.25027
# Velocity P-wave (km/s) = 4.28978 5.56370 4.96774
#
# Compressibility (1/GPa) = 0.06687202
#
# Stress axis : x y z
#
# Youngs Moduli (GPa) = 32.69979 43.89438 67.86746
#
# Poissons Ratio (x) = -0.04983 -0.19410
# Poissons Ratio (y) = -0.03713 0.31275
# Poissons Ratio (z) = -0.09352 0.20228
#
# Static dielectric constant tensor:
#      x y z
#    x 1.677410 0.000000 -0.057380 
#    y 0.000000 1.667470 0.000000 
#    z -0.057380 0.000000 1.640290 
# 
# From -- ./inp_files/68995.got.cif
#   From: 2010.05.17/outbox.cif.g08.bks.cpg/sg11_35_cif.got.tgz:68995.got - 2010.06.03 12:22:45.
