data_PCOD9165606
_publ_section_title
;
Structure prediction by ZEFSAII (Michael W. Deem and Ramdas Pophale) SiO2 
 PCOD9165606
Probable space group: P 21/M
;
_chemical_formula_sum "Si O2"
_cell_formula_units_Z 28
_cell_length_a 12.387577
_cell_length_b 14.710693
_cell_length_c 8.936168
_cell_angle_alpha 90.000000
_cell_angle_beta 116.645880
_cell_angle_gamma 90.000000
_cell_volume 1455.489046
_symmetry_space_group_name_H-M "P 21/M"
_symmetry_group_IT_number 11
_symmetry_cell_setting 'monoclinic'
loop_
_space_group_symop_operation_xyz
x,y,z
-x,1/2+y,-z
-x,-y,-z
x,1/2-y,z
loop_
_atom_site_type_symbol
_atom_site_label
_atom_site_fract_x
_atom_site_fract_y
_atom_site_fract_z
Si Si1 0.963515 0.939464 0.119376
Si Si2 0.198020 0.952601 0.753296
Si Si3 0.721967 0.645807 0.856435
Si Si4 0.406110 0.417460 0.921906
Si Si5 0.183076 0.641621 0.436397
Si Si6 0.371283 0.649291 0.090251
Si Si7 0.636288 0.020823 0.628409
O O1 0.075578 0.884784 0.256574
O O2 0.907554 0.006375 0.210187
O O3 0.855917 0.872998 0.001831
O O4 0.000000 0.000000 0.000000
O O5 0.153975 0.898594 0.581824
O O6 0.287446 0.038153 0.773389
O O7 0.281807 0.885427 0.904528
O O8 0.704723 0.750000 0.802269
O O9 0.699166 0.574624 0.708761
O O10 0.634038 0.621352 0.942120
O O11 0.489721 0.350780 0.878955
O O12 0.500000 0.500000 0.000000
O O13 0.203366 0.750000 0.452597
O O14 0.298104 0.583444 0.452352
O O15 0.336262 0.750000 0.117067
O O16 0.359432 0.578467 0.216470
O O17 0.500000 0.000000 0.500000
#
# Coordination Sequence:
#
# PCOD9165606 Si02
#       7
#     4   4   4   4   4   4   4
#     4  11  21  44  70  90 126 172 212 268 326 377
#     4  10  21  39  64  92 127 165 210 259 327 379
#     4  11  22  40  65  91 122 168 216 261 319 385
#     4   9  17  35  59  89 121 161 199 253 313 373
#     4  12  25  41  65  99 131 168 216 268 320 384
#     4  11  20  37  62  91 124 167 213 255 313 386
#     4  12  25  42  61  91 133 171 210 267 323 374
#
# _framework density 19.237518999999999
#
# number of rings (size 3 to 8) (size 9 to 14) (size 15 to 20)
#    0.000    1.143    5.714    3.000    2.000    1.143 
#    0.000    2.143    0.000    0.857    0.000    0.000 
#    0.000    0.000    0.000    0.000    0.000    0.000 
#
# Total GULP energy -156336.866805 kJ/mol
# GULP energy per Si atom -5583.459529 kJ/mol
# Density = 1.919373 g / cm^3
# Si number density = 19.237519 Si / 1000 Ang^3
#
#
#
# Elastic Constant Matrix: (Units=GPa)
#
#
# Indices 1 2 3 4 5 6 
#
# 1 80.3393 29.7434 2.6052 0.0000 -0.5202 0.0000
# 2 29.7434 154.9818 32.2383 0.0000 -3.5212 0.0000
# 3 2.6052 32.2383 71.6690 0.0000 5.3309 0.0000
# 4 0.0000 0.0000 0.0000 13.6514 0.0000 2.0720
# 5 -0.5202 -3.5212 5.3309 0.0000 30.5961 0.0000
# 6 0.0000 0.0000 0.0000 2.0720 0.0000 15.8774
#
#
#
# Elastic Compliance Matrix: (Units=1/GPa)
#
#
# Indices 1 2 3 4 5 6 
#
# 1 0.013436 -0.002742 0.000761 0.000000 -0.000220 0.000000
# 2 -0.002742 0.007737 -0.003489 0.000000 0.001452 0.000000
# 3 0.000761 -0.003489 0.015727 0.000000 -0.003129 0.000000
# 4 0.000000 0.000000 0.000000 0.074733 0.000000 -0.009753
# 5 -0.000220 0.001452 -0.003129 0.000000 0.033392 0.000000
# 6 0.000000 0.000000 0.000000 -0.009753 0.000000 0.064255
#
#
# Mechanical properties :
#
#
# Convention : Reuss Voigt Hill
#
# Bulk Modulus (GPa) = 38.51755 48.46265 43.49010
# Shear Modulus (GPa) = 21.84602 28.18518 25.01560
#
# Velocity S-wave (km/s) = 3.37351 3.83184 3.60996
# Velocity P-wave (km/s) = 5.93630 6.69505 6.32706
#
# Compressibility (1/GPa) = 0.02596219
#
# Stress axis : x y z
#
# Youngs Moduli (GPa) = 74.42560 129.24443 63.58337
#
# Poissons Ratio (x) = 0.35439 -0.04841
# Poissons Ratio (y) = 0.20407 0.22182
# Poissons Ratio (z) = -0.05666 0.45090
#
# Static dielectric constant tensor:
#      x y z
#    x 1.712220 0.000000 -0.003660 
#    y 0.000000 1.931520 0.000000 
#    z -0.003660 0.000000 1.665020 
# 
# From -- ./inp_files/18152.got.cif
#   From: 2010.05.17/outbox.cif.g08.bks.cpg/sg11_10_cif.got.tgz:18152.got - 2010.06.03 12:22:45.
