data_PCOD9165464
_publ_section_title
;
Structure prediction by ZEFSAII (Michael W. Deem and Ramdas Pophale) SiO2 
 PCOD9165464
Probable space group: P 21/M
;
_chemical_formula_sum "Si O2"
_cell_formula_units_Z 24
_cell_length_a 4.993122
_cell_length_b 11.688625
_cell_length_c 18.131130
_cell_angle_alpha 90.000000
_cell_angle_beta 90.000136
_cell_angle_gamma 90.000000
_cell_volume 1058.182256
_symmetry_space_group_name_H-M "P 21/M"
_symmetry_group_IT_number 11
_symmetry_cell_setting 'monoclinic'
loop_
_space_group_symop_operation_xyz
x,y,z
-x,1/2+y,-z
-x,-y,-z
x,1/2-y,z
loop_
_atom_site_type_symbol
_atom_site_label
_atom_site_fract_x
_atom_site_fract_y
_atom_site_fract_z
Si Si1 0.460977 0.496684 0.663266
Si Si2 0.966019 0.875446 0.892133
Si Si3 0.626643 0.877889 0.026468
Si Si4 0.626642 0.377889 0.473533
Si Si5 0.460975 0.996683 0.836734
Si Si6 0.033981 0.624554 0.392132
O O1 0.369921 0.605352 0.614451
O O2 0.419475 0.500001 0.750000
O O3 0.768295 0.466460 0.645494
O O4 0.268240 0.399158 0.629701
O O5 0.886127 0.750000 0.865458
O O6 0.768293 0.966460 0.854507
O O7 0.268238 0.899157 0.870298
O O8 0.902455 0.878117 0.979611
O O9 0.510470 0.750000 0.011075
O O10 0.630083 0.894649 0.114451
O O11 0.500000 0.000000 0.000000
O O12 0.500000 0.500000 0.500000
O O13 0.510468 0.250000 0.488926
O O14 0.902454 0.378117 0.520389
O O15 0.113870 0.750000 0.365457
#
# Coordination Sequence:
#
# PCOD9165464 Si02
#       6
#     4   4   4   4   4   4
#     4  11  22  38  59  91 124 159 203 259 315 373
#     4  10  21  39  61  84 118 162 207 253 308 371
#     4   9  20  39  63  91 123 165 213 260 309 372
#     4   9  20  39  63  91 123 165 213 260 309 372
#     4  11  22  38  59  91 124 159 203 259 315 373
#     4  10  21  39  61  84 118 162 207 253 308 371
#
# _framework density 22.680402000000001
#
# number of rings (size 3 to 8) (size 9 to 14) (size 15 to 20)
#    0.000    2.000    0.000    3.000    0.000    4.000 
#    0.000   13.333    0.000    0.000    0.000    0.000 
#    0.000    0.000    0.000    0.000    0.000    0.000 
#
# Total GULP energy -133665.632341 kJ/mol
# GULP energy per Si atom -5569.401348 kJ/mol
# Density = 2.262878 g / cm^3
# Si number density = 22.680402 Si / 1000 Ang^3
#
#
#
# Elastic Constant Matrix: (Units=GPa)
#
#
# Indices 1 2 3 4 5 6 
#
# 1 58.1838 18.5542 12.6225 0.0000 -0.0002 0.0000
# 2 18.5542 141.5753 44.2889 0.0000 0.0000 0.0000
# 3 12.6225 44.2889 153.0877 0.0000 -0.0006 0.0000
# 4 0.0000 0.0000 0.0000 15.7666 0.0000 -0.0001
# 5 -0.0002 0.0000 -0.0006 0.0000 25.1120 0.0000
# 6 0.0000 0.0000 0.0000 -0.0001 0.0000 29.0106
#
#
#
# Elastic Compliance Matrix: (Units=1/GPa)
#
#
# Indices 1 2 3 4 5 6 
#
# 1 0.018045 -0.002088 -0.000884 0.000000 0.000000 0.000000
# 2 -0.002088 0.008008 -0.002145 0.000000 0.000000 0.000000
# 3 -0.000884 -0.002145 0.007225 0.000000 0.000000 0.000000
# 4 0.000000 0.000000 0.000000 0.063425 0.000000 0.000000
# 5 0.000000 0.000000 0.000000 0.000000 0.039822 0.000000
# 6 0.000000 0.000000 0.000000 0.000000 0.000000 0.034470
#
#
# Mechanical properties :
#
#
# Convention : Reuss Voigt Hill
#
# Bulk Modulus (GPa) = 43.39363 55.97533 49.68448
# Shear Modulus (GPa) = 26.46769 32.46994 29.46881
#
# Velocity S-wave (km/s) = 3.41982 3.78779 3.60850
# Velocity P-wave (km/s) = 5.89642 6.62295 6.27022
#
# Compressibility (1/GPa) = 0.02304486
#
# Stress axis : x y z
#
# Youngs Moduli (GPa) = 55.41824 124.87592 138.39907
#
# Poissons Ratio (x) = 0.26079 0.12229
# Poissons Ratio (y) = 0.11574 0.29680
# Poissons Ratio (z) = 0.04897 0.26780
#
# Static dielectric constant tensor:
#      x y z
#    x 1.838870 0.000000 0.000000 
#    y 0.000000 1.868330 0.000000 
#    z 0.000000 0.000000 1.927400 
# 
# From -- ./inp_files/56788.got.cif
#   From: 2010.05.17/outbox.cif.g08.bks.cpg/sg11_29_cif.got.tgz:56788.got - 2010.06.03 12:22:45.
