data_PCOD9165698
_publ_section_title
;
Structure prediction by ZEFSAII (Michael W. Deem and Ramdas Pophale) SiO2 
 PCOD9165698
Probable space group: P 21/M
;
_chemical_formula_sum "Si O2"
_cell_formula_units_Z 24
_cell_length_a 12.928626
_cell_length_b 21.066144
_cell_length_c 5.081701
_cell_angle_alpha 90.000000
_cell_angle_beta 63.541275
_cell_angle_gamma 90.000000
_cell_volume 1239.063482
_symmetry_space_group_name_H-M "P 21/M"
_symmetry_group_IT_number 11
_symmetry_cell_setting 'monoclinic'
loop_
_space_group_symop_operation_xyz
x,y,z
-x,1/2+y,-z
-x,-y,-z
x,1/2-y,z
loop_
_atom_site_type_symbol
_atom_site_label
_atom_site_fract_x
_atom_site_fract_y
_atom_site_fract_z
Si Si1 0.415153 0.674640 0.580902
Si Si2 0.031426 0.675161 0.465626
Si Si3 0.716559 0.121647 0.764930
Si Si4 0.122082 0.324569 0.845443
Si Si5 0.347545 0.099425 0.762351
Si Si6 0.630285 0.516833 0.768030
O O1 0.425760 0.750000 0.607722
O O2 0.328952 0.659655 0.438084
O O3 0.538447 0.643164 0.374132
O O4 0.363766 0.642007 0.899757
O O5 0.054543 0.750000 0.388108
O O6 0.940007 0.653236 0.350228
O O7 0.152212 0.639320 0.320449
O O8 0.971217 0.669555 0.816107
O O9 0.702100 0.047386 0.720835
O O10 0.151385 0.250000 0.782325
O O11 0.236328 0.362052 0.793332
O O12 0.366546 0.042806 0.531300
O O13 0.330416 0.070737 0.071471
O O14 0.500000 0.500000 0.000000
#
# Coordination Sequence:
#
# PCOD9165698 Si02
#       6
#     4   4   4   4   4   4
#     4  12  23  37  62  93 123 150 198 263 309 359
#     4  10  21  40  62  86 121 160 200 249 310 365
#     4  12  24  40  62  92 123 162 206 245 306 365
#     4  10  22  41  64  89 122 162 201 253 310 360
#     4  12  23  41  63  91 121 160 210 245 305 364
#     4  12  23  42  62  88 127 170 200 244 305 368
#
# _framework density 19.369465999999999
#
# number of rings (size 3 to 8) (size 9 to 14) (size 15 to 20)
#    0.000    0.667    3.333    5.500    0.000    1.333 
#    0.000   10.000    0.000    0.000    0.000    0.000 
#    0.000    0.000    0.000    0.000    0.000    0.000 
#
# Total GULP energy -134300.378257 kJ/mol
# GULP energy per Si atom -5595.849094 kJ/mol
# Density = 1.932538 g / cm^3
# Si number density = 19.369466 Si / 1000 Ang^3
#
#
#
# Elastic Constant Matrix: (Units=GPa)
#
#
# Indices 1 2 3 4 5 6 
#
# 1 67.4897 16.7320 2.8730 0.0000 -9.2739 0.0000
# 2 16.7320 62.4768 -0.4089 0.0000 -12.0583 0.0000
# 3 2.8730 -0.4089 20.0427 0.0000 13.5668 0.0000
# 4 0.0000 0.0000 0.0000 16.9497 0.0000 -9.0874
# 5 -9.2739 -12.0583 13.5668 0.0000 40.4191 0.0000
# 6 0.0000 0.0000 0.0000 -9.0874 0.0000 12.6927
#
#
#
# Elastic Compliance Matrix: (Units=1/GPa)
#
#
# Indices 1 2 3 4 5 6 
#
# 1 0.016575 -0.003588 -0.005563 0.000000 0.004600 0.000000
# 2 -0.003588 0.018011 -0.002844 0.000000 0.005505 0.000000
# 3 -0.005563 -0.002844 0.067380 0.000000 -0.024741 0.000000
# 4 0.000000 0.000000 0.000000 0.095753 0.000000 0.068555
# 5 0.004600 0.005505 -0.024741 0.000000 0.035743 0.000000
# 6 0.000000 0.000000 0.000000 0.068555 0.000000 0.127867
#
#
# Mechanical properties :
#
#
# Convention : Reuss Voigt Hill
#
# Bulk Modulus (GPa) = 12.82439 20.93348 16.87893
# Shear Modulus (GPa) = 12.15623 22.73318 17.44471
#
# Velocity S-wave (km/s) = 2.50791 3.42959 3.00430
# Velocity P-wave (km/s) = 3.87575 5.14915 4.55715
#
# Compressibility (1/GPa) = 0.07797640
#
# Stress axis : x y z
#
# Youngs Moduli (GPa) = 60.33023 55.52295 14.84113
#
# Poissons Ratio (x) = 0.19920 0.08256
# Poissons Ratio (y) = 0.21645 0.04221
# Poissons Ratio (z) = 0.33561 0.15793
#
# Static dielectric constant tensor:
#      x y z
#    x 1.649650 0.000000 0.018160 
#    y 0.000000 1.678430 0.000000 
#    z 0.018160 0.000000 1.651270 
# 
# From -- ./inp_files/4827.got.cif
#   From: 2010.05.17/outbox.cif.g08.bks.cpg/sg11_3_cif.got.tgz:4827.got - 2010.06.03 12:22:45.
