data_PCOD9165354
_publ_section_title
;
Structure prediction by ZEFSAII (Michael W. Deem and Ramdas Pophale) SiO2 
 PCOD9165354
Probable space group: P 21/M
;
_chemical_formula_sum "Si O2"
_cell_formula_units_Z 28
_cell_length_a 21.319734
_cell_length_b 8.648047
_cell_length_c 14.337206
_cell_angle_alpha 90.000000
_cell_angle_beta 33.088265
_cell_angle_gamma 90.000000
_cell_volume 1443.117208
_symmetry_space_group_name_H-M "P 21/M"
_symmetry_group_IT_number 11
_symmetry_cell_setting 'monoclinic'
loop_
_space_group_symop_operation_xyz
x,y,z
-x,1/2+y,-z
-x,-y,-z
x,1/2-y,z
loop_
_atom_site_type_symbol
_atom_site_label
_atom_site_fract_x
_atom_site_fract_y
_atom_site_fract_z
Si Si1 0.032191 0.065386 0.858322
Si Si2 0.159355 0.062824 0.043397
Si Si3 0.277522 0.567649 0.576880
Si Si4 0.370726 0.064500 0.654566
Si Si5 0.656539 0.564806 0.866467
Si Si6 0.426339 0.067865 0.234404
Si Si7 0.885189 0.563824 0.688638
O O1 0.029174 0.250000 0.863431
O O2 0.161694 0.007505 0.680197
O O3 0.940344 0.002907 0.898634
O O4 0.000000 0.000000 0.000000
O O5 0.153857 0.250000 0.046774
O O6 0.137870 0.012389 0.176384
O O7 0.284474 0.018461 0.846227
O O8 0.260671 0.750000 0.609171
O O9 0.310139 0.494342 0.635599
O O10 0.379332 0.530151 0.378472
O O11 0.377111 0.250000 0.644846
O O12 0.500000 0.000000 0.500000
O O13 0.639422 0.750000 0.899959
O O14 0.645854 0.533675 0.769719
O O15 0.777665 0.520047 0.758351
O O16 0.555229 0.477035 0.045960
O O17 0.416977 0.250000 0.267200
O O18 0.891531 0.750000 0.682290
O O19 0.000000 0.500000 0.500000
#
# Coordination Sequence:
#
# PCOD9165354 Si02
#       7
#     4   4   4   4   4   4   4
#     4  12  24  41  65  92 124 160 206 258 315 376
#     4  10  23  43  65  91 127 170 212 260 318 378
#     4  12  25  41  64  93 126 166 210 259 317 374
#     4  11  24  42  65  95 132 169 212 261 314 381
#     4   9  20  40  63  88 124 164 205 257 318 377
#     4  10  21  38  62  94 125 159 206 260 315 376
#     4  10  23  42  63  91 124 166 214 260 313 373
#
# _framework density 19.402443999999999
#
# number of rings (size 3 to 8) (size 9 to 14) (size 15 to 20)
#    0.000    1.429    1.429    3.429    4.000    2.286 
#    0.000    0.000    0.000    0.000    0.000    0.000 
#    0.000    0.000    0.000    0.000    0.000    0.000 
#
# Total GULP energy -156534.575764 kJ/mol
# GULP energy per Si atom -5590.520563 kJ/mol
# Density = 1.935828 g / cm^3
# Si number density = 19.402444 Si / 1000 Ang^3
#
#
#
# Elastic Constant Matrix: (Units=GPa)
#
#
# Indices 1 2 3 4 5 6 
#
# 1 109.3065 30.6633 84.6124 0.0000 -15.9090 0.0000
# 2 30.6633 52.7721 37.1488 0.0000 -1.3270 0.0000
# 3 84.6124 37.1488 123.1313 0.0000 3.1461 0.0000
# 4 0.0000 0.0000 0.0000 36.8090 0.0000 -3.5992
# 5 -15.9090 -1.3270 3.1461 0.0000 34.3113 0.0000
# 6 0.0000 0.0000 0.0000 -3.5992 0.0000 28.9629
#
#
#
# Elastic Compliance Matrix: (Units=1/GPa)
#
#
# Indices 1 2 3 4 5 6 
#
# 1 0.024243 -0.002303 -0.016287 0.000000 0.012645 0.000000
# 2 -0.002303 0.024366 -0.005779 0.000000 0.000404 0.000000
# 3 -0.016287 -0.005779 0.021306 0.000000 -0.009729 0.000000
# 4 0.000000 0.000000 0.000000 0.027501 0.000000 0.003418
# 5 0.012645 0.000404 -0.009729 0.000000 0.035916 0.000000
# 6 0.000000 0.000000 0.000000 0.003418 0.000000 0.034952
#
#
# Mechanical properties :
#
#
# Convention : Reuss Voigt Hill
#
# Bulk Modulus (GPa) = 47.22362 65.56212 56.39287
# Shear Modulus (GPa) = 22.31352 28.86900 25.59126
#
# Velocity S-wave (km/s) = 3.39490 3.86152 3.63570
# Velocity P-wave (km/s) = 6.30547 7.33115 6.83757
#
# Compressibility (1/GPa) = 0.02117584
#
# Stress axis : x y z
#
# Youngs Moduli (GPa) = 41.24972 41.04109 46.93608
#
# Poissons Ratio (x) = 0.09452 0.76445
# Poissons Ratio (y) = 0.09500 0.27124
# Poissons Ratio (z) = 0.67184 0.23718
#
# Static dielectric constant tensor:
#      x y z
#    x 1.653500 0.000000 0.000550 
#    y 0.000000 1.656870 0.000000 
#    z 0.000550 0.000000 1.673720 
# 
# From -- ./inp_files/37898.got.cif
#   From: 2010.05.17/outbox.cif.g08.bks.cpg/sg11_19_cif.got.tgz:37898.got - 2010.06.03 12:22:45.
