data_PCOD9165665
_publ_section_title
;
Structure prediction by ZEFSAII (Michael W. Deem and Ramdas Pophale) SiO2 
 PCOD9165665
Probable space group: P 21/M
;
_chemical_formula_sum "Si O2"
_cell_formula_units_Z 28
_cell_length_a 11.950944
_cell_length_b 14.074011
_cell_length_c 8.894687
_cell_angle_alpha 90.000000
_cell_angle_beta 115.076169
_cell_angle_gamma 90.000000
_cell_volume 1355.054580
_symmetry_space_group_name_H-M "P 21/M"
_symmetry_group_IT_number 11
_symmetry_cell_setting 'monoclinic'
loop_
_space_group_symop_operation_xyz
x,y,z
-x,1/2+y,-z
-x,-y,-z
x,1/2-y,z
loop_
_atom_site_type_symbol
_atom_site_label
_atom_site_fract_x
_atom_site_fract_y
_atom_site_fract_z
Si Si1 0.462527 0.635041 0.426532
Si Si2 0.189293 0.535657 0.759616
Si Si3 0.208741 0.862991 0.451918
Si Si4 0.589033 0.364118 0.942054
Si Si5 0.054770 0.007581 0.197318
Si Si6 0.712767 0.863626 0.730593
Si Si7 0.673129 0.861451 0.063486
O O1 0.472227 0.750000 0.422922
O O2 0.344274 0.616300 0.462333
O O3 0.439336 0.601967 0.243304
O O4 0.589631 0.602635 0.574201
O O5 0.192909 0.583720 0.600065
O O6 0.236845 0.427162 0.788163
O O7 0.054169 0.539214 0.754178
O O8 0.289458 0.588443 0.921823
O O9 0.196128 0.750000 0.462156
O O10 0.109186 0.906792 0.281453
O O11 0.606481 0.250000 0.949914
O O12 0.468630 0.383806 0.974989
O O13 0.168496 0.080501 0.259475
O O14 0.000000 0.000000 0.000000
O O15 0.726213 0.750000 0.716056
O O16 0.696815 0.878844 0.900521
O O17 0.692316 0.750000 0.105175
#
# Coordination Sequence:
#
# PCOD9165665 Si02
#       7
#     4   4   4   4   4   4   4
#     4   9  20  40  67  99 131 168 220 274 334 394
#     4  12  24  43  67  99 135 178 225 269 331 403
#     4  11  26  47  70  97 135 179 220 278 337 395
#     4  10  21  39  68 103 134 172 220 274 334 401
#     4  12  26  45  67  98 134 175 233 273 325 406
#     4  10  22  42  67  97 132 173 218 277 339 395
#     4  10  22  41  65  96 133 171 217 275 335 388
#
# _framework density 20.663373
#
# number of rings (size 3 to 8) (size 9 to 14) (size 15 to 20)
#    0.000    1.429    1.429    3.000    2.000    5.143 
#    0.000    0.000    0.000    0.000    0.000    0.000 
#    0.000    0.000    0.000    0.000    0.000    0.000 
#
# Total GULP energy -156736.145938 kJ/mol
# GULP energy per Si atom -5597.719498 kJ/mol
# Density = 2.061634 g / cm^3
# Si number density = 20.663373 Si / 1000 Ang^3
#
#
#
# Elastic Constant Matrix: (Units=GPa)
#
#
# Indices 1 2 3 4 5 6 
#
# 1 162.8654 55.6617 43.3852 0.0000 22.2866 0.0000
# 2 55.6617 108.6306 52.6452 0.0000 3.8718 0.0000
# 3 43.3852 52.6452 103.3852 0.0000 25.3178 0.0000
# 4 0.0000 0.0000 0.0000 32.1263 0.0000 -1.8287
# 5 22.2866 3.8718 25.3178 0.0000 15.6261 0.0000
# 6 0.0000 0.0000 0.0000 -1.8287 0.0000 22.2700
#
#
#
# Elastic Compliance Matrix: (Units=1/GPa)
#
#
# Indices 1 2 3 4 5 6 
#
# 1 0.009719 -0.005939 0.003282 0.000000 -0.017708 0.000000
# 2 -0.005939 0.017293 -0.012165 0.000000 0.023897 0.000000
# 3 0.003282 -0.012165 0.024697 0.000000 -0.041682 0.000000
# 4 0.000000 0.000000 0.000000 0.031273 0.000000 0.002568
# 5 -0.017708 0.023897 -0.041682 0.000000 0.150864 0.000000
# 6 0.000000 0.000000 0.000000 0.002568 0.000000 0.045114
#
#
# Mechanical properties :
#
#
# Convention : Reuss Voigt Hill
#
# Bulk Modulus (GPa) = 45.32213 75.36281 60.34247
# Shear Modulus (GPa) = 15.82480 28.88377 22.35428
#
# Velocity S-wave (km/s) = 2.77038 3.74281 3.29269
# Velocity P-wave (km/s) = 5.67578 7.43162 6.61224
#
# Compressibility (1/GPa) = 0.02206428
#
# Stress axis : x y z
#
# Youngs Moduli (GPa) = 102.89491 57.82791 40.49024
#
# Poissons Ratio (x) = 0.34346 -0.13291
# Poissons Ratio (y) = 0.61113 0.49257
# Poissons Ratio (z) = -0.33775 0.70349
#
# Static dielectric constant tensor:
#      x y z
#    x 1.693660 0.000000 -0.004760 
#    y 0.000000 1.763180 0.000000 
#    z -0.004760 0.000000 1.712100 
# 
# From -- ./inp_files/18130.got.cif
#   From: 2010.05.17/outbox.cif.g08.bks.cpg/sg11_10_cif.got.tgz:18130.got - 2010.06.03 12:22:45.
