data_PCOD9165597
_publ_section_title
;
Structure prediction by ZEFSAII (Michael W. Deem and Ramdas Pophale) SiO2 
 PCOD9165597
Probable space group: P 21/M
;
_chemical_formula_sum "Si O2"
_cell_formula_units_Z 24
_cell_length_a 9.837342
_cell_length_b 14.365103
_cell_length_c 13.940065
_cell_angle_alpha 90.000000
_cell_angle_beta 29.336609
_cell_angle_gamma 90.000000
_cell_volume 965.147788
_symmetry_space_group_name_H-M "P 21/M"
_symmetry_group_IT_number 11
_symmetry_cell_setting 'monoclinic'
loop_
_space_group_symop_operation_xyz
x,y,z
-x,1/2+y,-z
-x,-y,-z
x,1/2-y,z
loop_
_atom_site_type_symbol
_atom_site_label
_atom_site_fract_x
_atom_site_fract_y
_atom_site_fract_z
Si Si1 0.488427 0.516517 0.120093
Si Si2 0.444701 0.860953 0.768121
Si Si3 0.758162 0.361872 0.585910
Si Si4 0.167128 0.356734 0.863985
Si Si5 0.560391 0.605784 0.490381
Si Si6 0.967324 0.853528 0.778666
O O1 0.776281 0.575281 0.952962
O O2 0.500000 0.500000 0.000000
O O3 0.479657 0.422647 0.187364
O O4 0.245037 0.582337 0.312966
O O5 0.441862 0.750000 0.790010
O O6 0.622596 0.878872 0.563211
O O7 0.134625 0.895426 0.929068
O O8 0.765059 0.250000 0.595276
O O9 0.460166 0.392352 0.723238
O O10 0.974728 0.382436 0.367593
O O11 0.158042 0.250000 0.903384
O O12 0.203502 0.359359 0.726543
O O13 0.500000 0.500000 0.500000
O O14 0.270013 0.653485 0.640132
O O15 0.840162 0.750000 0.856896
#
# Coordination Sequence:
#
# PCOD9165597 Si02
#       6
#     4   4   4   4   4   4
#     4  12  26  40  57  81 116 162 212 254 290 341
#     4  11  23  38  57  86 123 159 195 241 302 364
#     4   9  19  38  64  91 116 145 188 245 306 365
#     4   9  18  34  58  88 117 143 177 228 295 364
#     4  11  20  34  61  93 124 150 180 231 302 371
#     4  10  21  39  64  91 117 150 195 247 303 362
#
# _framework density 24.866658000000001
#
# number of rings (size 3 to 8) (size 9 to 14) (size 15 to 20)
#    0.000    1.667    0.000    7.000    0.000    5.333 
#    0.000    0.000    0.000    2.000    0.000    0.000 
#    0.000    0.000    0.000    0.000    0.000    0.000 
#
# Total GULP energy -134236.495789 kJ/mol
# GULP energy per Si atom -5593.187325 kJ/mol
# Density = 2.481006 g / cm^3
# Si number density = 24.866658 Si / 1000 Ang^3
#
#
#
# Elastic Constant Matrix: (Units=GPa)
#
#
# Indices 1 2 3 4 5 6 
#
# 1 80.3974 21.8875 36.8025 0.0000 34.9778 0.0000
# 2 21.8875 134.7984 30.9103 0.0000 22.8264 0.0000
# 3 36.8025 30.9103 128.6450 0.0000 50.9212 0.0000
# 4 0.0000 0.0000 0.0000 29.8051 0.0000 14.1150
# 5 34.9778 22.8264 50.9212 0.0000 53.2073 0.0000
# 6 0.0000 0.0000 0.0000 14.1150 0.0000 13.8561
#
#
#
# Elastic Compliance Matrix: (Units=1/GPa)
#
#
# Indices 1 2 3 4 5 6 
#
# 1 0.017567 -0.000922 -0.000627 0.000000 -0.010553 0.000000
# 2 -0.000922 0.008114 -0.000882 0.000000 -0.002031 0.000000
# 3 -0.000627 -0.000882 0.012640 0.000000 -0.011306 0.000000
# 4 0.000000 0.000000 0.000000 0.064824 0.000000 -0.066036
# 5 -0.010553 -0.002031 -0.011306 0.000000 0.037424 0.000000
# 6 0.000000 0.000000 0.000000 -0.066036 0.000000 0.139440
#
#
# Mechanical properties :
#
#
# Convention : Reuss Voigt Hill
#
# Bulk Modulus (GPa) = 29.88609 58.11573 44.00091
# Shear Modulus (GPa) = 16.89049 36.32306 26.60677
#
# Velocity S-wave (km/s) = 2.60906 3.82607 3.27460
# Velocity P-wave (km/s) = 4.59574 6.55287 5.65955
#
# Compressibility (1/GPa) = 0.03346038
#
# Stress axis : x y z
#
# Youngs Moduli (GPa) = 56.92366 123.23860 79.11402
#
# Poissons Ratio (x) = 0.11358 0.04960
# Poissons Ratio (y) = 0.05246 0.06978
# Poissons Ratio (z) = 0.03569 0.10870
#
# Static dielectric constant tensor:
#      x y z
#    x 2.063320 0.000000 0.014410 
#    y 0.000000 1.979600 0.000000 
#    z 0.014410 0.000000 1.955270 
# 
# From -- ./inp_files/39703.got.cif
#   From: 2010.05.17/outbox.cif.g08.bks.cpg/sg11_20_cif.got.tgz:39703.got - 2010.06.03 12:22:45.
