data_PCOD9165810
_publ_section_title
;
Structure prediction by ZEFSAII (Michael W. Deem and Ramdas Pophale) SiO2 
 PCOD9165810
Probable space group: P 21/M
;
_chemical_formula_sum "Si O2"
_cell_formula_units_Z 30
_cell_length_a 14.670973
_cell_length_b 9.303441
_cell_length_c 11.640486
_cell_angle_alpha 90.000000
_cell_angle_beta 103.935210
_cell_angle_gamma 90.000000
_cell_volume 1542.055153
_symmetry_space_group_name_H-M "P 21/M"
_symmetry_group_IT_number 11
_symmetry_cell_setting 'monoclinic'
loop_
_space_group_symop_operation_xyz
x,y,z
-x,1/2+y,-z
-x,-y,-z
x,1/2-y,z
loop_
_atom_site_type_symbol
_atom_site_label
_atom_site_fract_x
_atom_site_fract_y
_atom_site_fract_z
Si Si1 0.485842 0.580339 0.116532
Si Si2 0.807657 0.415773 0.083649
Si Si3 0.693067 0.915247 0.220915
Si Si4 0.137763 0.462890 0.555738
Si Si5 0.840072 0.585965 0.705352
Si Si6 0.992780 0.577584 0.121517
Si Si7 0.970343 0.250000 0.521018
Si Si8 0.703630 0.081498 0.813761
O O1 0.470752 0.750000 0.087846
O O2 0.583469 0.565302 0.215289
O O3 0.395726 0.533648 0.163088
O O4 0.500000 0.500000 0.000000
O O5 0.831707 0.250000 0.115514
O O6 0.720886 0.471674 0.131299
O O7 0.893607 0.520399 0.137958
O O8 0.778073 0.425973 0.941617
O O9 0.703137 0.750000 0.181662
O O10 0.767613 0.938516 0.344304
O O11 0.155031 0.413543 0.430022
O O12 0.103977 0.625321 0.540367
O O13 0.050206 0.372625 0.577094
O O14 0.853495 0.750000 0.751481
O O15 0.745015 0.517551 0.726571
O O16 0.923476 0.483732 0.775775
O O17 0.997021 0.750000 0.114273
O O18 0.000000 0.500000 0.000000
O O19 0.697638 0.250000 0.777363
#
# Coordination Sequence:
#
# PCOD9165810 Si02
#       8
#     4   4   4   4   4   4   2   4
#     4  10  21  40  66  94 125 165 211 268 325 377
#     4  11  23  37  59  89 126 162 207 258 313 376
#     4  11  23  40  65  94 129 163 210 270 323 378
#     4  11  25  43  64  97 128 167 219 258 321 369
#     4  12  25  41  64  90 129 170 212 258 315 386
#     4  12  25  39  57  86 123 163 208 253 309 376
#     4  10  24  44  66  86 126 172 212 264 304 376
#     4  10  22  41  61  89 126 167 208 258 317 376
#
# _framework density 19.454557000000001
#
# number of rings (size 3 to 8) (size 9 to 14) (size 15 to 20)
#    0.000    1.067    4.000    2.000    6.533    1.067 
#    0.000    0.667    0.000    0.000    0.000    0.000 
#    0.000    0.000    0.000    0.000    0.000    0.000 
#
# Total GULP energy -167127.135517 kJ/mol
# GULP energy per Si atom -5570.904517 kJ/mol
# Density = 1.941028 g / cm^3
# Si number density = 19.454557 Si / 1000 Ang^3
#
#
#
# Elastic Constant Matrix: (Units=GPa)
#
#
# Indices 1 2 3 4 5 6 
#
# 1 97.9124 39.7713 -0.3993 0.0000 11.5265 0.0000
# 2 39.7713 149.9093 13.5775 0.0000 2.9980 0.0000
# 3 -0.3993 13.5775 46.1730 0.0000 7.8962 0.0000
# 4 0.0000 0.0000 0.0000 9.4828 0.0000 10.0454
# 5 11.5265 2.9980 7.8962 0.0000 25.6199 0.0000
# 6 0.0000 0.0000 0.0000 10.0454 0.0000 19.3293
#
#
#
# Elastic Compliance Matrix: (Units=1/GPa)
#
#
# Indices 1 2 3 4 5 6 
#
# 1 0.012249 -0.003322 0.002068 0.000000 -0.005759 0.000000
# 2 -0.003322 0.007755 -0.002544 0.000000 0.001371 0.000000
# 3 0.002068 -0.002544 0.023785 0.000000 -0.007963 0.000000
# 4 0.000000 0.000000 0.000000 0.234620 0.000000 -0.121931
# 5 -0.005759 0.001371 -0.007963 0.000000 0.043917 0.000000
# 6 0.000000 0.000000 0.000000 -0.121931 0.000000 0.115102
#
#
# Mechanical properties :
#
#
# Convention : Reuss Voigt Hill
#
# Bulk Modulus (GPa) = 27.62902 44.43263 36.03082
# Shear Modulus (GPa) = 10.93880 26.95609 18.94745
#
# Velocity S-wave (km/s) = 2.37381 3.72639 3.12418
# Velocity P-wave (km/s) = 4.66325 6.43455 5.61914
#
# Compressibility (1/GPa) = 0.03619383
#
# Stress axis : x y z
#
# Youngs Moduli (GPa) = 81.63977 128.95032 42.04273
#
# Poissons Ratio (x) = 0.42834 -0.08693
# Poissons Ratio (y) = 0.27119 0.10694
# Poissons Ratio (z) = -0.16880 0.32799
#
# Static dielectric constant tensor:
#      x y z
#    x 1.710140 0.000000 -0.020410 
#    y 0.000000 1.648160 0.000000 
#    z -0.020410 0.000000 1.689180 
# 
# From -- ./inp_files/38310.got.cif
#   From: 2010.05.17/outbox.cif.g08.bks.cpg/sg11_20_cif.got.tgz:38310.got - 2010.06.03 12:22:45.
