data_PCOD9165529
_publ_section_title
;
Structure prediction by ZEFSAII (Michael W. Deem and Ramdas Pophale) SiO2 
 PCOD9165529
Probable space group: P 21/M
;
_chemical_formula_sum "Si O2"
_cell_formula_units_Z 28
_cell_length_a 25.326400
_cell_length_b 8.806528
_cell_length_c 9.705269
_cell_angle_alpha 90.000000
_cell_angle_beta 139.459144
_cell_angle_gamma 90.000000
_cell_volume 1406.994844
_symmetry_space_group_name_H-M "P 21/M"
_symmetry_group_IT_number 11
_symmetry_cell_setting 'monoclinic'
loop_
_space_group_symop_operation_xyz
x,y,z
-x,1/2+y,-z
-x,-y,-z
x,1/2-y,z
loop_
_atom_site_type_symbol
_atom_site_label
_atom_site_fract_x
_atom_site_fract_y
_atom_site_fract_z
Si Si1 0.819454 0.569187 0.345730
Si Si2 0.916242 0.932049 0.278215
Si Si3 0.078755 0.928378 0.225697
Si Si4 0.356666 0.430611 0.570564
Si Si5 0.171866 0.069286 0.173291
Si Si6 0.656204 0.068352 0.150033
Si Si7 0.501125 0.066646 0.655772
O O1 0.812273 0.750000 0.344947
O O2 0.842148 0.529491 0.234333
O O3 0.896364 0.510873 0.585420
O O4 0.739087 0.494695 0.248317
O O5 0.924941 0.750000 0.297030
O O6 0.887962 0.974809 0.069212
O O7 0.000000 0.000000 0.500000
O O8 0.068924 0.750000 0.227531
O O9 0.150647 0.968163 0.262332
O O10 0.000000 0.000000 0.000000
O O11 0.368541 0.250000 0.615026
O O12 0.266630 0.451001 0.329178
O O13 0.358685 0.505713 0.725494
O O14 0.425052 0.484098 0.599429
O O15 0.159632 0.250000 0.180146
O O16 0.661020 0.250000 0.167005
O O17 0.582196 0.026078 0.901691
O O18 0.497640 0.250000 0.638138
O O19 0.500000 0.000000 0.500000
#
# Coordination Sequence:
#
# PCOD9165529 Si02
#       7
#     4   4   4   4   4   4   4
#     4  11  23  40  63  91 122 163 209 250 307 372
#     4  10  23  40  60  87 119 159 204 254 306 366
#     4  12  24  39  61  90 124 161 204 256 306 360
#     4  10  21  40  66  91 122 164 207 252 306 368
#     4  10  21  39  62  89 120 157 207 257 305 363
#     4  11  23  40  62  94 129 160 204 256 307 364
#     4  10  24  42  64  96 129 164 205 252 306 367
#
# _framework density 19.900569000000001
#
# number of rings (size 3 to 8) (size 9 to 14) (size 15 to 20)
#    0.000    1.429    1.429    3.429    2.000    5.714 
#    0.000    0.000    0.000    0.000    0.000    0.000 
#    0.000    0.000    0.000    0.000    0.000    0.000 
#
# Total GULP energy -156492.678162 kJ/mol
# GULP energy per Si atom -5589.024220 kJ/mol
# Density = 1.985527 g / cm^3
# Si number density = 19.900569 Si / 1000 Ang^3
#
#
#
# Elastic Constant Matrix: (Units=GPa)
#
#
# Indices 1 2 3 4 5 6 
#
# 1 101.2361 28.1149 30.6812 0.0000 -0.2125 0.0000
# 2 28.1149 25.8917 21.1192 0.0000 1.2612 0.0000
# 3 30.6812 21.1192 97.6726 0.0000 -2.5354 0.0000
# 4 0.0000 0.0000 0.0000 29.6811 0.0000 -0.9016
# 5 -0.2125 1.2612 -2.5354 0.0000 36.7354 0.0000
# 6 0.0000 0.0000 0.0000 -0.9016 0.0000 27.2365
#
#
#
# Elastic Compliance Matrix: (Units=1/GPa)
#
#
# Indices 1 2 3 4 5 6 
#
# 1 0.014302 -0.014448 -0.001356 0.000000 0.000485 0.000000
# 2 -0.014448 0.061685 -0.008872 0.000000 -0.002814 0.000000
# 3 -0.001356 -0.008872 0.012613 0.000000 0.001167 0.000000
# 4 0.000000 0.000000 0.000000 0.033725 0.000000 0.001116
# 5 0.000485 -0.002814 0.001167 0.000000 0.027402 0.000000
# 6 0.000000 0.000000 0.000000 0.001116 0.000000 0.036752
#
#
# Mechanical properties :
#
#
# Convention : Reuss Voigt Hill
#
# Bulk Modulus (GPa) = 25.47937 42.73678 34.10807
# Shear Modulus (GPa) = 20.08720 28.38961 24.23841
#
# Velocity S-wave (km/s) = 3.18052 3.78110 3.49374
# Velocity P-wave (km/s) = 5.13018 6.37056 5.78372
#
# Compressibility (1/GPa) = 0.03924744
#
# Stress axis : x y z
#
# Youngs Moduli (GPa) = 69.91880 16.21144 79.28326
#
# Poissons Ratio (x) = 0.23422 0.10752
# Poissons Ratio (y) = 1.01018 0.70343
# Poissons Ratio (z) = 0.09482 0.14383
#
# Static dielectric constant tensor:
#      x y z
#    x 1.722950 0.000000 0.026460 
#    y 0.000000 1.671090 0.000000 
#    z 0.026460 0.000000 1.624230 
# 
# From -- ./inp_files/28429.got.cif
#   From: 2010.05.17/outbox.cif.g08.bks.cpg/sg11_15_cif.got.tgz:28429.got - 2010.06.03 12:22:45.
