data_PCOD9165131
_publ_section_title
;
Structure prediction by ZEFSAII (Michael W. Deem and Ramdas Pophale) SiO2 
 PCOD9165131
Probable space group: P 21/M
;
_chemical_formula_sum "Si O2"
_cell_formula_units_Z 20
_cell_length_a 27.518315
_cell_length_b 8.630467
_cell_length_c 9.649931
_cell_angle_alpha 90.000000
_cell_angle_beta 28.429542
_cell_angle_gamma 90.000000
_cell_volume 1091.083978
_symmetry_space_group_name_H-M "P 21/M"
_symmetry_group_IT_number 11
_symmetry_cell_setting 'monoclinic'
loop_
_space_group_symop_operation_xyz
x,y,z
-x,1/2+y,-z
-x,-y,-z
x,1/2-y,z
loop_
_atom_site_type_symbol
_atom_site_label
_atom_site_fract_x
_atom_site_fract_y
_atom_site_fract_z
Si Si1 0.405955 0.436074 0.322656
Si Si2 0.590998 0.564810 0.362747
Si Si3 0.815957 0.064644 0.116807
Si Si4 0.821452 0.562828 0.791443
Si Si5 0.996714 0.564556 0.852408
O O1 0.398677 0.250000 0.328986
O O2 0.423325 0.476418 0.440355
O O3 0.297383 0.510297 0.555848
O O4 0.500000 0.500000 0.000000
O O5 0.500000 0.500000 0.500000
O O6 0.588886 0.750000 0.357803
O O7 0.706399 0.515829 0.035514
O O8 0.821389 0.250000 0.096797
O O9 0.836120 0.995733 0.912426
O O10 0.898742 0.999987 0.015963
O O11 0.828012 0.750000 0.775197
O O12 0.905106 0.492809 0.480099
O O13 0.993693 0.750000 0.862638
O O14 0.000000 0.500000 0.000000
#
# Coordination Sequence:
#
# PCOD9165131 Si02
#       5
#     4   4   4   4   4
#     4  10  21  38  58  85 117 152 193 239 288 344
#     4   9  20  36  57  83 114 148 187 231 279 333
#     4  11  22  39  62  87 114 152 196 239 287 346
#     4  10  21  40  61  85 116 153 194 238 286 344
#     4  12  25  41  60  86 117 151 190 239 293 347
#
# _framework density 18.330393999999998
#
# number of rings (size 3 to 8) (size 9 to 14) (size 15 to 20)
#    0.000    1.600    0.000    6.600    0.000    6.400 
#    0.000    4.000    0.000    0.000    0.000    0.000 
#    0.000    0.000    0.000    0.000    0.000    0.000 
#
# Total GULP energy -111773.313099 kJ/mol
# GULP energy per Si atom -5588.665655 kJ/mol
# Density = 1.828867 g / cm^3
# Si number density = 18.330394 Si / 1000 Ang^3
#
#
#
# Elastic Constant Matrix: (Units=GPa)
#
#
# Indices 1 2 3 4 5 6 
#
# 1 152.0799 58.6400 110.4710 0.0000 -33.3632 0.0000
# 2 58.6400 120.0962 71.0998 0.0000 -7.3727 0.0000
# 3 110.4710 71.0998 195.3062 0.0000 -8.1941 0.0000
# 4 0.0000 0.0000 0.0000 37.7678 0.0000 -1.3045
# 5 -33.3632 -7.3727 -8.1941 0.0000 26.0022 0.0000
# 6 0.0000 0.0000 0.0000 -1.3045 0.0000 37.5525
#
#
#
# Elastic Compliance Matrix: (Units=1/GPa)
#
#
# Indices 1 2 3 4 5 6 
#
# 1 0.018026 -0.002605 -0.008419 0.000000 0.019737 0.000000
# 2 -0.002605 0.011076 -0.002601 0.000000 -0.001022 0.000000
# 3 -0.008419 -0.002601 0.010484 0.000000 -0.008237 0.000000
# 4 0.000000 0.000000 0.000000 0.026509 0.000000 0.000921
# 5 0.019737 -0.001022 -0.008237 0.000000 0.060897 0.000000
# 6 0.000000 0.000000 0.000000 0.000921 0.000000 0.026661
#
#
# Mechanical properties :
#
#
# Convention : Reuss Voigt Hill
#
# Bulk Modulus (GPa) = 81.08048 105.32266 93.20157
# Shear Modulus (GPa) = 27.02457 35.41593 31.22025
#
# Velocity S-wave (km/s) = 3.84383 4.40032 4.13146
# Velocity P-wave (km/s) = 8.00181 9.13235 8.58570
#
# Compressibility (1/GPa) = 0.01233342
#
# Stress axis : x y z
#
# Youngs Moduli (GPa) = 55.47606 90.28414 95.38482
#
# Poissons Ratio (x) = 0.23523 0.80308
# Poissons Ratio (y) = 0.14454 0.24813
# Poissons Ratio (z) = 0.46707 0.23486
#
# Static dielectric constant tensor:
#      x y z
#    x 1.607880 0.000000 -0.009950 
#    y 0.000000 1.615400 0.000000 
#    z -0.009950 0.000000 1.617470 
# 
# From -- ./inp_files/15942.got.cif
#   From: 2010.05.17/outbox.cif.g08.bks.cpg/sg11_8_cif.got.tgz:15942.got - 2010.06.03 12:22:45.
