data_PCOD9165219
_publ_section_title
;
Structure prediction by ZEFSAII (Michael W. Deem and Ramdas Pophale) SiO2 
 PCOD9165219
Probable space group: P 21/M
;
_chemical_formula_sum "Si O2"
_cell_formula_units_Z 28
_cell_length_a 12.721987
_cell_length_b 15.061505
_cell_length_c 10.283306
_cell_angle_alpha 90.000000
_cell_angle_beta 34.736765
_cell_angle_gamma 90.000000
_cell_volume 1122.751956
_symmetry_space_group_name_H-M "P 21/M"
_symmetry_group_IT_number 11
_symmetry_cell_setting 'monoclinic'
loop_
_space_group_symop_operation_xyz
x,y,z
-x,1/2+y,-z
-x,-y,-z
x,1/2-y,z
loop_
_atom_site_type_symbol
_atom_site_label
_atom_site_fract_x
_atom_site_fract_y
_atom_site_fract_z
Si Si1 0.473949 0.915061 0.431641
Si Si2 0.260538 0.000090 0.017268
Si Si3 0.768652 0.646584 0.622844
Si Si4 0.269490 0.342039 0.619342
Si Si5 0.639705 0.147355 0.877408
Si Si6 0.106153 0.909112 0.926840
Si Si7 0.008851 0.854825 0.616527
O O1 0.560043 0.943887 0.208592
O O2 0.617174 0.855559 0.364618
O O3 0.262767 0.886287 0.662511
O O4 0.500000 0.000000 0.500000
O O5 0.212062 0.930388 0.952476
O O6 0.095582 0.072287 0.191545
O O7 0.303235 0.937103 0.094169
O O8 0.818886 0.750000 0.551451
O O9 0.736131 0.603921 0.512585
O O10 0.931971 0.616561 0.550673
O O11 0.581695 0.642087 0.897109
O O12 0.353176 0.250000 0.486500
O O13 0.058093 0.342525 0.878319
O O14 0.678307 0.250000 0.887446
O O15 0.770522 0.140661 0.618553
O O16 0.000000 0.000000 0.000000
O O17 0.958956 0.750000 0.691762
#
# Coordination Sequence:
#
# PCOD9165219 Si02
#       7
#     4   4   4   4   4   4   4
#     4  10  21  40  60  87 124 161 196 256 310 364
#     4  11  22  39  64  89 122 162 204 254 319 365
#     4   9  19  36  59  87 118 155 200 251 303 359
#     4  11  22  38  64  92 121 161 209 258 310 371
#     4  10  21  38  60  88 121 155 203 256 305 365
#     4  11  22  40  60  86 125 163 205 252 307 364
#     4  10  22  41  59  87 125 159 198 252 307 370
#
# _framework density 24.938721999999999
#
# number of rings (size 3 to 8) (size 9 to 14) (size 15 to 20)
#    0.000    1.714    2.857    3.000    0.000    3.429 
#    2.571    0.000    0.000    0.000    0.000    0.000 
#    0.000    0.000    0.000    0.000    0.000    0.000 
#
# Total GULP energy -156022.414723 kJ/mol
# GULP energy per Si atom -5572.229097 kJ/mol
# Density = 2.488196 g / cm^3
# Si number density = 24.938722 Si / 1000 Ang^3
#
#
#
# Elastic Constant Matrix: (Units=GPa)
#
#
# Indices 1 2 3 4 5 6 
#
# 1 38.6200 19.5370 20.3327 0.0000 -4.4825 0.0000
# 2 19.5370 63.2601 25.1509 0.0000 9.5527 0.0000
# 3 20.3327 25.1509 173.9222 0.0000 -14.9442 0.0000
# 4 0.0000 0.0000 0.0000 11.1014 0.0000 16.1927
# 5 -4.4825 9.5527 -14.9442 0.0000 36.7591 0.0000
# 6 0.0000 0.0000 0.0000 16.1927 0.0000 -16.9265
#
#
#
# Elastic Compliance Matrix: (Units=1/GPa)
#
#
# Indices 1 2 3 4 5 6 
#
# 1 0.032745 -0.010278 -0.001833 0.000000 0.005918 0.000000
# 2 -0.010278 0.021161 -0.002527 0.000000 -0.007780 0.000000
# 3 -0.001833 -0.002527 0.006597 0.000000 0.003115 0.000000
# 4 0.000000 0.000000 0.000000 0.037605 0.000000 0.035975
# 5 0.005918 -0.007780 0.003115 0.000000 0.031214 0.000000
# 6 0.000000 0.000000 0.000000 0.035975 0.000000 -0.024664
#
#
# Mechanical properties :
#
#
# Convention : Reuss Voigt Hill
#
# Bulk Modulus (GPa) = 32.02338 45.09372 38.55855
# Shear Modulus (GPa) = 34.63957 20.23893 27.43925
#
# Velocity S-wave (km/s) = 3.73096 2.85186 3.32063
# Velocity P-wave (km/s) = 5.60613 5.38193 5.49518
#
# Compressibility (1/GPa) = 0.03122719
#
# Stress axis : x y z
#
# Youngs Moduli (GPa) = 30.53940 47.25594 151.58084
#
# Poissons Ratio (x) = 0.48568 0.27789
# Poissons Ratio (y) = 0.31387 0.38306
# Poissons Ratio (z) = 0.05599 0.11942
#
# Static dielectric constant tensor:
#      x y z
#    x 1.881440 0.000000 0.092620 
#    y 0.000000 2.027150 0.000000 
#    z 0.092620 0.000000 1.991040 
# 
# From -- ./inp_files/39825.got.cif
#   From: 2010.05.17/outbox.cif.g08.bks.cpg/sg11_20_cif.got.tgz:39825.got - 2010.06.03 12:22:45.
