data_PCOD9165785
_publ_section_title
;
Structure prediction by ZEFSAII (Michael W. Deem and Ramdas Pophale) SiO2 
 PCOD9165785
Probable space group: P 21/M
;
_chemical_formula_sum "Si O2"
_cell_formula_units_Z 28
_cell_length_a 15.018492
_cell_length_b 8.404618
_cell_length_c 11.272042
_cell_angle_alpha 90.000000
_cell_angle_beta 66.800621
_cell_angle_gamma 90.000000
_cell_volume 1307.761015
_symmetry_space_group_name_H-M "P 21/M"
_symmetry_group_IT_number 11
_symmetry_cell_setting 'monoclinic'
loop_
_space_group_symop_operation_xyz
x,y,z
-x,1/2+y,-z
-x,-y,-z
x,1/2-y,z
loop_
_atom_site_type_symbol
_atom_site_label
_atom_site_fract_x
_atom_site_fract_y
_atom_site_fract_z
Si Si1 0.440536 0.063900 0.682467
Si Si2 0.418849 0.940720 0.951670
Si Si3 0.654452 0.056723 0.590002
Si Si4 0.756120 0.064146 0.312345
Si Si5 0.747791 0.440640 0.783758
Si Si6 0.035678 0.063450 0.352602
Si Si7 0.952656 0.934440 0.145841
O O1 0.431743 0.250000 0.653100
O O2 0.549304 0.000811 0.600294
O O3 0.432045 0.043779 0.827952
O O4 0.351126 0.963080 0.681369
O O5 0.428944 0.750000 0.924402
O O6 0.313714 0.967690 0.065551
O O7 0.500000 0.000000 0.000000
O O8 0.647697 0.250000 0.592335
O O9 0.741778 0.013012 0.456623
O O10 0.680941 0.006568 0.708192
O O11 0.781803 0.250000 0.293154
O O12 0.837643 0.966579 0.202866
O O13 0.762475 0.250000 0.764403
O O14 0.851042 0.522416 0.721682
O O15 0.019161 0.250000 0.364667
O O16 0.000000 0.000000 0.500000
O O17 0.986172 0.002981 0.256217
O O18 0.975370 0.750000 0.137346
O O19 0.000000 0.000000 0.000000
#
# Coordination Sequence:
#
# PCOD9165785 Si02
#       7
#     4   4   4   4   4   4   4
#     4  11  22  39  61  90 130 173 218 264 314 382
#     4  11  22  38  61  90 127 169 214 265 323 386
#     4   9  19  38  63  92 129 171 211 259 317 377
#     4  11  23  41  66  95 128 169 215 267 327 391
#     4  10  21  40  65  93 128 171 216 268 327 388
#     4  12  26  46  72 104 137 176 225 282 341 406
#     4  12  27  49  73 100 133 176 227 285 345 408
#
# _framework density 21.410640000000001
#
# number of rings (size 3 to 8) (size 9 to 14) (size 15 to 20)
#    0.000    1.143    1.429    5.143    2.000    2.286 
#    0.000    2.857    0.000    0.000    0.000    0.000 
#    0.000    0.000    0.000    0.000    0.000    0.000 
#
# Total GULP energy -156480.742466 kJ/mol
# GULP energy per Si atom -5588.597945 kJ/mol
# Density = 2.136191 g / cm^3
# Si number density = 21.410640 Si / 1000 Ang^3
#
#
#
# Elastic Constant Matrix: (Units=GPa)
#
#
# Indices 1 2 3 4 5 6 
#
# 1 76.7527 12.0513 33.1295 0.0000 -7.4051 0.0000
# 2 12.0513 90.5669 38.8900 0.0000 -4.3855 0.0000
# 3 33.1295 38.8900 125.7611 0.0000 -11.5967 0.0000
# 4 0.0000 0.0000 0.0000 28.1716 0.0000 4.0904
# 5 -7.4051 -4.3855 -11.5967 0.0000 33.6985 0.0000
# 6 0.0000 0.0000 0.0000 4.0904 0.0000 34.6625
#
#
#
# Elastic Compliance Matrix: (Units=1/GPa)
#
#
# Indices 1 2 3 4 5 6 
#
# 1 0.014835 -0.000321 -0.003627 0.000000 0.001970 0.000000
# 2 -0.000321 0.012742 -0.003831 0.000000 0.000269 0.000000
# 3 -0.003627 -0.003831 0.010299 0.000000 0.002249 0.000000
# 4 0.000000 0.000000 0.000000 0.036116 0.000000 -0.004262
# 5 0.001970 0.000269 0.002249 0.000000 0.030917 0.000000
# 6 0.000000 0.000000 0.000000 -0.004262 0.000000 0.029353
#
#
# Mechanical properties :
#
#
# Convention : Reuss Voigt Hill
#
# Bulk Modulus (GPa) = 44.80672 51.24692 48.02682
# Shear Modulus (GPa) = 31.79472 33.24052 32.51762
#
# Velocity S-wave (km/s) = 3.85775 3.94448 3.90135
# Velocity P-wave (km/s) = 6.38871 6.68823 6.54019
#
# Compressibility (1/GPa) = 0.02231808
#
# Stress axis : x y z
#
# Youngs Moduli (GPa) = 67.40860 78.47831 97.09599
#
# Poissons Ratio (x) = 0.02520 0.35217
# Poissons Ratio (y) = 0.02165 0.37197
# Poissons Ratio (z) = 0.24449 0.30065
#
# Static dielectric constant tensor:
#      x y z
#    x 1.801480 0.000000 0.058000 
#    y 0.000000 1.744680 0.000000 
#    z 0.058000 0.000000 1.865200 
# 
# From -- ./inp_files/37904.got.cif
#   From: 2010.05.17/outbox.cif.g08.bks.cpg/sg11_19_cif.got.tgz:37904.got - 2010.06.03 12:22:45.
