data_PCOD9165162
_publ_section_title
;
Structure prediction by ZEFSAII (Michael W. Deem and Ramdas Pophale) SiO2 
 PCOD9165162
Probable space group: P 21/M
;
_chemical_formula_sum "Si O2"
_cell_formula_units_Z 32
_cell_length_a 12.559387
_cell_length_b 8.390445
_cell_length_c 22.452531
_cell_angle_alpha 90.000000
_cell_angle_beta 136.665539
_cell_angle_gamma 90.000000
_cell_volume 1623.696549
_symmetry_space_group_name_H-M "P 21/M"
_symmetry_group_IT_number 11
_symmetry_cell_setting 'monoclinic'
loop_
_space_group_symop_operation_xyz
x,y,z
-x,1/2+y,-z
-x,-y,-z
x,1/2-y,z
loop_
_atom_site_type_symbol
_atom_site_label
_atom_site_fract_x
_atom_site_fract_y
_atom_site_fract_z
Si Si1 0.670231 0.059355 0.588267
Si Si2 0.667877 0.059114 0.138773
Si Si3 0.687826 0.942400 0.016052
Si Si4 0.608930 0.555604 0.344704
Si Si5 0.723669 0.055278 0.745271
Si Si6 0.841895 0.559548 0.543961
Si Si7 0.021491 0.057233 0.941715
Si Si8 0.184360 0.059521 0.680747
O O1 0.665886 0.250000 0.587911
O O2 0.712834 0.003015 0.672107
O O3 0.500000 0.000000 0.500000
O O4 0.791380 0.004934 0.587664
O O5 0.671856 0.250000 0.142138
O O6 0.725261 0.001317 0.097738
O O7 0.764875 0.992226 0.232929
O O8 0.487525 0.005211 0.070312
O O9 0.687884 0.750000 0.017009
O O10 0.816747 0.997046 0.021754
O O11 0.607719 0.750000 0.343977
O O12 0.432927 0.503710 0.284513
O O13 0.717146 0.505062 0.443945
O O14 0.689387 0.502627 0.316343
O O15 0.724406 0.250000 0.745143
O O16 0.877884 0.003291 0.842143
O O17 0.835983 0.750000 0.543495
O O18 0.014189 0.506177 0.597482
O O19 0.021734 0.250000 0.941692
O O20 0.000000 0.000000 0.000000
O O21 0.177914 0.250000 0.675184
#
# Coordination Sequence:
#
# PCOD9165162 Si02
#       8
#     4   4   4   4   4   4   4   4
#     4  11  21  37  62  90 121 160 203 247 299 358
#     4  10  21  38  59  85 116 152 194 245 301 348
#     4   9  20  39  60  84 118 154 193 239 295 356
#     4   9  19  37  59  83 115 155 197 242 290 353
#     4   9  19  37  60  86 117 157 197 236 294 357
#     4  11  22  39  60  85 122 156 197 251 298 346
#     4  10  22  39  62  89 120 156 194 243 296 355
#     4  11  23  37  59  87 115 152 202 244 295 361
#
# _framework density 19.708117000000001
#
# number of rings (size 3 to 8) (size 9 to 14) (size 15 to 20)
#    0.000    2.000    1.250    1.875    3.500    1.000 
#    0.000    3.125    0.000    0.000    0.000    0.000 
#    0.000    0.000    0.000    0.000    0.000    0.000 
#
# Total GULP energy -178774.279012 kJ/mol
# GULP energy per Si atom -5586.696219 kJ/mol
# Density = 1.966326 g / cm^3
# Si number density = 19.708117 Si / 1000 Ang^3
#
#
#
# Elastic Constant Matrix: (Units=GPa)
#
#
# Indices 1 2 3 4 5 6 
#
# 1 113.5105 8.9425 15.5662 0.0000 -7.0520 0.0000
# 2 8.9425 17.6725 5.2301 0.0000 -1.6808 0.0000
# 3 15.5662 5.2301 71.7389 0.0000 -6.7397 0.0000
# 4 0.0000 0.0000 0.0000 21.8530 0.0000 -0.3557
# 5 -7.0520 -1.6808 -6.7397 0.0000 20.5106 0.0000
# 6 0.0000 0.0000 0.0000 -0.3557 0.0000 25.2286
#
#
#
# Elastic Compliance Matrix: (Units=1/GPa)
#
#
# Indices 1 2 3 4 5 6 
#
# 1 0.009495 -0.004121 -0.001532 0.000000 0.002423 0.000000
# 2 -0.004121 0.059860 -0.003242 0.000000 0.002423 0.000000
# 3 -0.001532 -0.003242 0.014894 0.000000 0.004101 0.000000
# 4 0.000000 0.000000 0.000000 0.045771 0.000000 0.000645
# 5 0.002423 0.002423 0.004101 0.000000 0.051135 0.000000
# 6 0.000000 0.000000 0.000000 0.000645 0.000000 0.039647
#
#
# Mechanical properties :
#
#
# Convention : Reuss Voigt Hill
#
# Bulk Modulus (GPa) = 15.04700 29.15551 22.10125
# Shear Modulus (GPa) = 19.17588 25.06397 22.11992
#
# Velocity S-wave (km/s) = 3.12267 3.57004 3.35382
# Velocity P-wave (km/s) = 4.54455 5.64087 5.12212
#
# Compressibility (1/GPa) = 0.06645845
#
# Stress axis : x y z
#
# Youngs Moduli (GPa) = 105.31783 16.70560 67.14294
#
# Poissons Ratio (x) = 0.06884 0.10288
# Poissons Ratio (y) = 0.43398 0.21770
# Poissons Ratio (z) = 0.16137 0.05416
#
# Static dielectric constant tensor:
#      x y z
#    x 1.681940 0.000000 0.009640 
#    y 0.000000 1.679440 0.000000 
#    z 0.009640 0.000000 1.663500 
# 
# From -- ./inp_files/64447.got.cif
#   From: 2010.05.17/outbox.cif.g08.bks.cpg/sg11_33_cif.got.tgz:64447.got - 2010.06.03 12:22:45.
