data_PCOD9165668
_publ_section_title
;
Structure prediction by ZEFSAII (Michael W. Deem and Ramdas Pophale) SiO2 
 PCOD9165668
Probable space group: P 21/M
;
_chemical_formula_sum "Si O2"
_cell_formula_units_Z 28
_cell_length_a 9.006933
_cell_length_b 26.957697
_cell_length_c 5.354091
_cell_angle_alpha 90.000000
_cell_angle_beta 69.072014
_cell_angle_gamma 90.000000
_cell_volume 1214.245065
_symmetry_space_group_name_H-M "P 21/M"
_symmetry_group_IT_number 11
_symmetry_cell_setting 'monoclinic'
loop_
_space_group_symop_operation_xyz
x,y,z
-x,1/2+y,-z
-x,-y,-z
x,1/2-y,z
loop_
_atom_site_type_symbol
_atom_site_label
_atom_site_fract_x
_atom_site_fract_y
_atom_site_fract_z
Si Si1 0.250150 0.622304 0.466733
Si Si2 0.478897 0.306284 0.544592
Si Si3 0.717284 0.808384 0.844610
Si Si4 0.111985 0.907271 0.056450
Si Si5 0.694546 0.993746 0.919846
Si Si6 0.205371 0.091780 0.452751
Si Si7 0.535732 0.555988 0.400817
O O1 0.358611 0.665281 0.509416
O O2 0.191241 0.628462 0.220421
O O3 0.375593 0.576865 0.384101
O O4 0.128199 0.608129 0.759201
O O5 0.511821 0.250000 0.591285
O O6 0.411526 0.306448 0.303797
O O7 0.353266 0.321386 0.839146
O O8 0.780689 0.750000 0.817490
O O9 0.815301 0.857393 0.695243
O O10 0.933529 0.908583 0.261211
O O11 0.211600 0.958842 0.032875
O O12 0.794683 0.965143 0.650804
O O13 0.680580 0.949292 0.126676
O O14 0.500000 0.000000 0.000000
O O15 0.391698 0.091163 0.431002
O O16 0.500000 0.500000 0.500000
#
# Coordination Sequence:
#
# PCOD9165668 Si02
#       7
#     4   4   4   4   4   4   4
#     4  12  23  44  63  94 130 169 216 269 320 388
#     4  10  21  39  70 100 122 161 221 280 320 376
#     4  10  22  41  68 100 125 161 218 275 325 380
#     4  12  28  41  63  96 140 175 214 261 332 396
#     4  12  23  41  64  94 129 175 223 275 315 386
#     4  12  26  42  63  96 132 179 213 273 329 394
#     4  12  22  38  66  89 123 167 222 264 316 373
#
# _framework density 23.059597
#
# number of rings (size 3 to 8) (size 9 to 14) (size 15 to 20)
#    0.000    0.571    5.714    2.143    2.000    0.571 
#    0.000    1.429    0.000    0.000    0.000    0.000 
#    0.000    0.000    0.000    0.000    0.000    0.000 
#
# Total GULP energy -155905.142209 kJ/mol
# GULP energy per Si atom -5568.040793 kJ/mol
# Density = 2.300711 g / cm^3
# Si number density = 23.059597 Si / 1000 Ang^3
#
#
#
# Elastic Constant Matrix: (Units=GPa)
#
#
# Indices 1 2 3 4 5 6 
#
# 1 70.4283 12.8262 -1.1787 0.0000 -0.3978 0.0000
# 2 12.8262 76.9703 -1.2323 0.0000 -16.4927 0.0000
# 3 -1.1787 -1.2323 76.8192 0.0000 -9.3457 0.0000
# 4 0.0000 0.0000 0.0000 28.0377 0.0000 2.9850
# 5 -0.3978 -16.4927 -9.3457 0.0000 38.0960 0.0000
# 6 0.0000 0.0000 0.0000 2.9850 0.0000 16.4445
#
#
#
# Elastic Compliance Matrix: (Units=1/GPa)
#
#
# Indices 1 2 3 4 5 6 
#
# 1 0.014678 -0.002655 0.000063 0.000000 -0.000981 0.000000
# 2 -0.002655 0.014878 0.001008 0.000000 0.006661 0.000000
# 3 0.000063 0.001008 0.013491 0.000000 0.003747 0.000000
# 4 0.000000 0.000000 0.000000 0.036369 0.000000 -0.006602
# 5 -0.000981 0.006661 0.003747 0.000000 0.030042 0.000000
# 6 0.000000 0.000000 0.000000 -0.006602 0.000000 0.062009
#
#
# Mechanical properties :
#
#
# Convention : Reuss Voigt Hill
#
# Bulk Modulus (GPa) = 25.07565 27.22757 26.15161
# Shear Modulus (GPa) = 26.60622 30.76914 28.68768
#
# Velocity S-wave (km/s) = 3.40045 3.65681 3.53096
# Velocity P-wave (km/s) = 5.12985 5.44636 5.29047
#
# Compressibility (1/GPa) = 0.03987932
#
# Stress axis : x y z
#
# Youngs Moduli (GPa) = 68.12970 67.21433 74.12600
#
# Poissons Ratio (x) = 0.17845 -0.00469
# Poissons Ratio (y) = 0.18088 -0.07474
# Poissons Ratio (z) = -0.00431 -0.06777
#
# Static dielectric constant tensor:
#      x y z
#    x 2.132400 0.000000 0.505380 
#    y 0.000000 1.980570 0.000000 
#    z 0.505380 0.000000 2.788310 
# 
# From -- ./inp_files/3351.got.cif
#   From: 2010.05.17/outbox.cif.g08.bks.cpg/sg11_2_cif.got.tgz:3351.got - 2010.06.03 12:22:45.
