data_PCOD9165208
_publ_section_title
;
Structure prediction by ZEFSAII (Michael W. Deem and Ramdas Pophale) SiO2 
 PCOD9165208
Probable space group: P 21/M
;
_chemical_formula_sum "Si O2"
_cell_formula_units_Z 28
_cell_length_a 21.365380
_cell_length_b 8.817829
_cell_length_c 15.708567
_cell_angle_alpha 90.000000
_cell_angle_beta 151.270610
_cell_angle_gamma 90.000000
_cell_volume 1422.521777
_symmetry_space_group_name_H-M "P 21/M"
_symmetry_group_IT_number 11
_symmetry_cell_setting 'monoclinic'
loop_
_space_group_symop_operation_xyz
x,y,z
-x,1/2+y,-z
-x,-y,-z
x,1/2-y,z
loop_
_atom_site_type_symbol
_atom_site_label
_atom_site_fract_x
_atom_site_fract_y
_atom_site_fract_z
Si Si1 0.580445 0.928123 0.290267
Si Si2 0.148788 0.931353 0.432491
Si Si3 0.601732 0.568587 0.053412
Si Si4 0.098453 0.067820 0.548124
Si Si5 0.301673 0.926831 0.221499
Si Si6 0.536786 0.424433 0.410693
Si Si7 0.972951 0.568209 0.060926
O O1 0.578611 0.750000 0.271947
O O2 0.706479 0.000845 0.396613
O O3 0.451028 0.004937 0.098625
O O4 0.588582 0.967388 0.399100
O O5 0.153720 0.750000 0.446949
O O6 0.081451 0.967654 0.261718
O O7 0.075431 0.001729 0.426134
O O8 0.592030 0.750000 0.044454
O O9 0.500000 0.500000 0.000000
O O10 0.751614 0.527149 0.249452
O O11 0.088134 0.250000 0.534455
O O12 0.000000 0.000000 0.500000
O O13 0.294327 0.750000 0.187666
O O14 0.372194 0.932880 0.397712
O O15 0.394495 0.020100 0.269355
O O16 0.161408 0.000234 0.064565
O O17 0.536073 0.250000 0.380112
O O18 0.965112 0.750000 0.044159
O O19 0.000000 0.500000 0.000000
#
# Coordination Sequence:
#
# PCOD9165208 Si02
#       7
#     4   4   4   4   4   4   4
#     4  12  24  38  62  94 124 160 208 256 312 372
#     4  11  24  42  64  90 125 166 210 262 317 376
#     4  11  23  41  66  94 125 162 207 256 311 372
#     4  11  25  44  68  97 129 169 214 262 323 386
#     4  10  21  38  60  86 119 159 203 254 312 370
#     4  10  21  38  60  87 120 159 203 254 310 368
#     4  11  24  40  61  90 124 166 209 255 313 374
#
# _framework density 19.683354999999999
#
# number of rings (size 3 to 8) (size 9 to 14) (size 15 to 20)
#    0.000    1.143    1.429    4.714    0.000   10.286 
#    0.000    1.429    0.000    0.000    0.000    0.000 
#    0.000    0.000    0.000    0.000    0.000    0.000 
#
# Total GULP energy -156575.846465 kJ/mol
# GULP energy per Si atom -5591.994517 kJ/mol
# Density = 1.963856 g / cm^3
# Si number density = 19.683355 Si / 1000 Ang^3
#
#
#
# Elastic Constant Matrix: (Units=GPa)
#
#
# Indices 1 2 3 4 5 6 
#
# 1 96.3583 30.5782 34.5387 0.0000 2.5465 0.0000
# 2 30.5782 84.1711 56.7287 0.0000 -0.5020 0.0000
# 3 34.5387 56.7287 90.8881 0.0000 10.9104 0.0000
# 4 0.0000 0.0000 0.0000 28.9430 0.0000 -2.0433
# 5 2.5465 -0.5020 10.9104 0.0000 27.6157 0.0000
# 6 0.0000 0.0000 0.0000 -2.0433 0.0000 39.1996
#
#
#
# Elastic Compliance Matrix: (Units=1/GPa)
#
#
# Indices 1 2 3 4 5 6 
#
# 1 0.012261 -0.002250 -0.003269 0.000000 0.000120 0.000000
# 2 -0.002250 0.021812 -0.013471 0.000000 0.005926 0.000000
# 3 -0.003269 -0.013471 0.021674 0.000000 -0.008506 0.000000
# 4 0.000000 0.000000 0.000000 0.034678 0.000000 0.001808
# 5 0.000120 0.005926 -0.008506 0.000000 0.039669 0.000000
# 6 0.000000 0.000000 0.000000 0.001808 0.000000 0.025605
#
#
# Mechanical properties :
#
#
# Convention : Reuss Voigt Hill
#
# Bulk Modulus (GPa) = 56.28463 57.23429 56.75946
# Shear Modulus (GPa) = 25.05011 29.12310 27.08661
#
# Velocity S-wave (km/s) = 3.57130 3.85070 3.71363
# Velocity P-wave (km/s) = 6.75742 6.99365 6.87655
#
# Compressibility (1/GPa) = 0.01776684
#
# Stress axis : x y z
#
# Youngs Moduli (GPa) = 81.56209 45.84628 46.13870
#
# Poissons Ratio (x) = 0.10315 0.15084
# Poissons Ratio (y) = 0.18352 0.62151
# Poissons Ratio (z) = 0.26665 0.61757
#
# Static dielectric constant tensor:
#      x y z
#    x 1.690840 0.000000 -0.031200 
#    y 0.000000 1.658660 0.000000 
#    z -0.031200 0.000000 1.708090 
# 
# From -- ./inp_files/54631.got.cif
#   From: 2010.05.17/outbox.cif.g08.bks.cpg/sg11_28_cif.got.tgz:54631.got - 2010.06.03 12:22:45.
