data_PCOD9165218
_publ_section_title
;
Structure prediction by ZEFSAII (Michael W. Deem and Ramdas Pophale) SiO2 
 PCOD9165218
Probable space group: P 21/M
;
_chemical_formula_sum "Si O2"
_cell_formula_units_Z 28
_cell_length_a 16.044656
_cell_length_b 8.447221
_cell_length_c 12.192791
_cell_angle_alpha 90.000000
_cell_angle_beta 119.916137
_cell_angle_gamma 90.000000
_cell_volume 1432.334368
_symmetry_space_group_name_H-M "P 21/M"
_symmetry_group_IT_number 11
_symmetry_cell_setting 'monoclinic'
loop_
_space_group_symop_operation_xyz
x,y,z
-x,1/2+y,-z
-x,-y,-z
x,1/2-y,z
loop_
_atom_site_type_symbol
_atom_site_label
_atom_site_fract_x
_atom_site_fract_y
_atom_site_fract_z
Si Si1 0.108922 0.560630 0.577269
Si Si2 0.207422 0.941617 0.869735
Si Si3 0.349059 0.059559 0.421927
Si Si4 0.510519 0.558680 0.678043
Si Si5 0.424441 0.060106 0.039617
Si Si6 0.146330 0.441252 0.365691
Si Si7 0.968345 0.058610 0.099101
O O1 0.107619 0.750000 0.579233
O O2 0.161390 0.506472 0.723054
O O3 0.156022 0.503623 0.495219
O O4 0.000000 0.500000 0.500000
O O5 0.208747 0.750000 0.870914
O O6 0.135433 0.992650 0.921027
O O7 0.315810 0.001375 0.951253
O O8 0.349272 0.250000 0.419712
O O9 0.407862 0.003620 0.354369
O O10 0.239333 0.006983 0.357814
O O11 0.409745 0.003910 0.566566
O O12 0.507799 0.750000 0.674097
O O13 0.537679 0.506159 0.816756
O O14 0.423551 0.250000 0.037445
O O15 0.500000 0.000000 0.000000
O O16 0.144205 0.250000 0.369136
O O17 0.048804 0.492084 0.241037
O O18 0.968424 0.250000 0.096246
O O19 0.000000 0.000000 0.000000
#
# Coordination Sequence:
#
# PCOD9165218 Si02
#       7
#     4   4   4   4   4   4   4
#     4  11  22  39  62  86 118 154 195 243 292 350
#     4  10  23  43  62  86 122 160 198 249 303 350
#     4   9  19  36  61  87 113 149 191 239 293 350
#     4   9  20  39  59  83 115 151 193 242 294 346
#     4  11  25  42  63  88 119 158 202 248 298 358
#     4  10  21  38  60  88 121 154 194 244 297 350
#     4  10  22  40  61  88 125 161 198 247 297 355
#
# _framework density 19.548508000000002
#
# number of rings (size 3 to 8) (size 9 to 14) (size 15 to 20)
#    0.000    2.000    1.429    0.857    4.000    4.000 
#    0.000    0.000    0.000    0.000    0.000    0.000 
#    0.000    0.000    0.000    0.000    0.000    0.000 
#
# Total GULP energy -156339.906815 kJ/mol
# GULP energy per Si atom -5583.568101 kJ/mol
# Density = 1.950401 g / cm^3
# Si number density = 19.548508 Si / 1000 Ang^3
#
#
#
# Elastic Constant Matrix: (Units=GPa)
#
#
# Indices 1 2 3 4 5 6 
#
# 1 151.3680 22.0320 73.1464 0.0000 9.8689 0.0000
# 2 22.0320 11.6722 16.5663 0.0000 -0.6442 0.0000
# 3 73.1464 16.5663 126.8618 0.0000 -11.7772 0.0000
# 4 0.0000 0.0000 0.0000 31.1271 0.0000 -1.6227
# 5 9.8689 -0.6442 -11.7772 0.0000 30.2462 0.0000
# 6 0.0000 0.0000 0.0000 -1.6227 0.0000 30.4964
#
#
#
# Elastic Compliance Matrix: (Units=1/GPa)
#
#
# Indices 1 2 3 4 5 6 
#
# 1 0.011826 -0.014929 -0.005454 0.000000 -0.006300 0.000000
# 2 -0.014929 0.124315 -0.007188 0.000000 0.004720 0.000000
# 3 -0.005454 -0.007188 0.012571 0.000000 0.006521 0.000000
# 4 0.000000 0.000000 0.000000 0.032216 0.000000 0.001714
# 5 -0.006300 0.004720 0.006521 0.000000 0.037757 0.000000
# 6 0.000000 0.000000 0.000000 0.001714 0.000000 0.032882
#
#
# Mechanical properties :
#
#
# Convention : Reuss Voigt Hill
#
# Bulk Modulus (GPa) = 10.68707 57.04350 33.86529
# Shear Modulus (GPa) = 14.79735 30.25110 22.52422
#
# Velocity S-wave (km/s) = 2.75427 3.93808 3.39812
# Velocity P-wave (km/s) = 3.94886 7.06554 5.72343
#
# Compressibility (1/GPa) = 0.09357103
#
# Stress axis : x y z
#
# Youngs Moduli (GPa) = 84.56256 8.04407 79.54668
#
# Poissons Ratio (x) = 0.12009 0.43383
# Poissons Ratio (y) = 1.26241 0.57178
# Poissons Ratio (z) = 0.46119 0.05782
#
# Static dielectric constant tensor:
#      x y z
#    x 1.688960 0.000000 -0.012400 
#    y 0.000000 1.678070 0.000000 
#    z -0.012400 0.000000 1.664400 
# 
# From -- ./inp_files/38427.got.cif
#   From: 2010.05.17/outbox.cif.g08.bks.cpg/sg11_20_cif.got.tgz:38427.got - 2010.06.03 12:22:45.
