data_PCOD9165956
_publ_section_title
;
Structure prediction by ZEFSAII (Michael W. Deem and Ramdas Pophale) SiO2 
 PCOD9165956
Probable space group: P 21/M
;
_chemical_formula_sum "Si O2"
_cell_formula_units_Z 26
_cell_length_a 11.380256
_cell_length_b 9.456821
_cell_length_c 15.453230
_cell_angle_alpha 90.000000
_cell_angle_beta 50.848136
_cell_angle_gamma 90.000000
_cell_volume 1289.687184
_symmetry_space_group_name_H-M "P 21/M"
_symmetry_group_IT_number 11
_symmetry_cell_setting 'monoclinic'
loop_
_space_group_symop_operation_xyz
x,y,z
-x,1/2+y,-z
-x,-y,-z
x,1/2-y,z
loop_
_atom_site_type_symbol
_atom_site_label
_atom_site_fract_x
_atom_site_fract_y
_atom_site_fract_z
Si Si1 0.662442 0.915525 0.834043
Si Si2 0.007494 0.413866 0.407725
Si Si3 0.208854 0.582847 0.064130
Si Si4 0.599348 0.585781 0.142217
Si Si5 0.885975 0.585218 0.305286
Si Si6 0.472292 0.750000 0.540334
Si Si7 0.429436 0.467236 0.643381
O O1 0.625453 0.750000 0.867926
O O2 0.820437 0.917816 0.707904
O O3 0.694060 0.003974 0.906585
O O4 0.535376 0.997047 0.839329
O O5 0.963331 0.250000 0.440052
O O6 0.000000 0.500000 0.500000
O O7 0.908485 0.488598 0.378958
O O8 0.243970 0.750000 0.041026
O O9 0.035605 0.571192 0.176600
O O10 0.249529 0.496655 0.958975
O O11 0.601604 0.750000 0.113158
O O12 0.577265 0.580582 0.254979
O O13 0.870137 0.750000 0.339232
O O14 0.739268 0.547118 0.318423
O O15 0.481573 0.626440 0.609311
O O16 0.468662 0.870557 0.465265
#
# Coordination Sequence:
#
# PCOD9165956 Si02
#       7
#     4   4   4   4   4   2   4
#     4  10  22  41  62  89 128 167 207 258 313 369
#     4  10  22  39  60  92 123 162 213 257 310 368
#     4  10  22  40  66  93 125 165 206 257 318 368
#     4  12  24  40  63  94 127 164 211 260 304 375
#     4  10  21  42  65  89 126 165 203 257 313 371
#     4  10  24  44  64  86 126 164 208 252 306 368
#     4  11  24  45  65  94 125 167 209 255 313 370
#
# _framework density 20.159929000000002
#
# number of rings (size 3 to 8) (size 9 to 14) (size 15 to 20)
#    0.000    1.538    1.538    2.308    3.231    5.538 
#    2.769    0.000    0.000    0.000    0.000    0.000 
#    0.000    0.000    0.000    0.000    0.000    0.000 
#
# Total GULP energy -144779.660937 kJ/mol
# GULP energy per Si atom -5568.448498 kJ/mol
# Density = 2.011404 g / cm^3
# Si number density = 20.159929 Si / 1000 Ang^3
#
#
#
# Elastic Constant Matrix: (Units=GPa)
#
#
# Indices 1 2 3 4 5 6 
#
# 1 58.3841 21.1328 6.1281 0.0000 -7.3923 0.0000
# 2 21.1328 209.9188 36.3674 0.0000 -1.1340 0.0000
# 3 6.1281 36.3674 73.7141 0.0000 13.7896 0.0000
# 4 0.0000 0.0000 0.0000 -11.8117 0.0000 71.8219
# 5 -7.3923 -1.1340 13.7896 0.0000 17.1913 0.0000
# 6 0.0000 0.0000 0.0000 71.8219 0.0000 -73.6966
#
#
#
# Elastic Compliance Matrix: (Units=1/GPa)
#
#
# Indices 1 2 3 4 5 6 
#
# 1 0.019261 -0.001383 -0.002884 0.000000 0.010505 0.000000
# 2 -0.001383 0.005428 -0.002963 0.000000 0.002141 0.000000
# 3 -0.002884 -0.002963 0.018279 0.000000 -0.016098 0.000000
# 4 0.000000 0.000000 0.000000 0.017187 0.000000 0.016750
# 5 0.010505 0.002141 -0.016098 0.000000 0.075740 0.000000
# 6 0.000000 0.000000 0.000000 0.016750 0.000000 0.002755
#
#
# Mechanical properties :
#
#
# Convention : Reuss Voigt Hill
#
# Bulk Modulus (GPa) = 35.07817 52.14152 43.60985
# Shear Modulus (GPa) = 30.74787 4.89583 17.82185
#
# Velocity S-wave (km/s) = 3.90961 1.56005 2.97648
# Velocity P-wave (km/s) = 6.14962 5.40047 5.78718
#
# Compressibility (1/GPa) = 0.02850776
#
# Stress axis : x y z
#
# Youngs Moduli (GPa) = 51.91783 184.23361 54.70728
#
# Poissons Ratio (x) = 0.25473 0.15779
# Poissons Ratio (y) = 0.07178 0.16212
# Poissons Ratio (z) = 0.14974 0.54595
#
# Static dielectric constant tensor:
#      x y z
#    x 1.720350 0.000000 -0.049330 
#    y 0.000000 1.709460 0.000000 
#    z -0.049330 0.000000 1.742030 
# 
# From -- ./inp_files/48877.got.cif
#   From: 2010.05.17/outbox.cif.g08.bks.cpg/sg11_25_cif.got.tgz:48877.got - 2010.06.03 12:22:45.
