data_PCOD9165250
_publ_section_title
;
Structure prediction by ZEFSAII (Michael W. Deem and Ramdas Pophale) SiO2 
 PCOD9165250
Probable space group: P 21/M
;
_chemical_formula_sum "Si O2"
_cell_formula_units_Z 30
_cell_length_a 14.511546
_cell_length_b 9.501497
_cell_length_c 11.864423
_cell_angle_alpha 90.000000
_cell_angle_beta 64.297875
_cell_angle_gamma 90.000000
_cell_volume 1474.030613
_symmetry_space_group_name_H-M "P 21/M"
_symmetry_group_IT_number 11
_symmetry_cell_setting 'monoclinic'
loop_
_space_group_symop_operation_xyz
x,y,z
-x,1/2+y,-z
-x,-y,-z
x,1/2-y,z
loop_
_atom_site_type_symbol
_atom_site_label
_atom_site_fract_x
_atom_site_fract_y
_atom_site_fract_z
Si Si1 0.795480 0.415230 0.133695
Si Si2 0.750151 0.087229 0.598338
Si Si3 0.709498 0.913164 0.843924
Si Si4 0.457062 0.250000 0.530085
Si Si5 0.125818 0.579433 0.674995
Si Si6 0.406832 0.584282 0.911149
Si Si7 0.530818 0.014116 0.646364
Si Si8 0.088528 0.412609 0.107242
O O1 0.820971 0.250000 0.118601
O O2 0.798971 0.461119 0.262097
O O3 0.687920 0.429714 0.127454
O O4 0.879916 0.497920 0.017647
O O5 0.771053 0.250000 0.618579
O O6 0.835519 0.029943 0.466616
O O7 0.643649 0.081617 0.586490
O O8 0.735403 0.991777 0.714859
O O9 0.681011 0.750000 0.841745
O O10 0.813833 0.916814 0.862199
O O11 0.625648 0.995965 0.962449
O O12 0.456672 0.126415 0.628206
O O13 0.467932 0.372692 0.426624
O O14 0.127764 0.750000 0.665398
O O15 0.012699 0.537029 0.774106
O O16 0.419025 0.750000 0.930228
O O17 0.500218 0.522092 0.790658
O O18 0.071171 0.250000 0.083843
#
# Coordination Sequence:
#
# PCOD9165250 Si02
#       8
#     4   4   4   2   4   4   4   4
#     4   9  18  32  57  86 116 146 187 229 278 348
#     4  11  24  41  59  84 113 155 198 239 286 344
#     4  10  23  40  60  83 115 147 196 249 292 338
#     4  10  24  38  62  88 126 156 184 232 288 346
#     4   9  19  34  58  83 114 151 189 230 289 349
#     4  10  21  38  61  86 113 159 197 231 284 345
#     4  11  23  40  61  90 122 158 188 234 282 344
#     4   9  18  37  57  83 114 149 186 236 289 339
#
# _framework density 20.352360000000001
#
# number of rings (size 3 to 8) (size 9 to 14) (size 15 to 20)
#    0.000    2.133    1.333    0.800    5.600    1.600 
#    0.000    1.333    0.000    0.000    0.000    0.000 
#    0.000    0.000    0.000    0.000    0.000    0.000 
#
# Total GULP energy -167018.596690 kJ/mol
# GULP energy per Si atom -5567.286556 kJ/mol
# Density = 2.030604 g / cm^3
# Si number density = 20.352360 Si / 1000 Ang^3
#
#
#
# Elastic Constant Matrix: (Units=GPa)
#
#
# Indices 1 2 3 4 5 6 
#
# 1 28.9242 1.0606 1.6835 0.0000 -2.5525 0.0000
# 2 1.0606 75.1100 26.4227 0.0000 19.4479 0.0000
# 3 1.6835 26.4227 120.6647 0.0000 15.9350 0.0000
# 4 0.0000 0.0000 0.0000 32.0105 0.0000 11.0603
# 5 -2.5525 19.4479 15.9350 0.0000 26.5077 0.0000
# 6 0.0000 0.0000 0.0000 11.0603 0.0000 13.4046
#
#
#
# Elastic Compliance Matrix: (Units=1/GPa)
#
#
# Indices 1 2 3 4 5 6 
#
# 1 0.035114 -0.001495 -0.000819 0.000000 0.004970 0.000000
# 2 -0.001495 0.017045 -0.002217 0.000000 -0.011316 0.000000
# 3 -0.000819 -0.002217 0.009320 0.000000 -0.004055 0.000000
# 4 0.000000 0.000000 0.000000 0.043697 0.000000 -0.036055
# 5 0.004970 -0.011316 -0.004055 0.000000 0.048944 0.000000
# 6 0.000000 0.000000 0.000000 -0.036055 0.000000 0.104350
#
#
# Mechanical properties :
#
#
# Convention : Reuss Voigt Hill
#
# Bulk Modulus (GPa) = 19.07755 31.44804 25.26280
# Shear Modulus (GPa) = 17.54359 27.42004 22.48182
#
# Velocity S-wave (km/s) = 2.93916 3.67449 3.32720
# Velocity P-wave (km/s) = 4.57298 5.78687 5.21536
#
# Compressibility (1/GPa) = 0.05241764
#
# Stress axis : x y z
#
# Youngs Moduli (GPa) = 28.47849 58.66828 107.29807
#
# Poissons Ratio (x) = 0.08769 0.08787
# Poissons Ratio (y) = 0.04256 0.23789
# Poissons Ratio (z) = 0.02332 0.13008
#
# Static dielectric constant tensor:
#      x y z
#    x 1.787170 0.000000 -0.000820 
#    y 0.000000 1.682060 0.000000 
#    z -0.000820 0.000000 1.704420 
# 
# From -- ./inp_files/40899.got.cif
#   From: 2010.05.17/outbox.cif.g08.bks.cpg/sg11_21_cif.got.tgz:40899.got - 2010.06.03 12:22:45.
