data_PCOD9165737
_publ_section_title
;
Structure prediction by ZEFSAII (Michael W. Deem and Ramdas Pophale) SiO2 
 PCOD9165737
Probable space group: P 21/M
;
_chemical_formula_sum "Si O2"
_cell_formula_units_Z 28
_cell_length_a 10.528768
_cell_length_b 18.650404
_cell_length_c 10.102282
_cell_angle_alpha 90.000000
_cell_angle_beta 39.845617
_cell_angle_gamma 90.000000
_cell_volume 1271.025802
_symmetry_space_group_name_H-M "P 21/M"
_symmetry_group_IT_number 11
_symmetry_cell_setting 'monoclinic'
loop_
_space_group_symop_operation_xyz
x,y,z
-x,1/2+y,-z
-x,-y,-z
x,1/2-y,z
loop_
_atom_site_type_symbol
_atom_site_label
_atom_site_fract_x
_atom_site_fract_y
_atom_site_fract_z
Si Si1 0.598717 0.331863 0.945774
Si Si2 0.213653 0.832762 0.496739
Si Si3 0.204472 0.087248 0.174410
Si Si4 0.993148 0.335148 0.756104
Si Si5 0.462377 0.451809 0.716998
Si Si6 0.798205 0.545925 0.549122
Si Si7 0.124969 0.457051 0.796591
O O1 0.550986 0.250000 0.017548
O O2 0.719450 0.332605 0.710682
O O3 0.765409 0.358072 0.914247
O O4 0.396143 0.372976 0.086502
O O5 0.224233 0.750000 0.535363
O O6 0.376526 0.887470 0.426605
O O7 0.991051 0.863799 0.683969
O O8 0.169432 0.029827 0.322158
O O9 0.295074 0.066357 0.960717
O O10 0.006079 0.250000 0.743482
O O11 0.133963 0.371995 0.532146
O O12 0.064874 0.373852 0.831837
O O13 0.578952 0.519347 0.686425
O O14 0.345483 0.461237 0.674643
O O15 0.905513 0.514360 0.329477
O O16 0.000000 0.500000 0.000000
#
# Coordination Sequence:
#
# PCOD9165737 Si02
#       7
#     4   4   4   4   4   4   4
#     4   9  18  36  61  95 131 166 214 272 329 386
#     4  10  21  40  63  93 137 178 216 270 336 397
#     4  11  22  38  67 101 130 170 223 272 328 394
#     4   9  20  40  68  96 125 165 224 279 323 387
#     4  11  25  42  64  99 135 176 221 271 336 402
#     4  10  23  41  69  93 133 174 221 274 328 388
#     4  10  24  44  70  90 134 179 219 267 340 398
#
# _framework density 22.029450000000001
#
# number of rings (size 3 to 8) (size 9 to 14) (size 15 to 20)
#    0.857    1.143    1.429    1.286    4.000    2.286 
#    0.000    0.000    0.000    0.000    0.000    0.000 
#    0.000    0.000    0.000    0.000    0.000    0.000 
#
# Total GULP energy -155951.398315 kJ/mol
# GULP energy per Si atom -5569.692797 kJ/mol
# Density = 2.197931 g / cm^3
# Si number density = 22.029450 Si / 1000 Ang^3
#
#
#
# Elastic Constant Matrix: (Units=GPa)
#
#
# Indices 1 2 3 4 5 6 
#
# 1 138.3258 41.6441 36.7640 0.0000 -16.1551 0.0000
# 2 41.6441 74.9716 42.3866 0.0000 -20.9975 0.0000
# 3 36.7640 42.3866 134.2953 0.0000 -19.1073 0.0000
# 4 0.0000 0.0000 0.0000 35.0070 0.0000 -6.8541
# 5 -16.1551 -20.9975 -19.1073 0.0000 43.8484 0.0000
# 6 0.0000 0.0000 0.0000 -6.8541 0.0000 30.9930
#
#
#
# Elastic Compliance Matrix: (Units=1/GPa)
#
#
# Indices 1 2 3 4 5 6 
#
# 1 0.008829 -0.004099 -0.001002 0.000000 0.000854 0.000000
# 2 -0.004099 0.019713 -0.004234 0.000000 0.006085 0.000000
# 3 -0.001002 -0.004234 0.009292 0.000000 0.001652 0.000000
# 4 0.000000 0.000000 0.000000 0.029859 0.000000 0.006603
# 5 0.000854 0.006085 0.001652 0.000000 0.026754 0.000000
# 6 0.000000 0.000000 0.000000 0.006603 0.000000 0.033726
#
#
# Mechanical properties :
#
#
# Convention : Reuss Voigt Hill
#
# Bulk Modulus (GPa) = 52.17921 65.46468 58.82195
# Shear Modulus (GPa) = 32.63052 37.08955 34.86004
#
# Velocity S-wave (km/s) = 3.85284 4.10766 3.98229
# Velocity P-wave (km/s) = 6.59773 7.23039 6.92130
#
# Compressibility (1/GPa) = 0.01916472
#
# Stress axis : x y z
#
# Youngs Moduli (GPa) = 113.25956 50.72764 107.61903
#
# Poissons Ratio (x) = 0.20792 0.10783
# Poissons Ratio (y) = 0.46423 0.45567
# Poissons Ratio (z) = 0.11348 0.21479
#
# Static dielectric constant tensor:
#      x y z
#    x 1.815770 0.000000 0.013100 
#    y 0.000000 1.866470 0.000000 
#    z 0.013100 0.000000 1.895970 
# 
# From -- ./inp_files/36395.got.cif
#   From: 2010.05.17/outbox.cif.g08.bks.cpg/sg11_19_cif.got.tgz:36395.got - 2010.06.03 12:22:45.
