data_PCOD9165895
_publ_section_title
;
Structure prediction by ZEFSAII (Michael W. Deem and Ramdas Pophale) SiO2 
 PCOD9165895
Probable space group: P 21/M
;
_chemical_formula_sum "Si O2"
_cell_formula_units_Z 26
_cell_length_a 10.832912
_cell_length_b 18.375056
_cell_length_c 7.309828
_cell_angle_alpha 90.000000
_cell_angle_beta 134.666515
_cell_angle_gamma 90.000000
_cell_volume 1034.854192
_symmetry_space_group_name_H-M "P 21/M"
_symmetry_group_IT_number 11
_symmetry_cell_setting 'monoclinic'
loop_
_space_group_symop_operation_xyz
x,y,z
-x,1/2+y,-z
-x,-y,-z
x,1/2-y,z
loop_
_atom_site_type_symbol
_atom_site_label
_atom_site_fract_x
_atom_site_fract_y
_atom_site_fract_z
Si Si1 0.596936 0.577363 0.087245
Si Si2 0.747895 0.134342 0.420918
Si Si3 0.067556 0.250000 0.098492
Si Si4 0.594343 0.168266 0.626564
Si Si5 0.148733 0.470553 0.366061
Si Si6 0.889240 0.362728 0.196571
Si Si7 0.760669 0.607837 0.885843
O O1 0.443942 0.632427 0.871297
O O2 0.734722 0.583260 0.066265
O O3 0.500000 0.500000 0.000000
O O4 0.704183 0.581256 0.385283
O O5 0.727376 0.173873 0.592993
O O6 0.870173 0.161559 0.386160
O O7 0.805721 0.052881 0.536988
O O8 0.141034 0.184041 0.041109
O O9 0.002197 0.312037 0.182328
O O10 0.533586 0.250000 0.608910
O O11 0.435765 0.120721 0.392584
O O12 0.700704 0.136383 0.905013
O O13 0.156682 0.452638 0.159969
O O14 0.973282 0.441827 0.273190
#
# Coordination Sequence:
#
# PCOD9165895 Si02
#       7
#     4   4   2   4   4   4   4
#     4   9  20  39  64  95 124 162 209 261 318 366
#     4  10  23  39  64  93 126 167 210 260 314 376
#     4  10  22  40  60  88 120 170 208 250 312 362
#     4  11  23  40  64  89 123 169 210 256 317 373
#     4  10  22  40  63  98 126 166 208 259 326 368
#     4  11  23  40  61  90 132 162 209 256 310 384
#     4  10  21  41  66  90 127 159 216 265 304 382
#
# _framework density 25.124312
#
# number of rings (size 3 to 8) (size 9 to 14) (size 15 to 20)
#    0.000    1.846    1.538    1.385    1.077   11.077 
#    0.000    3.077    0.000    0.000    0.000    0.000 
#    0.000    0.000    0.000    0.000    0.000    0.000 
#
# Total GULP energy -145016.223184 kJ/mol
# GULP energy per Si atom -5577.547046 kJ/mol
# Density = 2.506713 g / cm^3
# Si number density = 25.124312 Si / 1000 Ang^3
#
#
#
# Elastic Constant Matrix: (Units=GPa)
#
#
# Indices 1 2 3 4 5 6 
#
# 1 114.4300 34.4359 26.3722 0.0000 -47.8057 0.0000
# 2 34.4359 88.3334 19.0826 0.0000 -0.5380 0.0000
# 3 26.3722 19.0826 87.1546 0.0000 -18.7086 0.0000
# 4 0.0000 0.0000 0.0000 -16.1191 0.0000 -10.8700
# 5 -47.8057 -0.5380 -18.7086 0.0000 52.1213 0.0000
# 6 0.0000 0.0000 0.0000 -10.8700 0.0000 31.3875
#
#
#
# Elastic Compliance Matrix: (Units=1/GPa)
#
#
# Indices 1 2 3 4 5 6 
#
# 1 0.017395 -0.006589 -0.000445 0.000000 0.015727 0.000000
# 2 -0.006589 0.014416 -0.002631 0.000000 -0.006839 0.000000
# 3 -0.000445 -0.002631 0.013100 0.000000 0.004267 0.000000
# 4 0.000000 0.000000 0.000000 -0.050293 0.000000 -0.017417
# 5 0.015727 -0.006839 0.004267 0.000000 0.035072 0.000000
# 6 0.000000 0.000000 0.000000 -0.017417 0.000000 0.025828
#
#
# Mechanical properties :
#
#
# Convention : Reuss Voigt Hill
#
# Bulk Modulus (GPa) = 39.09048 49.96659 44.52854
# Shear Modulus (GPa) = 59.97039 27.47975 43.72507
#
# Velocity S-wave (km/s) = 4.89094 3.31078 4.17627
# Velocity P-wave (km/s) = 6.89113 5.87758 6.40444
#
# Compressibility (1/GPa) = 0.02558168
#
# Stress axis : x y z
#
# Youngs Moduli (GPa) = 57.48929 69.36680 76.33336
#
# Poissons Ratio (x) = 0.45707 0.03396
# Poissons Ratio (y) = 0.37881 0.20081
# Poissons Ratio (z) = 0.02557 0.18248
#
# Static dielectric constant tensor:
#      x y z
#    x 2.065660 0.000000 0.059020 
#    y 0.000000 1.967330 0.000000 
#    z 0.059020 0.000000 1.986050 
# 
# From -- ./inp_files/5125.got.cif
#   From: 2010.05.17/outbox.cif.g08.bks.cpg/sg11_3_cif.got.tgz:5125.got - 2010.06.03 12:22:45.
