data_PCOD9165823
_publ_section_title
;
Structure prediction by ZEFSAII (Michael W. Deem and Ramdas Pophale) SiO2 
 PCOD9165823
Probable space group: P 21/M
;
_chemical_formula_sum "Si O2"
_cell_formula_units_Z 28
_cell_length_a 19.912921
_cell_length_b 14.075116
_cell_length_c 9.044248
_cell_angle_alpha 90.000000
_cell_angle_beta 147.860950
_cell_angle_gamma 90.000000
_cell_volume 1348.501093
_symmetry_space_group_name_H-M "P 21/M"
_symmetry_group_IT_number 11
_symmetry_cell_setting 'monoclinic'
loop_
_space_group_symop_operation_xyz
x,y,z
-x,1/2+y,-z
-x,-y,-z
x,1/2-y,z
loop_
_atom_site_type_symbol
_atom_site_label
_atom_site_fract_x
_atom_site_fract_y
_atom_site_fract_z
Si Si1 0.197579 0.966088 0.493251
Si Si2 0.271599 0.357017 0.979427
Si Si3 0.785962 0.137706 0.782894
Si Si4 0.369126 0.139971 0.848928
Si Si5 0.602300 0.984944 0.563411
Si Si6 0.562138 0.138689 0.965025
Si Si7 0.977969 0.939370 0.606153
O O1 0.175686 0.907036 0.304132
O O2 0.270777 0.065219 0.596906
O O3 0.076913 0.993001 0.365922
O O4 0.299600 0.906681 0.779447
O O5 0.293042 0.250000 0.069377
O O6 0.366990 0.377697 0.020670
O O7 0.136375 0.369330 0.650262
O O8 0.288346 0.426780 0.147177
O O9 0.762509 0.250000 0.726659
O O10 0.665319 0.079041 0.615820
O O11 0.900303 0.115530 0.108450
O O12 0.331000 0.250000 0.755164
O O13 0.503469 0.128117 0.020357
O O14 0.533787 0.919078 0.315871
O O15 0.500000 0.000000 0.500000
O O16 0.564968 0.250000 0.932995
O O17 0.000000 0.000000 0.500000
#
# Coordination Sequence:
#
# PCOD9165823 Si02
#       7
#     4   4   4   4   4   4   4
#     4  11  23  44  69  97 134 179 225 282 341 406
#     4  10  21  40  67  96 128 172 223 275 339 406
#     4  12  27  46  70 100 137 184 234 282 339 406
#     4   9  19  36  65  97 128 171 218 271 333 401
#     4  12  25  42  64  99 139 178 218 276 340 400
#     4  11  23  41  67 100 137 175 223 276 335 410
#     4  11  23  46  71  95 130 174 223 289 346 398
#
# _framework density 20.763794000000001
#
# number of rings (size 3 to 8) (size 9 to 14) (size 15 to 20)
#    0.000    1.143    2.857    3.857    2.000    1.714 
#    0.000    2.143    0.000    0.000    0.000    0.000 
#    0.000    0.000    0.000    0.000    0.000    0.000 
#
# Total GULP energy -156531.648400 kJ/mol
# GULP energy per Si atom -5590.416014 kJ/mol
# Density = 2.071653 g / cm^3
# Si number density = 20.763794 Si / 1000 Ang^3
#
#
#
# Elastic Constant Matrix: (Units=GPa)
#
#
# Indices 1 2 3 4 5 6 
#
# 1 87.8784 46.4221 5.9411 0.0000 0.3425 0.0000
# 2 46.4221 151.6032 37.9022 0.0000 -12.5182 0.0000
# 3 5.9411 37.9022 99.1476 0.0000 -9.6092 0.0000
# 4 0.0000 0.0000 0.0000 21.3610 0.0000 -2.6364
# 5 0.3425 -12.5182 -9.6092 0.0000 29.5566 0.0000
# 6 0.0000 0.0000 0.0000 -2.6364 0.0000 25.9670
#
#
#
# Elastic Compliance Matrix: (Units=1/GPa)
#
#
# Indices 1 2 3 4 5 6 
#
# 1 0.013736 -0.004542 0.000735 0.000000 -0.001844 0.000000
# 2 -0.004542 0.008943 -0.002865 0.000000 0.002909 0.000000
# 3 0.000735 -0.002865 0.011377 0.000000 0.002477 0.000000
# 4 0.000000 0.000000 0.000000 0.047408 0.000000 0.004813
# 5 -0.001844 0.002909 0.002477 0.000000 0.035892 0.000000
# 6 0.000000 0.000000 0.000000 0.004813 0.000000 0.038999
#
#
# Mechanical properties :
#
#
# Convention : Reuss Voigt Hill
#
# Bulk Modulus (GPa) = 48.28074 57.68444 52.98259
# Shear Modulus (GPa) = 28.31174 31.93450 30.12312
#
# Velocity S-wave (km/s) = 3.69659 3.92598 3.81301
# Velocity P-wave (km/s) = 6.44380 6.95648 6.70504
#
# Compressibility (1/GPa) = 0.02071219
#
# Stress axis : x y z
#
# Youngs Moduli (GPa) = 72.80011 111.81417 87.89525
#
# Poissons Ratio (x) = 0.50787 -0.06456
# Poissons Ratio (y) = 0.33066 0.25180
# Poissons Ratio (z) = -0.05347 0.32032
#
# Static dielectric constant tensor:
#      x y z
#    x 1.761050 0.000000 0.000430 
#    y 0.000000 1.733970 0.000000 
#    z 0.000430 0.000000 1.769580 
# 
# From -- ./inp_files/26937.got.cif
#   From: 2010.05.17/outbox.cif.g08.bks.cpg/sg11_14_cif.got.tgz:26937.got - 2010.06.03 12:22:45.
