data_PCOD9165385
_publ_section_title
;
Structure prediction by ZEFSAII (Michael W. Deem and Ramdas Pophale) SiO2 
 PCOD9165385
Probable space group: P 21/M
;
_chemical_formula_sum "Si O2"
_cell_formula_units_Z 28
_cell_length_a 11.874393
_cell_length_b 13.580724
_cell_length_c 9.452424
_cell_angle_alpha 90.000000
_cell_angle_beta 112.444995
_cell_angle_gamma 90.000000
_cell_volume 1408.851912
_symmetry_space_group_name_H-M "P 21/M"
_symmetry_group_IT_number 11
_symmetry_cell_setting 'monoclinic'
loop_
_space_group_symop_operation_xyz
x,y,z
-x,1/2+y,-z
-x,-y,-z
x,1/2-y,z
loop_
_atom_site_type_symbol
_atom_site_label
_atom_site_fract_x
_atom_site_fract_y
_atom_site_fract_z
Si Si1 0.027394 0.638659 0.026365
Si Si2 0.570086 0.526433 0.678331
Si Si3 0.609640 0.363377 0.200211
Si Si4 0.032571 0.979082 0.312923
Si Si5 0.196010 0.138907 0.302111
Si Si6 0.696462 0.133937 0.926463
Si Si7 0.885329 0.360420 0.395510
O O1 0.034611 0.750000 0.087697
O O2 0.015314 0.563322 0.149041
O O3 0.157145 0.621530 0.011892
O O4 0.910881 0.637084 0.867683
O O5 0.500000 0.500000 0.500000
O O6 0.480310 0.568567 0.755116
O O7 0.674367 0.607102 0.696616
O O8 0.637069 0.431481 0.776061
O O9 0.564603 0.250000 0.175564
O O10 0.740571 0.362515 0.339874
O O11 0.640971 0.392918 0.053350
O O12 0.151062 0.050472 0.381360
O O13 0.926821 0.051755 0.313275
O O14 0.050397 0.888323 0.427272
O O15 0.200169 0.250000 0.362707
O O16 0.672696 0.250000 0.894352
O O17 0.918253 0.250000 0.359802
#
# Coordination Sequence:
#
# PCOD9165385 Si02
#       7
#     4   4   4   4   4   4   4
#     4  10  21  38  64  95 124 157 203 258 316 377
#     4  12  25  41  62  91 125 169 213 257 313 371
#     4  10  22  41  62  88 120 164 211 253 305 371
#     4  11  20  36  60  90 125 158 203 254 318 375
#     4  11  23  38  60  91 123 158 201 258 316 368
#     4  10  22  41  66  92 121 161 213 262 309 372
#     4  10  22  37  59  88 123 163 205 254 311 375
#
# _framework density 19.87434
#
# number of rings (size 3 to 8) (size 9 to 14) (size 15 to 20)
#    0.000    1.429    1.429    3.857    2.000    3.429 
#    0.000    0.000    0.000    0.857    0.000    0.000 
#    0.000    0.000    0.000    0.000    0.000    0.000 
#
# Total GULP energy -156357.780481 kJ/mol
# GULP energy per Si atom -5584.206446 kJ/mol
# Density = 1.982911 g / cm^3
# Si number density = 19.874340 Si / 1000 Ang^3
#
#
#
# Elastic Constant Matrix: (Units=GPa)
#
#
# Indices 1 2 3 4 5 6 
#
# 1 103.7308 33.6918 19.3801 0.0000 8.0769 0.0000
# 2 33.6918 83.1966 31.5854 0.0000 5.8930 0.0000
# 3 19.3801 31.5854 82.9843 0.0000 7.0914 0.0000
# 4 0.0000 0.0000 0.0000 14.0047 0.0000 -4.9612
# 5 8.0769 5.8930 7.0914 0.0000 23.2429 0.0000
# 6 0.0000 0.0000 0.0000 -4.9612 0.0000 34.9099
#
#
#
# Elastic Compliance Matrix: (Units=1/GPa)
#
#
# Indices 1 2 3 4 5 6 
#
# 1 0.011331 -0.004071 -0.000871 0.000000 -0.002640 0.000000
# 2 -0.004071 0.015602 -0.004898 0.000000 -0.001047 0.000000
# 3 -0.000871 -0.004898 0.014361 0.000000 -0.002837 0.000000
# 4 0.000000 0.000000 0.000000 0.075190 0.000000 0.010685
# 5 -0.002640 -0.001047 -0.002837 0.000000 0.045072 0.000000
# 6 0.000000 0.000000 0.000000 0.010685 0.000000 0.030164
#
#
# Mechanical properties :
#
#
# Convention : Reuss Voigt Hill
#
# Bulk Modulus (GPa) = 46.26865 48.80293 47.53579
# Shear Modulus (GPa) = 22.87236 26.78179 24.82707
#
# Velocity S-wave (km/s) = 3.39610 3.67489 3.53824
# Velocity P-wave (km/s) = 6.22166 6.52805 6.37670
#
# Compressibility (1/GPa) = 0.02161291
#
# Stress axis : x y z
#
# Youngs Moduli (GPa) = 88.25462 64.09413 69.63439
#
# Poissons Ratio (x) = 0.26092 0.06066
# Poissons Ratio (y) = 0.35928 0.34109
# Poissons Ratio (z) = 0.07688 0.31395
#
# Static dielectric constant tensor:
#      x y z
#    x 1.711640 0.000000 -0.023500 
#    y 0.000000 1.732980 0.000000 
#    z -0.023500 0.000000 1.699310 
# 
# From -- ./inp_files/18156.got.cif
#   From: 2010.05.17/outbox.cif.g08.bks.cpg/sg11_10_cif.got.tgz:18156.got - 2010.06.03 12:22:45.
