data_PCOD9165005
_publ_section_title
;
Structure prediction by ZEFSAII (Michael W. Deem and Ramdas Pophale) SiO2 
 PCOD9165005
Probable space group: P 21/M
;
_chemical_formula_sum "Si O2"
_cell_formula_units_Z 26
_cell_length_a 9.567957
_cell_length_b 20.994790
_cell_length_c 7.112611
_cell_angle_alpha 90.000000
_cell_angle_beta 132.741029
_cell_angle_gamma 90.000000
_cell_volume 1049.323733
_symmetry_space_group_name_H-M "P 21/M"
_symmetry_group_IT_number 11
_symmetry_cell_setting 'monoclinic'
loop_
_space_group_symop_operation_xyz
x,y,z
-x,1/2+y,-z
-x,-y,-z
x,1/2-y,z
loop_
_atom_site_type_symbol
_atom_site_label
_atom_site_fract_x
_atom_site_fract_y
_atom_site_fract_z
Si Si1 0.692998 0.750000 0.355247
Si Si2 0.575284 0.178931 0.970716
Si Si3 0.406993 0.082307 0.097976
Si Si4 0.787181 0.072287 0.670957
Si Si5 0.080990 0.325578 0.963555
Si Si6 0.114967 0.976853 0.834501
Si Si7 0.994369 0.653447 0.664020
O O1 0.839395 0.693678 0.414574
O O2 0.551134 0.692269 0.325789
O O3 0.497365 0.250000 0.983346
O O4 0.510527 0.118758 0.024115
O O5 0.796077 0.182026 0.159099
O O6 0.577539 0.065346 0.396544
O O7 0.256359 0.131514 0.052472
O O8 0.284480 0.021618 0.920584
O O9 0.795186 0.059672 0.902209
O O10 0.936660 0.019813 0.732537
O O11 0.885022 0.140532 0.713411
O O12 0.093075 0.250000 0.941391
O O13 0.066860 0.336050 0.175861
O O14 0.024852 0.919530 0.633438
#
# Coordination Sequence:
#
# PCOD9165005 Si02
#       7
#     2   4   4   4   4   4   4
#     4  10  22  42  62  80 122 164 200 250 310 346
#     4  10  24  41  60  87 124 161 206 247 304 366
#     4  11  22  40  60  95 124 163 198 252 306 361
#     4   9  20  39  61  90 131 162 187 256 314 348
#     4  10  21  37  60  95 123 152 214 253 295 373
#     4   9  21  38  63  93 123 154 207 249 298 368
#     4  11  21  43  64  86 122 164 201 255 307 352
#
# _framework density 24.777861999999999
#
# number of rings (size 3 to 8) (size 9 to 14) (size 15 to 20)
#    0.462    1.538    1.538    1.846    0.000    8.000 
#    0.000    1.538    0.000    0.000    0.000    0.000 
#    0.000    0.000    0.000    0.000    0.000    0.000 
#
# Total GULP energy -144846.414511 kJ/mol
# GULP energy per Si atom -5571.015943 kJ/mol
# Density = 2.472147 g / cm^3
# Si number density = 24.777862 Si / 1000 Ang^3
#
#
#
# Elastic Constant Matrix: (Units=GPa)
#
#
# Indices 1 2 3 4 5 6 
#
# 1 69.1105 16.4064 34.7061 0.0000 21.9361 0.0000
# 2 16.4064 137.4636 40.2166 0.0000 9.8301 0.0000
# 3 34.7061 40.2166 128.9659 0.0000 30.4328 0.0000
# 4 0.0000 0.0000 0.0000 44.0199 0.0000 -3.9184
# 5 21.9361 9.8301 30.4328 0.0000 45.8123 0.0000
# 6 0.0000 0.0000 0.0000 -3.9184 0.0000 35.2073
#
#
#
# Elastic Compliance Matrix: (Units=1/GPa)
#
#
# Indices 1 2 3 4 5 6 
#
# 1 0.018301 -0.000800 -0.003140 0.000000 -0.006505 0.000000
# 2 -0.000800 0.008040 -0.002342 0.000000 0.000214 0.000000
# 3 -0.003140 -0.002342 0.010502 0.000000 -0.004970 0.000000
# 4 0.000000 0.000000 0.000000 0.022944 0.000000 0.002554
# 5 -0.006505 0.000214 -0.004970 0.000000 0.028199 0.000000
# 6 0.000000 0.000000 0.000000 0.002554 0.000000 0.028687
#
#
# Mechanical properties :
#
#
# Convention : Reuss Voigt Hill
#
# Bulk Modulus (GPa) = 41.18995 57.57758 49.38376
# Shear Modulus (GPa) = 36.40769 41.28863 38.84816
#
# Velocity S-wave (km/s) = 3.83739 4.08653 3.96391
# Velocity P-wave (km/s) = 6.02444 6.74939 6.39719
#
# Compressibility (1/GPa) = 0.02427777
#
# Stress axis : x y z
#
# Youngs Moduli (GPa) = 54.64043 124.37575 95.21586
#
# Poissons Ratio (x) = 0.09954 0.29902
# Poissons Ratio (y) = 0.04373 0.22303
# Poissons Ratio (z) = 0.17160 0.29133
#
# Static dielectric constant tensor:
#      x y z
#    x 2.009020 0.000000 -0.023620 
#    y 0.000000 2.017170 0.000000 
#    z -0.023620 0.000000 1.960980 
# 
# From -- ./inp_files/14547.got.cif
#   From: 2010.05.17/outbox.cif.g08.bks.cpg/sg11_8_cif.got.tgz:14547.got - 2010.06.03 12:22:45.
