data_PCOD9165749
_publ_section_title
;
Structure prediction by ZEFSAII (Michael W. Deem and Ramdas Pophale) SiO2 
 PCOD9165749
Probable space group: P 21/M
;
_chemical_formula_sum "Si O2"
_cell_formula_units_Z 28
_cell_length_a 9.659013
_cell_length_b 8.289093
_cell_length_c 22.004848
_cell_angle_alpha 90.000000
_cell_angle_beta 134.052275
_cell_angle_gamma 90.000000
_cell_volume 1266.220190
_symmetry_space_group_name_H-M "P 21/M"
_symmetry_group_IT_number 11
_symmetry_cell_setting 'monoclinic'
loop_
_space_group_symop_operation_xyz
x,y,z
-x,1/2+y,-z
-x,-y,-z
x,1/2-y,z
loop_
_atom_site_type_symbol
_atom_site_label
_atom_site_fract_x
_atom_site_fract_y
_atom_site_fract_z
Si Si1 0.682172 0.560298 0.778042
Si Si2 0.412366 0.559588 0.127794
Si Si3 0.243577 0.944919 0.849123
Si Si4 0.512507 0.434299 0.602740
Si Si5 0.906830 0.435539 0.533595
Si Si6 0.114517 0.946062 0.940766
Si Si7 0.883742 0.560862 0.655834
O O1 0.691808 0.750000 0.765007
O O2 0.556828 0.532451 0.799895
O O3 0.603762 0.464791 0.696759
O O4 0.895427 0.503331 0.862790
O O5 0.392721 0.750000 0.134337
O O6 0.586857 0.529743 0.135233
O O7 0.222642 0.497219 0.034062
O O8 0.266771 0.750000 0.852651
O O9 0.231229 0.992275 0.915791
O O10 0.041950 0.985048 0.754425
O O11 0.448622 0.250000 0.575983
O O12 0.323897 0.543550 0.540540
O O13 0.682752 0.472201 0.607438
O O14 0.960522 0.250000 0.556808
O O15 0.962881 0.525884 0.612798
O O16 0.000000 0.500000 0.500000
O O17 0.114038 0.750000 0.943156
O O18 0.845729 0.750000 0.651062
#
# Coordination Sequence:
#
# PCOD9165749 Si02
#       7
#     4   4   4   4   4   4   4
#     4  11  22  41  65  90 125 171 218 264 323 385
#     4  11  23  37  58  92 131 167 213 271 324 377
#     4  10  21  40  64  90 125 171 216 259 316 382
#     4  12  25  44  69  99 131 167 216 266 320 382
#     4  12  27  47  71 101 136 170 209 259 318 379
#     4   9  19  39  63  89 123 166 217 268 318 379
#     4  11  23  44  71  97 130 173 218 262 317 382
#
# _framework density 22.113057999999999
#
# number of rings (size 3 to 8) (size 9 to 14) (size 15 to 20)
#    0.000    1.143    1.429    5.143    2.000    1.143 
#    0.000    2.857    0.000    0.000    0.000    0.000 
#    0.000    0.000    0.000    0.000    0.000    0.000 
#
# Total GULP energy -156714.046755 kJ/mol
# GULP energy per Si atom -5596.930241 kJ/mol
# Density = 2.206273 g / cm^3
# Si number density = 22.113058 Si / 1000 Ang^3
#
#
#
# Elastic Constant Matrix: (Units=GPa)
#
#
# Indices 1 2 3 4 5 6 
#
# 1 71.7768 -3.8428 8.8709 0.0000 -25.1777 0.0000
# 2 -3.8428 28.2335 -2.9185 0.0000 1.6085 0.0000
# 3 8.8709 -2.9185 65.5253 0.0000 -17.0944 0.0000
# 4 0.0000 0.0000 0.0000 23.0929 0.0000 -0.4889
# 5 -25.1777 1.6085 -17.0944 0.0000 38.1601 0.0000
# 6 0.0000 0.0000 0.0000 -0.4889 0.0000 30.9030
#
#
#
# Elastic Compliance Matrix: (Units=1/GPa)
#
#
# Indices 1 2 3 4 5 6 
#
# 1 0.018258 0.001868 0.000831 0.000000 0.012340 0.000000
# 2 0.001868 0.035801 0.001438 0.000000 0.000367 0.000000
# 3 0.000831 0.001438 0.017370 0.000000 0.008269 0.000000
# 4 0.000000 0.000000 0.000000 0.043318 0.000000 0.000685
# 5 0.012340 0.000367 0.008269 0.000000 0.038036 0.000000
# 6 0.000000 0.000000 0.000000 0.000685 0.000000 0.032370
#
#
# Mechanical properties :
#
#
# Convention : Reuss Voigt Hill
#
# Bulk Modulus (GPa) = 12.54689 18.86164 15.70426
# Shear Modulus (GPa) = 24.57639 29.32626 26.95132
#
# Velocity S-wave (km/s) = 3.33738 3.64565 3.49491
# Velocity P-wave (km/s) = 4.53179 5.12535 4.83768
#
# Compressibility (1/GPa) = 0.07970104
#
# Stress axis : x y z
#
# Youngs Moduli (GPa) = 54.77060 27.93228 57.57062
#
# Poissons Ratio (x) = -0.05218 -0.04782
# Poissons Ratio (y) = -0.10231 -0.08276
# Poissons Ratio (z) = -0.04549 -0.04015
#
# Static dielectric constant tensor:
#      x y z
#    x 1.805190 0.000000 0.008750 
#    y 0.000000 1.745420 0.000000 
#    z 0.008750 0.000000 1.802670 
# 
# From -- ./inp_files/63396.got.cif
#   From: 2010.05.17/outbox.cif.g08.bks.cpg/sg11_32_cif.got.tgz:63396.got - 2010.06.03 12:22:45.
