data_PCOD9165849
_publ_section_title
;
Structure prediction by ZEFSAII (Michael W. Deem and Ramdas Pophale) SiO2 
 PCOD9165849
Probable space group: P 21/M
;
_chemical_formula_sum "Si O2"
_cell_formula_units_Z 32
_cell_length_a 11.117733
_cell_length_b 14.034008
_cell_length_c 9.967907
_cell_angle_alpha 90.000000
_cell_angle_beta 98.891845
_cell_angle_gamma 90.000000
_cell_volume 1536.564923
_symmetry_space_group_name_H-M "P 21/M"
_symmetry_group_IT_number 11
_symmetry_cell_setting 'monoclinic'
loop_
_space_group_symop_operation_xyz
x,y,z
-x,1/2+y,-z
-x,-y,-z
x,1/2-y,z
loop_
_atom_site_type_symbol
_atom_site_label
_atom_site_fract_x
_atom_site_fract_y
_atom_site_fract_z
Si Si1 0.094374 0.537985 0.314350
Si Si2 0.414024 0.362018 0.758811
Si Si3 0.279044 0.017189 0.547429
Si Si4 0.414273 0.139404 0.068050
Si Si5 0.645444 0.011145 0.723925
Si Si6 0.055366 0.356728 0.894908
Si Si7 0.678118 0.141647 0.233745
Si Si8 0.093437 0.932942 0.887748
O O1 0.144412 0.508792 0.469069
O O2 0.221437 0.558764 0.258768
O O3 0.006655 0.625555 0.261813
O O4 0.021546 0.451008 0.231986
O O5 0.434036 0.250000 0.752029
O O6 0.299779 0.395406 0.650185
O O7 0.534011 0.418448 0.731459
O O8 0.392066 0.386104 0.910282
O O9 0.357928 0.032448 0.426646
O O10 0.327292 0.928055 0.640712
O O11 0.380845 0.250000 0.083812
O O12 0.354708 0.070299 0.165127
O O13 0.558771 0.130784 0.122058
O O14 0.107142 0.250000 0.913274
O O15 0.128573 0.456408 0.928356
O O16 0.954094 0.373143 0.993997
O O17 0.684090 0.250000 0.281326
O O18 0.796148 0.115341 0.168480
#
# Coordination Sequence:
#
# PCOD9165849 Si02
#       8
#     4   4   4   4   4   4   4   4
#     4   8  21  37  61  87 121 161 203 251 305 361
#     4  11  23  38  59  92 127 164 208 255 309 371
#     4  10  23  40  61  89 124 166 203 245 318 363
#     4  10  23  39  62  93 120 162 212 255 310 366
#     4  10  21  41  62  86 123 166 195 262 305 361
#     4   9  18  37  64  91 122 165 212 256 309 363
#     4  11  23  38  63  89 120 163 209 261 311 364
#     4   9  20  39  59  91 129 157 206 264 306 367
#
# _framework density 20.825673999999999
#
# number of rings (size 3 to 8) (size 9 to 14) (size 15 to 20)
#    1.500    0.750    1.250    1.125    1.750    2.500 
#    0.000    3.125    0.000    0.000    0.000    0.000 
#    0.000    0.000    0.000    0.000    0.000    0.000 
#
# Total GULP energy -178289.518876 kJ/mol
# GULP energy per Si atom -5571.547465 kJ/mol
# Density = 2.077827 g / cm^3
# Si number density = 20.825674 Si / 1000 Ang^3
#
#
#
# Elastic Constant Matrix: (Units=GPa)
#
#
# Indices 1 2 3 4 5 6 
#
# 1 51.8713 2.1567 19.5535 0.0000 12.3003 0.0000
# 2 2.1567 41.6033 22.8333 0.0000 8.8417 0.0000
# 3 19.5535 22.8333 135.4904 0.0000 9.1329 0.0000
# 4 0.0000 0.0000 0.0000 11.8209 0.0000 29.0489
# 5 12.3003 8.8417 9.1329 0.0000 22.6938 0.0000
# 6 0.0000 0.0000 0.0000 29.0489 0.0000 -37.2758
#
#
#
# Elastic Compliance Matrix: (Units=1/GPa)
#
#
# Indices 1 2 3 4 5 6 
#
# 1 0.023287 0.003144 -0.003040 0.000000 -0.012623 0.000000
# 2 0.003144 0.028721 -0.004548 0.000000 -0.011064 0.000000
# 3 -0.003040 -0.004548 0.008588 0.000000 -0.000037 0.000000
# 4 0.000000 0.000000 0.000000 0.029020 0.000000 0.022615
# 5 -0.012623 -0.011064 -0.000037 0.000000 0.055232 0.000000
# 6 0.000000 0.000000 0.000000 0.022615 0.000000 -0.009203
#
#
# Mechanical properties :
#
#
# Convention : Reuss Voigt Hill
#
# Bulk Modulus (GPa) = 19.33919 35.33910 27.33914
# Shear Modulus (GPa) = 30.90812 11.74255 21.32534
#
# Velocity S-wave (km/s) = 3.85663 2.37713 3.20346
# Velocity P-wave (km/s) = 5.39795 4.95380 5.18064
#
# Compressibility (1/GPa) = 0.05170847
#
# Stress axis : x y z
#
# Youngs Moduli (GPa) = 42.94237 34.81776 116.43880
#
# Poissons Ratio (x) = -0.10946 0.35393
# Poissons Ratio (y) = -0.13500 0.52958
# Poissons Ratio (z) = 0.13053 0.15836
#
# Static dielectric constant tensor:
#      x y z
#    x 1.771140 0.000000 0.025350 
#    y 0.000000 1.728280 0.000000 
#    z 0.025350 0.000000 1.772470 
# 
# From -- ./inp_files/35533.got.cif
#   From: 2010.05.17/outbox.cif.g08.bks.cpg/sg11_18_cif.got.tgz:35533.got - 2010.06.03 12:22:45.
