data_PCOD9165025
_publ_section_title
;
Structure prediction by ZEFSAII (Michael W. Deem and Ramdas Pophale) SiO2 
 PCOD9165025
Probable space group: P 21/M
;
_chemical_formula_sum "Si O2"
_cell_formula_units_Z 26
_cell_length_a 10.280461
_cell_length_b 9.579472
_cell_length_c 17.930931
_cell_angle_alpha 90.000000
_cell_angle_beta 44.961575
_cell_angle_gamma 90.000000
_cell_volume 1247.816005
_symmetry_space_group_name_H-M "P 21/M"
_symmetry_group_IT_number 11
_symmetry_cell_setting 'monoclinic'
loop_
_space_group_symop_operation_xyz
x,y,z
-x,1/2+y,-z
-x,-y,-z
x,1/2-y,z
loop_
_atom_site_type_symbol
_atom_site_label
_atom_site_fract_x
_atom_site_fract_y
_atom_site_fract_z
Si Si1 0.237303 0.998451 0.439000
Si Si2 0.944752 0.250000 0.545805
Si Si3 0.216656 0.915406 0.147520
Si Si4 0.838843 0.913418 0.104260
Si Si5 0.616107 0.588587 0.050700
Si Si6 0.112311 0.908635 0.652605
Si Si7 0.652753 0.411951 0.302752
O O1 0.444378 0.047702 0.369335
O O2 0.106096 0.128661 0.476189
O O3 0.212156 0.875108 0.389850
O O4 0.166445 0.929912 0.545330
O O5 0.189723 0.750000 0.150238
O O6 0.403301 0.939989 0.119179
O O7 0.044021 0.984682 0.258215
O O8 0.259354 0.988819 0.051266
O O9 0.884314 0.750000 0.094682
O O10 0.669653 0.925744 0.114794
O O11 0.783993 0.986455 0.202996
O O12 0.000000 0.000000 0.000000
O O13 0.653602 0.750000 0.013604
O O14 0.043559 0.750000 0.690520
O O15 0.288699 0.925865 0.634724
O O16 0.684782 0.250000 0.268610
#
# Coordination Sequence:
#
# PCOD9165025 Si02
#       7
#     4   2   4   4   4   4   4
#     4  11  23  47  66  99 128 174 212 270 324 392
#     4  10  24  42  70  92 132 164 216 266 322 384
#     4  10  21  37  61  95 124 162 218 266 320 382
#     4  11  24  42  64  94 129 173 218 271 326 382
#     4   9  20  40  60  85 126 167 208 267 325 383
#     4  11  24  42  64  93 130 174 212 265 325 383
#     4  11  25  44  66  95 132 173 221 269 322 389
#
# _framework density 20.836406
#
# number of rings (size 3 to 8) (size 9 to 14) (size 15 to 20)
#    0.000    1.538    1.538    2.308    2.154    8.615 
#    2.769    0.000    0.000    0.000    0.000    0.000 
#    0.000    0.000    0.000    0.000    0.000    0.000 
#
# Total GULP energy -144845.564319 kJ/mol
# GULP energy per Si atom -5570.983243 kJ/mol
# Density = 2.078898 g / cm^3
# Si number density = 20.836406 Si / 1000 Ang^3
#
#
#
# Elastic Constant Matrix: (Units=GPa)
#
#
# Indices 1 2 3 4 5 6 
#
# 1 55.9963 29.7907 3.0043 0.0000 -8.4224 0.0000
# 2 29.7907 122.1953 13.4113 0.0000 -19.8388 0.0000
# 3 3.0043 13.4113 42.4689 0.0000 -10.3200 0.0000
# 4 0.0000 0.0000 0.0000 41.9612 0.0000 5.5993
# 5 -8.4224 -19.8388 -10.3200 0.0000 21.4695 0.0000
# 6 0.0000 0.0000 0.0000 5.5993 0.0000 41.5365
#
#
#
# Elastic Compliance Matrix: (Units=1/GPa)
#
#
# Indices 1 2 3 4 5 6 
#
# 1 0.020861 -0.004459 0.001041 0.000000 0.004564 0.000000
# 2 -0.004459 0.010618 -0.001221 0.000000 0.007476 0.000000
# 3 0.001041 -0.001221 0.026816 0.000000 0.012170 0.000000
# 4 0.000000 0.000000 0.000000 0.024268 0.000000 -0.003271
# 5 0.004564 0.007476 0.012170 0.000000 0.061126 0.000000
# 6 0.000000 0.000000 0.000000 -0.003271 0.000000 0.024516
#
#
# Mechanical properties :
#
#
# Convention : Reuss Voigt Hill
#
# Bulk Modulus (GPa) = 20.40074 34.78590 27.59332
# Shear Modulus (GPa) = 25.79670 32.62371 29.21021
#
# Velocity S-wave (km/s) = 3.52242 3.96119 3.74823
# Velocity P-wave (km/s) = 5.13376 6.13616 5.65720
#
# Compressibility (1/GPa) = 0.04901782
#
# Stress axis : x y z
#
# Youngs Moduli (GPa) = 47.93571 94.17530 37.29121
#
# Poissons Ratio (x) = 0.41995 -0.03884
# Poissons Ratio (y) = 0.21376 0.04554
# Poissons Ratio (z) = -0.04992 0.11500
#
# Static dielectric constant tensor:
#      x y z
#    x 1.805720 0.000000 0.022040 
#    y 0.000000 1.719540 0.000000 
#    z 0.022040 0.000000 1.722940 
# 
# From -- ./inp_files/64315.got.cif
#   From: 2010.05.17/outbox.cif.g08.bks.cpg/sg11_33_cif.got.tgz:64315.got - 2010.06.03 12:22:45.
