data_PCOD9165204
_publ_section_title
;
Structure prediction by ZEFSAII (Michael W. Deem and Ramdas Pophale) SiO2 
 PCOD9165204
Probable space group: P 21/M
;
_chemical_formula_sum "Si O2"
_cell_formula_units_Z 24
_cell_length_a 7.348334
_cell_length_b 15.609558
_cell_length_c 11.874762
_cell_angle_alpha 90.000000
_cell_angle_beta 136.557320
_cell_angle_gamma 90.000000
_cell_volume 936.608960
_symmetry_space_group_name_H-M "P 21/M"
_symmetry_group_IT_number 11
_symmetry_cell_setting 'monoclinic'
loop_
_space_group_symop_operation_xyz
x,y,z
-x,1/2+y,-z
-x,-y,-z
x,1/2-y,z
loop_
_atom_site_type_symbol
_atom_site_label
_atom_site_fract_x
_atom_site_fract_y
_atom_site_fract_z
Si Si1 0.903733 0.910523 0.694837
Si Si2 0.821395 0.851948 0.406535
Si Si3 0.521582 0.096301 0.056145
Si Si4 0.748040 0.347508 0.856584
Si Si5 0.042918 0.886479 0.277894
Si Si6 0.680702 0.647333 0.809254
O O1 0.865070 0.893685 0.546350
O O2 0.679642 0.875018 0.677208
O O3 0.192419 0.869794 0.852327
O O4 0.974955 0.886283 0.978727
O O5 0.800364 0.750000 0.413985
O O6 0.533093 0.885935 0.235758
O O7 0.039510 0.866507 0.408443
O O8 0.076371 0.988025 0.279015
O O9 0.253313 0.141970 0.895169
O O10 0.500000 0.000000 0.000000
O O11 0.752849 0.250000 0.898772
O O12 0.762294 0.347257 0.726566
O O13 0.488698 0.896999 0.812491
O O14 0.658712 0.750000 0.814147
#
# Coordination Sequence:
#
# PCOD9165204 Si02
#       6
#     4   4   4   4   4   4
#     4  11  23  37  58  89 121 150 188 241 296 345
#     4  11  23  38  56  81 116 155 194 239 290 344
#     4   9  21  39  62  89 117 150 192 239 288 341
#     4   9  20  38  59  82 110 150 196 237 282 343
#     4  10  21  38  61  84 113 153 197 237 283 344
#     4  10  21  38  60  86 116 152 193 237 288 345
#
# _framework density 25.624355000000001
#
# number of rings (size 3 to 8) (size 9 to 14) (size 15 to 20)
#    0.000    2.000    0.000    2.500    0.000   12.667 
#    0.000    0.000    0.000    0.000    0.000    0.000 
#    0.000    0.000    0.000    0.000    0.000    0.000 
#
# Total GULP energy -134246.865219 kJ/mol
# GULP energy per Si atom -5593.619384 kJ/mol
# Density = 2.556603 g / cm^3
# Si number density = 25.624355 Si / 1000 Ang^3
#
#
#
# Elastic Constant Matrix: (Units=GPa)
#
#
# Indices 1 2 3 4 5 6 
#
# 1 130.2536 -0.2600 6.3905 0.0000 -31.1006 0.0000
# 2 -0.2600 84.7817 -2.9483 0.0000 -2.1754 0.0000
# 3 6.3905 -2.9483 64.7047 0.0000 -26.6312 0.0000
# 4 0.0000 0.0000 0.0000 26.8839 0.0000 -17.2098
# 5 -31.1006 -2.1754 -26.6312 0.0000 50.7006 0.0000
# 6 0.0000 0.0000 0.0000 -17.2098 0.0000 27.2638
#
#
#
# Elastic Compliance Matrix: (Units=1/GPa)
#
#
# Indices 1 2 3 4 5 6 
#
# 1 0.009161 0.000260 0.001818 0.000000 0.006585 0.000000
# 2 0.000260 0.011862 0.001008 0.000000 0.001198 0.000000
# 3 0.001818 0.001008 0.020155 0.000000 0.011745 0.000000
# 4 0.000000 0.000000 0.000000 0.062420 0.000000 0.039401
# 5 0.006585 0.001198 0.011745 0.000000 0.029984 0.000000
# 6 0.000000 0.000000 0.000000 0.039401 0.000000 0.061550
#
#
# Mechanical properties :
#
#
# Convention : Reuss Voigt Hill
#
# Bulk Modulus (GPa) = 21.11971 31.78936 26.45453
# Shear Modulus (GPa) = 24.42078 39.40684 31.91381
#
# Velocity S-wave (km/s) = 3.09047 3.92582 3.53292
# Velocity P-wave (km/s) = 4.58199 5.74302 5.19504
#
# Compressibility (1/GPa) = 0.04734913
#
# Stress axis : x y z
#
# Youngs Moduli (GPa) = 109.15749 84.30576 49.61486
#
# Poissons Ratio (x) = -0.02194 -0.09018
# Poissons Ratio (y) = -0.02841 -0.05000
# Poissons Ratio (z) = -0.19839 -0.08497
#
# Static dielectric constant tensor:
#      x y z
#    x 2.023740 0.000000 0.029980 
#    y 0.000000 1.932460 0.000000 
#    z 0.029980 0.000000 2.165270 
# 
# From -- ./inp_files/14100.got.cif
#   From: 2010.05.17/outbox.cif.g08.bks.cpg/sg11_8_cif.got.tgz:14100.got - 2010.06.03 12:22:45.
