data_PCOD9165470
_publ_section_title
;
Structure prediction by ZEFSAII (Michael W. Deem and Ramdas Pophale) SiO2 
 PCOD9165470
Probable space group: P 21/M
;
_chemical_formula_sum "Si O2"
_cell_formula_units_Z 28
_cell_length_a 9.132714
_cell_length_b 8.734512
_cell_length_c 29.368508
_cell_angle_alpha 90.000000
_cell_angle_beta 38.972637
_cell_angle_gamma 90.000000
_cell_volume 1473.451816
_symmetry_space_group_name_H-M "P 21/M"
_symmetry_group_IT_number 11
_symmetry_cell_setting 'monoclinic'
loop_
_space_group_symop_operation_xyz
x,y,z
-x,1/2+y,-z
-x,-y,-z
x,1/2-y,z
loop_
_atom_site_type_symbol
_atom_site_label
_atom_site_fract_x
_atom_site_fract_y
_atom_site_fract_z
Si Si1 0.802428 0.435122 0.642638
Si Si2 0.661736 0.934554 0.500470
Si Si3 0.533423 0.433874 0.353481
Si Si4 0.392591 0.565513 0.211007
Si Si5 0.045498 0.934031 0.212972
Si Si6 0.096826 0.933280 0.929554
Si Si7 0.755523 0.565979 0.929013
O O1 0.791079 0.250000 0.641698
O O2 0.638693 0.507407 0.644050
O O3 0.712383 0.477968 0.714625
O O4 0.070296 0.482427 0.570925
O O5 0.655737 0.750000 0.499472
O O6 0.566235 0.980432 0.573073
O O7 0.500000 0.000000 0.500000
O O8 0.546711 0.250000 0.348671
O O9 0.788229 0.503142 0.284280
O O10 0.416258 0.750000 0.204479
O O11 0.644343 0.493228 0.142400
O O12 0.216242 0.522439 0.213221
O O13 0.038593 0.750000 0.211890
O O14 0.144518 0.000793 0.142153
O O15 0.099288 0.750000 0.931854
O O16 0.927035 0.977262 0.928991
O O17 0.000000 0.000000 0.000000
O O18 0.744845 0.750000 0.929323
O O19 0.500000 0.500000 0.000000
#
# Coordination Sequence:
#
# PCOD9165470 Si02
#       7
#     4   4   4   4   4   4   4
#     4  10  21  39  61  85 116 156 197 239 289 348
#     4  10  22  39  60  87 119 155 197 243 293 348
#     4  11  23  38  58  88 121 153 194 244 293 346
#     4  10  22  39  60  86 115 149 194 240 285 341
#     4  11  23  40  62  87 117 156 197 240 291 348
#     4  11  24  40  60  86 117 151 190 236 287 342
#     4  11  24  41  61  89 121 154 195 242 291 347
#
# _framework density 19.002997000000001
#
# number of rings (size 3 to 8) (size 9 to 14) (size 15 to 20)
#    0.000    1.429    0.000    4.714    0.000   12.571 
#    0.000    0.000    0.000    0.000    0.000    0.000 
#    0.000    0.000    0.000    0.000    0.000    0.000 
#
# Total GULP energy -156628.533608 kJ/mol
# GULP energy per Si atom -5593.876200 kJ/mol
# Density = 1.895975 g / cm^3
# Si number density = 19.002997 Si / 1000 Ang^3
#
#
#
# Elastic Constant Matrix: (Units=GPa)
#
#
# Indices 1 2 3 4 5 6 
#
# 1 239.0204 67.2501 147.8349 0.0000 0.1984 0.0000
# 2 67.2501 38.3456 61.3427 0.0000 1.6693 0.0000
# 3 147.8349 61.3427 238.6510 0.0000 -1.1334 0.0000
# 4 0.0000 0.0000 0.0000 31.9368 0.0000 -3.9000
# 5 0.1984 1.6693 -1.1334 0.0000 46.1329 0.0000
# 6 0.0000 0.0000 0.0000 -3.9000 0.0000 36.8808
#
#
#
# Elastic Compliance Matrix: (Units=1/GPa)
#
#
# Indices 1 2 3 4 5 6 
#
# 1 0.009133 -0.011861 -0.002608 0.000000 0.000326 0.000000
# 2 -0.011861 0.059858 -0.008049 0.000000 -0.002313 0.000000
# 3 -0.002608 -0.008049 0.007877 0.000000 0.000496 0.000000
# 4 0.000000 0.000000 0.000000 0.031721 0.000000 0.003354
# 5 0.000326 -0.002313 0.000496 0.000000 0.021771 0.000000
# 6 0.000000 0.000000 0.000000 0.003354 0.000000 0.027469
#
#
# Mechanical properties :
#
#
# Convention : Reuss Voigt Hill
#
# Bulk Modulus (GPa) = 31.41469 118.76360 75.08914
# Shear Modulus (GPa) = 23.42188 38.96272 31.19230
#
# Velocity S-wave (km/s) = 3.51456 4.53299 4.05587
# Velocity P-wave (km/s) = 5.74777 9.48843 7.84433
#
# Compressibility (1/GPa) = 0.03183225
#
# Stress axis : x y z
#
# Youngs Moduli (GPa) = 109.48864 16.70632 126.95457
#
# Poissons Ratio (x) = 0.19815 0.33103
# Poissons Ratio (y) = 1.29863 1.02191
# Poissons Ratio (z) = 0.28549 0.13448
#
# Static dielectric constant tensor:
#      x y z
#    x 1.622370 0.000000 0.006190 
#    y 0.000000 1.641910 0.000000 
#    z 0.006190 0.000000 1.622790 
# 
# From -- ./inp_files/29006.got.cif
#   From: 2010.05.17/outbox.cif.g08.bks.cpg/sg11_15_cif.got.tgz:29006.got - 2010.06.03 12:22:45.
