data_PCOD9165781
_publ_section_title
;
Structure prediction by ZEFSAII (Michael W. Deem and Ramdas Pophale) SiO2 
 PCOD9165781
Probable space group: P 21/M
;
_chemical_formula_sum "Si O2"
_cell_formula_units_Z 28
_cell_length_a 13.426066
_cell_length_b 17.259099
_cell_length_c 6.941077
_cell_angle_alpha 90.000000
_cell_angle_beta 118.074449
_cell_angle_gamma 90.000000
_cell_volume 1419.149555
_symmetry_space_group_name_H-M "P 21/M"
_symmetry_group_IT_number 11
_symmetry_cell_setting 'monoclinic'
loop_
_space_group_symop_operation_xyz
x,y,z
-x,1/2+y,-z
-x,-y,-z
x,1/2-y,z
loop_
_atom_site_type_symbol
_atom_site_label
_atom_site_fract_x
_atom_site_fract_y
_atom_site_fract_z
Si Si1 0.862445 0.339718 0.334848
Si Si2 0.311679 0.157787 0.581099
Si Si3 0.581955 0.937091 0.973867
Si Si4 0.920920 0.074063 0.775132
Si Si5 0.061294 0.102187 0.253900
Si Si6 0.721725 0.067805 0.902821
Si Si7 0.505293 0.405973 0.487260
O O1 0.833789 0.250000 0.317549
O O2 0.880476 0.374023 0.562908
O O3 0.977789 0.352067 0.318661
O O4 0.769317 0.386153 0.128509
O O5 0.307638 0.250000 0.599970
O O6 0.356950 0.115770 0.814552
O O7 0.188891 0.126242 0.410049
O O8 0.401590 0.133166 0.500847
O O9 0.506745 0.890645 0.750284
O O10 0.500000 0.000000 0.000000
O O11 0.674641 0.986363 0.939084
O O12 0.820096 0.058707 0.835377
O O13 0.955168 0.989905 0.726146
O O14 0.019801 0.111726 0.994861
O O15 0.620611 0.112775 0.702582
O O16 0.500000 0.500000 0.500000
#
# Coordination Sequence:
#
# PCOD9165781 Si02
#       7
#     4   4   4   4   4   4   4
#     4  11  24  40  62  93 131 169 207 263 326 376
#     4  12  25  40  64  99 137 168 209 270 334 381
#     4  11  22  41  69  91 123 170 216 261 312 382
#     4  10  22  40  69  95 118 170 220 262 314 383
#     4  10  22  42  64  92 126 164 218 265 313 384
#     4  10  22  39  66  95 123 161 220 265 310 381
#     4  10  21  40  65  93 123 170 213 259 316 383
#
# _framework density 19.730125000000001
#
# number of rings (size 3 to 8) (size 9 to 14) (size 15 to 20)
#    0.000    1.429    2.857    3.429    2.000    7.429 
#    0.000    0.000    0.000    0.000    0.000    0.000 
#    0.000    0.000    0.000    0.000    0.000    0.000 
#
# Total GULP energy -156430.244231 kJ/mol
# GULP energy per Si atom -5586.794437 kJ/mol
# Density = 1.968522 g / cm^3
# Si number density = 19.730125 Si / 1000 Ang^3
#
#
#
# Elastic Constant Matrix: (Units=GPa)
#
#
# Indices 1 2 3 4 5 6 
#
# 1 55.0103 9.7262 46.8615 0.0000 20.8784 0.0000
# 2 9.7262 77.7133 46.8748 0.0000 -1.9681 0.0000
# 3 46.8615 46.8748 166.1254 0.0000 8.1858 0.0000
# 4 0.0000 0.0000 0.0000 -11.8938 0.0000 11.3906
# 5 20.8784 -1.9681 8.1858 0.0000 31.0516 0.0000
# 6 0.0000 0.0000 0.0000 11.3906 0.0000 3.0929
#
#
#
# Elastic Compliance Matrix: (Units=1/GPa)
#
#
# Indices 1 2 3 4 5 6 
#
# 1 0.032757 0.000464 -0.008396 0.000000 -0.019782 0.000000
# 2 0.000464 0.015659 -0.004643 0.000000 0.001905 0.000000
# 3 -0.008396 -0.004643 0.009559 0.000000 0.002831 0.000000
# 4 0.000000 0.000000 0.000000 -0.018572 0.000000 0.068399
# 5 -0.019782 0.001905 0.002831 0.000000 0.044880 0.000000
# 6 0.000000 0.000000 0.000000 0.068399 0.000000 0.071421
#
#
# Mechanical properties :
#
#
# Convention : Reuss Voigt Hill
#
# Bulk Modulus (GPa) = 30.46630 56.19712 43.33171
# Shear Modulus (GPa) = 26.06955 17.47591 21.77273
#
# Velocity S-wave (km/s) = 3.63892 2.97938 3.32554
# Velocity P-wave (km/s) = 5.75593 6.35455 6.06263
#
# Compressibility (1/GPa) = 0.03282316
#
# Stress axis : x y z
#
# Youngs Moduli (GPa) = 30.52771 63.86302 104.61767
#
# Poissons Ratio (x) = -0.02962 0.87841
# Poissons Ratio (y) = -0.01416 0.48574
# Poissons Ratio (z) = 0.25632 0.29651
#
# Static dielectric constant tensor:
#      x y z
#    x 1.699570 0.000000 0.019080 
#    y 0.000000 1.672180 0.000000 
#    z 0.019080 0.000000 1.727410 
# 
# From -- ./inp_files/6881.got.cif
#   From: 2010.05.17/outbox.cif.g08.bks.cpg/sg11_4_cif.got.tgz:6881.got - 2010.06.03 12:22:45.
