data_PCOD9165407
_publ_section_title
;
Structure prediction by ZEFSAII (Michael W. Deem and Ramdas Pophale) SiO2 
 PCOD9165407
Probable space group: P 21/M
;
_chemical_formula_sum "Si O2"
_cell_formula_units_Z 26
_cell_length_a 11.606709
_cell_length_b 15.035869
_cell_length_c 7.435691
_cell_angle_alpha 90.000000
_cell_angle_beta 86.485021
_cell_angle_gamma 90.000000
_cell_volume 1295.213018
_symmetry_space_group_name_H-M "P 21/M"
_symmetry_group_IT_number 11
_symmetry_cell_setting 'monoclinic'
loop_
_space_group_symop_operation_xyz
x,y,z
-x,1/2+y,-z
-x,-y,-z
x,1/2-y,z
loop_
_atom_site_type_symbol
_atom_site_label
_atom_site_fract_x
_atom_site_fract_y
_atom_site_fract_z
Si Si1 0.911326 0.750000 0.622917
Si Si2 0.717410 0.610186 0.161813
Si Si3 0.392532 0.968288 0.386576
Si Si4 0.697437 0.406908 0.242517
Si Si5 0.293105 0.347490 0.438004
Si Si6 0.521690 0.353855 0.961589
Si Si7 0.873910 0.250000 0.174458
Si Si8 0.896076 0.750000 0.032713
O O1 0.846537 0.833796 0.542363
O O2 0.860297 0.750000 0.828517
O O3 0.045689 0.750000 0.652204
O O4 0.733349 0.505327 0.177014
O O5 0.669147 0.642821 0.358943
O O6 0.616156 0.633122 0.032249
O O7 0.834574 0.663717 0.118069
O O8 0.322042 0.910649 0.540612
O O9 0.428146 0.914368 0.206164
O O10 0.500000 0.000000 0.500000
O O11 0.326169 0.059834 0.345679
O O12 0.793452 0.335588 0.182138
O O13 0.581514 0.383203 0.142078
O O14 0.338274 0.250000 0.370410
O O15 0.547530 0.250000 0.928985
O O16 0.965786 0.250000 0.000519
#
# Coordination Sequence:
#
# PCOD9165407 Si02
#       8
#     2   4   4   4   4   4   2   2
#     4   8  21  37  65  81 123 168 217 267 303 379
#     4  11  21  40  64  97 126 162 223 269 315 399
#     4  11  24  39  64 103 135 169 210 263 334 404
#     4  11  25  44  65  94 143 170 209 276 333 392
#     4   9  18  39  61  94 126 165 212 267 318 377
#     4  12  24  41  65 101 135 176 213 260 336 403
#     4  10  24  47  57  96 130 172 221 270 333 372
#     4  10  21  38  66  87 119 168 222 273 312 369
#
# _framework density 20.073917999999999
#
# number of rings (size 3 to 8) (size 9 to 14) (size 15 to 20)
#    0.923    0.615    5.385    0.462    3.231    0.615 
#    0.000    6.154    0.000    0.000    0.000    0.000 
#    0.000    0.000    0.000    0.000    0.000    0.000 
#
# Total GULP energy -144875.675704 kJ/mol
# GULP energy per Si atom -5572.141373 kJ/mol
# Density = 2.002823 g / cm^3
# Si number density = 20.073918 Si / 1000 Ang^3
#
#
#
# Elastic Constant Matrix: (Units=GPa)
#
#
# Indices 1 2 3 4 5 6 
#
# 1 65.2798 29.3790 2.7878 0.0000 -5.8521 0.0000
# 2 29.3790 147.1433 21.5100 0.0000 -11.3371 0.0000
# 3 2.7878 21.5100 77.2492 0.0000 -3.1079 0.0000
# 4 0.0000 0.0000 0.0000 17.5896 0.0000 -4.4323
# 5 -5.8521 -11.3371 -3.1079 0.0000 34.2175 0.0000
# 6 0.0000 0.0000 0.0000 -4.4323 0.0000 21.1606
#
#
#
# Elastic Compliance Matrix: (Units=1/GPa)
#
#
# Indices 1 2 3 4 5 6 
#
# 1 0.016952 -0.003298 0.000381 0.000000 0.001841 0.000000
# 2 -0.003298 0.007891 -0.002003 0.000000 0.001869 0.000000
# 3 0.000381 -0.002003 0.013514 0.000000 0.000629 0.000000
# 4 0.000000 0.000000 0.000000 0.060020 0.000000 0.012572
# 5 0.001841 0.001869 0.000629 0.000000 0.030216 0.000000
# 6 0.000000 0.000000 0.000000 0.012572 0.000000 0.049891
#
#
# Mechanical properties :
#
#
# Convention : Reuss Voigt Hill
#
# Bulk Modulus (GPa) = 35.06794 44.11401 39.59097
# Shear Modulus (GPa) = 25.27403 30.32656 27.80030
#
# Velocity S-wave (km/s) = 3.55216 3.89105 3.72546
# Velocity P-wave (km/s) = 5.85927 6.49696 6.18634
#
# Compressibility (1/GPa) = 0.02851608
#
# Stress axis : x y z
#
# Youngs Moduli (GPa) = 58.99033 126.71892 73.99476
#
# Poissons Ratio (x) = 0.41798 -0.02817
# Poissons Ratio (y) = 0.19458 0.14822
# Poissons Ratio (z) = -0.02246 0.25384
#
# Static dielectric constant tensor:
#      x y z
#    x 1.726090 0.000000 -0.010600 
#    y 0.000000 1.734700 0.000000 
#    z -0.010600 0.000000 1.757340 
# 
# From -- ./inp_files/17474.got.cif
#   From: 2010.05.17/outbox.cif.g08.bks.cpg/sg11_9_cif.got.tgz:17474.got - 2010.06.03 12:22:45.
