data_PCOD9165360
_publ_section_title
;
Structure prediction by ZEFSAII (Michael W. Deem and Ramdas Pophale) SiO2 
 PCOD9165360
Probable space group: P 21/M
;
_chemical_formula_sum "Si O2"
_cell_formula_units_Z 32
_cell_length_a 15.035572
_cell_length_b 19.247465
_cell_length_c 14.138663
_cell_angle_alpha 90.000000
_cell_angle_beta 159.925828
_cell_angle_gamma 90.000000
_cell_volume 1404.413798
_symmetry_space_group_name_H-M "P 21/M"
_symmetry_group_IT_number 11
_symmetry_cell_setting 'monoclinic'
loop_
_space_group_symop_operation_xyz
x,y,z
-x,1/2+y,-z
-x,-y,-z
x,1/2-y,z
loop_
_atom_site_type_symbol
_atom_site_label
_atom_site_fract_x
_atom_site_fract_y
_atom_site_fract_z
Si Si1 0.326851 0.982609 0.589809
Si Si2 0.252949 0.527668 0.304468
Si Si3 0.054997 0.169626 0.198471
Si Si4 0.285741 0.168801 0.821974
Si Si5 0.164198 0.109710 0.895489
Si Si6 0.960690 0.330331 0.889897
Si Si7 0.433248 0.874953 0.179743
Si Si8 0.213617 0.669043 0.764867
O O1 0.253403 0.002440 0.409361
O O2 0.064129 0.944940 0.360279
O O3 0.458875 0.053117 0.757042
O O4 0.561025 0.928046 0.821157
O O5 0.500000 0.500000 0.500000
O O6 0.258541 0.610989 0.318479
O O7 0.000000 0.500000 0.000000
O O8 0.970124 0.250000 0.127525
O O9 0.318347 0.158150 0.520205
O O10 0.105062 0.162180 0.135558
O O11 0.812169 0.122850 0.992764
O O12 0.321086 0.250000 0.834645
O O13 0.190749 0.161105 0.833850
O O14 0.067955 0.137513 0.535395
O O15 0.567142 0.136940 0.083818
O O16 0.100161 0.145894 0.932054
O O17 0.879665 0.250000 0.800350
O O18 0.316673 0.834861 0.973727
O O19 0.177707 0.750000 0.703712
#
# Coordination Sequence:
#
# PCOD9165360 Si02
#       8
#     4   4   4   4   4   4   4   4
#     4  11  24  39  60  88 121 166 213 248 301 378
#     4  11  21  39  61  85 121 169 213 256 304 367
#     4  11  23  38  61  92 125 160 201 250 312 373
#     4  10  21  40  65  91 118 155 202 255 316 375
#     4  11  23  43  62  88 125 162 205 262 310 362
#     4  10  23  41  64  96 128 165 214 265 315 372
#     4  12  23  42  62  89 127 165 200 254 306 364
#     4  10  21  38  63  91 117 152 202 252 310 375
#
# _framework density 22.785308000000001
#
# number of rings (size 3 to 8) (size 9 to 14) (size 15 to 20)
#    0.000    1.250    0.000    6.750    0.000    3.000 
#    0.000   16.250    0.000    0.000    0.000    0.000 
#    0.000    0.000    0.000    0.000    0.000    0.000 
#
# Total GULP energy -178690.346187 kJ/mol
# GULP energy per Si atom -5584.073318 kJ/mol
# Density = 2.273345 g / cm^3
# Si number density = 22.785308 Si / 1000 Ang^3
#
#
#
# Elastic Constant Matrix: (Units=GPa)
#
#
# Indices 1 2 3 4 5 6 
#
# 1 69.2349 -2.4316 12.5368 0.0000 -0.5588 0.0000
# 2 -2.4316 48.1478 18.9673 0.0000 1.6513 0.0000
# 3 12.5368 18.9673 127.5632 0.0000 4.6738 0.0000
# 4 0.0000 0.0000 0.0000 21.6161 0.0000 0.0857
# 5 -0.5588 1.6513 4.6738 0.0000 16.9580 0.0000
# 6 0.0000 0.0000 0.0000 0.0857 0.0000 21.3894
#
#
#
# Elastic Compliance Matrix: (Units=1/GPa)
#
#
# Indices 1 2 3 4 5 6 
#
# 1 0.014805 0.001386 -0.001691 0.000000 0.000819 0.000000
# 2 0.001386 0.022218 -0.003396 0.000000 -0.001182 0.000000
# 3 -0.001691 -0.003396 0.008587 0.000000 -0.002092 0.000000
# 4 0.000000 0.000000 0.000000 0.046263 0.000000 -0.000185
# 5 0.000819 -0.001182 -0.002092 0.000000 0.059688 0.000000
# 6 0.000000 0.000000 0.000000 -0.000185 0.000000 0.046753
#
#
# Mechanical properties :
#
#
# Convention : Reuss Voigt Hill
#
# Bulk Modulus (GPa) = 26.17352 33.67677 29.92514
# Shear Modulus (GPa) = 22.88830 26.38426 24.63628
#
# Velocity S-wave (km/s) = 3.17285 3.40656 3.29178
# Velocity P-wave (km/s) = 4.99346 5.50318 5.25450
#
# Compressibility (1/GPa) = 0.03820655
#
# Stress axis : x y z
#
# Youngs Moduli (GPa) = 67.54436 45.00881 116.45370
#
# Poissons Ratio (x) = -0.06237 0.19693
# Poissons Ratio (y) = -0.09360 0.39553
# Poissons Ratio (z) = 0.11422 0.15287
#
# Static dielectric constant tensor:
#      x y z
#    x 1.864790 0.000000 0.056110 
#    y 0.000000 1.925430 0.000000 
#    z 0.056110 0.000000 2.107710 
# 
# From -- ./inp_files/52711.got.cif
#   From: 2010.05.17/outbox.cif.g08.bks.cpg/sg11_27_cif.got.tgz:52711.got - 2010.06.03 12:22:45.
