data_PCOD9165402
_publ_section_title
;
Structure prediction by ZEFSAII (Michael W. Deem and Ramdas Pophale) SiO2 
 PCOD9165402
Probable space group: P 21/M
;
_chemical_formula_sum "Si O2"
_cell_formula_units_Z 32
_cell_length_a 14.577329
_cell_length_b 16.574949
_cell_length_c 11.088063
_cell_angle_alpha 90.000000
_cell_angle_beta 29.752691
_cell_angle_gamma 90.000000
_cell_volume 1329.513439
_symmetry_space_group_name_H-M "P 21/M"
_symmetry_group_IT_number 11
_symmetry_cell_setting 'monoclinic'
loop_
_space_group_symop_operation_xyz
x,y,z
-x,1/2+y,-z
-x,-y,-z
x,1/2-y,z
loop_
_atom_site_type_symbol
_atom_site_label
_atom_site_fract_x
_atom_site_fract_y
_atom_site_fract_z
Si Si1 0.529525 0.341109 0.426908
Si Si2 0.153133 0.844301 0.302272
Si Si3 0.276528 0.894897 0.560925
Si Si4 0.402806 0.344520 0.218504
Si Si5 0.401606 0.342710 0.953773
Si Si6 0.952393 0.894297 0.767448
Si Si7 0.131784 0.920958 0.075075
Si Si8 0.783132 0.919983 0.336500
O O1 0.536509 0.250000 0.371812
O O2 0.619389 0.344682 0.455667
O O3 0.323100 0.374886 0.649057
O O4 0.661442 0.398136 0.197140
O O5 0.108211 0.750000 0.372675
O O6 0.082834 0.873013 0.252367
O O7 0.069435 0.892664 0.509681
O O8 0.375277 0.852827 0.043176
O O9 0.429611 0.897790 0.280490
O O10 0.088898 0.862349 0.715567
O O11 0.237844 0.984467 0.654143
O O12 0.360138 0.250000 0.289019
O O13 0.318966 0.395096 0.422721
O O14 0.332201 0.366828 0.165720
O O15 0.468236 0.250000 0.887343
O O16 0.234558 0.347994 0.050625
O O17 0.897421 0.985182 0.865369
O O18 0.994562 0.897716 0.122355
#
# Coordination Sequence:
#
# PCOD9165402 Si02
#       8
#     4   4   4   4   4   4   4   4
#     4  12  26  45  69  94 127 170 220 273 323 379
#     4  11  21  39  66  97 137 174 209 262 326 385
#     4  11  26  45  66  94 131 173 216 270 322 384
#     4  10  21  38  65  98 132 171 214 261 322 386
#     4  11  23  40  65  96 133 174 217 265 319 387
#     4  11  24  42  66  97 135 174 212 262 326 391
#     4  11  25  43  66 100 131 170 217 269 321 384
#     4  11  24  43  68  96 129 170 214 270 327 384
#
# _framework density 24.068957000000001
#
# number of rings (size 3 to 8) (size 9 to 14) (size 15 to 20)
#    0.000    1.000    2.500    3.750    0.000    9.000 
#    0.000    0.000    0.000    0.000    0.000    0.000 
#    0.000    0.000    0.000    0.000    0.000    0.000 
#
# Total GULP energy -179280.964799 kJ/mol
# GULP energy per Si atom -5602.530150 kJ/mol
# Density = 2.401417 g / cm^3
# Si number density = 24.068957 Si / 1000 Ang^3
#
#
#
# Elastic Constant Matrix: (Units=GPa)
#
#
# Indices 1 2 3 4 5 6 
#
# 1 160.9140 31.5787 22.6721 0.0000 -23.5695 0.0000
# 2 31.5787 51.6024 12.8125 0.0000 -5.9309 0.0000
# 3 22.6721 12.8125 63.9086 0.0000 -5.5644 0.0000
# 4 0.0000 0.0000 0.0000 22.9512 0.0000 17.3864
# 5 -23.5695 -5.9309 -5.5644 0.0000 45.2465 0.0000
# 6 0.0000 0.0000 0.0000 17.3864 0.0000 15.7291
#
#
#
# Elastic Compliance Matrix: (Units=1/GPa)
#
#
# Indices 1 2 3 4 5 6 
#
# 1 0.007700 -0.003922 -0.001659 0.000000 0.003293 0.000000
# 2 -0.003922 0.022609 -0.003094 0.000000 0.000540 0.000000
# 3 -0.001659 -0.003094 0.016927 0.000000 0.000812 0.000000
# 4 0.000000 0.000000 0.000000 0.267880 0.000000 -0.296104
# 5 0.003293 0.000540 0.000812 0.000000 0.023987 0.000000
# 6 0.000000 0.000000 0.000000 -0.296104 0.000000 0.390879
#
#
# Mechanical properties :
#
#
# Convention : Reuss Voigt Hill
#
# Bulk Modulus (GPa) = 33.46004 45.61684 39.53844
# Shear Modulus (GPa) = 6.60245 30.74283 18.67264
#
# Velocity S-wave (km/s) = 1.65804 3.57778 2.78834
# Velocity P-wave (km/s) = 4.19492 6.00509 5.17969
#
# Compressibility (1/GPa) = 0.02988639
#
# Stress axis : x y z
#
# Youngs Moduli (GPa) = 129.86673 44.22942 59.07772
#
# Poissons Ratio (x) = 0.17346 0.09799
# Poissons Ratio (y) = 0.50932 0.18281
# Poissons Ratio (z) = 0.21541 0.13686
#
# Static dielectric constant tensor:
#      x y z
#    x 1.959030 0.000000 0.006010 
#    y 0.000000 1.834050 0.000000 
#    z 0.006010 0.000000 1.898810 
# 
# From -- ./inp_files/39962.got.cif
#   From: 2010.05.17/outbox.cif.g08.bks.cpg/sg11_20_cif.got.tgz:39962.got - 2010.06.03 12:22:45.
