data_PCOD9165431
_publ_section_title
;
Structure prediction by ZEFSAII (Michael W. Deem and Ramdas Pophale) SiO2 
 PCOD9165431
Probable space group: P 21/M
;
_chemical_formula_sum "Si O2"
_cell_formula_units_Z 32
_cell_length_a 20.425837
_cell_length_b 8.819075
_cell_length_c 12.099253
_cell_angle_alpha 90.000000
_cell_angle_beta 128.281196
_cell_angle_gamma 90.000000
_cell_volume 1710.881384
_symmetry_space_group_name_H-M "P 21/M"
_symmetry_group_IT_number 11
_symmetry_cell_setting 'monoclinic'
loop_
_space_group_symop_operation_xyz
x,y,z
-x,1/2+y,-z
-x,-y,-z
x,1/2-y,z
loop_
_atom_site_type_symbol
_atom_site_label
_atom_site_fract_x
_atom_site_fract_y
_atom_site_fract_z
Si Si1 0.546322 0.567287 0.383586
Si Si2 0.122235 0.070298 0.810580
Si Si3 0.813032 0.069826 0.903665
Si Si4 0.164494 0.427874 0.306576
Si Si5 0.793651 0.069735 0.298740
Si Si6 0.315697 0.067992 0.633982
Si Si7 0.055662 0.429553 0.402088
Si Si8 0.621221 0.067562 0.686036
O O1 0.551444 0.750000 0.392679
O O2 0.596105 0.520028 0.326085
O O3 0.449739 0.523669 0.299252
O O4 0.593742 0.503959 0.540859
O O5 0.120813 0.250000 0.798858
O O6 0.195051 0.001132 0.810280
O O7 0.034523 0.001397 0.678427
O O8 0.136066 0.018046 0.950328
O O9 0.821443 0.250000 0.929707
O O10 0.715443 0.025692 0.812697
O O11 0.839183 0.026061 0.807082
O O12 0.170277 0.250000 0.282426
O O13 0.246105 0.464197 0.466278
O O14 0.086962 0.447621 0.308321
O O15 0.794548 0.250000 0.293560
O O16 0.714789 0.012444 0.286898
O O17 0.874070 0.009347 0.450760
O O18 0.314137 0.250000 0.649751
O O19 0.054678 0.250000 0.426072
O O20 0.618889 0.250000 0.671827
#
# Coordination Sequence:
#
# PCOD9165431 Si02
#       8
#     4   4   4   4   4   4   4   4
#     4   9  16  29  51  78 110 143 176 214 260 310
#     4  12  25  40  57  76 101 139 184 222 265 319
#     4  11  22  35  52  76 111 146 179 219 263 316
#     4   9  18  33  53  78 107 142 176 211 259 316
#     4  11  22  37  58  82 108 136 173 222 270 313
#     4   9  17  31  53  80 110 142 177 218 263 312
#     4  10  21  39  60  82 108 136 173 221 267 313
#     4   9  18  30  48  78 111 143 176 216 261 309
#
# _framework density 18.703810000000001
#
# number of rings (size 3 to 8) (size 9 to 14) (size 15 to 20)
#    0.000    2.000    1.250    4.125    0.000    4.000 
#    0.000    0.000    0.000    0.750    0.000    0.000 
#    0.000    0.000    0.000    0.000    0.000    0.000 
#
# Total GULP energy -178651.426473 kJ/mol
# GULP energy per Si atom -5582.857077 kJ/mol
# Density = 1.866124 g / cm^3
# Si number density = 18.703810 Si / 1000 Ang^3
#
#
#
# Elastic Constant Matrix: (Units=GPa)
#
#
# Indices 1 2 3 4 5 6 
#
# 1 94.3003 32.8998 -4.1872 0.0000 -8.9171 0.0000
# 2 32.8998 64.6485 6.0411 0.0000 -8.4489 0.0000
# 3 -4.1872 6.0411 12.5623 0.0000 -7.1221 0.0000
# 4 0.0000 0.0000 0.0000 20.2151 0.0000 -5.6100
# 5 -8.9171 -8.4489 -7.1221 0.0000 19.6679 0.0000
# 6 0.0000 0.0000 0.0000 -5.6100 0.0000 30.1322
#
#
#
# Elastic Compliance Matrix: (Units=1/GPa)
#
#
# Indices 1 2 3 4 5 6 
#
# 1 0.014605 -0.007599 0.013119 0.000000 0.008108 0.000000
# 2 -0.007599 0.020585 -0.011793 0.000000 0.001127 0.000000
# 3 0.013119 -0.011793 0.113435 0.000000 0.041959 0.000000
# 4 0.000000 0.000000 0.000000 0.052163 0.000000 0.009712
# 5 0.008108 0.001127 0.041959 0.000000 0.070198 0.000000
# 6 0.000000 0.000000 0.000000 0.009712 0.000000 0.034995
#
#
# Mechanical properties :
#
#
# Convention : Reuss Voigt Hill
#
# Bulk Modulus (GPa) = 7.34864 26.77980 17.06422
# Shear Modulus (GPa) = 13.74058 23.12019 18.43039
#
# Velocity S-wave (km/s) = 2.71337 3.51967 3.14248
# Velocity P-wave (km/s) = 3.70863 5.55575 4.72336
#
# Compressibility (1/GPa) = 0.13607951
#
# Stress axis : x y z
#
# Youngs Moduli (GPa) = 68.47134 48.58024 8.81561
#
# Poissons Ratio (x) = 0.36914 -0.11565
# Poissons Ratio (y) = 0.52029 0.10396
# Poissons Ratio (z) = -0.89826 0.57288
#
# Static dielectric constant tensor:
#      x y z
#    x 1.690450 0.000000 0.000610 
#    y 0.000000 1.605580 0.000000 
#    z 0.000610 0.000000 1.621570 
# 
# From -- ./inp_files/42955.got.cif
#   From: 2010.05.17/outbox.cif.g08.bks.cpg/sg11_22_cif.got.tgz:42955.got - 2010.06.03 12:22:45.
