data_PCOD9165657
_publ_section_title
;
Structure prediction by ZEFSAII (Michael W. Deem and Ramdas Pophale) SiO2 
 PCOD9165657
Probable space group: P 21/M
;
_chemical_formula_sum "Si O2"
_cell_formula_units_Z 32
_cell_length_a 8.550874
_cell_length_b 14.796178
_cell_length_c 21.991250
_cell_angle_alpha 90.000000
_cell_angle_beta 31.169904
_cell_angle_gamma 90.000000
_cell_volume 1440.076202
_symmetry_space_group_name_H-M "P 21/M"
_symmetry_group_IT_number 11
_symmetry_cell_setting 'monoclinic'
loop_
_space_group_symop_operation_xyz
x,y,z
-x,1/2+y,-z
-x,-y,-z
x,1/2-y,z
loop_
_atom_site_type_symbol
_atom_site_label
_atom_site_fract_x
_atom_site_fract_y
_atom_site_fract_z
Si Si1 0.913587 0.149518 0.567101
Si Si2 0.920677 0.351479 0.877001
Si Si3 0.700256 0.485610 0.741735
Si Si4 0.402925 0.595208 0.656634
Si Si5 0.876654 0.153021 0.368330
Si Si6 0.500291 0.356093 0.908442
Si Si7 0.902060 0.465708 0.117325
Si Si8 0.477027 0.389848 0.603996
O O1 0.830708 0.250000 0.616868
O O2 0.787449 0.071978 0.653170
O O3 0.759682 0.135288 0.553063
O O4 0.272103 0.140224 0.443786
O O5 0.921329 0.250000 0.903540
O O6 0.617687 0.366215 0.938578
O O7 0.978269 0.434299 0.903264
O O8 0.187243 0.354669 0.737273
O O9 0.708267 0.416524 0.795299
O O10 0.361297 0.521936 0.844131
O O11 0.921083 0.569040 0.678957
O O12 0.191300 0.647282 0.680319
O O13 0.252773 0.575527 0.770956
O O14 0.452662 0.497325 0.609546
O O15 0.016726 0.250000 0.336962
O O16 0.558451 0.146186 0.510606
O O17 0.512530 0.250000 0.889224
O O18 0.170064 0.398558 0.011330
#
# Coordination Sequence:
#
# PCOD9165657 Si02
#       8
#     4   4   4   4   4   4   4   4
#     4  12  23  38  66 101 134 171 217 268 332 404
#     4  10  21  39  66  98 131 171 221 271 327 388
#     4  12  24  44  68  95 135 173 221 273 336 391
#     4  11  23  42  64  96 133 177 218 272 331 394
#     4  12  26  41  64  99 138 178 222 269 333 404
#     4  11  26  45  67  96 128 173 224 279 332 388
#     4  11  24  44  71  92 131 174 224 269 333 389
#     4  11  21  40  63  95 136 176 212 267 333 395
#
# _framework density 22.221048
#
# number of rings (size 3 to 8) (size 9 to 14) (size 15 to 20)
#    0.000    0.750    3.750    5.625    1.750    2.000 
#    0.000    1.875    0.000    0.000    0.000    0.000 
#    0.000    0.000    0.000    0.000    0.000    0.000 
#
# Total GULP energy -179126.050043 kJ/mol
# GULP energy per Si atom -5597.689064 kJ/mol
# Density = 2.217047 g / cm^3
# Si number density = 22.221048 Si / 1000 Ang^3
#
#
#
# Elastic Constant Matrix: (Units=GPa)
#
#
# Indices 1 2 3 4 5 6 
#
# 1 46.9610 7.8123 4.2258 0.0000 -1.8293 0.0000
# 2 7.8123 139.2768 26.1751 0.0000 -4.1703 0.0000
# 3 4.2258 26.1751 38.1666 0.0000 -10.9225 0.0000
# 4 0.0000 0.0000 0.0000 24.8124 0.0000 32.0406
# 5 -1.8293 -4.1703 -10.9225 0.0000 16.5359 0.0000
# 6 0.0000 0.0000 0.0000 32.0406 0.0000 79.1534
#
#
#
# Elastic Compliance Matrix: (Units=1/GPa)
#
#
# Indices 1 2 3 4 5 6 
#
# 1 0.021621 -0.000909 -0.001420 0.000000 0.001225 0.000000
# 2 -0.000909 0.008337 -0.006220 0.000000 -0.002106 0.000000
# 3 -0.001420 -0.006220 0.037153 0.000000 0.022815 0.000000
# 4 0.000000 0.000000 0.000000 0.084441 0.000000 -0.034181
# 5 0.001225 -0.002106 0.022815 0.000000 0.075149 0.000000
# 6 0.000000 0.000000 0.000000 -0.034181 0.000000 0.026470
#
#
# Mechanical properties :
#
#
# Convention : Reuss Voigt Hill
#
# Bulk Modulus (GPa) = 19.99470 33.42565 26.71018
# Shear Modulus (GPa) = 17.42534 36.51308 26.96921
#
# Velocity S-wave (km/s) = 2.80336 4.05801 3.48757
# Velocity P-wave (km/s) = 4.41544 6.08536 5.31637
#
# Compressibility (1/GPa) = 0.05001325
#
# Stress axis : x y z
#
# Youngs Moduli (GPa) = 46.25136 119.95065 26.91586
#
# Poissons Ratio (x) = 0.10907 0.03822
# Poissons Ratio (y) = 0.04205 0.16740
# Poissons Ratio (z) = 0.06567 0.74604
#
# Static dielectric constant tensor:
#      x y z
#    x 1.790600 0.000000 0.003840 
#    y 0.000000 1.812900 0.000000 
#    z 0.003840 0.000000 1.821160 
# 
# From -- ./inp_files/68131.got.cif
#   From: 2010.05.17/outbox.cif.g08.bks.cpg/sg11_35_cif.got.tgz:68131.got - 2010.06.03 12:22:45.
