data_PCOD9165473
_publ_section_title
;
Structure prediction by ZEFSAII (Michael W. Deem and Ramdas Pophale) SiO2 
 PCOD9165473
Probable space group: P 21/M
;
_chemical_formula_sum "Si O2"
_cell_formula_units_Z 28
_cell_length_a 12.766416
_cell_length_b 7.641007
_cell_length_c 17.075896
_cell_angle_alpha 90.000000
_cell_angle_beta 133.909657
_cell_angle_gamma 90.000000
_cell_volume 1200.044720
_symmetry_space_group_name_H-M "P 21/M"
_symmetry_group_IT_number 11
_symmetry_cell_setting 'monoclinic'
loop_
_space_group_symop_operation_xyz
x,y,z
-x,1/2+y,-z
-x,-y,-z
x,1/2-y,z
loop_
_atom_site_type_symbol
_atom_site_label
_atom_site_fract_x
_atom_site_fract_y
_atom_site_fract_z
Si Si1 0.610031 0.454714 0.756208
Si Si2 0.841253 0.042098 0.450452
Si Si3 0.630152 0.951577 0.944901
Si Si4 0.647972 0.952159 0.484853
Si Si5 0.800364 0.536619 0.715324
Si Si6 0.890989 0.049041 0.184109
Si Si7 0.310485 0.964797 0.784158
O O1 0.580716 0.250000 0.755803
O O2 0.628642 0.540608 0.850025
O O3 0.478392 0.531318 0.634846
O O4 0.750367 0.473813 0.773975
O O5 0.829423 0.250000 0.453356
O O6 0.730437 0.982793 0.324980
O O7 0.794125 0.960210 0.508034
O O8 0.000000 0.000000 0.500000
O O9 0.641127 0.750000 0.975412
O O10 0.472687 0.022891 0.889347
O O11 0.766890 0.045971 0.053542
O O12 0.608014 0.750000 0.476012
O O13 0.685922 0.025425 0.589569
O O14 0.799578 0.750000 0.716044
O O15 0.959281 0.473763 0.770831
O O16 0.924630 0.250000 0.222253
O O17 0.812751 0.971631 0.220070
O O18 0.311909 0.750000 0.786619
#
# Coordination Sequence:
#
# PCOD9165473 Si02
#       7
#     4   4   4   4   4   4   4
#     4  11  23  39  62  90 120 153 200 251 294 351
#     4  11  21  35  57  87 123 161 197 238 291 353
#     4  11  22  39  62  88 118 155 199 243 296 357
#     4  10  21  39  61  88 119 155 197 244 297 355
#     4  10  22  40  62  86 120 160 197 242 301 360
#     4  10  21  39  61  86 117 155 197 244 296 349
#     4   9  19  37  60  85 117 155 194 238 294 355
#
# _framework density 23.332464000000002
#
# number of rings (size 3 to 8) (size 9 to 14) (size 15 to 20)
#    0.000    1.714    1.429    3.000    0.000    4.571 
#    0.000    3.571    0.000    0.000    0.000    0.000 
#    0.000    0.000    0.000    0.000    0.000    0.000 
#
# Total GULP energy -156603.576864 kJ/mol
# GULP energy per Si atom -5592.984888 kJ/mol
# Density = 2.327936 g / cm^3
# Si number density = 23.332464 Si / 1000 Ang^3
#
#
#
# Elastic Constant Matrix: (Units=GPa)
#
#
# Indices 1 2 3 4 5 6 
#
# 1 113.1296 -5.7107 -1.0745 0.0000 -6.7170 0.0000
# 2 -5.7107 63.8097 -4.3000 0.0000 4.1773 0.0000
# 3 -1.0745 -4.3000 43.8400 0.0000 0.4593 0.0000
# 4 0.0000 0.0000 0.0000 7.0772 0.0000 0.9119
# 5 -6.7170 4.1773 0.4593 0.0000 35.2997 0.0000
# 6 0.0000 0.0000 0.0000 0.9119 0.0000 14.8904
#
#
#
# Elastic Compliance Matrix: (Units=1/GPa)
#
#
# Indices 1 2 3 4 5 6 
#
# 1 0.008974 0.000716 0.000273 0.000000 0.001619 0.000000
# 2 0.000716 0.015960 0.001602 0.000000 -0.001773 0.000000
# 3 0.000273 0.001602 0.022979 0.000000 -0.000437 0.000000
# 4 0.000000 0.000000 0.000000 0.142423 0.000000 -0.008722
# 5 0.001619 -0.001773 -0.000437 0.000000 0.028853 0.000000
# 6 0.000000 0.000000 0.000000 -0.008722 0.000000 0.067691
#
#
# Mechanical properties :
#
#
# Convention : Reuss Voigt Hill
#
# Bulk Modulus (GPa) = 18.83489 22.06766 20.45127
# Shear Modulus (GPa) = 16.70024 26.91111 21.80567
#
# Velocity S-wave (km/s) = 2.67825 3.39982 3.06038
# Velocity P-wave (km/s) = 4.20166 4.98901 4.61217
#
# Compressibility (1/GPa) = 0.05309297
#
# Stress axis : x y z
#
# Youngs Moduli (GPa) = 111.42947 62.65806 43.51882
#
# Poissons Ratio (x) = -0.04484 -0.01189
# Poissons Ratio (y) = -0.07973 -0.06970
# Poissons Ratio (z) = -0.03044 -0.10035
#
# Static dielectric constant tensor:
#      x y z
#    x 1.887120 0.000000 0.026570 
#    y 0.000000 1.899890 0.000000 
#    z 0.026570 0.000000 1.862600 
# 
# From -- ./inp_files/49456.got.cif
#   From: 2010.05.17/outbox.cif.g08.bks.cpg/sg11_25_cif.got.tgz:49456.got - 2010.06.03 12:22:45.
