data_PCOD9165075
_publ_section_title
;
Structure prediction by ZEFSAII (Michael W. Deem and Ramdas Pophale) SiO2 
 PCOD9165075
Probable space group: P 21/M
;
_chemical_formula_sum "Si O2"
_cell_formula_units_Z 16
_cell_length_a 8.519539
_cell_length_b 17.777931
_cell_length_c 5.163082
_cell_angle_alpha 90.000000
_cell_angle_beta 63.469033
_cell_angle_gamma 90.000000
_cell_volume 699.649307
_symmetry_space_group_name_H-M "P 21/M"
_symmetry_group_IT_number 11
_symmetry_cell_setting 'monoclinic'
loop_
_space_group_symop_operation_xyz
x,y,z
-x,1/2+y,-z
-x,-y,-z
x,1/2-y,z
loop_
_atom_site_type_symbol
_atom_site_label
_atom_site_fract_x
_atom_site_fract_y
_atom_site_fract_z
Si Si1 0.955265 0.750000 0.231819
Si Si2 0.702346 0.667922 0.746557
Si Si3 0.392567 0.615621 0.656929
Si Si4 0.188545 0.750000 0.560448
Si Si5 0.649840 0.970459 0.086903
O O1 0.110863 0.750000 0.330661
O O2 0.830133 0.680644 0.406772
O O3 0.035893 0.750000 0.891041
O O4 0.707427 0.750000 0.879568
O O5 0.502425 0.656726 0.800851
O O6 0.758006 0.593992 0.861134
O O7 0.298067 0.675618 0.547453
O O8 0.272292 0.547875 0.856613
O O9 0.544537 0.573722 0.385172
O O10 0.500000 0.000000 0.000000
#
# Coordination Sequence:
#
# PCOD9165075 Si02
#       5
#     2   4   4   2   4
#     4  10  27  39  60  94 136 165 210 251 315 379
#     4   9  20  38  64  88 120 170 211 250 309 378
#     4  10  21  37  67  90 122 159 218 262 308 362
#     4  12  25  41  62  98 128 167 208 263 309 367
#     4   9  20  37  63  94 118 154 217 267 306 360
#
# _framework density 22.868597999999999
#
# number of rings (size 3 to 8) (size 9 to 14) (size 15 to 20)
#    0.750    1.500    1.250    0.000   12.250    0.000 
#    0.000    2.500    0.000    0.000    0.000    0.000 
#    0.000    0.000    0.000    0.000    0.000    0.000 
#
# Total GULP energy -89213.950341 kJ/mol
# GULP energy per Si atom -5575.871896 kJ/mol
# Density = 2.281655 g / cm^3
# Si number density = 22.868598 Si / 1000 Ang^3
#
#
#
# Elastic Constant Matrix: (Units=GPa)
#
#
# Indices 1 2 3 4 5 6 
#
# 1 73.2807 42.3766 -3.6654 0.0000 12.0226 0.0000
# 2 42.3766 134.7778 0.8705 0.0000 5.4581 0.0000
# 3 -3.6654 0.8705 36.1392 0.0000 1.5136 0.0000
# 4 0.0000 0.0000 0.0000 31.4025 0.0000 1.1779
# 5 12.0226 5.4581 1.5136 0.0000 23.7348 0.0000
# 6 0.0000 0.0000 0.0000 1.1779 0.0000 1.4236
#
#
#
# Elastic Compliance Matrix: (Units=1/GPa)
#
#
# Indices 1 2 3 4 5 6 
#
# 1 0.018230 -0.005417 0.002320 0.000000 -0.008136 0.000000
# 2 -0.005417 0.009100 -0.000798 0.000000 0.000702 0.000000
# 3 0.002320 -0.000798 0.028042 0.000000 -0.002780 0.000000
# 4 0.000000 0.000000 0.000000 0.032865 0.000000 -0.027194
# 5 -0.008136 0.000702 -0.002780 0.000000 0.046269 0.000000
# 6 0.000000 0.000000 0.000000 -0.027194 0.000000 0.724958
#
#
# Mechanical properties :
#
#
# Convention : Reuss Voigt Hill
#
# Bulk Modulus (GPa) = 21.01685 35.92904 28.47294
# Shear Modulus (GPa) = 5.66179 24.95324 15.30751
#
# Velocity S-wave (km/s) = 1.57517 3.30685 2.59002
# Velocity P-wave (km/s) = 3.53814 5.50686 4.62839
#
# Compressibility (1/GPa) = 0.04758087
#
# Stress axis : x y z
#
# Youngs Moduli (GPa) = 54.85547 109.89472 35.66109
#
# Poissons Ratio (x) = 0.59533 -0.08274
# Poissons Ratio (y) = 0.29717 0.02846
# Poissons Ratio (z) = -0.12728 0.08770
#
# Static dielectric constant tensor:
#      x y z
#    x 1.888000 0.000000 0.052800 
#    y 0.000000 1.933300 0.000000 
#    z 0.052800 0.000000 1.934520 
# 
# From -- ./inp_files/1583.got.cif
#   From: 2010.05.17/outbox.cif.g08.bks.cpg/sg11_1_cif.got.tgz:1583.got - 2010.06.03 12:22:45.
