data_PCOD9165631
_publ_section_title
;
Structure prediction by ZEFSAII (Michael W. Deem and Ramdas Pophale) SiO2 
 PCOD9165631
Probable space group: P 21/M
;
_chemical_formula_sum "Si O2"
_cell_formula_units_Z 32
_cell_length_a 7.136793
_cell_length_b 15.067176
_cell_length_c 15.365270
_cell_angle_alpha 90.000000
_cell_angle_beta 90.419965
_cell_angle_gamma 90.000000
_cell_volume 1652.203323
_symmetry_space_group_name_H-M "P 21/M"
_symmetry_group_IT_number 11
_symmetry_cell_setting 'monoclinic'
loop_
_space_group_symop_operation_xyz
x,y,z
-x,1/2+y,-z
-x,-y,-z
x,1/2-y,z
loop_
_atom_site_type_symbol
_atom_site_label
_atom_site_fract_x
_atom_site_fract_y
_atom_site_fract_z
Si Si1 0.000565 0.146426 0.042473
Si Si2 0.462622 0.851391 0.537759
Si Si3 0.654194 0.498559 0.234968
Si Si4 0.045840 0.648896 0.749110
Si Si5 0.288127 0.008560 0.967611
Si Si6 0.095264 0.916369 0.453020
Si Si7 0.296980 0.038917 0.324900
Si Si8 0.727858 0.847706 0.372470
O O1 0.991149 0.250000 0.013834
O O2 0.997720 0.147861 0.147623
O O3 0.827527 0.082529 0.013731
O O4 0.181186 0.092057 0.009841
O O5 0.481884 0.750000 0.567966
O O6 0.247622 0.874384 0.517576
O O7 0.565598 0.917115 0.603683
O O8 0.572319 0.859938 0.446552
O O9 0.770513 0.411090 0.262321
O O10 0.709143 0.519822 0.136655
O O11 0.432247 0.482947 0.244962
O O12 0.710452 0.576379 0.300976
O O13 0.075073 0.750000 0.721309
O O14 0.870245 0.604778 0.700341
O O15 0.500000 0.000000 0.000000
O O16 0.927390 0.854749 0.421216
O O17 0.203707 0.953557 0.368971
O O18 0.000000 0.000000 0.500000
O O19 0.704417 0.750000 0.333638
#
# Coordination Sequence:
#
# PCOD9165631 Si02
#       8
#     4   4   4   4   4   4   4   4
#     4   9  20  40  63  90 125 158 196 246 300 362
#     4  11  24  39  57  85 119 157 203 250 296 356
#     4  11  23  40  62  88 123 157 197 248 302 360
#     4  10  22  39  61  90 122 157 197 245 301 360
#     4  10  21  39  65  93 121 159 201 244 302 368
#     4  12  22  39  60  81 112 160 205 248 301 348
#     4  12  22  37  60  86 120 156 199 248 306 351
#     4  11  23  41  60  84 117 161 205 248 300 356
#
# _framework density 19.368077
#
# number of rings (size 3 to 8) (size 9 to 14) (size 15 to 20)
#    0.000    1.250    3.750    2.625    0.000    2.000 
#    0.000    2.500    0.000    0.000    0.000    0.000 
#    0.000    0.000    0.000    0.000    0.000    0.000 
#
# Total GULP energy -178870.882726 kJ/mol
# GULP energy per Si atom -5589.715085 kJ/mol
# Density = 1.932399 g / cm^3
# Si number density = 19.368077 Si / 1000 Ang^3
#
#
#
# Elastic Constant Matrix: (Units=GPa)
#
#
# Indices 1 2 3 4 5 6 
#
# 1 105.5007 20.4501 7.4863 0.0000 -2.4886 0.0000
# 2 20.4501 97.7598 16.1050 0.0000 -8.4752 0.0000
# 3 7.4863 16.1050 26.6383 0.0000 -6.9991 0.0000
# 4 0.0000 0.0000 0.0000 28.5573 0.0000 -1.9401
# 5 -2.4886 -8.4752 -6.9991 0.0000 36.1227 0.0000
# 6 0.0000 0.0000 0.0000 -1.9401 0.0000 17.2235
#
#
#
# Elastic Compliance Matrix: (Units=1/GPa)
#
#
# Indices 1 2 3 4 5 6 
#
# 1 0.009949 -0.001803 -0.001725 0.000000 -0.000072 0.000000
# 2 -0.001803 0.011756 -0.006225 0.000000 0.001428 0.000000
# 3 -0.001725 -0.006225 0.043593 0.000000 0.006867 0.000000
# 4 0.000000 0.000000 0.000000 0.035287 0.000000 0.003975
# 5 -0.000072 0.001428 0.006867 0.000000 0.029344 0.000000
# 6 0.000000 0.000000 0.000000 0.003975 0.000000 0.058508
#
#
# Mechanical properties :
#
#
# Convention : Reuss Voigt Hill
#
# Bulk Modulus (GPa) = 21.83853 35.33129 28.58491
# Shear Modulus (GPa) = 22.40078 28.77120 25.58599
#
# Velocity S-wave (km/s) = 3.40455 3.85839 3.63855
# Velocity P-wave (km/s) = 5.17248 6.17505 5.69587
#
# Compressibility (1/GPa) = 0.04579064
#
# Stress axis : x y z
#
# Youngs Moduli (GPa) = 100.51424 85.06491 22.93965
#
# Poissons Ratio (x) = 0.15340 0.03956
# Poissons Ratio (y) = 0.18126 0.14281
# Poissons Ratio (z) = 0.17335 0.52956
#
# Static dielectric constant tensor:
#      x y z
#    x 1.670030 0.000000 -0.021430 
#    y 0.000000 1.617960 0.000000 
#    z -0.021430 0.000000 1.670880 
# 
# From -- ./inp_files/57056.got.cif
#   From: 2010.05.17/outbox.cif.g08.bks.cpg/sg11_29_cif.got.tgz:57056.got - 2010.06.03 12:22:45.
