data_PCOD9165270
_publ_section_title
;
Structure prediction by ZEFSAII (Michael W. Deem and Ramdas Pophale) SiO2 
 PCOD9165270
Probable space group: P 21/M
;
_chemical_formula_sum "Si O2"
_cell_formula_units_Z 20
_cell_length_a 8.432611
_cell_length_b 20.559708
_cell_length_c 8.921774
_cell_angle_alpha 90.000000
_cell_angle_beta 35.178341
_cell_angle_gamma 90.000000
_cell_volume 891.139562
_symmetry_space_group_name_H-M "P 21/M"
_symmetry_group_IT_number 11
_symmetry_cell_setting 'monoclinic'
loop_
_space_group_symop_operation_xyz
x,y,z
-x,1/2+y,-z
-x,-y,-z
x,1/2-y,z
loop_
_atom_site_type_symbol
_atom_site_label
_atom_site_fract_x
_atom_site_fract_y
_atom_site_fract_z
Si Si1 0.352873 0.319624 0.751538
Si Si2 0.282769 0.822981 0.822657
Si Si3 0.856746 0.037534 0.969857
Si Si4 0.959568 0.571948 0.468066
Si Si5 0.416815 0.085583 0.971763
O O1 0.407969 0.250000 0.782917
O O2 0.580587 0.327845 0.447419
O O3 0.341438 0.373248 0.885727
O O4 0.047524 0.317727 0.919879
O O5 0.380673 0.750000 0.804569
O O6 0.311492 0.896959 0.861538
O O7 0.089857 0.061188 0.670452
O O8 0.659359 0.987616 0.029082
O O9 0.000000 0.000000 0.000000
O O10 0.000000 0.500000 0.500000
O O11 0.759315 0.603153 0.744901
O O12 0.265341 0.600915 0.243001
#
# Coordination Sequence:
#
# PCOD9165270 Si02
#       5
#     4   4   4   4   4
#     4  10  21  38  61  88 120 161 202 245 298 360
#     4  10  22  39  58  89 125 152 195 256 304 348
#     4  11  22  39  64  94 116 160 208 242 300 364
#     4  10  23  40  57  88 129 156 188 258 304 346
#     4  11  22  41  61  87 125 158 199 250 301 352
#
# _framework density 22.443173999999999
#
# number of rings (size 3 to 8) (size 9 to 14) (size 15 to 20)
#    0.000    1.600    2.000    3.600    2.800    5.600 
#    0.000    2.000    0.000    0.000    0.000    1.400 
#    0.000    0.000    0.000    0.000    0.000    0.000 
#
# Total GULP energy -111369.306573 kJ/mol
# GULP energy per Si atom -5568.465329 kJ/mol
# Density = 2.239209 g / cm^3
# Si number density = 22.443174 Si / 1000 Ang^3
#
#
#
# Elastic Constant Matrix: (Units=GPa)
#
#
# Indices 1 2 3 4 5 6 
#
# 1 73.1973 22.1291 25.6297 0.0000 9.1993 0.0000
# 2 22.1291 145.2790 49.6961 0.0000 23.6549 0.0000
# 3 25.6297 49.6961 160.7152 0.0000 15.6059 0.0000
# 4 0.0000 0.0000 0.0000 17.9879 0.0000 -11.5935
# 5 9.1993 23.6549 15.6059 0.0000 29.4734 0.0000
# 6 0.0000 0.0000 0.0000 -11.5935 0.0000 -10.9491
#
#
#
# Elastic Compliance Matrix: (Units=1/GPa)
#
#
# Indices 1 2 3 4 5 6 
#
# 1 0.014993 -0.001239 -0.001740 0.000000 -0.002764 0.000000
# 2 -0.001239 0.008632 -0.001936 0.000000 -0.005517 0.000000
# 3 -0.001740 -0.001936 0.007268 0.000000 -0.001752 0.000000
# 4 0.000000 0.000000 0.000000 0.033043 0.000000 -0.034987
# 5 -0.002764 -0.005517 -0.001752 0.000000 0.040147 0.000000
# 6 0.000000 0.000000 0.000000 -0.034987 0.000000 -0.054285
#
#
# Mechanical properties :
#
#
# Convention : Reuss Voigt Hill
#
# Bulk Modulus (GPa) = 47.47175 63.78903 55.63039
# Shear Modulus (GPa) = 75.02068 26.08488 50.55278
#
# Velocity S-wave (km/s) = 5.78788 3.41290 4.75118
# Velocity P-wave (km/s) = 8.11566 6.63435 7.41210
#
# Compressibility (1/GPa) = 0.02106516
#
# Stress axis : x y z
#
# Youngs Moduli (GPa) = 66.69927 115.84139 137.58240
#
# Poissons Ratio (x) = 0.14347 0.23933
# Poissons Ratio (y) = 0.08261 0.26638
# Poissons Ratio (z) = 0.11602 0.22428
#
# Static dielectric constant tensor:
#      x y z
#    x 1.902580 0.000000 -0.035540 
#    y 0.000000 -32.861910 0.000000 
#    z -0.035540 0.000000 1.860980 
# 
# From -- ./inp_files/13902.got.cif
#   From: 2010.05.17/outbox.cif.g08.bks.cpg/sg11_7_cif.got.tgz:13902.got - 2010.06.03 12:22:45.
