data_PCOD9165203
_publ_section_title
;
Structure prediction by ZEFSAII (Michael W. Deem and Ramdas Pophale) SiO2 
 PCOD9165203
Probable space group: P 21/M
;
_chemical_formula_sum "Si O2"
_cell_formula_units_Z 20
_cell_length_a 8.458926
_cell_length_b 8.530166
_cell_length_c 12.362698
_cell_angle_alpha 90.000000
_cell_angle_beta 96.607092
_cell_angle_gamma 90.000000
_cell_volume 886.118890
_symmetry_space_group_name_H-M "P 21/M"
_symmetry_group_IT_number 11
_symmetry_cell_setting 'monoclinic'
loop_
_space_group_symop_operation_xyz
x,y,z
-x,1/2+y,-z
-x,-y,-z
x,1/2-y,z
loop_
_atom_site_type_symbol
_atom_site_label
_atom_site_fract_x
_atom_site_fract_y
_atom_site_fract_z
Si Si1 0.615859 0.433510 0.667440
Si Si2 0.875790 0.935521 0.262657
Si Si3 0.670844 0.560805 0.049460
Si Si4 0.714223 0.065539 0.441478
Si Si5 0.836376 0.933406 0.850742
O O1 0.629270 0.250000 0.697221
O O2 0.437531 0.470274 0.615278
O O3 0.724485 0.466881 0.570034
O O4 0.674538 0.538210 0.770546
O O5 0.866612 0.750000 0.280028
O O6 0.730502 0.987140 0.172488
O O7 0.859507 0.020543 0.375881
O O8 0.031184 0.973949 0.205243
O O9 0.667171 0.750000 0.047693
O O10 0.500000 0.500000 0.000000
O O11 0.799823 0.510639 0.969200
O O12 0.680004 0.250000 0.429447
O O13 0.877413 0.750000 0.855760
#
# Coordination Sequence:
#
# PCOD9165203 Si02
#       5
#     4   4   4   4   4
#     4  10  21  38  60  86 116 151 192 237 284 336
#     4  11  23  39  59  85 117 152 191 235 286 340
#     4  10  23  40  60  86 114 148 189 234 283 338
#     4  10  21  38  60  86 116 151 192 237 284 336
#     4  11  23  39  59  85 117 152 191 235 286 340
#
# _framework density 22.570333000000002
#
# number of rings (size 3 to 8) (size 9 to 14) (size 15 to 20)
#    0.000    1.600    0.000    4.200    0.000    9.600 
#    0.000    0.000    0.000    0.000    0.000    0.000 
#    0.000    0.000    0.000    0.000    0.000    0.000 
#
# Total GULP energy -111890.391612 kJ/mol
# GULP energy per Si atom -5594.519581 kJ/mol
# Density = 2.251896 g / cm^3
# Si number density = 22.570333 Si / 1000 Ang^3
#
#
#
# Elastic Constant Matrix: (Units=GPa)
#
#
# Indices 1 2 3 4 5 6 
#
# 1 52.0058 -4.6161 -1.4104 0.0000 -14.2785 0.0000
# 2 -4.6161 27.8435 22.5079 0.0000 -7.6787 0.0000
# 3 -1.4104 22.5079 90.8828 0.0000 -26.8447 0.0000
# 4 0.0000 0.0000 0.0000 23.6723 0.0000 -3.4150
# 5 -14.2785 -7.6787 -26.8447 0.0000 39.9352 0.0000
# 6 0.0000 0.0000 0.0000 -3.4150 0.0000 37.1586
#
#
#
# Elastic Compliance Matrix: (Units=1/GPa)
#
#
# Indices 1 2 3 4 5 6 
#
# 1 0.022611 0.004820 0.002270 0.000000 0.010537 0.000000
# 2 0.004820 0.045999 -0.010226 0.000000 0.003694 0.000000
# 3 0.002270 -0.010226 0.016508 0.000000 0.009942 0.000000
# 4 0.000000 0.000000 0.000000 0.042811 0.000000 0.003935
# 5 0.010537 0.003694 0.009942 0.000000 0.036201 0.000000
# 6 0.000000 0.000000 0.000000 0.003935 0.000000 0.027273
#
#
# Mechanical properties :
#
#
# Convention : Reuss Voigt Hill
#
# Bulk Modulus (GPa) = 12.68327 22.63276 17.65802
# Shear Modulus (GPa) = 22.32559 30.43661 26.38110
#
# Velocity S-wave (km/s) = 3.14850 3.67621 3.42254
# Velocity P-wave (km/s) = 4.34155 5.29800 4.84344
#
# Compressibility (1/GPa) = 0.07884399
#
# Stress axis : x y z
#
# Youngs Moduli (GPa) = 44.22646 21.73941 60.57832
#
# Poissons Ratio (x) = -0.10478 -0.13748
# Poissons Ratio (y) = -0.21316 0.61949
# Poissons Ratio (z) = -0.10037 0.22231
#
# Static dielectric constant tensor:
#      x y z
#    x 1.871050 0.000000 -0.012740 
#    y 0.000000 1.760380 0.000000 
#    z -0.012740 0.000000 1.833670 
# 
# From -- ./inp_files/16003.got.cif
#   From: 2010.05.17/outbox.cif.g08.bks.cpg/sg11_9_cif.got.tgz:16003.got - 2010.06.03 12:22:45.
