data_PCOD9165183
_publ_section_title
;
Structure prediction by ZEFSAII (Michael W. Deem and Ramdas Pophale) SiO2 
 PCOD9165183
Probable space group: P 21/M
;
_chemical_formula_sum "Si O2"
_cell_formula_units_Z 28
_cell_length_a 12.348842
_cell_length_b 17.607644
_cell_length_c 5.273671
_cell_angle_alpha 90.000000
_cell_angle_beta 74.263113
_cell_angle_gamma 90.000000
_cell_volume 1103.695000
_symmetry_space_group_name_H-M "P 21/M"
_symmetry_group_IT_number 11
_symmetry_cell_setting 'monoclinic'
loop_
_space_group_symop_operation_xyz
x,y,z
-x,1/2+y,-z
-x,-y,-z
x,1/2-y,z
loop_
_atom_site_type_symbol
_atom_site_label
_atom_site_fract_x
_atom_site_fract_y
_atom_site_fract_z
Si Si1 0.486107 0.168935 0.131783
Si Si2 0.231677 0.162449 0.065875
Si Si3 0.904023 0.555980 0.445113
Si Si4 0.095029 0.660742 0.210332
Si Si5 0.793579 0.096339 0.350769
Si Si6 0.633963 0.910749 0.420565
Si Si7 0.424195 0.551362 0.276814
O O1 0.540733 0.250000 0.051927
O O2 0.446632 0.157893 0.444560
O O3 0.361469 0.169165 0.080399
O O4 0.564411 0.102213 0.978697
O O5 0.187599 0.250000 0.086890
O O6 0.256012 0.124802 0.774441
O O7 0.160650 0.105785 0.294618
O O8 0.832611 0.492194 0.338934
O O9 0.000000 0.500000 0.500000
O O10 0.977985 0.616368 0.243841
O O11 0.078356 0.750000 0.207983
O O12 0.144767 0.637965 0.453578
O O13 0.174982 0.632037 0.935463
O O14 0.661546 0.096913 0.490512
O O15 0.554257 0.956229 0.278194
O O16 0.629780 0.967684 0.665598
#
# Coordination Sequence:
#
# PCOD9165183 Si02
#       7
#     4   4   4   4   4   4   4
#     4  10  21  38  59  93 133 174 221 276 338 408
#     4  10  21  40  65  98 134 172 223 285 350 412
#     4  10  23  43  71  96 132 175 228 285 353 412
#     4  11  25  47  70 101 138 180 233 292 351 417
#     4  11  25  44  72 101 140 180 234 284 351 415
#     4  10  21  38  65  94 133 177 226 280 338 409
#     4  10  23  38  63  94 134 178 229 275 341 409
#
# _framework density 25.369326000000001
#
# number of rings (size 3 to 8) (size 9 to 14) (size 15 to 20)
#    0.000    1.714    0.000    3.000    6.000    2.857 
#    5.143    0.000    0.000    0.000    0.000    0.000 
#    0.000    0.000    0.000    0.000    0.000    0.000 
#
# Total GULP energy -156265.698649 kJ/mol
# GULP energy per Si atom -5580.917809 kJ/mol
# Density = 2.531158 g / cm^3
# Si number density = 25.369326 Si / 1000 Ang^3
#
#
#
# Elastic Constant Matrix: (Units=GPa)
#
#
# Indices 1 2 3 4 5 6 
#
# 1 69.4948 16.1496 4.9151 0.0000 -18.2505 0.0000
# 2 16.1496 209.9202 67.5761 0.0000 -8.1029 0.0000
# 3 4.9151 67.5761 134.0760 0.0000 -25.8971 0.0000
# 4 0.0000 0.0000 0.0000 35.9140 0.0000 -3.3009
# 5 -18.2505 -8.1029 -25.8971 0.0000 34.8261 0.0000
# 6 0.0000 0.0000 0.0000 -3.3009 0.0000 20.0310
#
#
#
# Elastic Compliance Matrix: (Units=1/GPa)
#
#
# Indices 1 2 3 4 5 6 
#
# 1 0.017327 -0.001638 0.002184 0.000000 0.010323 0.000000
# 2 -0.001638 0.005868 -0.003269 0.000000 -0.001924 0.000000
# 3 0.002184 -0.003269 0.010626 0.000000 0.008286 0.000000
# 4 0.000000 0.000000 0.000000 0.028273 0.000000 0.004659
# 5 0.010323 -0.001924 0.008286 0.000000 0.039838 0.000000
# 6 0.000000 0.000000 0.000000 0.004659 0.000000 0.050691
#
#
# Mechanical properties :
#
#
# Convention : Reuss Voigt Hill
#
# Bulk Modulus (GPa) = 35.24108 65.64139 50.44124
# Shear Modulus (GPa) = 29.84623 39.81088 34.82856
#
# Velocity S-wave (km/s) = 3.43369 3.96568 3.70923
# Velocity P-wave (km/s) = 5.44442 6.84830 6.18631
#
# Compressibility (1/GPa) = 0.02837597
#
# Stress axis : x y z
#
# Youngs Moduli (GPa) = 57.71450 170.42245 94.10481
#
# Poissons Ratio (x) = 0.27908 -0.20554
# Poissons Ratio (y) = 0.09451 0.30763
# Poissons Ratio (z) = -0.12606 0.55711
#
# Static dielectric constant tensor:
#      x y z
#    x 2.214670 0.000000 0.125960 
#    y 0.000000 2.060680 0.000000 
#    z 0.125960 0.000000 2.070130 
# 
# From -- ./inp_files/6770.got.cif
#   From: 2010.05.17/outbox.cif.g08.bks.cpg/sg11_4_cif.got.tgz:6770.got - 2010.06.03 12:22:45.
