data_PCOD9165486
_publ_section_title
;
Structure prediction by ZEFSAII (Michael W. Deem and Ramdas Pophale) SiO2 
 PCOD9165486
Probable space group: P 21/M
;
_chemical_formula_sum "Si O2"
_cell_formula_units_Z 28
_cell_length_a 15.108165
_cell_length_b 7.971146
_cell_length_c 12.977129
_cell_angle_alpha 90.000000
_cell_angle_beta 58.619233
_cell_angle_gamma 90.000000
_cell_volume 1334.226094
_symmetry_space_group_name_H-M "P 21/M"
_symmetry_group_IT_number 11
_symmetry_cell_setting 'monoclinic'
loop_
_space_group_symop_operation_xyz
x,y,z
-x,1/2+y,-z
-x,-y,-z
x,1/2-y,z
loop_
_atom_site_type_symbol
_atom_site_label
_atom_site_fract_x
_atom_site_fract_y
_atom_site_fract_z
Si Si1 0.927899 0.950874 0.448521
Si Si2 0.217274 0.949495 0.783585
Si Si3 0.225519 0.049980 0.004607
Si Si4 0.005414 0.551031 0.818598
Si Si5 0.608518 0.950218 0.483656
Si Si6 0.380846 0.047227 0.087168
Si Si7 0.694259 0.954855 0.643956
O O1 0.927466 0.750000 0.437129
O O2 0.811029 0.006054 0.544988
O O3 0.968022 0.026720 0.317495
O O4 0.000000 0.000000 0.500000
O O5 0.209938 0.750000 0.798361
O O6 0.102717 0.018631 0.824587
O O7 0.256957 0.019156 0.867933
O O8 0.296365 0.987631 0.643691
O O9 0.219438 0.250000 0.024996
O O10 0.306855 0.984491 0.039610
O O11 0.108630 0.980276 0.089251
O O12 0.001650 0.750000 0.842252
O O13 0.614864 0.750000 0.481456
O O14 0.622070 0.010176 0.593044
O O15 0.500000 0.000000 0.500000
O O16 0.375012 0.250000 0.091104
O O17 0.340506 0.986332 0.222730
O O18 0.500000 0.000000 0.000000
O O19 0.693180 0.750000 0.647616
#
# Coordination Sequence:
#
# PCOD9165486 Si02
#       7
#     4   4   4   4   4   4   4
#     4  11  21  36  60  89 121 161 202 247 303 365
#     4  11  23  39  62  93 126 160 203 256 305 363
#     4  10  22  40  62  87 123 166 204 249 305 369
#     4  10  21  39  61  89 123 159 201 252 308 366
#     4  11  23  41  64  92 123 161 204 250 307 367
#     4  10  22  41  62  86 116 155 201 248 301 358
#     4   9  20  40  63  85 118 159 196 241 304 366
#
# _framework density 20.985949000000002
#
# number of rings (size 3 to 8) (size 9 to 14) (size 15 to 20)
#    0.000    1.714    1.429    2.571    2.000    4.000 
#    0.000    3.571    0.000    0.000    0.000    0.000 
#    0.000    0.000    0.000    0.000    0.000    0.000 
#
# Total GULP energy -156502.203706 kJ/mol
# GULP energy per Si atom -5589.364418 kJ/mol
# Density = 2.093818 g / cm^3
# Si number density = 20.985949 Si / 1000 Ang^3
#
#
#
# Elastic Constant Matrix: (Units=GPa)
#
#
# Indices 1 2 3 4 5 6 
#
# 1 158.9253 11.2319 44.5497 0.0000 27.6226 0.0000
# 2 11.2319 18.4782 -3.6530 0.0000 -4.8812 0.0000
# 3 44.5497 -3.6530 98.2681 0.0000 25.5615 0.0000
# 4 0.0000 0.0000 0.0000 25.2809 0.0000 -2.8583
# 5 27.6226 -4.8812 25.5615 0.0000 38.7916 0.0000
# 6 0.0000 0.0000 0.0000 -2.8583 0.0000 22.1952
#
#
#
# Elastic Compliance Matrix: (Units=1/GPa)
#
#
# Indices 1 2 3 4 5 6 
#
# 1 0.008447 -0.007022 -0.002771 0.000000 -0.005073 0.000000
# 2 -0.007022 0.061823 0.002604 0.000000 0.011064 0.000000
# 3 -0.002771 0.002604 0.013192 0.000000 -0.006392 0.000000
# 4 0.000000 0.000000 0.000000 0.040140 0.000000 0.005169
# 5 -0.005073 0.011064 -0.006392 0.000000 0.034995 0.000000
# 6 0.000000 0.000000 0.000000 0.005169 0.000000 0.045721
#
#
# Mechanical properties :
#
#
# Convention : Reuss Voigt Hill
#
# Bulk Modulus (GPa) = 14.47523 42.21431 28.34477
# Shear Modulus (GPa) = 20.68472 32.15643 26.42057
#
# Velocity S-wave (km/s) = 3.14291 3.91869 3.55204
# Velocity P-wave (km/s) = 4.48141 6.37448 5.50986
#
# Compressibility (1/GPa) = 0.06908355
#
# Stress axis : x y z
#
# Youngs Moduli (GPa) = 118.38574 16.17509 75.80393
#
# Poissons Ratio (x) = 0.11358 0.21005
# Poissons Ratio (y) = 0.83133 -0.19738
# Poissons Ratio (z) = 0.32804 -0.04212
#
# Static dielectric constant tensor:
#      x y z
#    x 1.756100 0.000000 0.002520 
#    y 0.000000 1.763970 0.000000 
#    z 0.002520 0.000000 1.722140 
# 
# From -- ./inp_files/37295.got.cif
#   From: 2010.05.17/outbox.cif.g08.bks.cpg/sg11_19_cif.got.tgz:37295.got - 2010.06.03 12:22:45.
