data_PCOD9165912
_publ_section_title
;
Structure prediction by ZEFSAII (Michael W. Deem and Ramdas Pophale) SiO2 
 PCOD9165912
Probable space group: P 21/M
;
_chemical_formula_sum "Si O2"
_cell_formula_units_Z 28
_cell_length_a 8.112341
_cell_length_b 24.837674
_cell_length_c 8.179933
_cell_angle_alpha 90.000000
_cell_angle_beta 50.243625
_cell_angle_gamma 90.000000
_cell_volume 1267.078957
_symmetry_space_group_name_H-M "P 21/M"
_symmetry_group_IT_number 11
_symmetry_cell_setting 'monoclinic'
loop_
_space_group_symop_operation_xyz
x,y,z
-x,1/2+y,-z
-x,-y,-z
x,1/2-y,z
loop_
_atom_site_type_symbol
_atom_site_label
_atom_site_fract_x
_atom_site_fract_y
_atom_site_fract_z
Si Si1 0.511699 0.190209 0.736316
Si Si2 0.949892 0.084566 0.450113
Si Si3 0.312357 0.866988 0.654741
Si Si4 0.106229 0.368731 0.861602
Si Si5 0.355395 0.452411 0.518765
Si Si6 0.734174 0.999141 0.776897
Si Si7 0.036366 0.686799 0.383122
O O1 0.430347 0.250000 0.819006
O O2 0.618616 0.186304 0.485974
O O3 0.307444 0.151626 0.843157
O O4 0.704756 0.180527 0.744689
O O5 0.751461 0.096307 0.459516
O O6 0.106090 0.045048 0.250386
O O7 0.053040 0.141585 0.434564
O O8 0.846440 0.056458 0.676668
O O9 0.505457 0.899206 0.612792
O O10 0.108272 0.865156 0.897567
O O11 0.176118 0.427951 0.752968
O O12 0.053220 0.331535 0.736217
O O13 0.500000 0.500000 0.500000
O O14 0.274557 0.475593 0.400626
O O15 0.500000 0.000000 0.000000
O O16 0.988718 0.750000 0.443069
#
# Coordination Sequence:
#
# PCOD9165912 Si02
#       7
#     4   4   4   4   4   4   4
#     4   9  21  42  63  89 126 164 209 266 319 380
#     4  10  22  42  58  95 127 167 210 263 329 378
#     4  10  23  38  64  89 125 165 211 263 315 393
#     4  11  23  41  65  93 130 169 210 266 327 383
#     4  11  23  41  59  92 127 166 212 261 322 385
#     4  11  24  38  65  89 127 168 211 266 319 393
#     4  10  21  41  67  91 126 168 216 269 320 386
#
# _framework density 22.09807
#
# number of rings (size 3 to 8) (size 9 to 14) (size 15 to 20)
#    0.000    1.714    2.857    0.429    4.000    1.714 
#    0.000    0.000    0.000    7.714    0.000    0.000 
#    0.000    0.000    0.000    0.000    0.000    0.000 
#
# Total GULP energy -156010.130141 kJ/mol
# GULP energy per Si atom -5571.790362 kJ/mol
# Density = 2.204777 g / cm^3
# Si number density = 22.098070 Si / 1000 Ang^3
#
#
#
# Elastic Constant Matrix: (Units=GPa)
#
#
# Indices 1 2 3 4 5 6 
#
# 1 69.8605 16.5868 -7.8072 0.0000 -7.5550 0.0000
# 2 16.5868 108.6613 8.4269 0.0000 0.2609 0.0000
# 3 -7.8072 8.4269 95.0627 0.0000 -21.6037 0.0000
# 4 0.0000 0.0000 0.0000 9.0615 0.0000 -1.2932
# 5 -7.5550 0.2609 -21.6037 0.0000 18.4102 0.0000
# 6 0.0000 0.0000 0.0000 -1.2932 0.0000 36.3729
#
#
#
# Elastic Compliance Matrix: (Units=1/GPa)
#
#
# Indices 1 2 3 4 5 6 
#
# 1 0.016809 -0.002935 0.004388 0.000000 0.012088 0.000000
# 2 -0.002935 0.009809 -0.001931 0.000000 -0.003609 0.000000
# 3 0.004388 -0.001931 0.015636 0.000000 0.020177 0.000000
# 4 0.000000 0.000000 0.000000 0.110920 0.000000 0.003943
# 5 0.012088 -0.003609 0.020177 0.000000 0.083006 0.000000
# 6 0.000000 0.000000 0.000000 0.003943 0.000000 0.027633
#
#
# Mechanical properties :
#
#
# Convention : Reuss Voigt Hill
#
# Bulk Modulus (GPa) = 24.21423 34.22195 29.21809
# Shear Modulus (GPa) = 17.95103 29.86079 23.90591
#
# Velocity S-wave (km/s) = 2.85324 3.67997 3.29266
# Velocity P-wave (km/s) = 4.67291 5.79450 5.26366
#
# Compressibility (1/GPa) = 0.04129804
#
# Stress axis : x y z
#
# Youngs Moduli (GPa) = 59.49269 101.94354 63.95429
#
# Poissons Ratio (x) = 0.29922 -0.28062
# Poissons Ratio (y) = 0.17462 0.12349
# Poissons Ratio (z) = -0.26104 0.19684
#
# Static dielectric constant tensor:
#      x y z
#    x 1.917280 0.000000 -0.035990 
#    y 0.000000 2.070020 0.000000 
#    z -0.035990 0.000000 1.807740 
# 
# From -- ./inp_files/15247.got.cif
#   From: 2010.05.17/outbox.cif.g08.bks.cpg/sg11_8_cif.got.tgz:15247.got - 2010.06.03 12:22:45.
