data_PCOD9165861
_publ_section_title
;
Structure prediction by ZEFSAII (Michael W. Deem and Ramdas Pophale) SiO2 
 PCOD9165861
Probable space group: P 21/M
;
_chemical_formula_sum "Si O2"
_cell_formula_units_Z 20
_cell_length_a 11.669692
_cell_length_b 17.191088
_cell_length_c 5.645955
_cell_angle_alpha 90.000000
_cell_angle_beta 50.616966
_cell_angle_gamma 90.000000
_cell_volume 875.458478
_symmetry_space_group_name_H-M "P 21/M"
_symmetry_group_IT_number 11
_symmetry_cell_setting 'monoclinic'
loop_
_space_group_symop_operation_xyz
x,y,z
-x,1/2+y,-z
-x,-y,-z
x,1/2-y,z
loop_
_atom_site_type_symbol
_atom_site_label
_atom_site_fract_x
_atom_site_fract_y
_atom_site_fract_z
Si Si1 0.385293 0.750000 0.727895
Si Si2 0.098405 0.131018 0.806976
Si Si3 0.125610 0.750000 0.690738
Si Si4 0.963675 0.750000 0.498774
Si Si5 0.700801 0.490220 0.481300
Si Si6 0.295282 0.250000 0.790382
Si Si7 0.614943 0.080722 0.090233
O O1 0.254468 0.750000 0.708058
O O2 0.535087 0.750000 0.372909
O O3 0.395124 0.672726 0.869886
O O4 0.050278 0.170612 0.627030
O O5 0.246098 0.175845 0.702069
O O6 0.151444 0.043381 0.717804
O O7 0.971466 0.170555 0.136669
O O8 0.123722 0.750000 0.412246
O O9 0.814749 0.750000 0.846794
O O10 0.548272 0.540952 0.695045
O O11 0.691633 0.447312 0.237740
O O12 0.693062 0.442099 0.738469
#
# Coordination Sequence:
#
# PCOD9165861 Si02
#       7
#     2   4   2   2   4   2   4
#     4  12  22  44  58  94 134 165 202 262 330 377
#     4   9  18  38  63  89 117 165 215 262 300 373
#     4   9  22  38  59  91 129 169 217 248 308 389
#     4   8  18  34  60  92 112 167 212 264 297 377
#     4  10  21  41  63  97 124 160 213 268 322 370
#     4   9  18  32  61  93 113 159 209 254 323 359
#     4  10  24  38  63  96 129 160 205 271 325 378
#
# _framework density 22.845172999999999
#
# number of rings (size 3 to 8) (size 9 to 14) (size 15 to 20)
#    0.000    2.800    2.000    0.000    5.600    2.400 
#    7.200    2.000    0.000    0.000    0.000    0.000 
#    0.000    0.000    0.000    0.000    0.000    0.000 
#
# Total GULP energy -111463.098466 kJ/mol
# GULP energy per Si atom -5573.154923 kJ/mol
# Density = 2.279318 g / cm^3
# Si number density = 22.845173 Si / 1000 Ang^3
#
#
#
# Elastic Constant Matrix: (Units=GPa)
#
#
# Indices 1 2 3 4 5 6 
#
# 1 98.4551 38.0795 42.0054 0.0000 11.7505 0.0000
# 2 38.0795 108.9755 39.2944 0.0000 14.9870 0.0000
# 3 42.0054 39.2944 79.8694 0.0000 13.8282 0.0000
# 4 0.0000 0.0000 0.0000 20.4711 0.0000 13.4092
# 5 11.7505 14.9870 13.8282 0.0000 42.5813 0.0000
# 6 0.0000 0.0000 0.0000 13.4092 0.0000 23.2198
#
#
#
# Elastic Compliance Matrix: (Units=1/GPa)
#
#
# Indices 1 2 3 4 5 6 
#
# 1 0.013742 -0.002578 -0.005785 0.000000 -0.001006 0.000000
# 2 -0.002578 0.011850 -0.004106 0.000000 -0.002126 0.000000
# 3 -0.005785 -0.004106 0.018073 0.000000 -0.002827 0.000000
# 4 0.000000 0.000000 0.000000 0.078571 0.000000 -0.045374
# 5 -0.001006 -0.002126 -0.002827 0.000000 0.025429 0.000000
# 6 0.000000 0.000000 0.000000 -0.045374 0.000000 0.069270
#
#
# Mechanical properties :
#
#
# Convention : Reuss Voigt Hill
#
# Bulk Modulus (GPa) = 53.39864 58.45095 55.92480
# Shear Modulus (GPa) = 20.15204 28.44915 24.30059
#
# Velocity S-wave (km/s) = 2.97326 3.53271 3.26499
# Velocity P-wave (km/s) = 5.93396 6.50241 6.22468
#
# Compressibility (1/GPa) = 0.01872707
#
# Stress axis : x y z
#
# Youngs Moduli (GPa) = 72.76926 84.38745 55.33212
#
# Poissons Ratio (x) = 0.21751 0.32009
# Poissons Ratio (y) = 0.18757 0.22721
# Poissons Ratio (z) = 0.42097 0.34653
#
# Static dielectric constant tensor:
#      x y z
#    x 1.864730 0.000000 0.029250 
#    y 0.000000 1.866580 0.000000 
#    z 0.029250 0.000000 1.933960 
# 
# From -- ./inp_files/4569.got.cif
#   From: 2010.05.17/outbox.cif.g08.bks.cpg/sg11_3_cif.got.tgz:4569.got - 2010.06.03 12:22:45.
