data_PCOD9165961
_publ_section_title
;
Structure prediction by ZEFSAII (Michael W. Deem and Ramdas Pophale) SiO2 
 PCOD9165961
Probable space group: P 21/M
;
_chemical_formula_sum "Si O2"
_cell_formula_units_Z 24
_cell_length_a 9.761684
_cell_length_b 8.507483
_cell_length_c 15.164195
_cell_angle_alpha 90.000000
_cell_angle_beta 81.168220
_cell_angle_gamma 90.000000
_cell_volume 1244.414772
_symmetry_space_group_name_H-M "P 21/M"
_symmetry_group_IT_number 11
_symmetry_cell_setting 'monoclinic'
loop_
_space_group_symop_operation_xyz
x,y,z
-x,1/2+y,-z
-x,-y,-z
x,1/2-y,z
loop_
_atom_site_type_symbol
_atom_site_label
_atom_site_fract_x
_atom_site_fract_y
_atom_site_fract_z
Si Si1 0.144269 0.941073 0.750334
Si Si2 0.615229 0.939419 0.920639
Si Si3 0.123455 0.937395 0.546917
Si Si4 0.600527 0.938527 0.564616
Si Si5 0.458457 0.941133 0.759287
Si Si6 0.928872 0.062048 0.916922
O O1 0.139526 0.750000 0.753202
O O2 0.128330 0.991318 0.649154
O O3 0.297119 0.991119 0.770519
O O4 0.023354 0.004445 0.825525
O O5 0.621955 0.750000 0.922828
O O6 0.550390 0.989698 0.833204
O O7 0.769935 0.003110 0.923175
O O8 0.500000 0.000000 0.000000
O O9 0.119011 0.750000 0.551823
O O10 0.254916 0.992065 0.478649
O O11 0.000000 0.000000 0.500000
O O12 0.606858 0.750000 0.564835
O O13 0.538595 0.991278 0.663708
O O14 0.500000 0.000000 0.500000
O O15 0.453896 0.750000 0.760504
O O16 0.927885 0.250000 0.919585
O O17 0.000000 0.000000 0.000000
#
# Coordination Sequence:
#
# PCOD9165961 Si02
#       6
#     4   4   4   4   4   4
#     4  10  21  42  66  90 125 169 211 258 319 379
#     4  11  23  42  68  97 127 164 207 257 315 376
#     4  11  24  41  62  91 129 172 215 264 318 373
#     4  11  21  39  63  92 125 169 216 260 313 372
#     4   9  20  39  64  90 122 163 207 253 314 377
#     4  12  26  44  66  95 128 165 210 260 315 377
#
# _framework density 19.286173000000002
#
# number of rings (size 3 to 8) (size 9 to 14) (size 15 to 20)
#    0.000    1.333    1.667    4.000    2.333    2.667 
#    0.000    3.333    0.000    0.000    0.000    0.000 
#    0.000    0.000    0.000    0.000    0.000    0.000 
#
# Total GULP energy -134043.453819 kJ/mol
# GULP energy per Si atom -5585.143909 kJ/mol
# Density = 1.924228 g / cm^3
# Si number density = 19.286173 Si / 1000 Ang^3
#
#
#
# Elastic Constant Matrix: (Units=GPa)
#
#
# Indices 1 2 3 4 5 6 
#
# 1 234.8809 47.9895 115.4831 0.0000 -3.6635 0.0000
# 2 47.9895 65.6775 43.1878 0.0000 0.8029 0.0000
# 3 115.4831 43.1878 178.2692 0.0000 -3.8195 0.0000
# 4 0.0000 0.0000 0.0000 32.8910 0.0000 -3.6825
# 5 -3.6635 0.8029 -3.8195 0.0000 38.6820 0.0000
# 6 0.0000 0.0000 0.0000 -3.6825 0.0000 38.0256
#
#
#
# Elastic Compliance Matrix: (Units=1/GPa)
#
#
# Indices 1 2 3 4 5 6 
#
# 1 0.006547 -0.002383 -0.003658 0.000000 0.000308 0.000000
# 2 -0.002383 0.019004 -0.003080 0.000000 -0.000924 0.000000
# 3 -0.003658 -0.003080 0.008738 0.000000 0.000580 0.000000
# 4 0.000000 0.000000 0.000000 0.030737 0.000000 0.002977
# 5 0.000308 -0.000924 0.000580 0.000000 0.025957 0.000000
# 6 0.000000 0.000000 0.000000 0.002977 0.000000 0.026586
#
#
# Mechanical properties :
#
#
# Convention : Reuss Voigt Hill
#
# Bulk Modulus (GPa) = 62.31415 99.12759 80.72087
# Shear Modulus (GPa) = 35.42100 40.06421 37.74261
#
# Velocity S-wave (km/s) = 4.29021 4.56274 4.42857
# Velocity P-wave (km/s) = 7.54464 8.90326 8.25196
#
# Compressibility (1/GPa) = 0.01604772
#
# Stress axis : x y z
#
# Youngs Moduli (GPa) = 152.73178 52.62143 114.44915
#
# Poissons Ratio (x) = 0.12538 0.41861
# Poissons Ratio (y) = 0.36392 0.35252
# Poissons Ratio (z) = 0.55863 0.16208
#
# Static dielectric constant tensor:
#      x y z
#    x 1.618080 0.000000 0.019450 
#    y 0.000000 1.659630 0.000000 
#    z 0.019450 0.000000 1.661240 
# 
# From -- ./inp_files/46493.got.cif
#   From: 2010.05.17/outbox.cif.g08.bks.cpg/sg11_24_cif.got.tgz:46493.got - 2010.06.03 12:22:45.
