data_PCOD9165636
_publ_section_title
;
Structure prediction by ZEFSAII (Michael W. Deem and Ramdas Pophale) SiO2 
 PCOD9165636
Probable space group: P 21/M
;
_chemical_formula_sum "Si O2"
_cell_formula_units_Z 20
_cell_length_a 5.200734
_cell_length_b 15.070745
_cell_length_c 10.217393
_cell_angle_alpha 90.000000
_cell_angle_beta 89.190277
_cell_angle_gamma 90.000000
_cell_volume 800.748421
_symmetry_space_group_name_H-M "P 21/M"
_symmetry_group_IT_number 11
_symmetry_cell_setting 'monoclinic'
loop_
_space_group_symop_operation_xyz
x,y,z
-x,1/2+y,-z
-x,-y,-z
x,1/2-y,z
loop_
_atom_site_type_symbol
_atom_site_label
_atom_site_fract_x
_atom_site_fract_y
_atom_site_fract_z
Si Si1 0.880325 0.945057 0.879637
Si Si2 0.531334 0.153853 0.764157
Si Si3 0.831033 0.517164 0.346339
Si Si4 0.137999 0.648358 0.501805
Si Si5 0.639713 0.348075 0.058319
O O1 0.592754 0.913873 0.906623
O O2 0.917902 0.993215 0.740995
O O3 0.090149 0.866132 0.874847
O O4 0.000000 0.000000 0.000000
O O5 0.388275 0.250000 0.769001
O O6 0.703256 0.156196 0.633590
O O7 0.346177 0.070788 0.751560
O O8 0.677456 0.148378 0.900700
O O9 0.728834 0.423711 0.403352
O O10 0.891094 0.589264 0.459274
O O11 0.092060 0.750000 0.547897
O O12 0.547455 0.250000 0.092974
#
# Coordination Sequence:
#
# PCOD9165636 Si02
#       5
#     4   4   4   4   4
#     4  12  24  42  69 100 139 175 227 275 340 407
#     4  10  21  39  65  94 128 172 222 273 331 402
#     4  11  23  39  69  90 133 172 223 276 339 395
#     4  10  23  42  63  94 126 170 226 279 336 399
#     4  11  25  43  67  99 138 180 224 279 338 406
#
# _framework density 24.976633
#
# number of rings (size 3 to 8) (size 9 to 14) (size 15 to 20)
#    0.000    1.200    2.000    3.600    2.800    1.600 
#    0.000    0.000    0.000    0.000    0.000    0.000 
#    0.000    0.000    0.000    0.000    0.000    0.000 
#
# Total GULP energy -111794.898580 kJ/mol
# GULP energy per Si atom -5589.744929 kJ/mol
# Density = 2.491979 g / cm^3
# Si number density = 24.976633 Si / 1000 Ang^3
#
#
#
# Elastic Constant Matrix: (Units=GPa)
#
#
# Indices 1 2 3 4 5 6 
#
# 1 57.9251 37.6844 10.9171 0.0000 -7.8853 0.0000
# 2 37.6844 214.2424 49.2899 0.0000 6.6204 0.0000
# 3 10.9171 49.2899 75.0966 0.0000 -7.2133 0.0000
# 4 0.0000 0.0000 0.0000 30.7427 0.0000 -0.4044
# 5 -7.8853 6.6204 -7.2133 0.0000 34.9669 0.0000
# 6 0.0000 0.0000 0.0000 -0.4044 0.0000 36.2840
#
#
#
# Elastic Compliance Matrix: (Units=1/GPa)
#
#
# Indices 1 2 3 4 5 6 
#
# 1 0.020433 -0.003761 0.000009 0.000000 0.005322 0.000000
# 2 -0.003761 0.006306 -0.003865 0.000000 -0.002839 0.000000
# 3 0.000009 -0.003865 0.016244 0.000000 0.004085 0.000000
# 4 0.000000 0.000000 0.000000 0.032533 0.000000 0.000363
# 5 0.005322 -0.002839 0.004085 0.000000 0.031179 0.000000
# 6 0.000000 0.000000 0.000000 0.000363 0.000000 0.027564
#
#
# Mechanical properties :
#
#
# Convention : Reuss Voigt Hill
#
# Bulk Modulus (GPa) = 36.03623 60.33853 48.18738
# Shear Modulus (GPa) = 31.49762 37.02357 34.26059
#
# Velocity S-wave (km/s) = 3.55503 3.85428 3.70767
# Velocity P-wave (km/s) = 5.59556 6.63459 6.13710
#
# Compressibility (1/GPa) = 0.02774985
#
# Stress axis : x y z
#
# Youngs Moduli (GPa) = 48.94053 158.57833 61.56106
#
# Poissons Ratio (x) = 0.59635 -0.00056
# Poissons Ratio (y) = 0.18405 0.23793
# Poissons Ratio (z) = -0.00044 0.61291
#
# Static dielectric constant tensor:
#      x y z
#    x 2.006290 0.000000 0.036230 
#    y 0.000000 2.113510 0.000000 
#    z 0.036230 0.000000 1.961460 
# 
# From -- ./inp_files/4240.got.cif
#   From: 2010.05.17/outbox.cif.g08.bks.cpg/sg11_3_cif.got.tgz:4240.got - 2010.06.03 12:22:45.
