data_PCOD9165122
_publ_section_title
;
Structure prediction by ZEFSAII (Michael W. Deem and Ramdas Pophale) SiO2 
 PCOD9165122
Probable space group: P 21/M
;
_chemical_formula_sum "Si O2"
_cell_formula_units_Z 32
_cell_length_a 29.547862
_cell_length_b 8.786794
_cell_length_c 11.930507
_cell_angle_alpha 90.000000
_cell_angle_beta 148.474727
_cell_angle_gamma 90.000000
_cell_volume 1619.619366
_symmetry_space_group_name_H-M "P 21/M"
_symmetry_group_IT_number 11
_symmetry_cell_setting 'monoclinic'
loop_
_space_group_symop_operation_xyz
x,y,z
-x,1/2+y,-z
-x,-y,-z
x,1/2-y,z
loop_
_atom_site_type_symbol
_atom_site_label
_atom_site_fract_x
_atom_site_fract_y
_atom_site_fract_z
Si Si1 0.299199 0.570768 0.631836
Si Si2 0.033467 0.068242 0.891179
Si Si3 0.258206 0.431098 0.078085
Si Si4 0.925385 0.068715 0.264146
Si Si5 0.416897 0.432726 0.261626
Si Si6 0.657342 0.068812 0.525855
Si Si7 0.454398 0.068237 0.085364
Si Si8 0.124509 0.069146 0.318815
O O1 0.287632 0.750000 0.625329
O O2 0.294565 0.540613 0.489294
O O3 0.223873 0.480035 0.535498
O O4 0.393613 0.520079 0.871793
O O5 0.036158 0.250000 0.883313
O O6 0.064256 0.991598 0.841430
O O7 0.090721 0.027657 0.121971
O O8 0.937423 0.013877 0.723329
O O9 0.244653 0.250000 0.040406
O O10 0.327471 0.481266 0.130584
O O11 0.302779 0.472271 0.290263
O O12 0.166895 0.514892 0.883074
O O13 0.930821 0.250000 0.275120
O O14 0.000000 0.000000 0.500000
O O15 0.500000 0.500000 0.500000
O O16 0.422055 0.250000 0.282354
O O17 0.422494 0.470902 0.142972
O O18 0.663418 0.250000 0.565339
O O19 0.556059 0.032859 0.295096
O O20 0.444899 0.250000 0.047651
O O21 0.115045 0.250000 0.312109
#
# Coordination Sequence:
#
# PCOD9165122 Si02
#       8
#     4   4   4   4   4   4   4   4
#     4  11  23  36  54  85 121 157 202 251 301 359
#     4  10  21  40  66  93 121 154 199 252 305 365
#     4  11  23  39  63  94 122 157 204 254 306 367
#     4  12  26  44  65  90 125 166 206 255 310 369
#     4  10  21  38  62  88 118 154 198 250 299 354
#     4  10  21  38  60  85 118 159 202 250 304 364
#     4  10  21  38  58  82 117 159 200 247 306 364
#     4  10  21  38  62  90 121 160 199 245 304 368
#
# _framework density 19.757729000000001
#
# number of rings (size 3 to 8) (size 9 to 14) (size 15 to 20)
#    0.000    1.500    1.250    3.750    0.000    7.000 
#    0.000    3.750    0.000    0.000    0.000    0.000 
#    0.000    0.000    0.000    0.000    0.000    0.000 
#
# Total GULP energy -178927.735264 kJ/mol
# GULP energy per Si atom -5591.491727 kJ/mol
# Density = 1.971276 g / cm^3
# Si number density = 19.757729 Si / 1000 Ang^3
#
#
#
# Elastic Constant Matrix: (Units=GPa)
#
#
# Indices 1 2 3 4 5 6 
#
# 1 98.6417 36.6101 23.4584 0.0000 21.6384 0.0000
# 2 36.6101 46.0006 13.5258 0.0000 7.7499 0.0000
# 3 23.4584 13.5258 51.7351 0.0000 22.4083 0.0000
# 4 0.0000 0.0000 0.0000 34.4810 0.0000 2.2749
# 5 21.6384 7.7499 22.4083 0.0000 31.7656 0.0000
# 6 0.0000 0.0000 0.0000 2.2749 0.0000 28.5474
#
#
#
# Elastic Compliance Matrix: (Units=1/GPa)
#
#
# Indices 1 2 3 4 5 6 
#
# 1 0.016268 -0.011342 -0.001166 0.000000 -0.007492 0.000000
# 2 -0.011342 0.031547 -0.004489 0.000000 0.003196 0.000000
# 3 -0.001166 -0.004489 0.029107 0.000000 -0.018643 0.000000
# 4 0.000000 0.000000 0.000000 0.029155 0.000000 -0.002323
# 5 -0.007492 0.003196 -0.018643 0.000000 0.048955 0.000000
# 6 0.000000 0.000000 0.000000 -0.002323 0.000000 0.035215
#
#
# Mechanical properties :
#
#
# Convention : Reuss Voigt Hill
#
# Bulk Modulus (GPa) = 23.29562 38.17399 30.73481
# Shear Modulus (GPa) = 20.95997 27.14433 24.05215
#
# Velocity S-wave (km/s) = 3.26060 3.71058 3.49285
# Velocity P-wave (km/s) = 5.09820 6.14173 5.64413
#
# Compressibility (1/GPa) = 0.04292652
#
# Stress axis : x y z
#
# Youngs Moduli (GPa) = 61.47072 31.69878 34.35643
#
# Poissons Ratio (x) = 0.35953 0.04007
# Poissons Ratio (y) = 0.69720 0.15424
# Poissons Ratio (z) = 0.07169 0.14231
#
# Static dielectric constant tensor:
#      x y z
#    x 1.695640 0.000000 0.004410 
#    y 0.000000 1.657670 0.000000 
#    z 0.004410 0.000000 1.677840 
# 
# From -- ./inp_files/45324.got.cif
#   From: 2010.05.17/outbox.cif.g08.bks.cpg/sg11_23_cif.got.tgz:45324.got - 2010.06.03 12:22:45.
