data_PCOD9165977
_publ_section_title
;
Structure prediction by ZEFSAII (Michael W. Deem and Ramdas Pophale) SiO2 
 PCOD9165977
Probable space group: P 21/M
;
_chemical_formula_sum "Si O2"
_cell_formula_units_Z 28
_cell_length_a 8.769528
_cell_length_b 24.981503
_cell_length_c 9.032762
_cell_angle_alpha 90.000000
_cell_angle_beta 135.103121
_cell_angle_gamma 90.000000
_cell_volume 1396.745563
_symmetry_space_group_name_H-M "P 21/M"
_symmetry_group_IT_number 11
_symmetry_cell_setting 'monoclinic'
loop_
_space_group_symop_operation_xyz
x,y,z
-x,1/2+y,-z
-x,-y,-z
x,1/2-y,z
loop_
_atom_site_type_symbol
_atom_site_label
_atom_site_fract_x
_atom_site_fract_y
_atom_site_fract_z
Si Si1 0.593141 0.002301 0.228649
Si Si2 0.160053 0.610099 0.615678
Si Si3 0.816057 0.544869 0.874755
Si Si4 0.751120 0.598251 0.511917
Si Si5 0.472352 0.309619 0.180624
Si Si6 0.440215 0.811751 0.408519
Si Si7 0.981573 0.854292 0.175655
O O1 0.775348 0.048071 0.356110
O O2 0.402082 0.021185 0.205958
O O3 0.676609 0.944926 0.339086
O O4 0.500000 0.000000 0.000000
O O5 0.376968 0.644806 0.785452
O O6 0.987536 0.617774 0.626378
O O7 0.055764 0.629952 0.390772
O O8 0.767628 0.567154 0.678593
O O9 0.901983 0.593366 0.034058
O O10 0.000000 0.500000 0.000000
O O11 0.583275 0.646641 0.414840
O O12 0.554018 0.250000 0.202476
O O13 0.484258 0.316204 0.367294
O O14 0.225813 0.316226 0.962814
O O15 0.465556 0.750000 0.380301
O O16 0.188807 0.828508 0.238012
#
# Coordination Sequence:
#
# PCOD9165977 Si02
#       7
#     4   4   4   4   4   4   4
#     4  12  24  43  66  94 134 179 219 271 330 400
#     4  11  24  41  64  95 133 170 221 267 320 396
#     4  12  22  38  64  98 132 168 219 267 328 391
#     4  12  24  41  64  99 136 171 218 274 333 389
#     4  10  21  42  69  93 126 174 222 266 324 396
#     4  10  22  41  65  96 130 168 218 275 331 392
#     4  11  20  42  66  93 125 172 218 262 324 394
#
# _framework density 20.046602
#
# number of rings (size 3 to 8) (size 9 to 14) (size 15 to 20)
#    0.000    0.857    2.857    5.571    0.000    1.143 
#    0.000    0.000    0.000    0.000    0.000    0.000 
#    0.000    0.000    0.000    0.000    0.000    0.000 
#
# Total GULP energy -156672.758758 kJ/mol
# GULP energy per Si atom -5595.455670 kJ/mol
# Density = 2.000097 g / cm^3
# Si number density = 20.046602 Si / 1000 Ang^3
#
#
#
# Elastic Constant Matrix: (Units=GPa)
#
#
# Indices 1 2 3 4 5 6 
#
# 1 119.2001 43.3306 16.1492 0.0000 26.8440 0.0000
# 2 43.3306 119.3950 9.6992 0.0000 20.4991 0.0000
# 3 16.1492 9.6992 55.6538 0.0000 20.9500 0.0000
# 4 0.0000 0.0000 0.0000 20.8387 0.0000 7.6045
# 5 26.8440 20.4991 20.9500 0.0000 31.1450 0.0000
# 6 0.0000 0.0000 0.0000 7.6045 0.0000 14.5114
#
#
#
# Elastic Compliance Matrix: (Units=1/GPa)
#
#
# Indices 1 2 3 4 5 6 
#
# 1 0.011133 -0.002688 0.000246 0.000000 -0.007992 0.000000
# 2 -0.002688 0.010128 0.000873 0.000000 -0.004936 0.000000
# 3 0.000246 0.000873 0.024158 0.000000 -0.017037 0.000000
# 4 0.000000 0.000000 0.000000 0.059334 0.000000 -0.031093
# 5 -0.007992 -0.004936 -0.017037 0.000000 0.053705 0.000000
# 6 0.000000 0.000000 0.000000 -0.031093 0.000000 0.085205
#
#
# Mechanical properties :
#
#
# Convention : Reuss Voigt Hill
#
# Bulk Modulus (GPa) = 23.65104 48.06744 35.85924
# Shear Modulus (GPa) = 19.16484 28.30368 23.73426
#
# Velocity S-wave (km/s) = 3.09530 3.76159 3.44460
# Velocity P-wave (km/s) = 4.95965 6.54951 5.80923
#
# Compressibility (1/GPa) = 0.04228144
#
# Stress axis : x y z
#
# Youngs Moduli (GPa) = 89.82437 98.73870 41.39430
#
# Poissons Ratio (x) = 0.26543 -0.01020
# Poissons Ratio (y) = 0.24147 -0.03615
# Poissons Ratio (z) = -0.02214 -0.08622
#
# Static dielectric constant tensor:
#      x y z
#    x 1.688810 0.000000 0.011290 
#    y 0.000000 1.707610 0.000000 
#    z 0.011290 0.000000 1.694600 
# 
# From -- ./inp_files/15305.got.cif
#   From: 2010.05.17/outbox.cif.g08.bks.cpg/sg11_8_cif.got.tgz:15305.got - 2010.06.03 12:22:45.
