data_PCOD9165682
_publ_section_title
;
Structure prediction by ZEFSAII (Michael W. Deem and Ramdas Pophale) SiO2 
 PCOD9165682
Probable space group: P 21/M
;
_chemical_formula_sum "Si O2"
_cell_formula_units_Z 32
_cell_length_a 12.831947
_cell_length_b 8.706053
_cell_length_c 14.663159
_cell_angle_alpha 90.000000
_cell_angle_beta 89.603838
_cell_angle_gamma 90.000000
_cell_volume 1638.064605
_symmetry_space_group_name_H-M "P 21/M"
_symmetry_group_IT_number 11
_symmetry_cell_setting 'monoclinic'
loop_
_space_group_symop_operation_xyz
x,y,z
-x,1/2+y,-z
-x,-y,-z
x,1/2-y,z
loop_
_atom_site_type_symbol
_atom_site_label
_atom_site_fract_x
_atom_site_fract_y
_atom_site_fract_z
Si Si1 0.113259 0.933036 0.473083
Si Si2 0.890545 0.426068 0.025998
Si Si3 0.045193 0.574705 0.770306
Si Si4 0.327787 0.432400 0.990881
Si Si5 0.386716 0.934861 0.177654
Si Si6 0.212667 0.431928 0.643839
Si Si7 0.386933 0.062817 0.785414
Si Si8 0.832515 0.064549 0.735085
O O1 0.104990 0.750000 0.476084
O O2 0.148408 0.977072 0.370929
O O3 0.196888 0.988824 0.546924
O O4 0.000000 0.000000 0.500000
O O5 0.882875 0.250000 0.993389
O O6 0.892167 0.425778 0.135799
O O7 0.792568 0.522287 0.993161
O O8 0.000000 0.500000 0.000000
O O9 0.040847 0.750000 0.735929
O O10 0.106766 0.468288 0.699843
O O11 0.929276 0.511765 0.786561
O O12 0.341873 0.250000 0.994397
O O13 0.389760 0.508648 0.073336
O O14 0.355718 0.485902 0.888295
O O15 0.385293 0.750000 0.176128
O O16 0.492725 0.982685 0.227734
O O17 0.279631 0.985861 0.226262
O O18 0.223053 0.250000 0.631303
O O19 0.307216 0.489362 0.707546
O O20 0.380784 0.250000 0.785181
O O21 0.838886 0.250000 0.743257
#
# Coordination Sequence:
#
# PCOD9165682 Si02
#       8
#     4   4   4   4   4   4   4   4
#     4  11  22  37  58  88 117 150 190 238 291 348
#     4  11  23  36  52  80 116 156 194 237 289 346
#     4  11  22  35  55  82 114 148 188 237 285 340
#     4  11  21  36  57  85 117 153 194 242 288 341
#     4  10  21  40  61  84 113 154 200 242 287 343
#     4  11  21  37  60  86 114 149 188 234 289 346
#     4   9  20  38  61  85 115 154 198 240 287 343
#     4  10  22  38  59  83 115 152 189 234 291 349
#
# _framework density 19.535249
#
# number of rings (size 3 to 8) (size 9 to 14) (size 15 to 20)
#    0.000    1.500    2.500    3.000    0.000    4.500 
#    0.000    2.500    0.000    0.000    0.000    0.000 
#    0.000    0.000    0.000    0.000    0.000    0.000 
#
# Total GULP energy -178775.450900 kJ/mol
# GULP energy per Si atom -5586.732841 kJ/mol
# Density = 1.949079 g / cm^3
# Si number density = 19.535249 Si / 1000 Ang^3
#
#
#
# Elastic Constant Matrix: (Units=GPa)
#
#
# Indices 1 2 3 4 5 6 
#
# 1 125.0467 9.3166 36.8478 0.0000 18.7556 0.0000
# 2 9.3166 23.1878 16.6129 0.0000 0.8696 0.0000
# 3 36.8478 16.6129 89.8233 0.0000 15.8699 0.0000
# 4 0.0000 0.0000 0.0000 27.2465 0.0000 7.9981
# 5 18.7556 0.8696 15.8699 0.0000 27.6461 0.0000
# 6 0.0000 0.0000 0.0000 7.9981 0.0000 14.1277
#
#
#
# Elastic Compliance Matrix: (Units=1/GPa)
#
#
# Indices 1 2 3 4 5 6 
#
# 1 0.009683 -0.001709 -0.002788 0.000000 -0.004915 0.000000
# 2 -0.001709 0.050443 -0.009518 0.000000 0.005037 0.000000
# 3 -0.002788 -0.009518 0.015191 0.000000 -0.006529 0.000000
# 4 0.000000 0.000000 0.000000 0.044017 0.000000 -0.024919
# 5 -0.004915 0.005037 -0.006529 0.000000 0.043096 0.000000
# 6 0.000000 0.000000 0.000000 -0.024919 0.000000 0.084890
#
#
# Mechanical properties :
#
#
# Convention : Reuss Voigt Hill
#
# Bulk Modulus (GPa) = 21.14755 40.40138 30.77446
# Shear Modulus (GPa) = 17.17554 25.48944 21.33249
#
# Velocity S-wave (km/s) = 2.96836 3.61611 3.30813
# Velocity P-wave (km/s) = 4.75364 6.17747 5.51172
#
# Compressibility (1/GPa) = 0.04728681
#
# Stress axis : x y z
#
# Youngs Moduli (GPa) = 103.27354 19.82429 65.83019
#
# Poissons Ratio (x) = 0.03388 0.18352
# Poissons Ratio (y) = 0.17648 0.62659
# Poissons Ratio (z) = 0.28790 0.18869
#
# Static dielectric constant tensor:
#      x y z
#    x 1.713230 0.000000 0.015550 
#    y 0.000000 1.669140 0.000000 
#    z 0.015550 0.000000 1.710120 
# 
# From -- ./inp_files/38119.got.cif
#   From: 2010.05.17/outbox.cif.g08.bks.cpg/sg11_20_cif.got.tgz:38119.got - 2010.06.03 12:22:45.
