data_PCOD9165169
_publ_section_title
;
Structure prediction by ZEFSAII (Michael W. Deem and Ramdas Pophale) SiO2 
 PCOD9165169
Probable space group: P 21/M
;
_chemical_formula_sum "Si O2"
_cell_formula_units_Z 24
_cell_length_a 15.155424
_cell_length_b 7.788031
_cell_length_c 9.765730
_cell_angle_alpha 90.000000
_cell_angle_beta 82.722423
_cell_angle_gamma 90.000000
_cell_volume 1143.372313
_symmetry_space_group_name_H-M "P 21/M"
_symmetry_group_IT_number 11
_symmetry_cell_setting 'monoclinic'
loop_
_space_group_symop_operation_xyz
x,y,z
-x,1/2+y,-z
-x,-y,-z
x,1/2-y,z
loop_
_atom_site_type_symbol
_atom_site_label
_atom_site_fract_x
_atom_site_fract_y
_atom_site_fract_z
Si Si1 0.243853 0.547890 0.056916
Si Si2 0.544407 0.956844 0.633821
Si Si3 0.746460 0.952582 0.635092
Si Si4 0.572412 0.043832 0.097804
Si Si5 0.086453 0.457359 0.574116
Si Si6 0.915481 0.544809 0.109574
O O1 0.255678 0.750000 0.079714
O O2 0.226848 0.472033 0.210771
O O3 0.333857 0.474419 0.972817
O O4 0.167638 0.523160 0.960365
O O5 0.549339 0.750000 0.650040
O O6 0.645809 0.022383 0.633634
O O7 0.472963 0.024885 0.756836
O O8 0.500000 0.000000 0.500000
O O9 0.741206 0.750000 0.606147
O O10 0.824202 0.022293 0.520701
O O11 0.582856 0.250000 0.109915
O O12 0.500000 0.000000 0.000000
O O13 0.091173 0.250000 0.577909
O O14 0.079406 0.518499 0.733667
O O15 0.000000 0.500000 0.500000
O O16 0.908296 0.750000 0.117688
O O17 0.000000 0.500000 0.000000
#
# Coordination Sequence:
#
# PCOD9165169 Si02
#       6
#     4   4   4   4   4   4
#     4  11  23  38  60  91 122 155 198 244 293 350
#     4  10  22  38  58  85 119 157 199 246 293 347
#     4  10  21  40  62  85 117 157 199 242 296 352
#     4  10  21  38  59  86 119 157 201 244 290 345
#     4  10  23  41  62  88 116 151 192 237 291 350
#     4  11  24  42  64  90 120 154 195 242 294 352
#
# _framework density 20.990538999999998
#
# number of rings (size 3 to 8) (size 9 to 14) (size 15 to 20)
#    0.000    1.667    1.667    2.000    2.333    6.667 
#    0.000    0.000    0.000    0.000    0.000    0.000 
#    0.000    0.000    0.000    0.000    0.000    0.000 
#
# Total GULP energy -133993.233122 kJ/mol
# GULP energy per Si atom -5583.051380 kJ/mol
# Density = 2.094276 g / cm^3
# Si number density = 20.990539 Si / 1000 Ang^3
#
#
#
# Elastic Constant Matrix: (Units=GPa)
#
#
# Indices 1 2 3 4 5 6 
#
# 1 142.5271 -12.2814 81.5573 0.0000 -15.2665 0.0000
# 2 -12.2814 25.1150 -13.7595 0.0000 -11.3322 0.0000
# 3 81.5573 -13.7595 205.6993 0.0000 -14.9391 0.0000
# 4 0.0000 0.0000 0.0000 24.4621 0.0000 8.6872
# 5 -15.2665 -11.3322 -14.9391 0.0000 42.7590 0.0000
# 6 0.0000 0.0000 0.0000 8.6872 0.0000 22.1763
#
#
#
# Elastic Compliance Matrix: (Units=1/GPa)
#
#
# Indices 1 2 3 4 5 6 
#
# 1 0.009651 0.004505 -0.003271 0.000000 0.003497 0.000000
# 2 0.004505 0.050775 0.002775 0.000000 0.016035 0.000000
# 3 -0.003271 0.002775 0.006477 0.000000 0.001830 0.000000
# 4 0.000000 0.000000 0.000000 0.047486 0.000000 -0.018602
# 5 0.003497 0.016035 0.001830 0.000000 0.029524 0.000000
# 6 0.000000 0.000000 0.000000 -0.018602 0.000000 0.052380
#
#
# Mechanical properties :
#
#
# Convention : Reuss Voigt Hill
#
# Bulk Modulus (GPa) = 13.34759 53.81935 33.58347
# Shear Modulus (GPa) = 23.44677 39.06779 31.25728
#
# Velocity S-wave (km/s) = 3.34581 4.31885 3.86309
# Velocity P-wave (km/s) = 4.61503 7.11094 5.99433
#
# Compressibility (1/GPa) = 0.07491991
#
# Stress axis : x y z
#
# Youngs Moduli (GPa) = 103.61893 19.69474 154.39329
#
# Poissons Ratio (x) = -0.08872 0.50504
# Poissons Ratio (y) = -0.46680 -0.42841
# Poissons Ratio (z) = 0.33895 -0.05465
#
# Static dielectric constant tensor:
#      x y z
#    x 1.774580 0.000000 0.055910 
#    y 0.000000 1.783280 0.000000 
#    z 0.055910 0.000000 1.908120 
# 
# From -- ./inp_files/20319.got.cif
#   From: 2010.05.17/outbox.cif.g08.bks.cpg/sg11_11_cif.got.tgz:20319.got - 2010.06.03 12:22:45.
