data_PCOD9165343
_publ_section_title
;
Structure prediction by ZEFSAII (Michael W. Deem and Ramdas Pophale) SiO2 
 PCOD9165343
Probable space group: P 21/M
;
_chemical_formula_sum "Si O2"
_cell_formula_units_Z 32
_cell_length_a 11.784092
_cell_length_b 12.571958
_cell_length_c 10.924502
_cell_angle_alpha 90.000000
_cell_angle_beta 66.725462
_cell_angle_gamma 90.000000
_cell_volume 1486.748706
_symmetry_space_group_name_H-M "P 21/M"
_symmetry_group_IT_number 11
_symmetry_cell_setting 'monoclinic'
loop_
_space_group_symop_operation_xyz
x,y,z
-x,1/2+y,-z
-x,-y,-z
x,1/2-y,z
loop_
_atom_site_type_symbol
_atom_site_label
_atom_site_fract_x
_atom_site_fract_y
_atom_site_fract_z
Si Si1 0.355287 0.866819 0.841481
Si Si2 0.018461 0.037046 0.629725
Si Si3 0.873876 0.870570 0.016056
Si Si4 0.766815 0.037213 0.880405
Si Si5 0.588987 0.019643 0.732432
Si Si6 0.484163 0.126819 0.558124
Si Si7 0.131456 0.934345 0.800406
Si Si8 0.738848 0.862300 0.501050
O O1 0.408018 0.750000 0.818935
O O2 0.466280 0.949068 0.799754
O O3 0.265226 0.884497 0.764314
O O4 0.265772 0.884083 0.995426
O O5 0.090252 0.948193 0.678971
O O6 0.117368 0.130240 0.583815
O O7 0.000000 0.000000 0.500000
O O8 0.891743 0.062039 0.753139
O O9 0.835946 0.750000 0.055468
O O10 0.018044 0.874466 0.914505
O O11 0.795609 0.926035 0.939391
O O12 0.864221 0.950578 0.134476
O O13 0.653883 0.039414 0.833949
O O14 0.689971 0.954497 0.610133
O O15 0.541585 0.115954 0.668011
O O16 0.523904 0.250000 0.497319
O O17 0.338674 0.132596 0.591266
O O18 0.500000 0.000000 0.500000
O O19 0.708711 0.750000 0.575048
#
# Coordination Sequence:
#
# PCOD9165343 Si02
#       8
#     4   4   4   4   4   4   4   4
#     4  11  23  40  63  89 123 169 216 272 335 394
#     4  11  21  40  62  87 127 169 205 269 337 403
#     4   9  18  36  62  86 118 164 212 272 333 397
#     4  10  23  40  61  93 129 165 217 269 332 404
#     4  11  21  40  62  90 132 168 216 275 327 396
#     4   9  20  39  67  99 136 182 232 282 336 403
#     4   9  20  36  57  90 120 156 214 266 327 394
#     4  10  21  38  62  91 123 169 221 268 327 403
#
# _framework density 21.523477
#
# number of rings (size 3 to 8) (size 9 to 14) (size 15 to 20)
#    0.000    2.000    1.250    2.625    0.000    3.000 
#    0.000    4.375    0.000    6.750    0.000    0.000 
#    0.000    0.000    0.000    0.000    0.000    0.000 
#
# Total GULP energy -178259.374874 kJ/mol
# GULP energy per Si atom -5570.605465 kJ/mol
# Density = 2.147449 g / cm^3
# Si number density = 21.523477 Si / 1000 Ang^3
#
#
#
# Elastic Constant Matrix: (Units=GPa)
#
#
# Indices 1 2 3 4 5 6 
#
# 1 130.7192 23.0455 34.3542 0.0000 21.8298 0.0000
# 2 23.0455 111.1002 23.3580 0.0000 1.9983 0.0000
# 3 34.3542 23.3580 87.9420 0.0000 5.7821 0.0000
# 4 0.0000 0.0000 0.0000 -2.7327 0.0000 -3.8335
# 5 21.8298 1.9983 5.7821 0.0000 38.5137 0.0000
# 6 0.0000 0.0000 0.0000 -3.8335 0.0000 10.4612
#
#
#
# Elastic Compliance Matrix: (Units=1/GPa)
#
#
# Indices 1 2 3 4 5 6 
#
# 1 0.009481 -0.001237 -0.003056 0.000000 -0.004851 0.000000
# 2 -0.001237 0.009695 -0.002126 0.000000 0.000517 0.000000
# 3 -0.003056 -0.002126 0.013138 0.000000 -0.000130 0.000000
# 4 0.000000 0.000000 0.000000 -0.241694 0.000000 -0.088567
# 5 -0.004851 0.000517 -0.000130 0.000000 0.028707 0.000000
# 6 0.000000 0.000000 0.000000 -0.088567 0.000000 0.063136
#
#
# Mechanical properties :
#
#
# Convention : Reuss Voigt Hill
#
# Bulk Modulus (GPa) = 51.34411 54.58629 52.96520
# Shear Modulus (GPa) = -50.91376 25.84871 -12.53253
#
# Velocity S-wave (km/s) = -4.86892 3.46924 -2.41565
# Velocity P-wave (km/s) = 2.77520 6.43924 4.10865
#
# Compressibility (1/GPa) = 0.01947643
#
# Stress axis : x y z
#
# Youngs Moduli (GPa) = 105.46957 103.14490 76.11343
#
# Poissons Ratio (x) = 0.12758 0.23263
# Poissons Ratio (y) = 0.13045 0.16181
# Poissons Ratio (z) = 0.32236 0.21928
#
# Static dielectric constant tensor:
#      x y z
#    x 1.784610 0.000000 0.004970 
#    y 0.000000 1.826190 0.000000 
#    z 0.004970 0.000000 1.858990 
# 
# From -- ./inp_files/35017.got.cif
#   From: 2010.05.17/outbox.cif.g08.bks.cpg/sg11_18_cif.got.tgz:35017.got - 2010.06.03 12:22:45.
