data_PCOD9165133
_publ_section_title
;
Structure prediction by ZEFSAII (Michael W. Deem and Ramdas Pophale) SiO2 
 PCOD9165133
Probable space group: P 21/M
;
_chemical_formula_sum "Si O2"
_cell_formula_units_Z 24
_cell_length_a 12.325528
_cell_length_b 8.932261
_cell_length_c 12.111101
_cell_angle_alpha 90.000000
_cell_angle_beta 61.195561
_cell_angle_gamma 90.000000
_cell_volume 1168.390955
_symmetry_space_group_name_H-M "P 21/M"
_symmetry_group_IT_number 11
_symmetry_cell_setting 'monoclinic'
loop_
_space_group_symop_operation_xyz
x,y,z
-x,1/2+y,-z
-x,-y,-z
x,1/2-y,z
loop_
_atom_site_type_symbol
_atom_site_label
_atom_site_fract_x
_atom_site_fract_y
_atom_site_fract_z
Si Si1 0.933995 0.904378 0.892741
Si Si2 0.766350 0.072089 0.824817
Si Si3 0.202493 0.516214 0.835327
Si Si4 0.413999 0.582382 0.900985
Si Si5 0.637623 0.066974 0.446228
Si Si6 0.666988 0.930852 0.666836
O O1 0.903207 0.750000 0.847696
O O2 0.886887 0.038647 0.839951
O O3 0.858899 0.906777 0.044616
O O4 0.077787 0.907607 0.851797
O O5 0.753504 0.250000 0.814387
O O6 0.763282 0.983585 0.712338
O O7 0.651999 0.014638 0.958905
O O8 0.305699 0.592411 0.862502
O O9 0.279258 0.485658 0.687462
O O10 0.451150 0.750000 0.915491
O O11 0.533805 0.516199 0.783044
O O12 0.640059 0.250000 0.431008
O O13 0.500000 0.000000 0.500000
O O14 0.683781 0.016606 0.543868
O O15 0.665073 0.750000 0.652092
#
# Coordination Sequence:
#
# PCOD9165133 Si02
#       6
#     4   4   4   4   4   4
#     4  10  21  38  65  93 119 156 204 253 298 353
#     4  10  21  38  58  85 121 160 201 247 303 355
#     4  10  21  38  61  91 125 158 195 248 306 355
#     4   9  17  33  57  85 117 153 190 241 300 352
#     4  12  24  40  61  88 124 163 200 243 300 360
#     4  11  22  38  59  86 120 159 203 247 297 358
#
# _framework density 20.541070000000001
#
# number of rings (size 3 to 8) (size 9 to 14) (size 15 to 20)
#    0.000    1.667    1.667    3.500    0.000    6.000 
#    0.000    2.500    0.000    0.000    0.000    0.000 
#    0.000    0.000    0.000    0.000    0.000    0.000 
#
# Total GULP energy -133601.592978 kJ/mol
# GULP energy per Si atom -5566.733041 kJ/mol
# Density = 2.049432 g / cm^3
# Si number density = 20.541070 Si / 1000 Ang^3
#
#
#
# Elastic Constant Matrix: (Units=GPa)
#
#
# Indices 1 2 3 4 5 6 
#
# 1 78.1752 23.5210 40.4221 0.0000 5.3987 0.0000
# 2 23.5210 42.5953 8.4831 0.0000 2.5775 0.0000
# 3 40.4221 8.4831 117.9856 0.0000 16.1629 0.0000
# 4 0.0000 0.0000 0.0000 111.3195 0.0000 -114.0802
# 5 5.3987 2.5775 16.1629 0.0000 38.0161 0.0000
# 6 0.0000 0.0000 0.0000 -114.0802 0.0000 159.8562
#
#
#
# Elastic Compliance Matrix: (Units=1/GPa)
#
#
# Indices 1 2 3 4 5 6 
#
# 1 0.018455 -0.009076 -0.005729 0.000000 0.000430 0.000000
# 2 -0.009076 0.028313 0.001232 0.000000 -0.001155 0.000000
# 3 -0.005729 0.001232 0.010884 0.000000 -0.003897 0.000000
# 4 0.000000 0.000000 0.000000 0.033437 0.000000 0.023862
# 5 0.000430 -0.001155 -0.003897 0.000000 0.027979 0.000000
# 6 0.000000 0.000000 0.000000 0.023862 0.000000 0.023285
#
#
# Mechanical properties :
#
#
# Convention : Reuss Voigt Hill
#
# Bulk Modulus (GPa) = 32.78096 42.62317 37.70207
# Shear Modulus (GPa) = 27.82924 72.92702 50.37813
#
# Velocity S-wave (km/s) = 3.68477 5.96491 4.95770
# Velocity P-wave (km/s) = 5.83924 8.26047 7.15305
#
# Compressibility (1/GPa) = 0.03050551
#
# Stress axis : x y z
#
# Youngs Moduli (GPa) = 54.18532 35.31943 91.88014
#
# Poissons Ratio (x) = 0.32056 0.52640
# Poissons Ratio (y) = 0.49178 -0.11319
# Poissons Ratio (z) = 0.31044 -0.04351
#
# Static dielectric constant tensor:
#      x y z
#    x 1.742070 0.000000 -0.005310 
#    y 0.000000 1.758480 0.000000 
#    z -0.005310 0.000000 1.738640 
# 
# From -- ./inp_files/33686.got.cif
#   From: 2010.05.17/outbox.cif.g08.bks.cpg/sg11_17_cif.got.tgz:33686.got - 2010.06.03 12:22:45.
