data_PCOD9165266
_publ_section_title
;
Structure prediction by ZEFSAII (Michael W. Deem and Ramdas Pophale) SiO2 
 PCOD9165266
Probable space group: P 21/M
;
_chemical_formula_sum "Si O2"
_cell_formula_units_Z 32
_cell_length_a 21.395302
_cell_length_b 8.777174
_cell_length_c 26.738178
_cell_angle_alpha 90.000000
_cell_angle_beta 159.323729
_cell_angle_gamma 90.000000
_cell_volume 1772.911917
_symmetry_space_group_name_H-M "P 21/M"
_symmetry_group_IT_number 11
_symmetry_cell_setting 'monoclinic'
loop_
_space_group_symop_operation_xyz
x,y,z
-x,1/2+y,-z
-x,-y,-z
x,1/2-y,z
loop_
_atom_site_type_symbol
_atom_site_label
_atom_site_fract_x
_atom_site_fract_y
_atom_site_fract_z
Si Si1 0.646332 0.566185 0.338877
Si Si2 0.305757 0.067519 0.362947
Si Si3 0.310066 0.066767 0.844330
Si Si4 0.740800 0.567949 0.940580
Si Si5 0.995585 0.568445 0.941773
Si Si6 0.194510 0.067140 0.647041
Si Si7 0.962841 0.433310 0.757675
Si Si8 0.020881 0.066421 0.341684
O O1 0.632838 0.750000 0.329766
O O2 0.456099 0.496478 0.207452
O O3 0.701648 0.516541 0.324474
O O4 0.803692 0.523737 0.494981
O O5 0.314634 0.250000 0.375921
O O6 0.184552 0.034061 0.223564
O O7 0.500000 0.000000 0.500000
O O8 0.200099 0.996293 0.330937
O O9 0.308919 0.250000 0.848300
O O10 0.277758 0.025118 0.762253
O O11 0.151812 0.999145 0.759502
O O12 0.500000 0.000000 0.000000
O O13 0.736940 0.750000 0.935124
O O14 0.848348 0.501882 0.974449
O O15 0.857639 0.525854 0.077162
O O16 0.014511 0.750000 0.958108
O O17 0.000000 0.500000 0.000000
O O18 0.183855 0.250000 0.636930
O O19 0.000000 0.000000 0.500000
O O20 0.951472 0.250000 0.746517
O O21 0.966147 0.502922 0.704829
O O22 0.009503 0.250000 0.332171
#
# Coordination Sequence:
#
# PCOD9165266 Si02
#       8
#     4   4   4   4   4   4   4   4
#     4  10  22  39  59  85 116 152 193 238 289 346
#     4  10  21  38  61  89 118 155 197 238 287 343
#     4  11  24  40  60  88 118 152 194 241 292 347
#     4  10  22  39  60  87 116 152 194 237 288 342
#     4  10  21  38  61  88 119 154 192 237 285 339
#     4  10  21  39  61  85 114 151 192 239 292 344
#     4  10  22  40  60  86 119 154 194 242 289 343
#     4  11  23  40  61  85 116 154 194 241 292 345
#
# _framework density 18.049402000000001
#
# number of rings (size 3 to 8) (size 9 to 14) (size 15 to 20)
#    0.000    1.750    1.250    2.250    1.750    6.000 
#    0.000    0.000    0.000    0.000    0.000    0.000 
#    0.000    0.000    0.000    0.000    0.000    0.000 
#
# Total GULP energy -178746.629556 kJ/mol
# GULP energy per Si atom -5585.832174 kJ/mol
# Density = 1.800832 g / cm^3
# Si number density = 18.049402 Si / 1000 Ang^3
#
#
#
# Elastic Constant Matrix: (Units=GPa)
#
#
# Indices 1 2 3 4 5 6 
#
# 1 187.7337 68.4350 125.4130 0.0000 -13.0338 0.0000
# 2 68.4350 56.1911 72.0020 0.0000 -3.0073 0.0000
# 3 125.4130 72.0020 195.4951 0.0000 11.8472 0.0000
# 4 0.0000 0.0000 0.0000 35.5733 0.0000 4.3752
# 5 -13.0338 -3.0073 11.8472 0.0000 29.9426 0.0000
# 6 0.0000 0.0000 0.0000 4.3752 0.0000 35.2601
#
#
#
# Elastic Compliance Matrix: (Units=1/GPa)
#
#
# Indices 1 2 3 4 5 6 
#
# 1 0.012155 -0.007447 -0.005461 0.000000 0.006704 0.000000
# 2 -0.007447 0.040516 -0.010446 0.000000 0.004961 0.000000
# 3 -0.005461 -0.010446 0.012985 0.000000 -0.008564 0.000000
# 4 0.000000 0.000000 0.000000 0.028547 0.000000 -0.003542
# 5 0.006704 0.004961 -0.008564 0.000000 0.040202 0.000000
# 6 0.000000 0.000000 0.000000 -0.003542 0.000000 0.028800
#
#
# Mechanical properties :
#
#
# Convention : Reuss Voigt Hill
#
# Bulk Modulus (GPa) = 52.77431 107.90220 80.33826
# Shear Modulus (GPa) = 23.12363 31.72650 27.42507
#
# Velocity S-wave (km/s) = 3.58317 4.19711 3.90223
# Velocity P-wave (km/s) = 6.81330 9.13231 8.05668
#
# Compressibility (1/GPa) = 0.01894861
#
# Stress axis : x y z
#
# Youngs Moduli (GPa) = 82.27050 24.68132 77.01329
#
# Poissons Ratio (x) = 0.18380 0.42058
# Poissons Ratio (y) = 0.61267 0.80446
# Poissons Ratio (z) = 0.44929 0.25781
#
# Static dielectric constant tensor:
#      x y z
#    x 1.576530 0.000000 -0.007230 
#    y 0.000000 1.607110 0.000000 
#    z -0.007230 0.000000 1.593150 
# 
# From -- ./inp_files/72207.got.cif
#   From: 2010.05.17/outbox.cif.g08.bks.cpg/sg11_37_cif.got.tgz:72207.got - 2010.06.03 12:22:45.
