data_PCOD9165007
_publ_section_title
;
Structure prediction by ZEFSAII (Michael W. Deem and Ramdas Pophale) SiO2 
 PCOD9165007
Probable space group: P 21/M
;
_chemical_formula_sum "Si O2"
_cell_formula_units_Z 32
_cell_length_a 12.575130
_cell_length_b 15.916086
_cell_length_c 16.476140
_cell_angle_alpha 90.000000
_cell_angle_beta 153.520558
_cell_angle_gamma 90.000000
_cell_volume 1470.344125
_symmetry_space_group_name_H-M "P 21/M"
_symmetry_group_IT_number 11
_symmetry_cell_setting 'monoclinic'
loop_
_space_group_symop_operation_xyz
x,y,z
-x,1/2+y,-z
-x,-y,-z
x,1/2-y,z
loop_
_atom_site_type_symbol
_atom_site_label
_atom_site_fract_x
_atom_site_fract_y
_atom_site_fract_z
Si Si1 0.712008 0.154197 0.759614
Si Si2 0.089153 0.648550 0.701638
Si Si3 0.038158 0.352965 0.559135
Si Si4 0.916223 0.116955 0.727242
Si Si5 0.765526 0.574560 0.617317
Si Si6 0.398412 0.655318 0.641122
Si Si7 0.637160 0.851811 0.069293
Si Si8 0.829368 0.648229 0.837326
O O1 0.631081 0.250000 0.721295
O O2 0.856394 0.155310 0.773265
O O3 0.486638 0.094722 0.596213
O O4 0.901585 0.125840 0.956003
O O5 0.087949 0.750000 0.704497
O O6 0.941711 0.622476 0.520617
O O7 0.969328 0.613798 0.700222
O O8 0.363614 0.620807 0.879413
O O9 0.032843 0.250000 0.558214
O O10 0.236597 0.379005 0.759894
O O11 0.780304 0.383690 0.415794
O O12 0.764838 0.159801 0.551642
O O13 0.190349 0.120346 0.886070
O O14 0.820522 0.022567 0.664155
O O15 0.759755 0.616159 0.701787
O O16 0.452844 0.750000 0.707373
O O17 0.644000 0.615827 0.778629
O O18 0.638444 0.750000 0.068447
O O19 0.812827 0.750000 0.826527
#
# Coordination Sequence:
#
# PCOD9165007 Si02
#       8
#     4   4   4   4   4   4   4   4
#     4  11  23  40  64  88 112 155 208 250 290 346
#     4  10  21  37  61  83 113 159 200 240 289 352
#     4   8  16  32  56  86 111 140 191 252 295 328
#     4  11  22  38  61  89 123 160 191 244 305 356
#     4  12  25  41  55  88 132 164 189 231 302 369
#     4   9  17  35  61  87 118 149 195 260 300 333
#     4   9  19  37  61  88 113 148 204 257 289 330
#     4  10  22  38  62  89 115 154 203 250 292 343
#
# _framework density 21.763612999999999
#
# number of rings (size 3 to 8) (size 9 to 14) (size 15 to 20)
#    0.000    2.000    1.250    3.375    1.750    2.000 
#    0.000    5.000    0.000    0.000    0.000    0.000 
#    0.000    0.000    0.000    0.000    0.000    0.000 
#
# Total GULP energy -178828.825133 kJ/mol
# GULP energy per Si atom -5588.400785 kJ/mol
# Density = 2.171408 g / cm^3
# Si number density = 21.763613 Si / 1000 Ang^3
#
#
#
# Elastic Constant Matrix: (Units=GPa)
#
#
# Indices 1 2 3 4 5 6 
#
# 1 47.7106 0.2049 6.3627 0.0000 10.4602 0.0000
# 2 0.2049 25.3582 11.4795 0.0000 0.0922 0.0000
# 3 6.3627 11.4795 62.7585 0.0000 7.3243 0.0000
# 4 0.0000 0.0000 0.0000 1.0491 0.0000 18.2985
# 5 10.4602 0.0922 7.3243 0.0000 23.4531 0.0000
# 6 0.0000 0.0000 0.0000 18.2985 0.0000 -0.0505
#
#
#
# Elastic Compliance Matrix: (Units=1/GPa)
#
#
# Indices 1 2 3 4 5 6 
#
# 1 0.023321 0.000425 -0.001274 0.000000 -0.010005 0.000000
# 2 0.000425 0.043131 -0.008189 0.000000 0.002198 0.000000
# 3 -0.001274 -0.008189 0.018153 0.000000 -0.005068 0.000000
# 4 0.000000 0.000000 0.000000 0.000151 0.000000 0.054641
# 5 -0.010005 0.002198 -0.005068 0.000000 0.048675 0.000000
# 6 0.000000 0.000000 0.000000 0.054641 0.000000 -0.003133
#
#
# Mechanical properties :
#
#
# Convention : Reuss Voigt Hill
#
# Bulk Modulus (GPa) = 15.03133 19.10240 17.06687
# Shear Modulus (GPa) = 29.31684 12.74236 21.02960
#
# Velocity S-wave (km/s) = 3.67421 2.42231 3.11187
# Velocity P-wave (km/s) = 4.99213 4.07673 4.55747
#
# Compressibility (1/GPa) = 0.06652769
#
# Stress axis : x y z
#
# Youngs Moduli (GPa) = 42.87910 23.18538 55.08828
#
# Poissons Ratio (x) = -0.00985 0.07021
# Poissons Ratio (y) = -0.01822 0.45111
# Poissons Ratio (z) = 0.05465 0.18986
#
# Static dielectric constant tensor:
#      x y z
#    x 1.778930 0.000000 0.010950 
#    y 0.000000 1.790460 0.000000 
#    z 0.010950 0.000000 1.793790 
# 
# From -- ./inp_files/50702.got.cif
#   From: 2010.05.17/outbox.cif.g08.bks.cpg/sg11_26_cif.got.tgz:50702.got - 2010.06.03 12:22:45.
