data_PCOD9165232
_publ_section_title
;
Structure prediction by ZEFSAII (Michael W. Deem and Ramdas Pophale) SiO2 
 PCOD9165232
Probable space group: P 21/M
;
_chemical_formula_sum "Si O2"
_cell_formula_units_Z 24
_cell_length_a 7.196702
_cell_length_b 11.812656
_cell_length_c 14.900290
_cell_angle_alpha 90.000000
_cell_angle_beta 61.355030
_cell_angle_gamma 90.000000
_cell_volume 1111.669966
_symmetry_space_group_name_H-M "P 21/M"
_symmetry_group_IT_number 11
_symmetry_cell_setting 'monoclinic'
loop_
_space_group_symop_operation_xyz
x,y,z
-x,1/2+y,-z
-x,-y,-z
x,1/2-y,z
loop_
_atom_site_type_symbol
_atom_site_label
_atom_site_fract_x
_atom_site_fract_y
_atom_site_fract_z
Si Si1 0.166875 0.368765 0.042805
Si Si2 0.751219 0.936579 0.777203
Si Si3 0.270892 0.970990 0.860616
Si Si4 0.594157 0.873806 0.485678
Si Si5 0.066226 0.123170 0.752616
Si Si6 0.923215 0.624413 0.554037
O O1 0.239483 0.250000 0.986679
O O2 0.238669 0.377714 0.128750
O O3 0.911765 0.377040 0.099767
O O4 0.251620 0.469226 0.961945
O O5 0.513577 0.937343 0.795341
O O6 0.851365 0.059502 0.775098
O O7 0.901715 0.884546 0.665890
O O8 0.190959 0.055904 0.801218
O O9 0.480467 0.750000 0.498350
O O10 0.783572 0.873463 0.369214
O O11 0.694570 0.869228 0.560671
O O12 0.500000 0.000000 0.500000
O O13 0.022423 0.250000 0.793218
O O14 0.022251 0.750000 0.507838
O O15 0.000000 0.500000 0.500000
#
# Coordination Sequence:
#
# PCOD9165232 Si02
#       6
#     4   4   4   4   4   4
#     4  10  22  40  61  90 126 162 205 259 317 383
#     4  11  22  40  64  91 125 165 216 260 324 380
#     4  10  22  40  63  91 124 162 208 258 317 385
#     4  10  21  39  59  86 120 161 209 262 317 377
#     4  10  21  38  60  89 124 160 208 265 316 375
#     4  11  23  40  62  89 126 166 212 264 319 381
#
# _framework density 21.589143
#
# number of rings (size 3 to 8) (size 9 to 14) (size 15 to 20)
#    0.000    1.667    1.667    2.500    0.000    3.333 
#    0.000    2.500    0.000    0.000    0.000    0.000 
#    0.000    0.000    0.000    0.000    0.000    0.000 
#
# Total GULP energy -133712.056157 kJ/mol
# GULP energy per Si atom -5571.335673 kJ/mol
# Density = 2.154000 g / cm^3
# Si number density = 21.589143 Si / 1000 Ang^3
#
#
#
# Elastic Constant Matrix: (Units=GPa)
#
#
# Indices 1 2 3 4 5 6 
#
# 1 58.1882 13.7105 1.4949 0.0000 -0.2098 0.0000
# 2 13.7105 153.1735 7.9325 0.0000 -7.5262 0.0000
# 3 1.4949 7.9325 82.5511 0.0000 18.5274 0.0000
# 4 0.0000 0.0000 0.0000 -131.1685 0.0000 -68.5011
# 5 -0.2098 -7.5262 18.5274 0.0000 33.1874 0.0000
# 6 0.0000 0.0000 0.0000 -68.5011 0.0000 -18.8309
#
#
#
# Elastic Compliance Matrix: (Units=1/GPa)
#
#
# Indices 1 2 3 4 5 6 
#
# 1 0.017559 -0.001574 -0.000128 0.000000 -0.000175 0.000000
# 2 -0.001574 0.006833 -0.001113 0.000000 0.002161 0.000000
# 3 -0.000128 -0.001113 0.014039 0.000000 -0.008091 0.000000
# 4 0.000000 0.000000 0.000000 0.008473 0.000000 -0.030823
# 5 -0.000175 0.002161 -0.008091 0.000000 0.035138 0.000000
# 6 0.000000 0.000000 0.000000 -0.030823 0.000000 0.059021
#
#
# Mechanical properties :
#
#
# Convention : Reuss Voigt Hill
#
# Bulk Modulus (GPa) = 30.48565 37.79874 34.14220
# Shear Modulus (GPa) = 31.72059 -5.31074 13.20493
#
# Velocity S-wave (km/s) = 3.83728 -1.57011 2.47583
# Velocity P-wave (km/s) = 5.81244 3.77614 4.90121
#
# Compressibility (1/GPa) = 0.03280232
#
# Stress axis : x y z
#
# Youngs Moduli (GPa) = 56.95065 146.34350 71.23115
#
# Poissons Ratio (x) = 0.23030 0.00909
# Poissons Ratio (y) = 0.08962 0.07929
# Poissons Ratio (z) = 0.00726 0.16290
#
# Static dielectric constant tensor:
#      x y z
#    x 1.770330 0.000000 -0.010370 
#    y 0.000000 1.851960 0.000000 
#    z -0.010370 0.000000 1.778200 
# 
# From -- ./inp_files/46748.got.cif
#   From: 2010.05.17/outbox.cif.g08.bks.cpg/sg11_24_cif.got.tgz:46748.got - 2010.06.03 12:22:45.
