data_PCOD9165347
_publ_section_title
;
Structure prediction by ZEFSAII (Michael W. Deem and Ramdas Pophale) SiO2 
 PCOD9165347
Probable space group: P 21/M
;
_chemical_formula_sum "Si O2"
_cell_formula_units_Z 32
_cell_length_a 10.881284
_cell_length_b 17.905642
_cell_length_c 14.447448
_cell_angle_alpha 90.000000
_cell_angle_beta 150.049400
_cell_angle_gamma 90.000000
_cell_volume 1405.341858
_symmetry_space_group_name_H-M "P 21/M"
_symmetry_group_IT_number 11
_symmetry_cell_setting 'monoclinic'
loop_
_space_group_symop_operation_xyz
x,y,z
-x,1/2+y,-z
-x,-y,-z
x,1/2-y,z
loop_
_atom_site_type_symbol
_atom_site_label
_atom_site_fract_x
_atom_site_fract_y
_atom_site_fract_z
Si Si1 0.024446 0.338746 0.463760
Si Si2 0.257349 0.835882 0.898219
Si Si3 0.455115 0.100018 0.305450
Si Si4 0.178016 0.337684 0.755794
Si Si5 0.554013 0.568377 0.363226
Si Si6 0.136303 0.108625 0.931694
Si Si7 0.054093 0.936240 0.921988
Si Si8 0.618866 0.331643 0.591811
O O1 0.089438 0.250000 0.505777
O O2 0.997980 0.359497 0.554292
O O3 0.237990 0.387908 0.556878
O O4 0.796547 0.347984 0.245596
O O5 0.192060 0.750000 0.876909
O O6 0.097572 0.889861 0.857203
O O7 0.545951 0.845828 0.104481
O O8 0.593506 0.154841 0.465481
O O9 0.191566 0.084974 0.184070
O O10 0.592528 0.020407 0.392690
O O11 0.372474 0.125818 0.149628
O O12 0.142498 0.250000 0.755570
O O13 0.173726 0.383348 0.846984
O O14 0.521899 0.604645 0.443214
O O15 0.293359 0.579052 0.141151
O O16 0.905146 0.160880 0.804061
O O17 0.057061 0.023902 0.901807
O O18 0.522810 0.250000 0.554336
#
# Coordination Sequence:
#
# PCOD9165347 Si02
#       8
#     4   4   4   4   4   4   4   4
#     4  10  21  38  62  92 122 158 208 261 309 360
#     4  10  22  39  63  92 121 160 207 260 314 362
#     4  11  24  43  63  91 130 165 198 254 314 364
#     4  10  22  42  62  85 124 165 203 258 311 357
#     4  11  20  40  65  91 124 163 201 254 311 366
#     4  11  24  43  63  90 126 167 207 250 302 372
#     4  11  21  41  67  91 126 164 203 251 317 367
#     4  12  25  39  64  96 123 165 209 246 307 375
#
# _framework density 22.77026
#
# number of rings (size 3 to 8) (size 9 to 14) (size 15 to 20)
#    0.000    1.250    3.750    2.625    1.750    4.500 
#    0.000    1.875    0.000    0.000    0.000    0.000 
#    0.000    0.000    0.000    0.000    0.000    0.000 
#
# Total GULP energy -179064.644378 kJ/mol
# GULP energy per Si atom -5595.770137 kJ/mol
# Density = 2.271843 g / cm^3
# Si number density = 22.770260 Si / 1000 Ang^3
#
#
#
# Elastic Constant Matrix: (Units=GPa)
#
#
# Indices 1 2 3 4 5 6 
#
# 1 68.6404 9.3557 10.3703 0.0000 -28.6122 0.0000
# 2 9.3557 36.7844 31.4083 0.0000 -8.2916 0.0000
# 3 10.3703 31.4083 94.0584 0.0000 -27.3432 0.0000
# 4 0.0000 0.0000 0.0000 23.0729 0.0000 -10.7028
# 5 -28.6122 -8.2916 -27.3432 0.0000 42.8510 0.0000
# 6 0.0000 0.0000 0.0000 -10.7028 0.0000 19.5564
#
#
#
# Elastic Compliance Matrix: (Units=1/GPa)
#
#
# Indices 1 2 3 4 5 6 
#
# 1 0.021226 -0.005257 0.003978 0.000000 0.015694 0.000000
# 2 -0.005257 0.039359 -0.013959 0.000000 -0.004802 0.000000
# 3 0.003978 -0.013959 0.018221 0.000000 0.011582 0.000000
# 4 0.000000 0.000000 0.000000 0.058087 0.000000 0.031790
# 5 0.015694 -0.004802 0.011582 0.000000 0.040277 0.000000
# 6 0.000000 0.000000 0.000000 0.031790 0.000000 0.068532
#
#
# Mechanical properties :
#
#
# Convention : Reuss Voigt Hill
#
# Bulk Modulus (GPa) = 20.69160 33.52798 27.10979
# Shear Modulus (GPa) = 17.10628 26.98600 22.04614
#
# Velocity S-wave (km/s) = 2.74388 3.44632 3.11496
# Velocity P-wave (km/s) = 4.37554 5.53106 4.98688
#
# Compressibility (1/GPa) = 0.04832879
#
# Stress axis : x y z
#
# Youngs Moduli (GPa) = 47.11166 25.40693 54.88069
#
# Poissons Ratio (x) = 0.13357 -0.21829
# Poissons Ratio (y) = 0.24768 0.76609
# Poissons Ratio (z) = -0.18739 0.35466
#
# Static dielectric constant tensor:
#      x y z
#    x 1.843920 0.000000 -0.019290 
#    y 0.000000 1.799090 0.000000 
#    z -0.019290 0.000000 1.883240 
# 
# From -- ./inp_files/50680.got.cif
#   From: 2010.05.17/outbox.cif.g08.bks.cpg/sg11_26_cif.got.tgz:50680.got - 2010.06.03 12:22:45.
