data_PCOD9165258
_publ_section_title
;
Structure prediction by ZEFSAII (Michael W. Deem and Ramdas Pophale) SiO2 
 PCOD9165258
Probable space group: P 21/M
;
_chemical_formula_sum "Si O2"
_cell_formula_units_Z 28
_cell_length_a 12.402185
_cell_length_b 9.460070
_cell_length_c 13.810559
_cell_angle_alpha 90.000000
_cell_angle_beta 52.743442
_cell_angle_gamma 90.000000
_cell_volume 1289.674667
_symmetry_space_group_name_H-M "P 21/M"
_symmetry_group_IT_number 11
_symmetry_cell_setting 'monoclinic'
loop_
_space_group_symop_operation_xyz
x,y,z
-x,1/2+y,-z
-x,-y,-z
x,1/2-y,z
loop_
_atom_site_type_symbol
_atom_site_label
_atom_site_fract_x
_atom_site_fract_y
_atom_site_fract_z
Si Si1 0.202943 0.591699 0.970693
Si Si2 0.967602 0.093831 0.611200
Si Si3 0.912553 0.595233 0.806305
Si Si4 0.345359 0.920065 0.698143
Si Si5 0.800673 0.478104 0.410340
Si Si6 0.505567 0.585944 0.897681
Si Si7 0.581435 0.411704 0.678668
O O1 0.146796 0.750000 0.015201
O O2 0.118510 0.477676 0.075309
O O3 0.228674 0.566259 0.843438
O O4 0.353136 0.588509 0.936360
O O5 0.917311 0.250000 0.615385
O O6 0.111738 0.102656 0.589744
O O7 0.000000 0.000000 0.500000
O O8 0.873814 0.009393 0.738833
O O9 0.849885 0.750000 0.833387
O O10 0.073625 0.607455 0.702860
O O11 0.368982 0.750000 0.671580
O O12 0.301091 0.994216 0.623138
O O13 0.474266 0.999944 0.672448
O O14 0.718571 0.410160 0.542576
O O15 0.547385 0.750000 0.885694
O O16 0.592122 0.499161 0.771905
O O17 0.500000 0.500000 0.000000
O O18 0.536298 0.250000 0.720534
#
# Coordination Sequence:
#
# PCOD9165258 Si02
#       7
#     4   4   4   4   4   4   4
#     4   9  20  38  59  86 121 159 203 253 305 353
#     4  10  23  40  61  85 116 154 199 247 298 359
#     4  10  21  38  61  87 120 159 202 244 299 362
#     4  10  21  40  63  88 125 166 205 255 306 360
#     4  10  24  39  62  89 126 163 205 245 309 362
#     4  10  22  41  64  90 120 157 203 254 307 364
#     4  11  22  38  62  93 127 162 203 254 306 365
#
# _framework density 21.710902000000001
#
# number of rings (size 3 to 8) (size 9 to 14) (size 15 to 20)
#    0.857    1.143    0.000    4.286    0.000    6.286 
#    0.000    0.000    0.000    0.000    0.000    0.000 
#    0.000    0.000    0.000    0.000    0.000    0.000 
#
# Total GULP energy -156122.537283 kJ/mol
# GULP energy per Si atom -5575.804903 kJ/mol
# Density = 2.166149 g / cm^3
# Si number density = 21.710902 Si / 1000 Ang^3
#
#
#
# Elastic Constant Matrix: (Units=GPa)
#
#
# Indices 1 2 3 4 5 6 
#
# 1 76.3013 25.2136 24.5515 0.0000 20.2181 0.0000
# 2 25.2136 153.9213 64.5763 0.0000 14.7213 0.0000
# 3 24.5515 64.5763 131.7203 0.0000 17.3083 0.0000
# 4 0.0000 0.0000 0.0000 -20.0540 0.0000 3.6197
# 5 20.2181 14.7213 17.3083 0.0000 37.7424 0.0000
# 6 0.0000 0.0000 0.0000 3.6197 0.0000 15.2093
#
#
#
# Elastic Compliance Matrix: (Units=1/GPa)
#
#
# Indices 1 2 3 4 5 6 
#
# 1 0.015942 -0.001341 -0.001342 0.000000 -0.007402 0.000000
# 2 -0.001341 0.008366 -0.003743 0.000000 -0.000829 0.000000
# 3 -0.001342 -0.003743 0.009993 0.000000 -0.002404 0.000000
# 4 0.000000 0.000000 0.000000 -0.047812 0.000000 0.011379
# 5 -0.007402 -0.000829 -0.002404 0.000000 0.031886 0.000000
# 6 0.000000 0.000000 0.000000 0.011379 0.000000 0.063041
#
#
# Mechanical properties :
#
#
# Convention : Reuss Voigt Hill
#
# Bulk Modulus (GPa) = 46.61853 65.62507 56.12180
# Shear Modulus (GPa) = 49.30188 23.08631 36.19409
#
# Velocity S-wave (km/s) = 4.77050 3.26444 4.08743
# Velocity P-wave (km/s) = 7.20157 6.67092 6.94132
#
# Compressibility (1/GPa) = 0.02145070
#
# Stress axis : x y z
#
# Youngs Moduli (GPa) = 62.72772 119.53319 100.07363
#
# Poissons Ratio (x) = 0.16025 0.13426
# Poissons Ratio (y) = 0.08410 0.37454
# Poissons Ratio (z) = 0.08415 0.44737
#
# Static dielectric constant tensor:
#      x y z
#    x 1.848420 0.000000 -0.006970 
#    y 0.000000 1.784360 0.000000 
#    z -0.006970 0.000000 1.785830 
# 
# From -- ./inp_files/51571.got.cif
#   From: 2010.05.17/outbox.cif.g08.bks.cpg/sg11_26_cif.got.tgz:51571.got - 2010.06.03 12:22:45.
