data_PCOD9165160
_publ_section_title
;
Structure prediction by ZEFSAII (Michael W. Deem and Ramdas Pophale) SiO2 
 PCOD9165160
Probable space group: P 21/M
;
_chemical_formula_sum "Si O2"
_cell_formula_units_Z 32
_cell_length_a 20.454385
_cell_length_b 14.012650
_cell_length_c 15.565759
_cell_angle_alpha 90.000000
_cell_angle_beta 18.712619
_cell_angle_gamma 90.000000
_cell_volume 1431.332730
_symmetry_space_group_name_H-M "P 21/M"
_symmetry_group_IT_number 11
_symmetry_cell_setting 'monoclinic'
loop_
_space_group_symop_operation_xyz
x,y,z
-x,1/2+y,-z
-x,-y,-z
x,1/2-y,z
loop_
_atom_site_type_symbol
_atom_site_label
_atom_site_fract_x
_atom_site_fract_y
_atom_site_fract_z
Si Si1 0.287367 0.033888 0.228433
Si Si2 0.138682 0.361713 0.578937
Si Si3 0.616554 0.854679 0.062103
Si Si4 0.074497 0.645436 0.556104
Si Si5 0.081339 0.639076 0.891653
Si Si6 0.356897 0.356554 0.473801
Si Si7 0.514601 0.047592 0.606935
Si Si8 0.936475 0.548015 0.894602
O O1 0.189503 0.107738 0.418363
O O2 0.340266 0.081126 0.073135
O O3 0.155864 0.937279 0.392839
O O4 0.500000 0.000000 0.000000
O O5 0.081167 0.250000 0.656067
O O6 0.333550 0.374966 0.400636
O O7 0.977990 0.439296 0.813789
O O8 0.540232 0.750000 0.132466
O O9 0.837484 0.845536 0.830310
O O10 0.484846 0.900835 0.300839
O O11 0.171609 0.750000 0.425439
O O12 0.073270 0.607583 0.655293
O O13 0.130832 0.750000 0.810345
O O14 0.275872 0.587840 0.693443
O O15 0.877686 0.641599 0.202220
O O16 0.016009 0.579677 0.888403
O O17 0.438799 0.250000 0.385531
O O18 0.470525 0.436693 0.386603
O O19 0.305126 0.068949 0.817658
#
# Coordination Sequence:
#
# PCOD9165160 Si02
#       8
#     4   4   4   4   4   4   4   4
#     4  11  22  35  57  89 117 154 196 243 295 354
#     4  10  21  40  60  84 123 164 202 249 303 357
#     4  10  21  38  59  85 115 151 198 244 290 352
#     4   9  20  38  57  82 118 154 192 243 295 347
#     4  11  23  40  63  90 122 161 200 248 305 356
#     4  10  22  41  62  87 123 161 202 249 299 361
#     4  11  22  40  64  91 122 157 200 250 306 356
#     4  10  22  38  64  91 121 158 202 251 299 360
#
# _framework density 22.356786
#
# number of rings (size 3 to 8) (size 9 to 14) (size 15 to 20)
#    0.000    1.750    1.250    2.625    1.750    3.500 
#    0.000    0.625    0.000    0.000    0.000    0.000 
#    0.000    0.000    0.000    0.000    0.000    0.000 
#
# Total GULP energy -178792.422477 kJ/mol
# GULP energy per Si atom -5587.263202 kJ/mol
# Density = 2.230590 g / cm^3
# Si number density = 22.356786 Si / 1000 Ang^3
#
#
#
# Elastic Constant Matrix: (Units=GPa)
#
#
# Indices 1 2 3 4 5 6 
#
# 1 52.0800 13.2720 10.1607 0.0000 5.4672 0.0000
# 2 13.2720 142.2845 17.7328 0.0000 1.5320 0.0000
# 3 10.1607 17.7328 44.9509 0.0000 -1.8923 0.0000
# 4 0.0000 0.0000 0.0000 27.2012 0.0000 0.2686
# 5 5.4672 1.5320 -1.8923 0.0000 34.9953 0.0000
# 6 0.0000 0.0000 0.0000 0.2686 0.0000 13.5490
#
#
#
# Elastic Compliance Matrix: (Units=1/GPa)
#
#
# Indices 1 2 3 4 5 6 
#
# 1 0.020745 -0.001363 -0.004295 0.000000 -0.003413 0.000000
# 2 -0.001363 0.007489 -0.002657 0.000000 -0.000259 0.000000
# 3 -0.004295 -0.002657 0.024354 0.000000 0.002104 0.000000
# 4 0.000000 0.000000 0.000000 0.036770 0.000000 -0.000729
# 5 -0.003413 -0.000259 0.002104 0.000000 0.029234 0.000000
# 6 0.000000 0.000000 0.000000 -0.000729 0.000000 0.073821
#
#
# Mechanical properties :
#
#
# Convention : Reuss Voigt Hill
#
# Bulk Modulus (GPa) = 27.81061 35.73851 31.77456
# Shear Modulus (GPa) = 22.62139 28.35908 25.49024
#
# Velocity S-wave (km/s) = 3.18439 3.56543 3.38028
# Velocity P-wave (km/s) = 5.09773 5.74195 5.42940
#
# Compressibility (1/GPa) = 0.03595750
#
# Stress axis : x y z
#
# Youngs Moduli (GPa) = 48.20460 133.52439 41.06065
#
# Poissons Ratio (x) = 0.18199 0.17636
# Poissons Ratio (y) = 0.06570 0.10911
# Poissons Ratio (z) = 0.20705 0.35481
#
# Static dielectric constant tensor:
#      x y z
#    x 1.817770 0.000000 -0.035900 
#    y 0.000000 1.870060 0.000000 
#    z -0.035900 0.000000 1.671730 
# 
# From -- ./inp_files/55010.got.cif
#   From: 2010.05.17/outbox.cif.g08.bks.cpg/sg11_28_cif.got.tgz:55010.got - 2010.06.03 12:22:45.
