data_PCOD9165051
_publ_section_title
;
Structure prediction by ZEFSAII (Michael W. Deem and Ramdas Pophale) SiO2 
 PCOD9165051
Probable space group: P 21/M
;
_chemical_formula_sum "Si O2"
_cell_formula_units_Z 26
_cell_length_a 7.957483
_cell_length_b 22.790400
_cell_length_c 7.156488
_cell_angle_alpha 90.000000
_cell_angle_beta 125.427675
_cell_angle_gamma 90.000000
_cell_volume 1057.557923
_symmetry_space_group_name_H-M "P 21/M"
_symmetry_group_IT_number 11
_symmetry_cell_setting 'monoclinic'
loop_
_space_group_symop_operation_xyz
x,y,z
-x,1/2+y,-z
-x,-y,-z
x,1/2-y,z
loop_
_atom_site_type_symbol
_atom_site_label
_atom_site_fract_x
_atom_site_fract_y
_atom_site_fract_z
Si Si1 0.907776 0.044358 0.094894
Si Si2 0.457469 0.876926 0.108377
Si Si3 0.689251 0.123400 0.417708
Si Si4 0.864903 0.569811 0.255232
Si Si5 0.125088 0.250000 0.020663
Si Si6 0.137058 0.750000 0.486736
Si Si7 0.711592 0.250000 0.982994
Si Si8 0.252324 0.376800 0.221968
O O1 0.080847 0.093718 0.243161
O O2 0.848371 0.000271 0.223441
O O3 0.708336 0.080210 0.902620
O O4 0.000000 0.000000 0.000000
O O5 0.687999 0.901481 0.268846
O O6 0.388270 0.879805 0.845603
O O7 0.422450 0.808741 0.131173
O O8 0.752868 0.190139 0.502151
O O9 0.489011 0.106916 0.409968
O O10 0.898919 0.087396 0.565025
O O11 0.809366 0.596996 0.018215
O O12 0.084325 0.250000 0.768031
O O13 0.233101 0.307517 0.173371
O O14 0.895660 0.250000 0.954980
O O15 0.171732 0.750000 0.736534
#
# Coordination Sequence:
#
# PCOD9165051 Si02
#       8
#     4   4   4   4   2   2   2   4
#     4  10  21  39  61  89 127 168 224 269 317 389
#     4  10  21  40  62  92 125 170 213 274 328 381
#     4  10  21  38  60  92 126 167 219 267 330 394
#     4  10  21  38  63  87 126 173 219 259 322 393
#     4  12  19  39  73  89 135 177 206 278 349 384
#     4  10  21  38  65  94 132 167 218 267 336 414
#     4  10  22  39  68  99 135 160 220 277 327 398
#     4  10  21  37  63  91 124 172 212 270 334 384
#
# _framework density 24.584944
#
# number of rings (size 3 to 8) (size 9 to 14) (size 15 to 20)
#    0.000    1.846    3.077    0.923    0.000    3.692 
#    0.000    4.615    3.385    0.000    0.000    0.000 
#    0.000    0.000    0.000    0.000    0.000    0.000 
#
# Total GULP energy -145324.693198 kJ/mol
# GULP energy per Si atom -5589.411277 kJ/mol
# Density = 2.452899 g / cm^3
# Si number density = 24.584944 Si / 1000 Ang^3
#
#
#
# Elastic Constant Matrix: (Units=GPa)
#
#
# Indices 1 2 3 4 5 6 
#
# 1 121.6954 59.8234 40.9689 0.0000 35.2345 0.0000
# 2 59.8234 175.0187 42.9982 0.0000 19.1446 0.0000
# 3 40.9689 42.9982 127.0600 0.0000 21.3462 0.0000
# 4 0.0000 0.0000 0.0000 -17.7396 0.0000 -12.1250
# 5 35.2345 19.1446 21.3462 0.0000 32.3305 0.0000
# 6 0.0000 0.0000 0.0000 -12.1250 0.0000 15.4859
#
#
#
# Elastic Compliance Matrix: (Units=1/GPa)
#
#
# Indices 1 2 3 4 5 6 
#
# 1 0.013699 -0.003012 -0.001337 0.000000 -0.012262 0.000000
# 2 -0.003012 0.007092 -0.001434 0.000000 0.000030 0.000000
# 3 -0.001337 -0.001434 0.009447 0.000000 -0.003931 0.000000
# 4 0.000000 0.000000 0.000000 -0.036720 0.000000 -0.028751
# 5 -0.012262 0.000030 -0.003931 0.000000 0.046872 0.000000
# 6 0.000000 0.000000 0.000000 -0.028751 0.000000 0.042064
#
#
# Mechanical properties :
#
#
# Convention : Reuss Voigt Hill
#
# Bulk Modulus (GPa) = 53.55990 79.03947 66.29969
# Shear Modulus (GPa) = 49.87795 24.68094 37.27945
#
# Velocity S-wave (km/s) = 4.50911 3.17188 3.89826
# Velocity P-wave (km/s) = 6.99588 6.75528 6.87663
#
# Compressibility (1/GPa) = 0.01867068
#
# Stress axis : x y z
#
# Youngs Moduli (GPa) = 72.99999 140.99701 105.85204
#
# Poissons Ratio (x) = 0.42475 0.14157
# Poissons Ratio (y) = 0.21991 0.15177
# Poissons Ratio (z) = 0.09763 0.20216
#
# Static dielectric constant tensor:
#      x y z
#    x 2.037230 0.000000 -0.071020 
#    y 0.000000 1.904470 0.000000 
#    z -0.071020 0.000000 1.984940 
# 
# From -- ./inp_files/14580.got.cif
#   From: 2010.05.17/outbox.cif.g08.bks.cpg/sg11_8_cif.got.tgz:14580.got - 2010.06.03 12:22:45.
