data_PCOD9165692
_publ_section_title
;
Structure prediction by ZEFSAII (Michael W. Deem and Ramdas Pophale) SiO2 
 PCOD9165692
Probable space group: P 21/M
;
_chemical_formula_sum "Si O2"
_cell_formula_units_Z 26
_cell_length_a 18.594693
_cell_length_b 10.835150
_cell_length_c 15.596970
_cell_angle_alpha 90.000000
_cell_angle_beta 22.032033
_cell_angle_gamma 90.000000
_cell_volume 1178.799864
_symmetry_space_group_name_H-M "P 21/M"
_symmetry_group_IT_number 11
_symmetry_cell_setting 'monoclinic'
loop_
_space_group_symop_operation_xyz
x,y,z
-x,1/2+y,-z
-x,-y,-z
x,1/2-y,z
loop_
_atom_site_type_symbol
_atom_site_label
_atom_site_fract_x
_atom_site_fract_y
_atom_site_fract_z
Si Si1 0.721405 0.009453 0.782241
Si Si2 0.170333 0.398769 0.826693
Si Si3 0.383557 0.606150 0.925236
Si Si4 0.809704 0.990149 0.014050
Si Si5 0.260824 0.250000 0.201495
Si Si6 0.772987 0.895402 0.426574
Si Si7 0.102829 0.250000 0.185035
Si Si8 0.270205 0.750000 0.328821
O O1 0.793092 0.126537 0.651504
O O2 0.726527 0.036564 0.877937
O O3 0.500000 0.000000 0.000000
O O4 0.800904 0.873074 0.680115
O O5 0.117542 0.250000 0.895621
O O6 0.282712 0.404935 0.612634
O O7 0.263907 0.449547 0.810710
O O8 0.000000 0.500000 0.000000
O O9 0.388894 0.750000 0.943252
O O10 0.602041 0.558545 0.675731
O O11 0.297264 0.589589 0.926204
O O12 0.811880 0.868352 0.954859
O O13 0.028267 0.035696 0.781184
O O14 0.495964 0.250000 0.927163
O O15 0.169311 0.250000 0.209423
O O16 0.800845 0.750000 0.413152
O O17 0.869902 0.250000 0.434651
#
# Coordination Sequence:
#
# PCOD9165692 Si02
#       8
#     4   4   4   4   2   4   2   2
#     4  10  21  40  62  84 115 159 195 252 303 350
#     4   9  18  37  61  88 125 160 199 249 301 358
#     4  11  22  40  63  87 121 160 202 249 307 360
#     4  11  22  37  61  89 124 155 200 249 305 352
#     4  10  22  42  60  86 120 150 200 256 302 350
#     4   9  21  39  62  89 118 158 202 245 298 366
#     4  12  24  36  60  91 116 160 198 247 302 358
#     4  10  24  42  62  81 120 158 206 245 298 368
#
# _framework density 22.056332000000001
#
# number of rings (size 3 to 8) (size 9 to 14) (size 15 to 20)
#    0.000    1.846    3.077    0.462    4.308    1.846 
#    0.000    0.000    0.000    0.000    0.000    0.000 
#    0.000    0.000    0.000    0.000    0.000    0.000 
#
# Total GULP energy -145020.008352 kJ/mol
# GULP energy per Si atom -5577.692629 kJ/mol
# Density = 2.200613 g / cm^3
# Si number density = 22.056332 Si / 1000 Ang^3
#
#
#
# Elastic Constant Matrix: (Units=GPa)
#
#
# Indices 1 2 3 4 5 6 
#
# 1 69.5651 6.5561 -7.5944 0.0000 -6.6507 0.0000
# 2 6.5561 99.5824 8.0091 0.0000 9.1658 0.0000
# 3 -7.5944 8.0091 37.2681 0.0000 -4.8634 0.0000
# 4 0.0000 0.0000 0.0000 7.3872 0.0000 6.3210
# 5 -6.6507 9.1658 -4.8634 0.0000 18.9690 0.0000
# 6 0.0000 0.0000 0.0000 6.3210 0.0000 25.8432
#
#
#
# Elastic Compliance Matrix: (Units=1/GPa)
#
#
# Indices 1 2 3 4 5 6 
#
# 1 0.015835 -0.002138 0.004703 0.000000 0.007791 0.000000
# 2 -0.002138 0.011138 -0.003755 0.000000 -0.007094 0.000000
# 3 0.004703 -0.003755 0.030055 0.000000 0.011169 0.000000
# 4 0.000000 0.000000 0.000000 0.171201 0.000000 -0.041874
# 5 0.007791 -0.007094 0.011169 0.000000 0.061740 0.000000
# 6 0.000000 0.000000 0.000000 -0.041874 0.000000 0.048937
#
#
# Mechanical properties :
#
#
# Convention : Reuss Voigt Hill
#
# Bulk Modulus (GPa) = 18.29892 24.48415 21.39153
# Shear Modulus (GPa) = 13.90813 23.73619 18.82216
#
# Velocity S-wave (km/s) = 2.51385 3.28405 2.92442
# Velocity P-wave (km/s) = 4.09150 5.05023 4.59593
#
# Compressibility (1/GPa) = 0.05464803
#
# Stress axis : x y z
#
# Youngs Moduli (GPa) = 63.15243 89.78590 33.27184
#
# Poissons Ratio (x) = 0.19194 -0.15647
# Poissons Ratio (y) = 0.13501 0.12493
# Poissons Ratio (z) = -0.29700 0.33714
#
# Static dielectric constant tensor:
#      x y z
#    x 1.844640 0.000000 -0.030130 
#    y 0.000000 1.778580 0.000000 
#    z -0.030130 0.000000 1.834050 
# 
# From -- ./inp_files/53462.got.cif
#   From: 2010.05.17/outbox.cif.g08.bks.cpg/sg11_27_cif.got.tgz:53462.got - 2010.06.03 12:22:45.
