data_PCOD9165605
_publ_section_title
;
Structure prediction by ZEFSAII (Michael W. Deem and Ramdas Pophale) SiO2 
 PCOD9165605
Probable space group: P 21/M
;
_chemical_formula_sum "Si O2"
_cell_formula_units_Z 32
_cell_length_a 20.207012
_cell_length_b 14.068790
_cell_length_c 14.313627
_cell_angle_alpha 90.000000
_cell_angle_beta 158.118672
_cell_angle_gamma 90.000000
_cell_volume 1516.529674
_symmetry_space_group_name_H-M "P 21/M"
_symmetry_group_IT_number 11
_symmetry_cell_setting 'monoclinic'
loop_
_space_group_symop_operation_xyz
x,y,z
-x,1/2+y,-z
-x,-y,-z
x,1/2-y,z
loop_
_atom_site_type_symbol
_atom_site_label
_atom_site_fract_x
_atom_site_fract_y
_atom_site_fract_z
Si Si1 0.147381 0.418386 0.679422
Si Si2 0.189645 0.136315 0.105467
Si Si3 0.473729 0.002398 0.770899
Si Si4 0.822411 0.547199 0.483798
Si Si5 0.872848 0.137140 0.997713
Si Si6 0.013872 0.355448 0.692495
Si Si7 0.476247 0.864266 0.338364
Si Si8 0.190833 0.864215 0.302003
O O1 0.147701 0.391277 0.570836
O O2 0.090274 0.350749 0.688770
O O3 0.000000 0.500000 0.500000
O O4 0.343012 0.456244 0.957476
O O5 0.205431 0.250000 0.132966
O O6 0.360683 0.099847 0.383538
O O7 0.169761 0.115811 0.969631
O O8 0.002138 0.112008 0.907386
O O9 0.341453 0.924719 0.551087
O O10 0.370719 0.047167 0.723983
O O11 0.513743 0.081837 0.745966
O O12 0.958412 0.582429 0.740990
O O13 0.870360 0.438593 0.517268
O O14 0.910705 0.250000 0.048727
O O15 0.706648 0.117835 0.847176
O O16 0.821856 0.113503 0.824654
O O17 0.948273 0.250000 0.634036
O O18 0.490862 0.750000 0.344133
O O19 0.220301 0.750000 0.350449
#
# Coordination Sequence:
#
# PCOD9165605 Si02
#       8
#     4   4   4   4   4   4   4   4
#     4  10  24  44  61  88 121 162 212 265 307 366
#     4   9  18  35  58  88 127 163 199 250 307 373
#     4  12  24  39  67  92 125 169 207 261 324 373
#     4  11  23  42  67  90 128 163 218 259 314 372
#     4  10  23  42  64  92 128 169 210 263 316 373
#     4  10  21  39  64  92 125 166 207 257 315 367
#     4  10  22  38  59  91 128 167 212 256 313 383
#     4  10  22  39  61  95 132 162 205 256 315 385
#
# _framework density 21.100807
#
# number of rings (size 3 to 8) (size 9 to 14) (size 15 to 20)
#    0.000    1.750    1.250    2.625    3.500    4.000 
#    0.000    3.750    0.000    4.500    0.000    0.000 
#    0.000    0.000    0.000    0.000    0.000    0.000 
#
# Total GULP energy -178804.467492 kJ/mol
# GULP energy per Si atom -5587.639609 kJ/mol
# Density = 2.105278 g / cm^3
# Si number density = 21.100807 Si / 1000 Ang^3
#
#
#
# Elastic Constant Matrix: (Units=GPa)
#
#
# Indices 1 2 3 4 5 6 
#
# 1 105.1327 10.3609 -6.7767 0.0000 -8.8164 0.0000
# 2 10.3609 57.6300 7.3981 0.0000 4.7981 0.0000
# 3 -6.7767 7.3981 60.9814 0.0000 2.8365 0.0000
# 4 0.0000 0.0000 0.0000 -2.4926 0.0000 -1.3670
# 5 -8.8164 4.7981 2.8365 0.0000 23.2318 0.0000
# 6 0.0000 0.0000 0.0000 -1.3670 0.0000 27.8703
#
#
#
# Elastic Compliance Matrix: (Units=1/GPa)
#
#
# Indices 1 2 3 4 5 6 
#
# 1 0.010172 -0.002334 0.001219 0.000000 0.004194 0.000000
# 2 -0.002334 0.018433 -0.002290 0.000000 -0.004413 0.000000
# 3 0.001219 -0.002290 0.016864 0.000000 -0.001124 0.000000
# 4 0.000000 0.000000 0.000000 -0.390675 0.000000 -0.019162
# 5 0.004194 -0.004413 -0.001124 0.000000 0.045685 0.000000
# 6 0.000000 0.000000 0.000000 -0.019162 0.000000 0.034941
#
#
# Mechanical properties :
#
#
# Convention : Reuss Voigt Hill
#
# Bulk Modulus (GPa) = 25.86867 27.30099 26.58483
# Shear Modulus (GPa) = -20.41799 23.90600 1.74401
#
# Velocity S-wave (km/s) = -3.11407 3.36957 0.91011
# Velocity P-wave (km/s) = 0.80231 5.30143 3.70550
#
# Compressibility (1/GPa) = 0.03865680
#
# Stress axis : x y z
#
# Youngs Moduli (GPa) = 98.30853 54.24993 59.29796
#
# Poissons Ratio (x) = 0.12664 -0.07226
# Poissons Ratio (y) = 0.22949 0.13582
# Poissons Ratio (z) = -0.11979 0.12425
#
# Static dielectric constant tensor:
#      x y z
#    x 1.781680 0.000000 -0.037110 
#    y 0.000000 1.782870 0.000000 
#    z -0.037110 0.000000 1.729030 
# 
# From -- ./inp_files/22218.got.cif
#   From: 2010.05.17/outbox.cif.g08.bks.cpg/sg11_12_cif.got.tgz:22218.got - 2010.06.03 12:22:45.
