data_PCOD9165477
_publ_section_title
;
Structure prediction by ZEFSAII (Michael W. Deem and Ramdas Pophale) SiO2 
 PCOD9165477
Probable space group: P 21/M
;
_chemical_formula_sum "Si O2"
_cell_formula_units_Z 28
_cell_length_a 27.956552
_cell_length_b 8.441761
_cell_length_c 9.553779
_cell_angle_alpha 90.000000
_cell_angle_beta 142.197197
_cell_angle_gamma 90.000000
_cell_volume 1382.018508
_symmetry_space_group_name_H-M "P 21/M"
_symmetry_group_IT_number 11
_symmetry_cell_setting 'monoclinic'
loop_
_space_group_symop_operation_xyz
x,y,z
-x,1/2+y,-z
-x,-y,-z
x,1/2-y,z
loop_
_atom_site_type_symbol
_atom_site_label
_atom_site_fract_x
_atom_site_fract_y
_atom_site_fract_z
Si Si1 0.665499 0.439689 0.220913
Si Si2 0.373957 0.061129 0.560566
Si Si3 0.070222 0.559329 0.757009
Si Si4 0.239397 0.940085 0.046375
Si Si5 0.974176 0.559310 0.791613
Si Si6 0.517531 0.441449 0.697900
Si Si7 0.203703 0.060470 0.664589
O O1 0.671076 0.250000 0.229451
O O2 0.640052 0.488572 0.318377
O O3 0.747542 0.511067 0.359350
O O4 0.599950 0.491310 0.956058
O O5 0.378586 0.250000 0.588082
O O6 0.451553 0.006841 0.657152
O O7 0.303779 0.016509 0.294236
O O8 0.072427 0.750000 0.757162
O O9 0.000000 0.500000 0.500000
O O10 0.042267 0.506805 0.844306
O O11 0.154211 0.503321 0.901225
O O12 0.244719 0.750000 0.070985
O O13 0.244516 0.987118 0.895860
O O14 0.971335 0.750000 0.781690
O O15 0.886630 0.504461 0.549945
O O16 0.000000 0.500000 0.000000
O O17 0.500000 0.500000 0.500000
O O18 0.516523 0.250000 0.690439
O O19 0.204091 0.250000 0.678468
#
# Coordination Sequence:
#
# PCOD9165477 Si02
#       7
#     4   4   4   4   4   4   4
#     4  11  24  42  64  92 126 162 203 252 304 361
#     4  11  24  42  64  93 126 162 203 250 304 361
#     4  10  21  39  61  87 118 157 203 252 304 359
#     4  11  23  39  62  92 123 161 206 254 306 363
#     4  10  23  40  59  86 120 159 203 252 305 362
#     4  10  23  42  66  94 124 161 203 247 298 359
#     4  11  23  41  62  89 123 162 206 254 306 364
#
# _framework density 20.260221999999999
#
# number of rings (size 3 to 8) (size 9 to 14) (size 15 to 20)
#    0.000    1.429    1.429    3.000    2.000    6.857 
#    0.000    0.000    0.000    0.000    0.000    0.000 
#    0.000    0.000    0.000    0.000    0.000    0.000 
#
# Total GULP energy -156463.865418 kJ/mol
# GULP energy per Si atom -5587.995193 kJ/mol
# Density = 2.021411 g / cm^3
# Si number density = 20.260222 Si / 1000 Ang^3
#
#
#
# Elastic Constant Matrix: (Units=GPa)
#
#
# Indices 1 2 3 4 5 6 
#
# 1 122.3043 4.9010 10.2628 0.0000 -3.1558 0.0000
# 2 4.9010 15.3822 -2.7797 0.0000 3.6335 0.0000
# 3 10.2628 -2.7797 63.1601 0.0000 -4.0837 0.0000
# 4 0.0000 0.0000 0.0000 32.9313 0.0000 -7.4248
# 5 -3.1558 3.6335 -4.0837 0.0000 43.9221 0.0000
# 6 0.0000 0.0000 0.0000 -7.4248 0.0000 34.0050
#
#
#
# Elastic Compliance Matrix: (Units=1/GPa)
#
#
# Indices 1 2 3 4 5 6 
#
# 1 0.008443 -0.003127 -0.001462 0.000000 0.000729 0.000000
# 2 -0.003127 0.067884 0.003137 0.000000 -0.005549 0.000000
# 3 -0.001462 0.003137 0.016283 0.000000 0.001149 0.000000
# 4 0.000000 0.000000 0.000000 0.031938 0.000000 0.006974
# 5 0.000729 -0.005549 0.001149 0.000000 0.023386 0.000000
# 6 0.000000 0.000000 0.000000 0.006974 0.000000 0.030930
#
#
# Mechanical properties :
#
#
# Convention : Reuss Voigt Hill
#
# Bulk Modulus (GPa) = 11.14760 25.06832 18.10796
# Shear Modulus (GPa) = 23.62163 34.73585 29.17874
#
# Velocity S-wave (km/s) = 3.41825 4.14513 3.79911
# Velocity P-wave (km/s) = 4.59275 5.94218 5.31050
#
# Compressibility (1/GPa) = 0.08970537
#
# Stress axis : x y z
#
# Youngs Moduli (GPa) = 118.43921 14.73105 61.41461
#
# Poissons Ratio (x) = 0.04606 0.08981
# Poissons Ratio (y) = 0.37032 -0.19265
# Poissons Ratio (z) = 0.17320 -0.04621
#
# Static dielectric constant tensor:
#      x y z
#    x 0.856920 0.000000 0.217690 
#    y 0.000000 1.703450 0.000000 
#    z 0.217690 0.000000 1.639360 
# 
# From -- ./inp_files/28635.got.cif
#   From: 2010.05.17/outbox.cif.g08.bks.cpg/sg11_15_cif.got.tgz:28635.got - 2010.06.03 12:22:45.
