data_PCOD9165957
_publ_section_title
;
Structure prediction by ZEFSAII (Michael W. Deem and Ramdas Pophale) SiO2 
 PCOD9165957
Probable space group: P 21/M
;
_chemical_formula_sum "Si O2"
_cell_formula_units_Z 26
_cell_length_a 9.937735
_cell_length_b 18.484589
_cell_length_c 6.870331
_cell_angle_alpha 90.000000
_cell_angle_beta 52.999021
_cell_angle_gamma 90.000000
_cell_volume 1007.901046
_symmetry_space_group_name_H-M "P 21/M"
_symmetry_group_IT_number 11
_symmetry_cell_setting 'monoclinic'
loop_
_space_group_symop_operation_xyz
x,y,z
-x,1/2+y,-z
-x,-y,-z
x,1/2-y,z
loop_
_atom_site_type_symbol
_atom_site_label
_atom_site_fract_x
_atom_site_fract_y
_atom_site_fract_z
Si Si1 0.724692 0.633454 0.490062
Si Si2 0.997690 0.368210 0.052755
Si Si3 0.471522 0.579555 0.437763
Si Si4 0.549317 0.667885 0.016606
Si Si5 0.819685 0.375066 0.811322
Si Si6 0.963272 0.250000 0.425213
Si Si7 0.127935 0.526975 0.574856
O O1 0.541399 0.629893 0.547637
O O2 0.800670 0.553312 0.462315
O O3 0.846460 0.659832 0.213993
O O4 0.693402 0.668410 0.727030
O O5 0.857643 0.378173 0.005617
O O6 0.969962 0.311835 0.247670
O O7 0.017099 0.444229 0.153824
O O8 0.500000 0.500000 0.500000
O O9 0.575700 0.607311 0.158206
O O10 0.282832 0.577608 0.522971
O O11 0.534029 0.750000 0.110058
O O12 0.371775 0.646363 0.072510
O O13 0.931770 0.312924 0.617617
O O14 0.874864 0.448255 0.648311
#
# Coordination Sequence:
#
# PCOD9165957 Si02
#       7
#     4   4   4   4   4   2   4
#     4  11  24  40  61  98 135 165 208 266 335 386
#     4  11  23  39  65  92 126 173 212 261 325 387
#     4   9  21  43  67  91 129 176 222 268 320 378
#     4  11  24  41  64  95 129 168 217 273 329 389
#     4  10  21  42  65  90 120 166 219 268 314 388
#     4  10  22  40  60  86 122 166 216 262 308 388
#     4   9  21  40  66  93 124 169 223 261 309 384
#
# _framework density 25.796182999999999
#
# number of rings (size 3 to 8) (size 9 to 14) (size 15 to 20)
#    0.000    1.846    0.769    1.846    1.077   11.692 
#    2.769    0.000    0.000    0.000    0.000    0.000 
#    0.000    0.000    0.000    0.000    0.000    0.000 
#
# Total GULP energy -144786.664464 kJ/mol
# GULP energy per Si atom -5568.717864 kJ/mol
# Density = 2.573747 g / cm^3
# Si number density = 25.796183 Si / 1000 Ang^3
#
#
#
# Elastic Constant Matrix: (Units=GPa)
#
#
# Indices 1 2 3 4 5 6 
#
# 1 75.7715 -20.0756 16.5278 0.0000 7.1914 0.0000
# 2 -20.0756 117.3081 60.1555 0.0000 16.7521 0.0000
# 3 16.5278 60.1555 176.5042 0.0000 35.5632 0.0000
# 4 0.0000 0.0000 0.0000 32.7892 0.0000 -10.3590
# 5 7.1914 16.7521 35.5632 0.0000 49.3208 0.0000
# 6 0.0000 0.0000 0.0000 -10.3590 0.0000 -36.3570
#
#
#
# Elastic Compliance Matrix: (Units=1/GPa)
#
#
# Indices 1 2 3 4 5 6 
#
# 1 0.014975 0.004064 -0.002421 0.000000 -0.001818 0.000000
# 2 0.004064 0.011487 -0.003966 0.000000 -0.001634 0.000000
# 3 -0.002421 -0.003966 0.008075 0.000000 -0.004122 0.000000
# 4 0.000000 0.000000 0.000000 0.027979 0.000000 -0.007972
# 5 -0.001818 -0.001634 -0.004122 0.000000 0.024068 0.000000
# 6 0.000000 0.000000 0.000000 -0.007972 0.000000 -0.025234
#
#
# Mechanical properties :
#
#
# Convention : Reuss Voigt Hill
#
# Bulk Modulus (GPa) = 33.45598 53.64436 43.55017
# Shear Modulus (GPa) = 65.82361 30.01568 47.91965
#
# Velocity S-wave (km/s) = 5.05690 3.41482 4.31469
# Velocity P-wave (km/s) = 6.86249 6.03229 6.46074
#
# Compressibility (1/GPa) = 0.02989002
#
# Stress axis : x y z
#
# Youngs Moduli (GPa) = 66.77835 87.05239 123.84491
#
# Poissons Ratio (x) = -0.35377 0.29982
# Poissons Ratio (y) = -0.27138 0.49121
# Poissons Ratio (z) = 0.16167 0.34528
#
# Static dielectric constant tensor:
#      x y z
#    x 2.212410 0.000000 -0.086250 
#    y 0.000000 2.019880 0.000000 
#    z -0.086250 0.000000 2.033020 
# 
# From -- ./inp_files/4836.got.cif
#   From: 2010.05.17/outbox.cif.g08.bks.cpg/sg11_3_cif.got.tgz:4836.got - 2010.06.03 12:22:45.
