data_PCOD9165699
_publ_section_title
;
Structure prediction by ZEFSAII (Michael W. Deem and Ramdas Pophale) SiO2 
 PCOD9165699
Probable space group: P 21/M
;
_chemical_formula_sum "Si O2"
_cell_formula_units_Z 32
_cell_length_a 16.037320
_cell_length_b 22.905465
_cell_length_c 9.343120
_cell_angle_alpha 90.000000
_cell_angle_beta 26.370817
_cell_angle_gamma 90.000000
_cell_volume 1524.476588
_symmetry_space_group_name_H-M "P 21/M"
_symmetry_group_IT_number 11
_symmetry_cell_setting 'monoclinic'
loop_
_space_group_symop_operation_xyz
x,y,z
-x,1/2+y,-z
-x,-y,-z
x,1/2-y,z
loop_
_atom_site_type_symbol
_atom_site_label
_atom_site_fract_x
_atom_site_fract_y
_atom_site_fract_z
Si Si1 0.789982 0.362579 0.938445
Si Si2 0.024433 0.874237 0.759722
Si Si3 0.811366 0.601415 0.820145
Si Si4 0.062064 0.493411 0.740474
Si Si5 0.640793 0.186420 0.901079
Si Si6 0.309222 0.983286 0.871691
Si Si7 0.312191 0.119143 0.280522
Si Si8 0.026788 0.681530 0.066048
O O1 0.696412 0.315051 0.981580
O O2 0.820181 0.342050 0.054680
O O3 0.989662 0.383062 0.561307
O O4 0.661567 0.419109 0.114995
O O5 0.166655 0.827705 0.476160
O O6 0.840298 0.876271 0.938925
O O7 0.106477 0.940352 0.622539
O O8 0.005740 0.855955 0.953303
O O9 0.664981 0.623673 0.926779
O O10 0.760476 0.533168 0.913382
O O11 0.217045 0.443581 0.469096
O O12 0.000000 0.500000 0.000000
O O13 0.869279 0.476103 0.958156
O O14 0.566555 0.250000 0.974846
O O15 0.500168 0.135391 0.072346
O O16 0.500000 0.000000 0.500000
O O17 0.165453 0.168621 0.554638
O O18 0.053437 0.750000 0.995740
#
# Coordination Sequence:
#
# PCOD9165699 Si02
#       8
#     4   4   4   4   4   4   4   4
#     4  10  21  40  62  86 121 166 209 253 313 370
#     4  10  22  39  66  89 127 164 203 259 315 375
#     4   9  21  39  61  89 126 167 201 250 319 389
#     4  11  21  39  62  95 130 160 205 254 324 387
#     4  11  25  42  59  91 126 162 215 264 301 361
#     4  11  22  35  61  94 131 157 200 260 320 375
#     4  11  23  40  64  90 129 166 210 261 312 374
#     4  11  21  40  65  88 118 170 214 250 311 380
#
# _framework density 20.990811000000001
#
# number of rings (size 3 to 8) (size 9 to 14) (size 15 to 20)
#    0.000    1.500    3.750    1.500    5.250    2.500 
#    0.000    1.875    0.000    0.000    0.000    1.750 
#    0.000    0.000    0.000    0.000    0.000    0.000 
#
# Total GULP energy -178326.050552 kJ/mol
# GULP energy per Si atom -5572.689080 kJ/mol
# Density = 2.094304 g / cm^3
# Si number density = 20.990811 Si / 1000 Ang^3
#
#
#
# Elastic Constant Matrix: (Units=GPa)
#
#
# Indices 1 2 3 4 5 6 
#
# 1 148.4038 43.8308 19.3194 0.0000 20.7334 0.0000
# 2 43.8308 130.5253 24.2998 0.0000 -1.1368 0.0000
# 3 19.3194 24.2998 19.3894 0.0000 1.1951 0.0000
# 4 0.0000 0.0000 0.0000 20.2538 0.0000 -1.4513
# 5 20.7334 -1.1368 1.1951 0.0000 16.3150 0.0000
# 6 0.0000 0.0000 0.0000 -1.4513 0.0000 20.5062
#
#
#
# Elastic Compliance Matrix: (Units=1/GPa)
#
#
# Indices 1 2 3 4 5 6 
#
# 1 0.009957 -0.002277 -0.006306 0.000000 -0.012351 0.000000
# 2 -0.002277 0.010557 -0.011235 0.000000 0.004453 0.000000
# 3 -0.006306 -0.011235 0.071817 0.000000 0.001971 0.000000
# 4 0.000000 0.000000 0.000000 0.049625 0.000000 0.003512
# 5 -0.012351 0.004453 0.001971 0.000000 0.077155 0.000000
# 6 0.000000 0.000000 0.000000 0.003512 0.000000 0.049014
#
#
# Mechanical properties :
#
#
# Convention : Reuss Voigt Hill
#
# Bulk Modulus (GPa) = 18.97765 52.57985 35.77875
# Shear Modulus (GPa) = 15.36911 25.47290 20.42101
#
# Velocity S-wave (km/s) = 2.70882 3.48735 3.12245
# Velocity P-wave (km/s) = 4.34099 6.42797 5.48466
#
# Compressibility (1/GPa) = 0.05269356
#
# Stress axis : x y z
#
# Youngs Moduli (GPa) = 100.42736 94.72817 13.92419
#
# Poissons Ratio (x) = 0.21572 0.08781
# Poissons Ratio (y) = 0.22870 0.15644
# Poissons Ratio (z) = 0.63332 1.06431
#
# Static dielectric constant tensor:
#      x y z
#    x 1.837540 0.000000 0.014560 
#    y 0.000000 1.783800 0.000000 
#    z 0.014560 0.000000 1.736120 
# 
# From -- ./inp_files/23353.got.cif
#   From: 2010.05.17/outbox.cif.g08.bks.cpg/sg11_12_cif.got.tgz:23353.got - 2010.06.03 12:22:45.
