data_PCOD9165372
_publ_section_title
;
Structure prediction by ZEFSAII (Michael W. Deem and Ramdas Pophale) SiO2 
 PCOD9165372
Probable space group: P 21/M
;
_chemical_formula_sum "Si O2"
_cell_formula_units_Z 32
_cell_length_a 20.377809
_cell_length_b 14.096551
_cell_length_c 14.972168
_cell_angle_alpha 90.000000
_cell_angle_beta 19.343937
_cell_angle_gamma 90.000000
_cell_volume 1424.607605
_symmetry_space_group_name_H-M "P 21/M"
_symmetry_group_IT_number 11
_symmetry_cell_setting 'monoclinic'
loop_
_space_group_symop_operation_xyz
x,y,z
-x,1/2+y,-z
-x,-y,-z
x,1/2-y,z
loop_
_atom_site_type_symbol
_atom_site_label
_atom_site_fract_x
_atom_site_fract_y
_atom_site_fract_z
Si Si1 0.815446 0.432508 0.029160
Si Si2 0.256472 0.139814 0.445249
Si Si3 0.833310 0.938542 0.763729
Si Si4 0.458097 0.586867 0.764060
Si Si5 0.158935 0.144145 0.056552
Si Si6 0.774579 0.465102 0.277387
Si Si7 0.740786 0.144324 0.502356
Si Si8 0.442772 0.140519 0.024715
O O1 0.053644 0.419168 0.718444
O O2 0.752563 0.543136 0.090559
O O3 0.711670 0.372734 0.083718
O O4 0.757088 0.412159 0.205841
O O5 0.198395 0.250000 0.504560
O O6 0.404786 0.137621 0.338952
O O7 0.375554 0.102756 0.206138
O O8 0.737806 0.871565 0.811905
O O9 0.898594 0.878324 0.766524
O O10 0.000000 0.000000 0.500000
O O11 0.665311 0.009380 0.019193
O O12 0.620739 0.550460 0.483678
O O13 0.255833 0.250000 0.928609
O O14 0.966492 0.150299 0.241711
O O15 0.721437 0.405494 0.433143
O O16 0.000000 0.500000 0.000000
O O17 0.657687 0.250000 0.597525
O O18 0.625125 0.099571 0.734189
O O19 0.493414 0.250000 0.977791
#
# Coordination Sequence:
#
# PCOD9165372 Si02
#       8
#     4   4   4   4   4   4   4   4
#     4  11  24  44  70  99 139 180 238 292 352 414
#     4  11  25  45  69  99 139 189 235 288 355 422
#     4  11  23  38  63  97 131 177 223 282 350 417
#     4  11  24  43  66  97 134 178 230 284 351 423
#     4  10  21  39  62  97 135 172 224 284 345 413
#     4  12  21  42  68  94 135 185 226 288 354 410
#     4  10  21  38  63  94 128 176 230 283 344 406
#     4  10  21  39  62  91 130 171 221 282 341 406
#
# _framework density 22.462325
#
# number of rings (size 3 to 8) (size 9 to 14) (size 15 to 20)
#    0.000    1.250    3.750    2.250    1.750    1.500 
#    0.000    1.250    0.000    1.500    0.000    0.000 
#    0.000    0.000    0.000    0.000    0.000    0.000 
#
# Total GULP energy -178444.725399 kJ/mol
# GULP energy per Si atom -5576.397669 kJ/mol
# Density = 2.241120 g / cm^3
# Si number density = 22.462325 Si / 1000 Ang^3
#
#
#
# Elastic Constant Matrix: (Units=GPa)
#
#
# Indices 1 2 3 4 5 6 
#
# 1 143.2635 4.2954 23.1848 0.0000 8.9560 0.0000
# 2 4.2954 76.5633 13.0060 0.0000 4.6307 0.0000
# 3 23.1848 13.0060 101.3665 0.0000 17.7104 0.0000
# 4 0.0000 0.0000 0.0000 13.1972 0.0000 0.7977
# 5 8.9560 4.6307 17.7104 0.0000 39.7455 0.0000
# 6 0.0000 0.0000 0.0000 0.7977 0.0000 23.9896
#
#
#
# Elastic Compliance Matrix: (Units=1/GPa)
#
#
# Indices 1 2 3 4 5 6 
#
# 1 0.007284 -0.000098 -0.001484 0.000000 -0.000969 0.000000
# 2 -0.000098 0.013381 -0.001546 0.000000 -0.000848 0.000000
# 3 -0.001484 -0.001546 0.011184 0.000000 -0.004469 0.000000
# 4 0.000000 0.000000 0.000000 0.075926 0.000000 -0.002525
# 5 -0.000969 -0.000848 -0.004469 0.000000 0.027468 0.000000
# 6 0.000000 0.000000 0.000000 -0.002525 0.000000 0.041769
#
#
# Mechanical properties :
#
#
# Convention : Reuss Voigt Hill
#
# Bulk Modulus (GPa) = 39.07566 44.68509 41.88037
# Shear Modulus (GPa) = 26.06896 34.10026 30.08461
#
# Velocity S-wave (km/s) = 3.41040 3.90052 3.66367
# Velocity P-wave (km/s) = 5.73948 6.34208 6.04829
#
# Compressibility (1/GPa) = 0.02559138
#
# Stress axis : x y z
#
# Youngs Moduli (GPa) = 137.29057 74.73542 89.41474
#
# Poissons Ratio (x) = 0.00732 0.13271
# Poissons Ratio (y) = 0.01345 0.13826
# Poissons Ratio (z) = 0.20377 0.11556
#
# Static dielectric constant tensor:
#      x y z
#    x 1.826030 0.000000 -0.014490 
#    y 0.000000 1.964900 0.000000 
#    z -0.014490 0.000000 1.825470 
# 
# From -- ./inp_files/54974.got.cif
#   From: 2010.05.17/outbox.cif.g08.bks.cpg/sg11_28_cif.got.tgz:54974.got - 2010.06.03 12:22:45.
