data_PCOD9165062
_publ_section_title
;
Structure prediction by ZEFSAII (Michael W. Deem and Ramdas Pophale) SiO2 
 PCOD9165062
Probable space group: P 21/M
;
_chemical_formula_sum "Si O2"
_cell_formula_units_Z 32
_cell_length_a 21.017279
_cell_length_b 14.512669
_cell_length_c 14.594829
_cell_angle_alpha 90.000000
_cell_angle_beta 158.119691
_cell_angle_gamma 90.000000
_cell_volume 1658.998253
_symmetry_space_group_name_H-M "P 21/M"
_symmetry_group_IT_number 11
_symmetry_cell_setting 'monoclinic'
loop_
_space_group_symop_operation_xyz
x,y,z
-x,1/2+y,-z
-x,-y,-z
x,1/2-y,z
loop_
_atom_site_type_symbol
_atom_site_label
_atom_site_fract_x
_atom_site_fract_y
_atom_site_fract_z
Si Si1 0.135968 0.857472 0.193633
Si Si2 0.194965 0.048451 0.176097
Si Si3 0.598108 0.591822 0.097287
Si Si4 0.513013 0.644000 0.775721
Si Si5 0.510081 0.138740 0.697607
Si Si6 0.077312 0.507833 0.501597
Si Si7 0.367168 0.649916 0.937266
Si Si8 0.268311 0.482770 0.069083
O O1 0.113189 0.750000 0.132618
O O2 0.312489 0.860769 0.485562
O O3 0.155087 0.940751 0.145293
O O4 0.975931 0.891349 0.040130
O O5 0.333451 0.091630 0.430688
O O6 0.269454 0.053135 0.173808
O O7 0.800760 0.576457 0.365522
O O8 0.519981 0.657278 0.068985
O O9 0.500000 0.500000 0.000000
O O10 0.545710 0.615537 0.924069
O O11 0.568817 0.750000 0.837983
O O12 0.614850 0.579259 0.841539
O O13 0.504408 0.250000 0.679518
O O14 0.555927 0.114612 0.864290
O O15 0.656207 0.086250 0.835320
O O16 0.000000 0.500000 0.500000
O O17 0.213165 0.590312 0.691540
O O18 0.922886 0.520309 0.225805
O O19 0.294896 0.750000 0.861660
#
# Coordination Sequence:
#
# PCOD9165062 Si02
#       8
#     4   4   4   4   4   4   4   4
#     4  10  24  44  66  96 130 168 218 275 323 382
#     4  11  25  42  70  94 131 171 218 268 327 389
#     4  10  21  37  64  90 123 169 211 261 320 384
#     4  11  23  40  63  94 136 171 214 268 324 388
#     4  11  23  42  66  91 130 172 219 271 325 389
#     4  11  21  40  63  88 128 166 206 260 320 380
#     4  10  22  40  64  92 124 166 214 265 320 381
#     4  12  24  43  63  98 128 174 216 261 328 391
#
# _framework density 19.288748999999999
#
# number of rings (size 3 to 8) (size 9 to 14) (size 15 to 20)
#    0.000    1.250    3.750    1.875    3.500    3.000 
#    0.000    1.250    0.000    0.000    0.000    0.000 
#    0.000    0.000    0.000    0.000    0.000    0.000 
#
# Total GULP energy -178456.189253 kJ/mol
# GULP energy per Si atom -5576.755914 kJ/mol
# Density = 1.924485 g / cm^3
# Si number density = 19.288749 Si / 1000 Ang^3
#
#
#
# Elastic Constant Matrix: (Units=GPa)
#
#
# Indices 1 2 3 4 5 6 
#
# 1 72.1013 28.0609 24.9365 0.0000 14.6648 0.0000
# 2 28.0609 124.7117 42.7851 0.0000 4.0403 0.0000
# 3 24.9365 42.7851 106.3826 0.0000 19.2678 0.0000
# 4 0.0000 0.0000 0.0000 26.7975 0.0000 0.7266
# 5 14.6648 4.0403 19.2678 0.0000 22.5342 0.0000
# 6 0.0000 0.0000 0.0000 0.7266 0.0000 11.9321
#
#
#
# Elastic Compliance Matrix: (Units=1/GPa)
#
#
# Indices 1 2 3 4 5 6 
#
# 1 0.017513 -0.003282 -0.000979 0.000000 -0.009972 0.000000
# 2 -0.003282 0.009980 -0.003913 0.000000 0.003692 0.000000
# 3 -0.000979 -0.003913 0.012969 0.000000 -0.009750 0.000000
# 4 0.000000 0.000000 0.000000 0.037379 0.000000 -0.002276
# 5 -0.009972 0.003692 -0.009750 0.000000 0.058541 0.000000
# 6 0.000000 0.000000 0.000000 -0.002276 0.000000 0.083946
#
#
# Mechanical properties :
#
#
# Convention : Reuss Voigt Hill
#
# Bulk Modulus (GPa) = 41.46927 54.97339 48.22133
# Shear Modulus (GPa) = 20.43192 26.08030 23.25611
#
# Velocity S-wave (km/s) = 3.25817 3.68108 3.47606
# Velocity P-wave (km/s) = 5.97496 6.82856 6.41597
#
# Compressibility (1/GPa) = 0.02411424
#
# Stress axis : x y z
#
# Youngs Moduli (GPa) = 57.09923 100.20296 77.10466
#
# Poissons Ratio (x) = 0.32882 0.07552
# Poissons Ratio (y) = 0.18737 0.30172
# Poissons Ratio (z) = 0.05592 0.39211
#
# Static dielectric constant tensor:
#      x y z
#    x 1.767580 0.000000 -0.014580 
#    y 0.000000 1.779000 0.000000 
#    z -0.014580 0.000000 1.659900 
# 
# From -- ./inp_files/55038.got.cif
#   From: 2010.05.17/outbox.cif.g08.bks.cpg/sg11_28_cif.got.tgz:55038.got - 2010.06.03 12:22:45.
