data_PCOD9165969
_publ_section_title
;
Structure prediction by ZEFSAII (Michael W. Deem and Ramdas Pophale) SiO2 
 PCOD9165969
Probable space group: P 21/M
;
_chemical_formula_sum "Si O2"
_cell_formula_units_Z 30
_cell_length_a 12.777597
_cell_length_b 15.354093
_cell_length_c 11.332509
_cell_angle_alpha 90.000000
_cell_angle_beta 36.110666
_cell_angle_gamma 90.000000
_cell_volume 1310.298749
_symmetry_space_group_name_H-M "P 21/M"
_symmetry_group_IT_number 11
_symmetry_cell_setting 'monoclinic'
loop_
_space_group_symop_operation_xyz
x,y,z
-x,1/2+y,-z
-x,-y,-z
x,1/2-y,z
loop_
_atom_site_type_symbol
_atom_site_label
_atom_site_fract_x
_atom_site_fract_y
_atom_site_fract_z
Si Si1 0.014068 0.250000 0.245631
Si Si2 0.274381 0.894192 0.449946
Si Si3 0.788201 0.947800 0.655546
Si Si4 0.876244 0.391243 0.733181
Si Si5 0.534275 0.102649 0.480256
Si Si6 0.836504 0.407213 0.042425
Si Si7 0.839277 0.616421 0.078561
Si Si8 0.513064 0.343838 0.955870
O O1 0.884134 0.326379 0.422143
O O2 0.121201 0.173860 0.071851
O O3 0.331364 0.887234 0.532865
O O4 0.447142 0.871331 0.213988
O O5 0.224256 0.989779 0.447847
O O6 0.930943 0.873603 0.496966
O O7 0.844814 0.009821 0.712942
O O8 0.601860 0.909125 0.863178
O O9 0.873382 0.383198 0.874859
O O10 0.709122 0.342169 0.832203
O O11 0.344119 0.141460 0.688173
O O12 0.500000 0.000000 0.500000
O O13 0.647959 0.128985 0.262356
O O14 0.994453 0.374932 0.983405
O O15 0.830279 0.513097 0.055782
O O16 0.424164 0.250000 0.037491
#
# Coordination Sequence:
#
# PCOD9165969 Si02
#       8
#     2   4   4   4   4   4   4   4
#     4  12  22  42  66 100 146 172 222 296 340 396
#     4  11  22  44  67 100 142 176 222 293 342 399
#     4  10  24  42  70 101 130 182 237 278 337 421
#     4  10  22  41  70  93 128 177 232 273 337 406
#     4  10  23  38  67 100 127 175 225 266 338 416
#     4  10  21  42  67  94 132 176 226 271 333 410
#     4  10  23  38  62  98 132 176 215 272 337 406
#     4  11  25  45  65  99 137 177 229 294 346 400
#
# _framework density 22.895541999999999
#
# number of rings (size 3 to 8) (size 9 to 14) (size 15 to 20)
#    0.000    1.600    2.000    2.400   11.200    1.067 
#    1.200    0.000    2.933    0.000    0.000    0.000 
#    0.000    0.000    0.000    0.000    0.000    0.000 
#
# Total GULP energy -167143.008476 kJ/mol
# GULP energy per Si atom -5571.433616 kJ/mol
# Density = 2.284343 g / cm^3
# Si number density = 22.895542 Si / 1000 Ang^3
#
#
#
# Elastic Constant Matrix: (Units=GPa)
#
#
# Indices 1 2 3 4 5 6 
#
# 1 33.3132 -5.2390 26.5611 0.0000 6.6450 0.0000
# 2 -5.2390 49.9721 27.2777 0.0000 -7.3552 0.0000
# 3 26.5611 27.2777 185.8332 0.0000 -7.8040 0.0000
# 4 0.0000 0.0000 0.0000 99.0157 0.0000 -6.0864
# 5 6.6450 -7.3552 -7.8040 0.0000 28.3744 0.0000
# 6 0.0000 0.0000 0.0000 -6.0864 0.0000 -6.1768
#
#
#
# Elastic Compliance Matrix: (Units=1/GPa)
#
#
# Indices 1 2 3 4 5 6 
#
# 1 0.038263 0.006366 -0.006789 0.000000 -0.009178 0.000000
# 2 0.006366 0.023484 -0.004213 0.000000 0.003438 0.000000
# 3 -0.006789 -0.004213 0.007072 0.000000 0.002443 0.000000
# 4 0.000000 0.000000 0.000000 0.009523 0.000000 -0.009383
# 5 -0.009178 0.003438 0.002443 0.000000 0.038956 0.000000
# 6 0.000000 0.000000 0.000000 -0.009383 0.000000 -0.152650
#
#
# Mechanical properties :
#
#
# Convention : Reuss Voigt Hill
#
# Bulk Modulus (GPa) = 16.79285 40.70201 28.74743
# Shear Modulus (GPa) = -802.31994 38.94390 -381.68802
#
# Velocity S-wave (km/s) = -18.73998 4.12872 -12.92557
# Velocity P-wave (km/s) = 21.46856 6.36744 14.49749
#
# Compressibility (1/GPa) = 0.05954915
#
# Stress axis : x y z
#
# Youngs Moduli (GPa) = 26.13502 42.58183 141.39367
#
# Poissons Ratio (x) = -0.27109 0.95989
# Poissons Ratio (y) = -0.16638 0.59565
# Poissons Ratio (z) = 0.17743 0.17939
#
# Static dielectric constant tensor:
#      x y z
#    x 1.863770 0.000000 -0.042550 
#    y 0.000000 1.766990 0.000000 
#    z -0.042550 0.000000 1.853690 
# 
# From -- ./inp_files/39893.got.cif
#   From: 2010.05.17/outbox.cif.g08.bks.cpg/sg11_20_cif.got.tgz:39893.got - 2010.06.03 12:22:45.
