data_PCOD9165212
_publ_section_title
;
Structure prediction by ZEFSAII (Michael W. Deem and Ramdas Pophale) SiO2 
 PCOD9165212
Probable space group: P 21/M
;
_chemical_formula_sum "Si O2"
_cell_formula_units_Z 28
_cell_length_a 11.475838
_cell_length_b 22.579275
_cell_length_c 7.973242
_cell_angle_alpha 90.000000
_cell_angle_beta 142.386984
_cell_angle_gamma 90.000000
_cell_volume 1260.928912
_symmetry_space_group_name_H-M "P 21/M"
_symmetry_group_IT_number 11
_symmetry_cell_setting 'monoclinic'
loop_
_space_group_symop_operation_xyz
x,y,z
-x,1/2+y,-z
-x,-y,-z
x,1/2-y,z
loop_
_atom_site_type_symbol
_atom_site_label
_atom_site_fract_x
_atom_site_fract_y
_atom_site_fract_z
Si Si1 0.273140 0.041539 0.149853
Si Si2 0.561993 0.360666 0.338956
Si Si3 0.765094 0.413218 0.012789
Si Si4 0.768663 0.681811 0.266344
Si Si5 0.510919 0.814804 0.398795
Si Si6 0.934253 0.102675 0.565333
Si Si7 0.159821 0.115719 0.315531
O O1 0.080953 0.060000 0.829386
O O2 0.310181 0.973486 0.153632
O O3 0.441050 0.082551 0.267392
O O4 0.231512 0.057940 0.296768
O O5 0.580328 0.319658 0.522286
O O6 0.758395 0.380406 0.481662
O O7 0.428295 0.327008 0.054741
O O8 0.851919 0.423376 0.296778
O O9 0.934629 0.389462 0.085576
O O10 0.601113 0.364117 0.834084
O O11 0.795651 0.750000 0.350196
O O12 0.771361 0.634555 0.421138
O O13 0.941991 0.660294 0.345861
O O14 0.490536 0.750000 0.302591
O O15 0.734356 0.832775 0.670060
#
# Coordination Sequence:
#
# PCOD9165212 Si02
#       7
#     4   4   4   4   4   4   4
#     4  10  22  40  62  90 123 159 203 250 305 365
#     4  10  22  40  61  88 123 160 200 251 304 358
#     4  11  23  39  64  92 120 160 203 250 304 363
#     4  10  21  38  60  87 119 160 207 250 300 361
#     4  11  24  40  60  88 119 156 202 249 304 366
#     4  10  22  39  59  88 121 159 201 248 304 361
#     4  10  22  39  61  87 120 157 197 251 304 354
#
# _framework density 22.205850000000002
#
# number of rings (size 3 to 8) (size 9 to 14) (size 15 to 20)
#    0.000    1.714    0.000    3.429    0.000    8.000 
#    0.000    0.714    0.000    0.000    0.000    0.000 
#    0.000    0.000    0.000    0.000    0.000    0.000 
#
# Total GULP energy -156428.078835 kJ/mol
# GULP energy per Si atom -5586.717101 kJ/mol
# Density = 2.215531 g / cm^3
# Si number density = 22.205850 Si / 1000 Ang^3
#
#
#
# Elastic Constant Matrix: (Units=GPa)
#
#
# Indices 1 2 3 4 5 6 
#
# 1 142.4155 21.5330 26.4678 0.0000 29.8328 0.0000
# 2 21.5330 95.3996 34.8106 0.0000 21.6232 0.0000
# 3 26.4678 34.8106 67.1653 0.0000 -4.1988 0.0000
# 4 0.0000 0.0000 0.0000 -0.8344 0.0000 19.1741
# 5 29.8328 21.6232 -4.1988 0.0000 42.3219 0.0000
# 6 0.0000 0.0000 0.0000 19.1741 0.0000 -8.4347
#
#
#
# Elastic Compliance Matrix: (Units=1/GPa)
#
#
# Indices 1 2 3 4 5 6 
#
# 1 0.009359 0.001465 -0.004937 0.000000 -0.007836 0.000000
# 2 0.001465 0.015881 -0.009439 0.000000 -0.010083 0.000000
# 3 -0.004937 -0.009439 0.022384 0.000000 0.010524 0.000000
# 4 0.000000 0.000000 0.000000 0.023390 0.000000 0.053172
# 5 -0.007836 -0.010083 0.010524 0.000000 0.035348 0.000000
# 6 0.000000 0.000000 0.000000 0.053172 0.000000 0.002314
#
#
# Mechanical properties :
#
#
# Convention : Reuss Voigt Hill
#
# Bulk Modulus (GPa) = 45.86597 52.28924 49.07761
# Shear Modulus (GPa) = 35.26958 21.42183 28.34571
#
# Velocity S-wave (km/s) = 3.98967 3.10932 3.57669
# Velocity P-wave (km/s) = 6.47480 6.04062 6.26148
#
# Compressibility (1/GPa) = 0.02180265
#
# Stress axis : x y z
#
# Youngs Moduli (GPa) = 106.84665 62.96816 44.67462
#
# Poissons Ratio (x) = -0.09226 0.22058
# Poissons Ratio (y) = -0.15655 0.42167
# Poissons Ratio (z) = 0.52755 0.59433
#
# Static dielectric constant tensor:
#      x y z
#    x 1.853110 0.000000 -0.023390 
#    y 0.000000 1.807130 0.000000 
#    z -0.023390 0.000000 1.828470 
# 
# From -- ./inp_files/19449.got.cif
#   From: 2010.05.17/outbox.cif.g08.bks.cpg/sg11_10_cif.got.tgz:19449.got - 2010.06.03 12:22:45.
