data_PCOD9165750
_publ_section_title
;
Structure prediction by ZEFSAII (Michael W. Deem and Ramdas Pophale) SiO2 
 PCOD9165750
Probable space group: P 21/M
;
_chemical_formula_sum "Si O2"
_cell_formula_units_Z 20
_cell_length_a 15.259886
_cell_length_b 13.788274
_cell_length_c 7.460488
_cell_angle_alpha 90.000000
_cell_angle_beta 141.213140
_cell_angle_gamma 90.000000
_cell_volume 983.326078
_symmetry_space_group_name_H-M "P 21/M"
_symmetry_group_IT_number 11
_symmetry_cell_setting 'monoclinic'
loop_
_space_group_symop_operation_xyz
x,y,z
-x,1/2+y,-z
-x,-y,-z
x,1/2-y,z
loop_
_atom_site_type_symbol
_atom_site_label
_atom_site_fract_x
_atom_site_fract_y
_atom_site_fract_z
Si Si1 0.226136 0.640556 0.189680
Si Si2 0.073561 0.362818 0.096706
Si Si3 0.710432 0.562187 0.269849
Si Si4 0.404094 0.640064 0.818716
Si Si5 0.136069 0.036004 0.823995
O O1 0.225459 0.750000 0.113595
O O2 0.084270 0.629286 0.081438
O O3 0.353455 0.631402 0.531464
O O4 0.219364 0.556727 0.033355
O O5 0.112050 0.250000 0.162028
O O6 0.174990 0.418484 0.395091
O O7 0.090448 0.403176 0.924188
O O8 0.674165 0.447617 0.206767
O O9 0.771157 0.591756 0.174117
O O10 0.568551 0.618245 0.091032
O O11 0.371148 0.750000 0.824941
O O12 0.000000 0.000000 0.500000
#
# Coordination Sequence:
#
# PCOD9165750 Si02
#       5
#     4   4   4   4   4
#     4  10  21  40  64  90 127 166 205 257 311 369
#     4  11  23  41  64  93 128 166 209 256 312 368
#     4  11  23  41  68  91 126 166 206 259 313 368
#     4  10  22  42  64  90 127 167 207 256 314 370
#     4  12  23  38  67  95 125 159 212 260 308 367
#
# _framework density 20.339134000000001
#
# number of rings (size 3 to 8) (size 9 to 14) (size 15 to 20)
#    0.000    1.200    4.000    2.400    0.000    4.000 
#    0.000    0.000    0.000    0.000    0.000    0.000 
#    0.000    0.000    0.000    0.000    0.000    0.000 
#
# Total GULP energy -111804.983654 kJ/mol
# GULP energy per Si atom -5590.249183 kJ/mol
# Density = 2.029284 g / cm^3
# Si number density = 20.339134 Si / 1000 Ang^3
#
#
#
# Elastic Constant Matrix: (Units=GPa)
#
#
# Indices 1 2 3 4 5 6 
#
# 1 63.8174 7.7537 9.2217 0.0000 -25.5648 0.0000
# 2 7.7537 85.5576 6.4898 0.0000 -6.8041 0.0000
# 3 9.2217 6.4898 63.9975 0.0000 -0.9068 0.0000
# 4 0.0000 0.0000 0.0000 23.2221 0.0000 2.7237
# 5 -25.5648 -6.8041 -0.9068 0.0000 24.4695 0.0000
# 6 0.0000 0.0000 0.0000 2.7237 0.0000 3.4100
#
#
#
# Elastic Compliance Matrix: (Units=1/GPa)
#
#
# Indices 1 2 3 4 5 6 
#
# 1 0.027749 0.000054 -0.003595 0.000000 0.028873 0.000000
# 2 0.000054 0.012040 -0.001181 0.000000 0.003361 0.000000
# 3 -0.003595 -0.001181 0.016214 0.000000 -0.003483 0.000000
# 4 0.000000 0.000000 0.000000 0.047514 0.000000 -0.037951
# 5 0.028873 0.003361 -0.003483 0.000000 0.071838 0.000000
# 6 0.000000 0.000000 0.000000 -0.037951 0.000000 0.323572
#
#
# Mechanical properties :
#
#
# Convention : Reuss Voigt Hill
#
# Bulk Modulus (GPa) = 21.47808 28.92253 25.20031
# Shear Modulus (GPa) = 9.54400 22.88079 16.21240
#
# Velocity S-wave (km/s) = 2.16855 3.35769 2.82637
# Velocity P-wave (km/s) = 4.10525 5.41139 4.80292
#
# Compressibility (1/GPa) = 0.04655910
#
# Stress axis : x y z
#
# Youngs Moduli (GPa) = 36.03763 83.05658 61.67507
#
# Poissons Ratio (x) = -0.00449 0.22171
# Poissons Ratio (y) = -0.00195 0.07285
# Poissons Ratio (z) = 0.12955 0.09810
#
# Static dielectric constant tensor:
#      x y z
#    x 1.695460 0.000000 0.012380 
#    y 0.000000 1.751290 0.000000 
#    z 0.012380 0.000000 1.678140 
# 
# From -- ./inp_files/24303.got.cif
#   From: 2010.05.17/outbox.cif.g08.bks.cpg/sg11_13_cif.got.tgz:24303.got - 2010.06.03 12:22:45.
