data_PCOD9165677
_publ_section_title
;
Structure prediction by ZEFSAII (Michael W. Deem and Ramdas Pophale) SiO2 
 PCOD9165677
Probable space group: P 21/M
;
_chemical_formula_sum "Si O2"
_cell_formula_units_Z 28
_cell_length_a 14.193920
_cell_length_b 17.569806
_cell_length_c 5.674541
_cell_angle_alpha 90.000000
_cell_angle_beta 115.909826
_cell_angle_gamma 90.000000
_cell_volume 1272.896076
_symmetry_space_group_name_H-M "P 21/M"
_symmetry_group_IT_number 11
_symmetry_cell_setting 'monoclinic'
loop_
_space_group_symop_operation_xyz
x,y,z
-x,1/2+y,-z
-x,-y,-z
x,1/2-y,z
loop_
_atom_site_type_symbol
_atom_site_label
_atom_site_fract_x
_atom_site_fract_y
_atom_site_fract_z
Si Si1 0.740592 0.835402 0.304037
Si Si2 0.346370 0.888611 0.090522
Si Si3 0.618457 0.666817 0.767745
Si Si4 0.419840 0.047534 0.656974
Si Si5 0.863261 0.014865 0.101912
Si Si6 0.396738 0.866121 0.656055
Si Si7 0.909506 0.569338 0.656274
O O1 0.704430 0.750000 0.319003
O O2 0.660426 0.903792 0.274188
O O3 0.848127 0.852494 0.549236
O O4 0.731476 0.836212 0.012491
O O5 0.457046 0.934280 0.174837
O O6 0.359969 0.843479 0.352153
O O7 0.246861 0.942536 0.011747
O O8 0.335237 0.846064 0.826973
O O9 0.609518 0.750000 0.641069
O O10 0.604879 0.589598 0.613117
O O11 0.514472 0.664457 0.815302
O O12 0.396839 0.958735 0.638046
O O13 0.965128 0.069818 0.199085
O O14 0.877941 0.973653 0.374176
O O15 0.871707 0.967903 0.863217
#
# Coordination Sequence:
#
# PCOD9165677 Si02
#       7
#     4   4   4   4   4   4   4
#     4  11  23  38  59  86 124 165 198 245 304 372
#     4  11  20  34  56  85 118 147 195 244 303 344
#     4  10  22  38  53  82 125 163 200 242 303 367
#     4  11  22  34  56  87 119 156 201 246 297 355
#     4  10  21  40  60  91 112 154 192 263 299 351
#     4  11  23  34  58  88 117 159 195 249 291 360
#     4  10  23  38  61  84 122 152 202 242 307 351
#
# _framework density 21.997084000000001
#
# number of rings (size 3 to 8) (size 9 to 14) (size 15 to 20)
#    0.000    1.429    1.429    5.143    8.000    0.000 
#    0.000    0.000    0.000    5.143    0.000    0.000 
#    0.000    0.000    0.000    0.000    0.000    0.000 
#
# Total GULP energy -155913.297197 kJ/mol
# GULP energy per Si atom -5568.332043 kJ/mol
# Density = 2.194702 g / cm^3
# Si number density = 21.997084 Si / 1000 Ang^3
#
#
#
# Elastic Constant Matrix: (Units=GPa)
#
#
# Indices 1 2 3 4 5 6 
#
# 1 92.6659 15.2546 51.1107 0.0000 -1.8881 0.0000
# 2 15.2546 96.9506 39.0929 0.0000 7.5430 0.0000
# 3 51.1107 39.0929 129.1354 0.0000 -11.6034 0.0000
# 4 0.0000 0.0000 0.0000 18.7639 0.0000 -4.7590
# 5 -1.8881 7.5430 -11.6034 0.0000 49.5282 0.0000
# 6 0.0000 0.0000 0.0000 -4.7590 0.0000 46.8145
#
#
#
# Elastic Compliance Matrix: (Units=1/GPa)
#
#
# Indices 1 2 3 4 5 6 
#
# 1 0.013836 0.000140 -0.005591 0.000000 -0.000804 0.000000
# 2 0.000140 0.012109 -0.003970 0.000000 -0.002769 0.000000
# 3 -0.005591 -0.003970 0.011434 0.000000 0.003070 0.000000
# 4 0.000000 0.000000 0.000000 0.054704 0.000000 0.005561
# 5 -0.000804 -0.002769 0.003070 0.000000 0.021301 0.000000
# 6 0.000000 0.000000 0.000000 0.005561 0.000000 0.021926
#
#
# Mechanical properties :
#
#
# Convention : Reuss Voigt Hill
#
# Bulk Modulus (GPa) = 53.94497 58.85202 56.39849
# Shear Modulus (GPa) = 31.18571 37.24090 34.21330
#
# Velocity S-wave (km/s) = 3.76935 4.11906 3.94808
# Velocity P-wave (km/s) = 6.59704 7.03099 6.81747
#
# Compressibility (1/GPa) = 0.01853741
#
# Stress axis : x y z
#
# Youngs Moduli (GPa) = 72.27748 82.58556 87.45745
#
# Poissons Ratio (x) = -0.01155 0.48893
# Poissons Ratio (y) = -0.01011 0.34719
# Poissons Ratio (z) = 0.40407 0.32785
#
# Static dielectric constant tensor:
#      x y z
#    x 1.860080 0.000000 -0.118100 
#    y 0.000000 1.830500 0.000000 
#    z -0.118100 0.000000 1.978990 
# 
# From -- ./inp_files/6911.got.cif
#   From: 2010.05.17/outbox.cif.g08.bks.cpg/sg11_4_cif.got.tgz:6911.got - 2010.06.03 12:22:45.
