data_PCOD9165585
_publ_section_title
;
Structure prediction by ZEFSAII (Michael W. Deem and Ramdas Pophale) SiO2 
 PCOD9165585
Probable space group: P 21/M
;
_chemical_formula_sum "Si O2"
_cell_formula_units_Z 26
_cell_length_a 9.837558
_cell_length_b 20.306937
_cell_length_c 8.123930
_cell_angle_alpha 90.000000
_cell_angle_beta 134.986503
_cell_angle_gamma 90.000000
_cell_volume 1147.850119
_symmetry_space_group_name_H-M "P 21/M"
_symmetry_group_IT_number 11
_symmetry_cell_setting 'monoclinic'
loop_
_space_group_symop_operation_xyz
x,y,z
-x,1/2+y,-z
-x,-y,-z
x,1/2-y,z
loop_
_atom_site_type_symbol
_atom_site_label
_atom_site_fract_x
_atom_site_fract_y
_atom_site_fract_z
Si Si1 0.045621 0.649928 0.892965
Si Si2 0.450827 0.073019 0.895387
Si Si3 0.236550 0.673476 0.707986
Si Si4 0.158140 0.250000 0.038175
Si Si5 0.222485 0.444682 0.207384
Si Si6 0.105658 0.122210 0.785478
Si Si7 0.606019 0.086538 0.661013
O O1 0.901448 0.694598 0.872088
O O2 0.931305 0.581105 0.792052
O O3 0.112231 0.672715 0.771502
O O4 0.236889 0.642509 0.170320
O O5 0.234350 0.093949 0.748556
O O6 0.504948 0.075844 0.750994
O O7 0.582948 0.127218 0.099994
O O8 0.500000 0.000000 0.000000
O O9 0.280124 0.750000 0.704689
O O10 0.107571 0.639548 0.457538
O O11 0.184715 0.191170 0.924091
O O12 0.283124 0.519568 0.286718
O O13 0.426627 0.405246 0.386786
O O14 0.127983 0.430758 0.950109
#
# Coordination Sequence:
#
# PCOD9165585 Si02
#       7
#     4   4   4   2   4   4   4
#     4  10  21  41  63  89 122 165 212 263 318 384
#     4  11  24  44  65  97 133 173 222 269 326 395
#     4  11  24  43  69  92 127 176 220 267 332 396
#     4  10  22  40  62  90 124 160 214 264 320 382
#     4  10  21  39  63  94 127 164 209 265 322 383
#     4  11  23  42  64  96 131 166 218 272 326 388
#     4  10  21  41  62  92 126 168 212 257 322 389
#
# _framework density 22.651043000000001
#
# number of rings (size 3 to 8) (size 9 to 14) (size 15 to 20)
#    0.000    1.538    3.077    1.385    1.077    3.077 
#    2.769    3.077    0.000    0.000    0.000    0.000 
#    0.000    0.000    0.000    0.000    0.000    0.000 
#
# Total GULP energy -144769.567296 kJ/mol
# GULP energy per Si atom -5568.060281 kJ/mol
# Density = 2.259949 g / cm^3
# Si number density = 22.651043 Si / 1000 Ang^3
#
#
#
# Elastic Constant Matrix: (Units=GPa)
#
#
# Indices 1 2 3 4 5 6 
#
# 1 40.0076 -4.2861 0.4888 0.0000 -6.1400 0.0000
# 2 -4.2861 64.4482 27.9541 0.0000 9.5520 0.0000
# 3 0.4888 27.9541 108.5506 0.0000 7.0175 0.0000
# 4 0.0000 0.0000 0.0000 11.6509 0.0000 -20.0781
# 5 -6.1400 9.5520 7.0175 0.0000 23.9891 0.0000
# 6 0.0000 0.0000 0.0000 -20.0781 0.0000 28.9158
#
#
#
# Elastic Compliance Matrix: (Units=1/GPa)
#
#
# Indices 1 2 3 4 5 6 
#
# 1 0.026121 0.001137 -0.000829 0.000000 0.006475 0.000000
# 2 0.001137 0.018331 -0.004355 0.000000 -0.005734 0.000000
# 3 -0.000829 -0.004355 0.010437 0.000000 -0.001531 0.000000
# 4 0.000000 0.000000 0.000000 -0.436578 0.000000 -0.303143
# 5 0.006475 -0.005734 -0.001531 0.000000 0.046074 0.000000
# 6 0.000000 0.000000 0.000000 -0.303143 0.000000 -0.175908
#
#
# Mechanical properties :
#
#
# Convention : Reuss Voigt Hill
#
# Bulk Modulus (GPa) = 21.37017 29.03556 25.20286
# Shear Modulus (GPa) = -10.24943 25.50114 7.62585
#
# Velocity S-wave (km/s) = -2.12950 3.35897 1.83684
# Velocity P-wave (km/s) = 1.84626 5.28111 3.95593
#
# Compressibility (1/GPa) = 0.04679421
#
# Stress axis : x y z
#
# Youngs Moduli (GPa) = 38.28341 54.55317 95.81744
#
# Poissons Ratio (x) = -0.06203 0.07944
# Poissons Ratio (y) = -0.04353 0.41728
# Poissons Ratio (z) = 0.03174 0.23758
#
# Static dielectric constant tensor:
#      x y z
#    x 1.855340 0.000000 0.023810 
#    y 0.000000 1.871720 0.000000 
#    z 0.023810 0.000000 1.874780 
# 
# From -- ./inp_files/19466.got.cif
#   From: 2010.05.17/outbox.cif.g08.bks.cpg/sg11_10_cif.got.tgz:19466.got - 2010.06.03 12:22:45.
