data_PCOD9165304
_publ_section_title
;
Structure prediction by ZEFSAII (Michael W. Deem and Ramdas Pophale) SiO2 
 PCOD9165304
Probable space group: P 21/M
;
_chemical_formula_sum "Si O2"
_cell_formula_units_Z 28
_cell_length_a 19.115383
_cell_length_b 14.663144
_cell_length_c 5.656748
_cell_angle_alpha 90.000000
_cell_angle_beta 125.732481
_cell_angle_gamma 90.000000
_cell_volume 1287.065404
_symmetry_space_group_name_H-M "P 21/M"
_symmetry_group_IT_number 11
_symmetry_cell_setting 'monoclinic'
loop_
_space_group_symop_operation_xyz
x,y,z
-x,1/2+y,-z
-x,-y,-z
x,1/2-y,z
loop_
_atom_site_type_symbol
_atom_site_label
_atom_site_fract_x
_atom_site_fract_y
_atom_site_fract_z
Si Si1 0.495839 0.141643 0.601371
Si Si2 0.795000 0.153495 0.282820
Si Si3 0.662302 0.148840 0.648750
Si Si4 0.922692 0.503260 0.036649
Si Si5 0.413248 0.139241 0.936849
Si Si6 0.978085 0.147269 0.481537
Si Si7 0.731379 0.504300 0.466095
O O1 0.478008 0.250000 0.571163
O O2 0.595903 0.130852 0.731795
O O3 0.469008 0.110873 0.812310
O O4 0.448561 0.107636 0.265469
O O5 0.766061 0.250000 0.340171
O O6 0.897520 0.151004 0.502518
O O7 0.757432 0.061055 0.304422
O O8 0.757197 0.158114 0.945093
O O9 0.636010 0.250000 0.499943
O O10 0.668806 0.062006 0.494698
O O11 0.934361 0.405188 0.179534
O O12 0.948305 0.582380 0.272690
O O13 0.824833 0.521585 0.767070
O O14 0.000000 0.500000 0.000000
O O15 0.410028 0.250000 0.935466
O O16 0.320622 0.093473 0.709701
O O17 0.005779 0.250000 0.484315
#
# Coordination Sequence:
#
# PCOD9165304 Si02
#       7
#     4   4   4   4   4   4   4
#     4   9  21  43  65  90 129 174 219 272 322 380
#     4  10  21  38  61  94 125 156 204 263 328 386
#     4  10  22  39  63  94 128 163 206 261 328 387
#     4  11  23  41  61  91 129 161 209 262 316 382
#     4  10  24  44  65  90 130 178 222 268 318 379
#     4  10  22  41  65  89 123 166 208 260 322 385
#     4  12  24  37  66  91 128 163 210 264 321 383
#
# _framework density 21.754916999999999
#
# number of rings (size 3 to 8) (size 9 to 14) (size 15 to 20)
#    0.000    1.714    2.857    0.429    4.000    2.857 
#    0.000    0.000    0.000    0.000    0.000    0.000 
#    0.000    0.000    0.000    0.000    0.000    0.000 
#
# Total GULP energy -156048.978089 kJ/mol
# GULP energy per Si atom -5573.177789 kJ/mol
# Density = 2.170540 g / cm^3
# Si number density = 21.754917 Si / 1000 Ang^3
#
#
#
# Elastic Constant Matrix: (Units=GPa)
#
#
# Indices 1 2 3 4 5 6 
#
# 1 69.6978 20.6572 19.7157 0.0000 3.7504 0.0000
# 2 20.6572 83.1910 26.6604 0.0000 4.3138 0.0000
# 3 19.7157 26.6604 97.8650 0.0000 18.5736 0.0000
# 4 0.0000 0.0000 0.0000 18.0677 0.0000 1.5215
# 5 3.7504 4.3138 18.5736 0.0000 31.8295 0.0000
# 6 0.0000 0.0000 0.0000 1.5215 0.0000 28.9248
#
#
#
# Elastic Compliance Matrix: (Units=1/GPa)
#
#
# Indices 1 2 3 4 5 6 
#
# 1 0.015962 -0.003215 -0.002323 0.000000 -0.000090 0.000000
# 2 -0.003215 0.013821 -0.003187 0.000000 0.000365 0.000000
# 3 -0.002323 -0.003187 0.012843 0.000000 -0.006789 0.000000
# 4 0.000000 0.000000 0.000000 0.055594 0.000000 -0.002924
# 5 -0.000090 0.000365 -0.006789 0.000000 0.035340 0.000000
# 6 0.000000 0.000000 0.000000 -0.002924 0.000000 0.034726
#
#
# Mechanical properties :
#
#
# Convention : Reuss Voigt Hill
#
# Bulk Modulus (GPa) = 39.71835 42.75782 41.23808
# Shear Modulus (GPa) = 25.75633 28.01244 26.88438
#
# Velocity S-wave (km/s) = 3.44456 3.59226 3.51919
# Velocity P-wave (km/s) = 5.84096 6.07476 5.95901
#
# Compressibility (1/GPa) = 0.02517728
#
# Stress axis : x y z
#
# Youngs Moduli (GPa) = 62.64749 72.35315 77.86525
#
# Poissons Ratio (x) = 0.23258 0.18088
# Poissons Ratio (y) = 0.20138 0.24815
# Poissons Ratio (z) = 0.14553 0.23058
#
# Static dielectric constant tensor:
#      x y z
#    x 1.863640 0.000000 -0.050860 
#    y 0.000000 1.848330 0.000000 
#    z -0.050860 0.000000 1.849970 
# 
# From -- ./inp_files/7882.got.cif
#   From: 2010.05.17/outbox.cif.g08.bks.cpg/sg11_4_cif.got.tgz:7882.got - 2010.06.03 12:22:45.
