data_PCOD9165353
_publ_section_title
;
Structure prediction by ZEFSAII (Michael W. Deem and Ramdas Pophale) SiO2 
 PCOD9165353
Probable space group: P 21/M
;
_chemical_formula_sum "Si O2"
_cell_formula_units_Z 32
_cell_length_a 14.603569
_cell_length_b 13.989749
_cell_length_c 9.213684
_cell_angle_alpha 90.000000
_cell_angle_beta 56.779758
_cell_angle_gamma 90.000000
_cell_volume 1574.725830
_symmetry_space_group_name_H-M "P 21/M"
_symmetry_group_IT_number 11
_symmetry_cell_setting 'monoclinic'
loop_
_space_group_symop_operation_xyz
x,y,z
-x,1/2+y,-z
-x,-y,-z
x,1/2-y,z
loop_
_atom_site_type_symbol
_atom_site_label
_atom_site_fract_x
_atom_site_fract_y
_atom_site_fract_z
Si Si1 0.116086 0.853832 0.750128
Si Si2 0.353953 0.138029 0.287345
Si Si3 0.385222 0.475864 0.529156
Si Si4 0.310295 0.640320 0.378631
Si Si5 0.103595 0.133709 0.447712
Si Si6 0.409262 0.635026 0.984053
Si Si7 0.962120 0.503694 0.764964
Si Si8 0.249888 0.559550 0.880648
O O1 0.062496 0.750000 0.803841
O O2 0.184413 0.860811 0.540053
O O3 0.201731 0.863672 0.807953
O O4 0.034422 0.941692 0.821500
O O5 0.349446 0.250000 0.261316
O O6 0.376988 0.116724 0.436364
O O7 0.231518 0.103556 0.357003
O O8 0.464288 0.101201 0.112590
O O9 0.500000 0.500000 0.500000
O O10 0.364437 0.562667 0.435071
O O11 0.295238 0.477937 0.733884
O O12 0.348578 0.750000 0.369908
O O13 0.338030 0.615380 0.189446
O O14 0.094585 0.250000 0.455135
O O15 0.062056 0.083601 0.336846
O O16 0.030658 0.083722 0.636169
O O17 0.411989 0.750000 0.965615
O O18 0.349213 0.593931 0.895160
O O19 0.848877 0.469773 0.930612
#
# Coordination Sequence:
#
# PCOD9165353 Si02
#       8
#     4   4   4   4   4   4   4   4
#     4  10  21  40  62  89 129 167 202 254 317 373
#     4  10  22  41  63  88 126 167 209 255 308 376
#     4  11  22  39  60  89 123 165 200 243 311 370
#     4   9  21  37  60  89 122 156 200 256 306 364
#     4  10  23  42  64  91 125 166 208 259 321 373
#     4  10  21  38  62  94 123 157 207 259 308 364
#     4  11  24  40  64  91 125 164 212 263 306 378
#     4  11  23  38  61  95 124 162 207 258 309 369
#
# _framework density 20.320996000000001
#
# number of rings (size 3 to 8) (size 9 to 14) (size 15 to 20)
#    0.000    1.750    1.250    2.625    5.250    3.500 
#    0.000    2.500    0.000    0.000    0.000    0.000 
#    0.000    0.000    0.000    0.000    0.000    0.000 
#
# Total GULP energy -178549.510273 kJ/mol
# GULP energy per Si atom -5579.672196 kJ/mol
# Density = 2.027474 g / cm^3
# Si number density = 20.320996 Si / 1000 Ang^3
#
#
#
# Elastic Constant Matrix: (Units=GPa)
#
#
# Indices 1 2 3 4 5 6 
#
# 1 89.8712 12.7954 25.4855 0.0000 -9.0843 0.0000
# 2 12.7954 59.6794 28.6924 0.0000 -10.1048 0.0000
# 3 25.4855 28.6924 105.1261 0.0000 -12.5010 0.0000
# 4 0.0000 0.0000 0.0000 18.2721 0.0000 -7.8504
# 5 -9.0843 -10.1048 -12.5010 0.0000 28.9282 0.0000
# 6 0.0000 0.0000 0.0000 -7.8504 0.0000 17.0183
#
#
#
# Elastic Compliance Matrix: (Units=1/GPa)
#
#
# Indices 1 2 3 4 5 6 
#
# 1 0.012198 -0.001060 -0.002379 0.000000 0.002432 0.000000
# 2 -0.001060 0.020006 -0.004651 0.000000 0.004646 0.000000
# 3 -0.002379 -0.004651 0.011676 0.000000 0.002674 0.000000
# 4 0.000000 0.000000 0.000000 0.068256 0.000000 0.031486
# 5 0.002432 0.004646 0.002674 0.000000 0.038111 0.000000
# 6 0.000000 0.000000 0.000000 0.031486 0.000000 0.073284
#
#
# Mechanical properties :
#
#
# Convention : Reuss Voigt Hill
#
# Bulk Modulus (GPa) = 36.09865 43.18036 39.63950
# Shear Modulus (GPa) = 20.08482 25.35729 22.72105
#
# Velocity S-wave (km/s) = 3.14726 3.53631 3.34744
# Velocity P-wave (km/s) = 5.56864 6.16192 5.87277
#
# Compressibility (1/GPa) = 0.02770187
#
# Stress axis : x y z
#
# Youngs Moduli (GPa) = 81.97823 49.98474 85.64240
#
# Poissons Ratio (x) = 0.05298 0.20372
# Poissons Ratio (y) = 0.08689 0.39832
# Poissons Ratio (z) = 0.19500 0.23248
#
# Static dielectric constant tensor:
#      x y z
#    x 1.726160 0.000000 -0.013690 
#    y 0.000000 1.740040 0.000000 
#    z -0.013690 0.000000 1.730180 
# 
# From -- ./inp_files/22166.got.cif
#   From: 2010.05.17/outbox.cif.g08.bks.cpg/sg11_12_cif.got.tgz:22166.got - 2010.06.03 12:22:45.
