data_PCOD9165710
_publ_section_title
;
Structure prediction by ZEFSAII (Michael W. Deem and Ramdas Pophale) SiO2 
 PCOD9165710
Probable space group: P 21/M
;
_chemical_formula_sum "Si O2"
_cell_formula_units_Z 20
_cell_length_a 9.846467
_cell_length_b 14.519574
_cell_length_c 6.995963
_cell_angle_alpha 90.000000
_cell_angle_beta 126.443509
_cell_angle_gamma 90.000000
_cell_volume 804.594485
_symmetry_space_group_name_H-M "P 21/M"
_symmetry_group_IT_number 11
_symmetry_cell_setting 'monoclinic'
loop_
_space_group_symop_operation_xyz
x,y,z
-x,1/2+y,-z
-x,-y,-z
x,1/2-y,z
loop_
_atom_site_type_symbol
_atom_site_label
_atom_site_fract_x
_atom_site_fract_y
_atom_site_fract_z
Si Si1 0.678820 0.149459 0.413209
Si Si2 0.663591 0.349815 0.863000
Si Si3 0.928400 0.645859 0.370253
Si Si4 0.176960 0.030472 0.057834
Si Si5 0.331329 0.052446 0.592741
O O1 0.607255 0.250000 0.295772
O O2 0.681773 0.150873 0.647273
O O3 0.871300 0.142788 0.499478
O O4 0.602914 0.049935 0.297044
O O5 0.722387 0.250000 0.980907
O O6 0.763146 0.440341 0.007068
O O7 0.470710 0.371063 0.753036
O O8 0.885812 0.750000 0.388571
O O9 0.844376 0.578203 0.453755
O O10 0.846095 0.615820 0.100420
O O11 0.298568 0.051309 0.337591
O O12 0.000000 0.000000 0.000000
#
# Coordination Sequence:
#
# PCOD9165710 Si02
#       5
#     4   4   4   4   4
#     4   9  18  35  60  87 122 161 203 253 304 361
#     4  10  21  40  62  92 129 166 206 258 314 373
#     4  11  23  39  62  95 128 161 210 265 304 367
#     4  11  22  39  68  92 123 166 212 258 311 370
#     4  11  22  40  65  91 127 168 203 255 321 372
#
# _framework density 24.857240999999998
#
# number of rings (size 3 to 8) (size 9 to 14) (size 15 to 20)
#    0.000    1.600    4.000    3.600    0.000    2.400 
#    0.000    2.000    0.000    0.000    0.000    0.000 
#    0.000    0.000    0.000    0.000    0.000    0.000 
#
# Total GULP energy -111898.997712 kJ/mol
# GULP energy per Si atom -5594.949886 kJ/mol
# Density = 2.480067 g / cm^3
# Si number density = 24.857241 Si / 1000 Ang^3
#
#
#
# Elastic Constant Matrix: (Units=GPa)
#
#
# Indices 1 2 3 4 5 6 
#
# 1 108.9507 8.2912 14.2723 0.0000 -0.9480 0.0000
# 2 8.2912 138.7928 3.2002 0.0000 -1.9041 0.0000
# 3 14.2723 3.2002 42.0634 0.0000 -13.4502 0.0000
# 4 0.0000 0.0000 0.0000 21.3726 0.0000 4.5910
# 5 -0.9480 -1.9041 -13.4502 0.0000 44.2305 0.0000
# 6 0.0000 0.0000 0.0000 4.5910 0.0000 28.9770
#
#
#
# Elastic Compliance Matrix: (Units=1/GPa)
#
#
# Indices 1 2 3 4 5 6 
#
# 1 0.009671 -0.000509 -0.003526 0.000000 -0.000887 0.000000
# 2 -0.000509 0.007245 -0.000313 0.000000 0.000206 0.000000
# 3 -0.003526 -0.000313 0.027655 0.000000 0.008320 0.000000
# 4 0.000000 0.000000 0.000000 0.048437 0.000000 -0.007674
# 5 -0.000887 0.000206 0.008320 0.000000 0.025129 0.000000
# 6 0.000000 0.000000 0.000000 -0.007674 0.000000 0.035726
#
#
# Mechanical properties :
#
#
# Convention : Reuss Voigt Hill
#
# Bulk Modulus (GPa) = 27.87415 37.92603 32.90009
# Shear Modulus (GPa) = 28.65033 36.51890 32.58462
#
# Velocity S-wave (km/s) = 3.39867 3.83710 3.62452
# Velocity P-wave (km/s) = 5.16133 5.90947 5.54802
#
# Compressibility (1/GPa) = 0.03587553
#
# Stress axis : x y z
#
# Youngs Moduli (GPa) = 103.39748 138.01845 36.16040
#
# Poissons Ratio (x) = 0.07020 0.12752
# Poissons Ratio (y) = 0.05259 0.01131
# Poissons Ratio (z) = 0.36463 0.04318
#
# Static dielectric constant tensor:
#      x y z
#    x 1.939540 0.000000 -0.020730 
#    y 0.000000 1.957690 0.000000 
#    z -0.020730 0.000000 1.977280 
# 
# From -- ./inp_files/13092.got.cif
#   From: 2010.05.17/outbox.cif.g08.bks.cpg/sg11_7_cif.got.tgz:13092.got - 2010.06.03 12:22:45.
