data_PCOD9165515
_publ_section_title
;
Structure prediction by ZEFSAII (Michael W. Deem and Ramdas Pophale) SiO2 
 PCOD9165515
Probable space group: P 21/M
;
_chemical_formula_sum "Si O2"
_cell_formula_units_Z 28
_cell_length_a 10.098470
_cell_length_b 27.998853
_cell_length_c 5.496157
_cell_angle_alpha 90.000000
_cell_angle_beta 122.714432
_cell_angle_gamma 90.000000
_cell_volume 1307.508096
_symmetry_space_group_name_H-M "P 21/M"
_symmetry_group_IT_number 11
_symmetry_cell_setting 'monoclinic'
loop_
_space_group_symop_operation_xyz
x,y,z
-x,1/2+y,-z
-x,-y,-z
x,1/2-y,z
loop_
_atom_site_type_symbol
_atom_site_label
_atom_site_fract_x
_atom_site_fract_y
_atom_site_fract_z
Si Si1 0.234815 0.045528 0.736196
Si Si2 0.463047 0.559129 0.243193
Si Si3 0.684185 0.626118 0.789717
Si Si4 0.148598 0.972421 0.036613
Si Si5 0.275917 0.851614 0.880610
Si Si6 0.977885 0.886694 0.789538
Si Si7 0.593876 0.193134 0.481199
O O1 0.401348 0.034401 0.778856
O O2 0.112743 0.069953 0.432718
O O3 0.266051 0.089433 0.951416
O O4 0.164669 0.998627 0.790259
O O5 0.565868 0.593996 0.512966
O O6 0.338364 0.527526 0.272112
O O7 0.357419 0.595573 0.972679
O O8 0.843746 0.639113 0.806000
O O9 0.581582 0.672424 0.741809
O O10 0.105790 0.917754 0.063752
O O11 0.000000 0.000000 0.000000
O O12 0.341784 0.824990 0.190360
O O13 0.313306 0.827082 0.661475
O O14 0.087681 0.856296 0.724182
O O15 0.596939 0.250000 0.484763
#
# Coordination Sequence:
#
# PCOD9165515 Si02
#       7
#     4   4   4   4   4   4   4
#     4  11  20  37  57  84 121 166 209 251 304 366
#     4   9  21  38  55  85 120 166 209 252 304 369
#     4  10  21  39  62  87 119 164 204 250 321 375
#     4  11  21  36  54  85 122 167 215 266 301 352
#     4  10  22  41  67  92 122 162 201 250 321 374
#     4  10  23  39  59  86 124 165 207 256 311 373
#     4  11  23  43  68  94 121 156 205 258 313 390
#
# _framework density 21.414781999999999
#
# number of rings (size 3 to 8) (size 9 to 14) (size 15 to 20)
#    0.000    1.714    2.857    1.286    2.000    1.714 
#    2.571    1.429    0.000    0.000    0.000    0.000 
#    0.000    0.000    0.000    0.000    0.000    0.000 
#
# Total GULP energy -155924.208382 kJ/mol
# GULP energy per Si atom -5568.721728 kJ/mol
# Density = 2.136604 g / cm^3
# Si number density = 21.414782 Si / 1000 Ang^3
#
#
#
# Elastic Constant Matrix: (Units=GPa)
#
#
# Indices 1 2 3 4 5 6 
#
# 1 228.0841 52.7563 21.7165 0.0000 18.4448 0.0000
# 2 52.7563 81.9970 10.3284 0.0000 -5.8054 0.0000
# 3 21.7165 10.3284 49.0297 0.0000 1.2856 0.0000
# 4 0.0000 0.0000 0.0000 25.0735 0.0000 -8.0464
# 5 18.4448 -5.8054 1.2856 0.0000 29.1808 0.0000
# 6 0.0000 0.0000 0.0000 -8.0464 0.0000 20.5915
#
#
#
# Elastic Compliance Matrix: (Units=1/GPa)
#
#
# Indices 1 2 3 4 5 6 
#
# 1 0.005774 -0.003815 -0.001640 0.000000 -0.004336 0.000000
# 2 -0.003815 0.015251 -0.001668 0.000000 0.005519 0.000000
# 3 -0.001640 -0.001668 0.021480 0.000000 -0.000242 0.000000
# 4 0.000000 0.000000 0.000000 0.045601 0.000000 0.017819
# 5 -0.004336 0.005519 -0.000242 0.000000 0.038119 0.000000
# 6 0.000000 0.000000 0.000000 0.017819 0.000000 0.055527
#
#
# Mechanical properties :
#
#
# Convention : Reuss Voigt Hill
#
# Bulk Modulus (GPa) = 35.38682 58.74592 47.06637
# Shear Modulus (GPa) = 24.34087 33.25648 28.79868
#
# Velocity S-wave (km/s) = 3.37506 3.94505 3.67113
# Velocity P-wave (km/s) = 5.63458 6.94573 6.32422
#
# Compressibility (1/GPa) = 0.02825911
#
# Stress axis : x y z
#
# Youngs Moduli (GPa) = 173.20237 65.56949 46.55540
#
# Poissons Ratio (x) = 0.25016 0.07635
# Poissons Ratio (y) = 0.66079 0.07764
# Poissons Ratio (z) = 0.28403 0.10934
#
# Static dielectric constant tensor:
#      x y z
#    x 1.833930 0.000000 -0.025810 
#    y 0.000000 1.825040 0.000000 
#    z -0.025810 0.000000 1.936030 
# 
# From -- ./inp_files/3208.got.cif
#   From: 2010.05.17/outbox.cif.g08.bks.cpg/sg11_2_cif.got.tgz:3208.got - 2010.06.03 12:22:45.
