data_PCOD9165476
_publ_section_title
;
Structure prediction by ZEFSAII (Michael W. Deem and Ramdas Pophale) SiO2 
 PCOD9165476
Probable space group: P 21/M
;
_chemical_formula_sum "Si O2"
_cell_formula_units_Z 24
_cell_length_a 12.386052
_cell_length_b 7.945532
_cell_length_c 11.846007
_cell_angle_alpha 90.000000
_cell_angle_beta 111.061810
_cell_angle_gamma 90.000000
_cell_volume 1087.926280
_symmetry_space_group_name_H-M "P 21/M"
_symmetry_group_IT_number 11
_symmetry_cell_setting 'monoclinic'
loop_
_space_group_symop_operation_xyz
x,y,z
-x,1/2+y,-z
-x,-y,-z
x,1/2-y,z
loop_
_atom_site_type_symbol
_atom_site_label
_atom_site_fract_x
_atom_site_fract_y
_atom_site_fract_z
Si Si1 0.261771 0.054386 0.101910
Si Si2 0.807745 0.550874 0.680730
Si Si3 0.599203 0.055179 0.449940
Si Si4 0.256042 0.043345 0.853432
Si Si5 0.033317 0.451435 0.639296
Si Si6 0.478987 0.055966 0.815012
O O1 0.227048 0.250000 0.089573
O O2 0.216507 0.981026 0.202718
O O3 0.400955 0.041030 0.151582
O O4 0.222643 0.984217 0.966293
O O5 0.781010 0.750000 0.671192
O O6 0.720575 0.469893 0.558033
O O7 0.937200 0.522397 0.687849
O O8 0.582610 0.250000 0.414895
O O9 0.500000 0.000000 0.500000
O O10 0.584714 0.951982 0.330003
O O11 0.260144 0.250000 0.855359
O O12 0.160241 0.991082 0.726664
O O13 0.384933 0.987924 0.868028
O O14 0.031098 0.250000 0.646308
O O15 0.000000 0.500000 0.500000
O O16 0.506634 0.250000 0.851601
#
# Coordination Sequence:
#
# PCOD9165476 Si02
#       6
#     4   4   4   4   4   4
#     4  10  21  39  61  86 122 163 203 249 307 364
#     4  11  23  39  61  90 125 160 201 252 305 363
#     4  12  23  37  59  88 122 158 201 249 304 361
#     4   9  21  40  61  87 119 161 205 254 306 357
#     4  11  23  42  66  89 120 159 206 256 308 366
#     4  11  21  36  61  91 125 159 203 255 306 363
#
# _framework density 22.060319
#
# number of rings (size 3 to 8) (size 9 to 14) (size 15 to 20)
#    0.000    1.333    1.667    4.500    0.000    2.667 
#    0.000    5.000    0.000    0.000    0.000    0.000 
#    0.000    0.000    0.000    0.000    0.000    0.000 
#
# Total GULP energy -134221.208579 kJ/mol
# GULP energy per Si atom -5592.550357 kJ/mol
# Density = 2.201011 g / cm^3
# Si number density = 22.060319 Si / 1000 Ang^3
#
#
#
# Elastic Constant Matrix: (Units=GPa)
#
#
# Indices 1 2 3 4 5 6 
#
# 1 88.7396 -14.7866 22.1781 0.0000 -6.7343 0.0000
# 2 -14.7866 44.6194 -8.6917 0.0000 2.1065 0.0000
# 3 22.1781 -8.6917 121.1079 0.0000 -13.6821 0.0000
# 4 0.0000 0.0000 0.0000 14.7824 0.0000 5.9063
# 5 -6.7343 2.1065 -13.6821 0.0000 31.1338 0.0000
# 6 0.0000 0.0000 0.0000 5.9063 0.0000 22.0450
#
#
#
# Elastic Compliance Matrix: (Units=1/GPa)
#
#
# Indices 1 2 3 4 5 6 
#
# 1 0.012467 0.003697 -0.001832 0.000000 0.001641 0.000000
# 2 0.003697 0.023848 0.000992 0.000000 -0.000378 0.000000
# 3 -0.001832 0.000992 0.009061 0.000000 0.003519 0.000000
# 4 0.000000 0.000000 0.000000 0.075757 0.000000 -0.020297
# 5 0.001641 -0.000378 0.003519 0.000000 0.034046 0.000000
# 6 0.000000 0.000000 0.000000 -0.020297 0.000000 0.050800
#
#
# Mechanical properties :
#
#
# Convention : Reuss Voigt Hill
#
# Bulk Modulus (GPa) = 19.57325 27.98518 23.77922
# Shear Modulus (GPa) = 23.00995 30.64339 26.82667
#
# Velocity S-wave (km/s) = 3.23313 3.73107 3.49099
# Velocity P-wave (km/s) = 4.77801 5.59236 5.20115
#
# Compressibility (1/GPa) = 0.05109013
#
# Stress axis : x y z
#
# Youngs Moduli (GPa) = 80.20858 41.93216 110.35883
#
# Poissons Ratio (x) = -0.15503 0.20222
# Poissons Ratio (y) = -0.29655 -0.10945
# Poissons Ratio (z) = 0.14697 -0.04159
#
# Static dielectric constant tensor:
#      x y z
#    x 1.780160 0.000000 -0.011240 
#    y 0.000000 1.758400 0.000000 
#    z -0.011240 0.000000 1.831170 
# 
# From -- ./inp_files/33902.got.cif
#   From: 2010.05.17/outbox.cif.g08.bks.cpg/sg11_17_cif.got.tgz:33902.got - 2010.06.03 12:22:45.
