data_PCOD9165701
_publ_section_title
;
Structure prediction by ZEFSAII (Michael W. Deem and Ramdas Pophale) SiO2 
 PCOD9165701
Probable space group: P 21/M
;
_chemical_formula_sum "Si O2"
_cell_formula_units_Z 24
_cell_length_a 9.246562
_cell_length_b 14.624974
_cell_length_c 16.605799
_cell_angle_alpha 90.000000
_cell_angle_beta 33.870457
_cell_angle_gamma 90.000000
_cell_volume 1251.519164
_symmetry_space_group_name_H-M "P 21/M"
_symmetry_group_IT_number 11
_symmetry_cell_setting 'monoclinic'
loop_
_space_group_symop_operation_xyz
x,y,z
-x,1/2+y,-z
-x,-y,-z
x,1/2-y,z
loop_
_atom_site_type_symbol
_atom_site_label
_atom_site_fract_x
_atom_site_fract_y
_atom_site_fract_z
Si Si1 0.453083 0.139698 0.641524
Si Si2 0.603320 0.547330 0.872414
Si Si3 0.090796 0.858470 0.050410
Si Si4 0.696816 0.010987 0.655824
Si Si5 0.291389 0.859936 0.790861
Si Si6 0.864622 0.359861 0.319079
O O1 0.457127 0.250000 0.642261
O O2 0.616177 0.111559 0.487593
O O3 0.155425 0.106187 0.785699
O O4 0.592772 0.097133 0.654409
O O5 0.644442 0.483533 0.775375
O O6 0.875146 0.595740 0.766365
O O7 0.500000 0.500000 0.000000
O O8 0.369563 0.613781 0.954766
O O9 0.072543 0.750000 0.062096
O O10 0.090267 0.883584 0.955823
O O11 0.541898 0.921987 0.693850
O O12 0.000000 0.000000 0.500000
O O13 0.345776 0.750000 0.769903
O O14 0.182120 0.880436 0.753132
O O15 0.889080 0.250000 0.314579
#
# Coordination Sequence:
#
# PCOD9165701 Si02
#       6
#     4   4   4   4   4   4
#     4  10  22  39  62  87 118 157 200 246 297 352
#     4  11  24  37  58  90 121 154 198 246 300 351
#     4   9  20  40  61  83 115 157 198 241 294 352
#     4  11  23  40  59  88 122 159 199 243 299 354
#     4   9  21  38  63  88 116 156 200 243 294 355
#     4  10  21  40  62  87 118 157 198 243 295 355
#
# _framework density 19.176694999999999
#
# number of rings (size 3 to 8) (size 9 to 14) (size 15 to 20)
#    0.000    2.000    1.667    0.500    4.667    4.667 
#    0.000    0.833    0.000    0.000    0.000    0.000 
#    0.000    0.000    0.000    0.000    0.000    0.000 
#
# Total GULP energy -133928.261491 kJ/mol
# GULP energy per Si atom -5580.344229 kJ/mol
# Density = 1.913305 g / cm^3
# Si number density = 19.176695 Si / 1000 Ang^3
#
#
#
# Elastic Constant Matrix: (Units=GPa)
#
#
# Indices 1 2 3 4 5 6 
#
# 1 101.9032 13.7778 66.3269 0.0000 14.3838 0.0000
# 2 13.7778 36.1464 25.4290 0.0000 6.0746 0.0000
# 3 66.3269 25.4290 159.3008 0.0000 0.5556 0.0000
# 4 0.0000 0.0000 0.0000 23.9139 0.0000 -0.4629
# 5 14.3838 6.0746 0.5556 0.0000 42.1499 0.0000
# 6 0.0000 0.0000 0.0000 -0.4629 0.0000 30.7918
#
#
#
# Elastic Compliance Matrix: (Units=1/GPa)
#
#
# Indices 1 2 3 4 5 6 
#
# 1 0.014390 -0.000544 -0.005888 0.000000 -0.004755 0.000000
# 2 -0.000544 0.032034 -0.004872 0.000000 -0.004367 0.000000
# 3 -0.005888 -0.004872 0.009498 0.000000 0.002586 0.000000
# 4 0.000000 0.000000 0.000000 0.041829 0.000000 0.000629
# 5 -0.004755 -0.004367 0.002586 0.000000 0.025943 0.000000
# 6 0.000000 0.000000 0.000000 0.000629 0.000000 0.032486
#
#
# Mechanical properties :
#
#
# Convention : Reuss Voigt Hill
#
# Bulk Modulus (GPa) = 30.01719 56.49087 43.25403
# Shear Modulus (GPa) = 26.33081 32.15892 29.24486
#
# Velocity S-wave (km/s) = 3.70951 4.09954 3.90939
# Velocity P-wave (km/s) = 5.83388 7.20627 6.55608
#
# Compressibility (1/GPa) = 0.03331424
#
# Stress axis : x y z
#
# Youngs Moduli (GPa) = 69.49043 31.21707 105.28792
#
# Poissons Ratio (x) = 0.01697 0.61996
# Poissons Ratio (y) = 0.03778 0.51295
# Poissons Ratio (z) = 0.40918 0.15209
#
# Static dielectric constant tensor:
#      x y z
#    x 1.718620 0.000000 -0.025820 
#    y 0.000000 1.681490 0.000000 
#    z -0.025820 0.000000 1.705480 
# 
# From -- ./inp_files/22816.got.cif
#   From: 2010.05.17/outbox.cif.g08.bks.cpg/sg11_12_cif.got.tgz:22816.got - 2010.06.03 12:22:45.
