data_PCOD9165965
_publ_section_title
;
Structure prediction by ZEFSAII (Michael W. Deem and Ramdas Pophale) SiO2 
 PCOD9165965
Probable space group: P 21/M
;
_chemical_formula_sum "Si O2"
_cell_formula_units_Z 28
_cell_length_a 12.230011
_cell_length_b 17.822643
_cell_length_c 5.933373
_cell_angle_alpha 90.000000
_cell_angle_beta 107.586972
_cell_angle_gamma 90.000000
_cell_volume 1232.854150
_symmetry_space_group_name_H-M "P 21/M"
_symmetry_group_IT_number 11
_symmetry_cell_setting 'monoclinic'
loop_
_space_group_symop_operation_xyz
x,y,z
-x,1/2+y,-z
-x,-y,-z
x,1/2-y,z
loop_
_atom_site_type_symbol
_atom_site_label
_atom_site_fract_x
_atom_site_fract_y
_atom_site_fract_z
Si Si1 0.788290 0.250000 0.706975
Si Si2 0.732381 0.839042 0.299477
Si Si3 0.552019 0.574481 0.920079
Si Si4 0.911032 0.250000 0.273742
Si Si5 0.245748 0.047315 0.297630
Si Si6 0.924253 0.937394 0.168834
Si Si7 0.318249 0.890517 0.558489
Si Si8 0.096237 0.599245 0.615853
O O1 0.862612 0.250000 0.512328
O O2 0.712120 0.325149 0.634583
O O3 0.847579 0.250000 0.989089
O O4 0.742668 0.750000 0.307603
O O5 0.742770 0.878775 0.546448
O O6 0.832140 0.878272 0.212596
O O7 0.609679 0.866733 0.125886
O O8 0.657633 0.548864 0.832670
O O9 0.449093 0.609401 0.712135
O O10 0.500000 0.500000 0.000000
O O11 0.970470 0.168316 0.311084
O O12 0.278188 0.973026 0.455733
O O13 0.119410 0.047621 0.109617
O O14 0.046222 0.906687 0.329798
O O15 0.911736 0.017951 0.281341
O O16 0.229971 0.877746 0.710799
#
# Coordination Sequence:
#
# PCOD9165965 Si02
#       8
#     2   4   4   2   4   4   4   4
#     4  10  24  40  64  95 134 175 218 282 351 410
#     4  11  25  44  63  96 133 177 226 281 341 409
#     4  11  23  42  69  93 129 176 225 281 345 416
#     4  10  22  44  62  99 138 177 224 290 347 420
#     4  11  22  42  66  94 129 174 230 276 339 414
#     4  10  22  42  68  93 130 179 224 281 336 422
#     4  11  21  41  64  98 130 170 224 283 347 414
#     4  10  21  42  66  98 133 174 228 280 353 415
#
# _framework density 22.711527
#
# number of rings (size 3 to 8) (size 9 to 14) (size 15 to 20)
#    0.000    1.429    2.857    2.143    2.000    4.000 
#    5.143    0.000    0.000    0.000    0.000    0.000 
#    0.000    0.000    0.000    0.000    0.000    0.000 
#
# Total GULP energy -156201.991349 kJ/mol
# GULP energy per Si atom -5578.642548 kJ/mol
# Density = 2.265983 g / cm^3
# Si number density = 22.711527 Si / 1000 Ang^3
#
#
#
# Elastic Constant Matrix: (Units=GPa)
#
#
# Indices 1 2 3 4 5 6 
#
# 1 69.1066 13.8937 28.1980 0.0000 13.6615 0.0000
# 2 13.8937 191.1928 52.5193 0.0000 10.1614 0.0000
# 3 28.1980 52.5193 139.7311 0.0000 27.6543 0.0000
# 4 0.0000 0.0000 0.0000 30.9738 0.0000 17.6501
# 5 13.6615 10.1614 27.6543 0.0000 40.2394 0.0000
# 6 0.0000 0.0000 0.0000 17.6501 0.0000 0.2037
#
#
#
# Elastic Compliance Matrix: (Units=1/GPa)
#
#
# Indices 1 2 3 4 5 6 
#
# 1 0.016267 -0.000318 -0.002415 0.000000 -0.003783 0.000000
# 2 -0.000318 0.005839 -0.002153 0.000000 0.000113 0.000000
# 3 -0.002415 -0.002153 0.009471 0.000000 -0.005146 0.000000
# 4 0.000000 0.000000 0.000000 -0.000667 0.000000 0.057828
# 5 -0.003783 0.000113 -0.005146 0.000000 0.029644 0.000000
# 6 0.000000 0.000000 0.000000 0.057828 0.000000 -0.101482
#
#
# Mechanical properties :
#
#
# Convention : Reuss Voigt Hill
#
# Bulk Modulus (GPa) = 45.85628 65.47247 55.66438
# Shear Modulus (GPa) = -209.30600 34.64470 -87.33065
#
# Velocity S-wave (km/s) = -9.61034 3.90990 -6.20771
# Velocity P-wave (km/s) = 10.14446 7.01951 5.17864
#
# Compressibility (1/GPa) = 0.02180726
#
# Stress axis : x y z
#
# Youngs Moduli (GPa) = 61.47253 171.26906 105.58071
#
# Poissons Ratio (x) = 0.05443 0.25494
# Poissons Ratio (y) = 0.01954 0.22729
# Poissons Ratio (z) = 0.14843 0.36870
#
# Static dielectric constant tensor:
#      x y z
#    x 1.865010 0.000000 -0.035270 
#    y 0.000000 1.874840 0.000000 
#    z -0.035270 0.000000 1.892530 
# 
# From -- ./inp_files/6799.got.cif
#   From: 2010.05.17/outbox.cif.g08.bks.cpg/sg11_4_cif.got.tgz:6799.got - 2010.06.03 12:22:45.
