data_PCOD9165761
_publ_section_title
;
Structure prediction by ZEFSAII (Michael W. Deem and Ramdas Pophale) SiO2 
 PCOD9165761
Probable space group: P 21/M
;
_chemical_formula_sum "Si O2"
_cell_formula_units_Z 32
_cell_length_a 21.624996
_cell_length_b 15.433800
_cell_length_c 15.108410
_cell_angle_alpha 90.000000
_cell_angle_beta 160.545532
_cell_angle_gamma 90.000000
_cell_volume 1679.450014
_symmetry_space_group_name_H-M "P 21/M"
_symmetry_group_IT_number 11
_symmetry_cell_setting 'monoclinic'
loop_
_space_group_symop_operation_xyz
x,y,z
-x,1/2+y,-z
-x,-y,-z
x,1/2-y,z
loop_
_atom_site_type_symbol
_atom_site_label
_atom_site_fract_x
_atom_site_fract_y
_atom_site_fract_z
Si Si1 0.308159 0.848987 0.543323
Si Si2 0.387429 0.353556 0.375632
Si Si3 0.687074 0.848116 0.447185
Si Si4 0.658789 0.647475 0.891212
Si Si5 0.668569 0.148604 0.905259
Si Si6 0.944071 0.903658 0.951912
Si Si7 0.047217 0.001533 0.666907
Si Si8 0.308312 0.998829 0.687545
O O1 0.322619 0.750000 0.593778
O O2 0.487916 0.869768 0.726348
O O3 0.125811 0.858403 0.236371
O O4 0.297445 0.915505 0.609232
O O5 0.352637 0.250000 0.341154
O O6 0.402281 0.370798 0.292103
O O7 0.570992 0.373094 0.679835
O O8 0.214021 0.401979 0.185806
O O9 0.689180 0.750000 0.416039
O O10 0.495691 0.861492 0.243742
O O11 0.703152 0.918152 0.392216
O O12 0.850071 0.859693 0.739633
O O13 0.705161 0.750000 0.959324
O O14 0.828791 0.585763 0.144342
O O15 0.723631 0.250000 0.979021
O O16 0.832054 0.083010 0.146235
O O17 0.000000 0.000000 0.000000
O O18 0.861922 0.002321 0.474663
O O19 0.000000 0.000000 0.500000
O O20 0.500000 0.000000 0.000000
#
# Coordination Sequence:
#
# PCOD9165761 Si02
#       8
#     4   4   4   4   4   4   4   4
#     4  11  23  42  65  92 127 165 206 258 308 365
#     4   9  19  38  61  91 126 164 205 248 304 369
#     4  10  21  40  64  92 128 166 204 252 306 365
#     4  10  23  41  64  92 125 162 206 256 307 362
#     4   9  20  40  65  91 124 163 201 248 305 363
#     4  11  20  34  62  96 130 165 202 250 302 367
#     4  12  26  42  64  89 119 161 205 260 306 365
#     4  12  26  44  65  90 122 160 211 259 309 372
#
# _framework density 19.053857000000001
#
# number of rings (size 3 to 8) (size 9 to 14) (size 15 to 20)
#    0.000    1.500    1.250    4.875    1.750    4.500 
#    0.000    1.250    0.000    0.000    0.000    0.000 
#    0.000    0.000    0.000    0.000    0.000    0.000 
#
# Total GULP energy -178938.636578 kJ/mol
# GULP energy per Si atom -5591.832393 kJ/mol
# Density = 1.901049 g / cm^3
# Si number density = 19.053857 Si / 1000 Ang^3
#
#
#
# Elastic Constant Matrix: (Units=GPa)
#
#
# Indices 1 2 3 4 5 6 
#
# 1 156.7865 93.5808 87.5809 0.0000 -8.9627 0.0000
# 2 93.5808 111.5803 78.7538 0.0000 5.1347 0.0000
# 3 87.5809 78.7538 159.3803 0.0000 1.7836 0.0000
# 4 0.0000 0.0000 0.0000 86.1113 0.0000 28.2648
# 5 -8.9627 5.1347 1.7836 0.0000 23.7173 0.0000
# 6 0.0000 0.0000 0.0000 28.2648 0.0000 18.5593
#
#
#
# Elastic Compliance Matrix: (Units=1/GPa)
#
#
# Indices 1 2 3 4 5 6 
#
# 1 0.014981 -0.010853 -0.002962 0.000000 0.008233 0.000000
# 2 -0.010853 0.021770 -0.004699 0.000000 -0.008461 0.000000
# 3 -0.002962 -0.004699 0.010233 0.000000 -0.000871 0.000000
# 4 0.000000 0.000000 0.000000 0.023221 0.000000 -0.035364
# 5 0.008233 -0.008461 -0.000871 0.000000 0.047172 0.000000
# 6 0.000000 0.000000 0.000000 -0.035364 0.000000 0.107739
#
#
# Mechanical properties :
#
#
# Convention : Reuss Voigt Hill
#
# Bulk Modulus (GPa) = 100.42342 105.28645 102.85493
# Shear Modulus (GPa) = 18.83522 36.86635 27.85078
#
# Velocity S-wave (km/s) = 3.14749 4.40346 3.82735
# Velocity P-wave (km/s) = 8.12579 9.01284 8.58078
#
# Compressibility (1/GPa) = 0.00995784
#
# Stress axis : x y z
#
# Youngs Moduli (GPa) = 66.75241 45.93506 97.72097
#
# Poissons Ratio (x) = 0.49852 0.28941
# Poissons Ratio (y) = 0.72444 0.45916
# Poissons Ratio (z) = 0.19769 0.21583
#
# Static dielectric constant tensor:
#      x y z
#    x 1.634050 0.000000 -0.001910 
#    y 0.000000 1.659800 0.000000 
#    z -0.001910 0.000000 1.632440 
# 
# From -- ./inp_files/55021.got.cif
#   From: 2010.05.17/outbox.cif.g08.bks.cpg/sg11_28_cif.got.tgz:55021.got - 2010.06.03 12:22:45.
