data_PCOD9165485
_publ_section_title
;
Structure prediction by ZEFSAII (Michael W. Deem and Ramdas Pophale) SiO2 
 PCOD9165485
Probable space group: P 21/M
;
_chemical_formula_sum "Si O2"
_cell_formula_units_Z 32
_cell_length_a 10.945987
_cell_length_b 24.863489
_cell_length_c 6.591038
_cell_angle_alpha 90.000000
_cell_angle_beta 104.704617
_cell_angle_gamma 90.000000
_cell_volume 1735.035406
_symmetry_space_group_name_H-M "P 21/M"
_symmetry_group_IT_number 11
_symmetry_cell_setting 'monoclinic'
loop_
_space_group_symop_operation_xyz
x,y,z
-x,1/2+y,-z
-x,-y,-z
x,1/2-y,z
loop_
_atom_site_type_symbol
_atom_site_label
_atom_site_fract_x
_atom_site_fract_y
_atom_site_fract_z
Si Si1 0.405329 0.857000 0.157255
Si Si2 0.323695 0.810739 0.728451
Si Si3 0.432096 0.443888 0.979072
Si Si4 0.222256 0.022391 0.594525
Si Si5 0.759757 0.906663 0.781156
Si Si6 0.032036 0.451194 0.859617
Si Si7 0.580582 0.811911 0.578282
Si Si8 0.772190 0.093280 0.575155
O O1 0.469955 0.897787 0.028679
O O2 0.512265 0.828535 0.338842
O O3 0.318241 0.889997 0.276775
O O4 0.330111 0.818003 0.974063
O O5 0.281557 0.750000 0.659309
O O6 0.465716 0.816085 0.693578
O O7 0.240287 0.857150 0.587143
O O8 0.332291 0.445771 0.755034
O O9 0.500000 0.500000 0.000000
O O10 0.356672 0.436048 0.154622
O O11 0.193710 0.056792 0.384003
O O12 0.107227 0.022343 0.703499
O O13 0.265397 0.962499 0.551333
O O14 0.696934 0.850971 0.682691
O O15 0.874221 0.908948 0.989717
O O16 0.909064 0.421001 0.724132
O O17 0.000000 0.500000 0.000000
O O18 0.620835 0.750000 0.587515
#
# Coordination Sequence:
#
# PCOD9165485 Si02
#       8
#     4   4   4   4   4   4   4   4
#     4  11  21  36  61  92 122 156 198 248 305 364
#     4  10  22  40  62  88 123 160 201 255 305 354
#     4  11  22  32  55  91 127 156 195 241 311 368
#     4  11  23  38  61  88 126 159 199 250 301 364
#     4  11  22  39  59  89 123 161 202 250 301 358
#     4  11  25  41  61  89 120 165 208 242 300 367
#     4  10  21  39  61  89 121 161 205 247 304 364
#     4  11  24  38  62  90 121 165 205 245 302 365
#
# _framework density 18.443428999999998
#
# number of rings (size 3 to 8) (size 9 to 14) (size 15 to 20)
#    0.000    1.250    3.750    2.250    5.250    1.500 
#    0.000    0.625    0.000    2.250    0.000    0.000 
#    0.000    0.000    0.000    0.000    0.000    0.000 
#
# Total GULP energy -178573.279139 kJ/mol
# GULP energy per Si atom -5580.414973 kJ/mol
# Density = 1.840145 g / cm^3
# Si number density = 18.443429 Si / 1000 Ang^3
#
#
#
# Elastic Constant Matrix: (Units=GPa)
#
#
# Indices 1 2 3 4 5 6 
#
# 1 47.7013 29.6275 21.5989 0.0000 -2.5940 0.0000
# 2 29.6275 134.2495 42.4965 0.0000 5.9871 0.0000
# 3 21.5989 42.4965 86.9677 0.0000 -7.5146 0.0000
# 4 0.0000 0.0000 0.0000 19.9907 0.0000 2.0786
# 5 -2.5940 5.9871 -7.5146 0.0000 33.2804 0.0000
# 6 0.0000 0.0000 0.0000 2.0786 0.0000 19.0589
#
#
#
# Elastic Compliance Matrix: (Units=1/GPa)
#
#
# Indices 1 2 3 4 5 6 
#
# 1 0.025669 -0.004476 -0.004024 0.000000 0.001897 0.000000
# 2 -0.004476 0.009820 -0.003947 0.000000 -0.003007 0.000000
# 3 -0.004024 -0.003947 0.014748 0.000000 0.003727 0.000000
# 4 0.000000 0.000000 0.000000 0.050597 0.000000 -0.005518
# 5 0.001897 -0.003007 0.003727 0.000000 0.031578 0.000000
# 6 0.000000 0.000000 0.000000 -0.005518 0.000000 0.053071
#
#
# Mechanical properties :
#
#
# Convention : Reuss Voigt Hill
#
# Bulk Modulus (GPa) = 39.45639 50.70714 45.08177
# Shear Modulus (GPa) = 22.84942 26.14572 24.49757
#
# Velocity S-wave (km/s) = 3.52361 3.76921 3.64848
# Velocity P-wave (km/s) = 6.16393 6.81877 6.49960
#
# Compressibility (1/GPa) = 0.02534444
#
# Stress axis : x y z
#
# Youngs Moduli (GPa) = 38.95760 101.83334 67.80361
#
# Poissons Ratio (x) = 0.45577 0.27285
# Poissons Ratio (y) = 0.17436 0.26760
# Poissons Ratio (z) = 0.15677 0.40191
#
# Static dielectric constant tensor:
#      x y z
#    x 1.630930 0.000000 0.012280 
#    y 0.000000 1.623630 0.000000 
#    z 0.012280 0.000000 1.699990 
# 
# From -- ./inp_files/5473.got.cif
#   From: 2010.05.17/outbox.cif.g08.bks.cpg/sg11_3_cif.got.tgz:5473.got - 2010.06.03 12:22:45.
