data_PCOD9165556
_publ_section_title
;
Structure prediction by ZEFSAII (Michael W. Deem and Ramdas Pophale) SiO2 
 PCOD9165556
Probable space group: P 21/M
;
_chemical_formula_sum "Si O2"
_cell_formula_units_Z 28
_cell_length_a 20.276443
_cell_length_b 9.172744
_cell_length_c 23.256103
_cell_angle_alpha 90.000000
_cell_angle_beta 19.839778
_cell_angle_gamma 90.000000
_cell_volume 1468.007837
_symmetry_space_group_name_H-M "P 21/M"
_symmetry_group_IT_number 11
_symmetry_cell_setting 'monoclinic'
loop_
_space_group_symop_operation_xyz
x,y,z
-x,1/2+y,-z
-x,-y,-z
x,1/2-y,z
loop_
_atom_site_type_symbol
_atom_site_label
_atom_site_fract_x
_atom_site_fract_y
_atom_site_fract_z
Si Si1 0.652762 0.582051 0.915151
Si Si2 0.439593 0.575478 0.396122
Si Si3 0.108531 0.425801 0.963824
Si Si4 0.642463 0.919165 0.654635
Si Si5 0.932444 0.424522 0.231840
Si Si6 0.751171 0.419165 0.951731
Si Si7 0.050977 0.917949 0.516936
O O1 0.593018 0.750000 0.973216
O O2 0.858707 0.581644 0.713764
O O3 0.500000 0.500000 0.000000
O O4 0.681301 0.500389 0.951824
O O5 0.436776 0.750000 0.388467
O O6 0.358800 0.496886 0.405779
O O7 0.292420 0.544176 0.569192
O O8 0.663410 0.532849 0.222286
O O9 0.097845 0.250000 0.967386
O O10 0.006317 0.467152 0.107986
O O11 0.000000 0.500000 0.000000
O O12 0.699932 0.750000 0.602522
O O13 0.425049 0.925715 0.858318
O O14 0.781927 0.000391 0.584949
O O15 0.961043 0.250000 0.213713
O O16 0.065062 0.503112 0.170359
O O17 0.792574 0.250000 0.904973
O O18 0.105684 0.750000 0.460550
O O19 0.000000 0.000000 0.500000
#
# Coordination Sequence:
#
# PCOD9165556 Si02
#       7
#     4   4   4   4   4   4   4
#     4  11  24  40  58  83 115 153 199 249 303 362
#     4  10  21  39  63  90 120 159 205 248 299 361
#     4  10  22  40  62  90 126 162 200 250 302 360
#     4  11  23  38  59  88 120 155 198 248 302 360
#     4  10  21  39  63  90 120 159 205 248 299 361
#     4  11  23  38  59  88 120 155 198 248 302 360
#     4  11  24  40  58  83 115 153 199 249 303 362
#
# _framework density 19.073467999999998
#
# number of rings (size 3 to 8) (size 9 to 14) (size 15 to 20)
#    0.000    1.429    1.429    3.429    0.000   13.143 
#    0.000    0.000    0.000    0.000    0.000    0.000 
#    0.000    0.000    0.000    0.000    0.000    0.000 
#
# Total GULP energy -156535.773391 kJ/mol
# GULP energy per Si atom -5590.563335 kJ/mol
# Density = 1.903006 g / cm^3
# Si number density = 19.073468 Si / 1000 Ang^3
#
#
#
# Elastic Constant Matrix: (Units=GPa)
#
#
# Indices 1 2 3 4 5 6 
#
# 1 145.0500 59.8817 63.7632 0.0000 -6.1455 0.0000
# 2 59.8817 81.5845 51.5794 0.0000 -1.6932 0.0000
# 3 63.7632 51.5794 118.0944 0.0000 0.6531 0.0000
# 4 0.0000 0.0000 0.0000 26.2889 0.0000 -3.1704
# 5 -6.1455 -1.6932 0.6531 0.0000 26.9536 0.0000
# 6 0.0000 0.0000 0.0000 -3.1704 0.0000 41.8402
#
#
#
# Elastic Compliance Matrix: (Units=1/GPa)
#
#
# Indices 1 2 3 4 5 6 
#
# 1 0.010852 -0.005812 -0.003333 0.000000 0.002190 0.000000
# 2 -0.005812 0.020088 -0.005636 0.000000 0.000073 0.000000
# 3 -0.003333 -0.005636 0.012737 0.000000 -0.001422 0.000000
# 4 0.000000 0.000000 0.000000 0.038390 0.000000 0.002909
# 5 0.002190 0.000073 -0.001422 0.000000 0.037639 0.000000
# 6 0.000000 0.000000 0.000000 0.002909 0.000000 0.024121
#
#
# Mechanical properties :
#
#
# Convention : Reuss Voigt Hill
#
# Bulk Modulus (GPa) = 70.84913 77.24194 74.04554
# Shear Modulus (GPa) = 28.07533 30.31685 29.19609
#
# Velocity S-wave (km/s) = 3.84077 3.99115 3.91668
# Velocity P-wave (km/s) = 7.54286 7.86283 7.70450
#
# Compressibility (1/GPa) = 0.01411450
#
# Stress axis : x y z
#
# Youngs Moduli (GPa) = 92.15303 49.78074 78.51433
#
# Poissons Ratio (x) = 0.28935 0.26165
# Poissons Ratio (y) = 0.53564 0.44249
# Poissons Ratio (z) = 0.30710 0.28055
#
# Static dielectric constant tensor:
#      x y z
#    x 1.606990 0.000000 0.015500 
#    y 0.000000 1.645750 0.000000 
#    z 0.015500 0.000000 1.683000 
# 
# From -- ./inp_files/69768.got.cif
#   From: 2010.05.17/outbox.cif.g08.bks.cpg/sg11_35_cif.got.tgz:69768.got - 2010.06.03 12:22:45.
