data_PCOD9165324
_publ_section_title
;
Structure prediction by ZEFSAII (Michael W. Deem and Ramdas Pophale) SiO2 
 PCOD9165324
Probable space group: P 21/M
;
_chemical_formula_sum "Si O2"
_cell_formula_units_Z 28
_cell_length_a 22.347151
_cell_length_b 8.632072
_cell_length_c 15.052343
_cell_angle_alpha 90.000000
_cell_angle_beta 148.910542
_cell_angle_gamma 90.000000
_cell_volume 1499.364356
_symmetry_space_group_name_H-M "P 21/M"
_symmetry_group_IT_number 11
_symmetry_cell_setting 'monoclinic'
loop_
_space_group_symop_operation_xyz
x,y,z
-x,1/2+y,-z
-x,-y,-z
x,1/2-y,z
loop_
_atom_site_type_symbol
_atom_site_label
_atom_site_fract_x
_atom_site_fract_y
_atom_site_fract_z
Si Si1 0.286827 0.438213 0.246667
Si Si2 0.108798 0.565001 0.524556
Si Si3 0.366304 0.064393 0.158041
Si Si4 0.856224 0.064595 0.225833
Si Si5 0.388059 0.437178 0.565004
Si Si6 0.978011 0.563559 0.070770
Si Si7 0.807742 0.564301 0.545436
O O1 0.289479 0.250000 0.251517
O O2 0.356754 0.489697 0.248788
O O3 0.337136 0.491270 0.404983
O O4 0.152039 0.482979 0.066682
O O5 0.103246 0.750000 0.510254
O O6 0.147515 0.524756 0.673860
O O7 0.190649 0.498321 0.552361
O O8 0.979419 0.497807 0.347869
O O9 0.370063 0.250000 0.162028
O O10 0.482224 0.998249 0.261979
O O11 0.251244 0.008412 0.961998
O O12 0.853790 0.250000 0.214062
O O13 0.389678 0.250000 0.566074
O O14 0.301385 0.485861 0.533305
O O15 0.983716 0.750000 0.077443
O O16 0.076443 0.497607 0.259720
O O17 0.000000 0.500000 0.000000
O O18 0.810872 0.750000 0.548807
#
# Coordination Sequence:
#
# PCOD9165324 Si02
#       7
#     4   4   4   4   4   4   4
#     4   9  19  36  55  78 112 150 186 232 284 333
#     4  10  21  38  62  90 117 145 182 235 287 337
#     4  11  22  36  58  85 112 147 193 241 287 333
#     4  10  21  39  62  87 116 149 185 228 286 346
#     4  10  21  39  56  75 113 156 194 234 280 340
#     4  11  20  34  55  81 115 150 187 234 285 339
#     4  11  22  37  58  84 115 155 193 231 288 347
#
# _framework density 18.674579000000001
#
# number of rings (size 3 to 8) (size 9 to 14) (size 15 to 20)
#    0.000    1.714    1.429    3.429    0.000    4.000 
#    0.000    3.571    0.000    0.000    0.000    0.000 
#    0.000    0.000    0.000    0.000    0.000    0.000 
#
# Total GULP energy -156457.277891 kJ/mol
# GULP energy per Si atom -5587.759925 kJ/mol
# Density = 1.863207 g / cm^3
# Si number density = 18.674579 Si / 1000 Ang^3
#
#
#
# Elastic Constant Matrix: (Units=GPa)
#
#
# Indices 1 2 3 4 5 6 
#
# 1 139.9415 35.2670 53.2858 0.0000 3.3228 0.0000
# 2 35.2670 30.3107 14.4859 0.0000 0.5869 0.0000
# 3 53.2858 14.4859 66.6697 0.0000 10.2804 0.0000
# 4 0.0000 0.0000 0.0000 29.6717 0.0000 -1.8990
# 5 3.3228 0.5869 10.2804 0.0000 21.2277 0.0000
# 6 0.0000 0.0000 0.0000 -1.8990 0.0000 28.3686
#
#
#
# Elastic Compliance Matrix: (Units=1/GPa)
#
#
# Indices 1 2 3 4 5 6 
#
# 1 0.013144 -0.011322 -0.008404 0.000000 0.002325 0.000000
# 2 -0.011322 0.046755 -0.001279 0.000000 0.001099 0.000000
# 3 -0.008404 -0.001279 0.023544 0.000000 -0.010051 0.000000
# 4 0.000000 0.000000 0.000000 0.033847 0.000000 0.002266
# 5 0.002325 0.001099 -0.010051 0.000000 0.051582 0.000000
# 6 0.000000 0.000000 0.000000 0.002266 0.000000 0.035402
#
#
# Mechanical properties :
#
#
# Convention : Reuss Voigt Hill
#
# Bulk Modulus (GPa) = 24.13556 49.22213 36.67885
# Shear Modulus (GPa) = 19.22383 24.77915 22.00149
#
# Velocity S-wave (km/s) = 3.21193 3.64660 3.43615
# Velocity P-wave (km/s) = 5.16794 6.64420 5.95202
#
# Compressibility (1/GPa) = 0.04143264
#
# Stress axis : x y z
#
# Youngs Moduli (GPa) = 76.08174 21.38820 42.47377
#
# Poissons Ratio (x) = 0.24215 0.35694
# Poissons Ratio (y) = 0.86137 0.05434
# Poissons Ratio (z) = 0.63937 0.02736
#
# Static dielectric constant tensor:
#      x y z
#    x 1.591710 0.000000 0.027950 
#    y 0.000000 1.627230 0.000000 
#    z 0.027950 0.000000 1.586780 
# 
# From -- ./inp_files/48920.got.cif
#   From: 2010.05.17/outbox.cif.g08.bks.cpg/sg11_25_cif.got.tgz:48920.got - 2010.06.03 12:22:45.
