data_PCOD9165925
_publ_section_title
;
Structure prediction by ZEFSAII (Michael W. Deem and Ramdas Pophale) SiO2 
 PCOD9165925
Probable space group: P 21/M
;
_chemical_formula_sum "Si O2"
_cell_formula_units_Z 32
_cell_length_a 29.255536
_cell_length_b 8.782630
_cell_length_c 12.237187
_cell_angle_alpha 90.000000
_cell_angle_beta 147.882451
_cell_angle_gamma 90.000000
_cell_volume 1671.654842
_symmetry_space_group_name_H-M "P 21/M"
_symmetry_group_IT_number 11
_symmetry_cell_setting 'monoclinic'
loop_
_space_group_symop_operation_xyz
x,y,z
-x,1/2+y,-z
-x,-y,-z
x,1/2-y,z
loop_
_atom_site_type_symbol
_atom_site_label
_atom_site_fract_x
_atom_site_fract_y
_atom_site_fract_z
Si Si1 0.850566 0.075785 0.958764
Si Si2 0.747826 0.432701 0.099135
Si Si3 0.743557 0.433934 0.348267
Si Si4 0.595642 0.568257 0.200105
Si Si5 0.094610 0.932885 0.175979
Si Si6 0.410479 0.068059 0.359122
Si Si7 0.646431 0.074561 0.531861
Si Si8 0.092634 0.429057 0.708840
O O1 0.881465 0.250000 0.041294
O O2 0.885867 0.964659 0.121730
O O3 0.875045 0.031538 0.885513
O O4 0.747974 0.077966 0.759727
O O5 0.743237 0.250000 0.078344
O O6 0.746818 0.470097 0.226180
O O7 0.834500 0.491967 0.217576
O O8 0.667194 0.505742 0.872944
O O9 0.737500 0.250000 0.347284
O O10 0.660668 0.505558 0.239482
O O11 0.831164 0.483113 0.588484
O O12 0.592151 0.750000 0.187201
O O13 0.631496 0.511928 0.388914
O O14 0.500000 0.500000 0.000000
O O15 0.089343 0.750000 0.174802
O O16 0.000000 0.000000 0.000000
O O17 0.411340 0.250000 0.357216
O O18 0.500000 0.000000 0.500000
O O19 0.396573 0.009918 0.454099
O O20 0.616225 0.250000 0.461935
O O21 0.092878 0.250000 0.688160
O O22 0.000000 0.500000 0.500000
#
# Coordination Sequence:
#
# PCOD9165925 Si02
#       8
#     4   4   4   4   4   4   4   4
#     4  10  21  41  68  93 127 167 211 265 326 382
#     4  11  24  44  68  95 132 173 216 271 328 386
#     4  10  23  45  67  91 130 173 216 264 323 383
#     4  12  26  43  67  97 132 171 218 267 324 389
#     4  10  22  41  64  95 128 167 210 260 314 376
#     4  12  26  44  67  97 132 173 219 267 324 389
#     4  11  22  43  71  95 128 168 215 272 328 385
#     4  12  26  43  66  95 131 170 219 270 324 392
#
# _framework density 19.142707999999999
#
# number of rings (size 3 to 8) (size 9 to 14) (size 15 to 20)
#    0.000    1.000    2.500    4.125    3.500    2.500 
#    0.000    0.000    0.000    0.000    0.000    0.000 
#    0.000    0.000    0.000    0.000    0.000    0.000 
#
# Total GULP energy -178960.589071 kJ/mol
# GULP energy per Si atom -5592.518408 kJ/mol
# Density = 1.909914 g / cm^3
# Si number density = 19.142708 Si / 1000 Ang^3
#
#
#
# Elastic Constant Matrix: (Units=GPa)
#
#
# Indices 1 2 3 4 5 6 
#
# 1 109.8465 50.8101 23.1719 0.0000 7.6888 0.0000
# 2 50.8101 100.4313 31.8419 0.0000 0.2141 0.0000
# 3 23.1719 31.8419 70.7456 0.0000 13.9192 0.0000
# 4 0.0000 0.0000 0.0000 33.7230 0.0000 5.4682
# 5 7.6888 0.2141 13.9192 0.0000 36.2446 0.0000
# 6 0.0000 0.0000 0.0000 5.4682 0.0000 30.1828
#
#
#
# Elastic Compliance Matrix: (Units=1/GPa)
#
#
# Indices 1 2 3 4 5 6 
#
# 1 0.012159 -0.005857 -0.000915 0.000000 -0.002193 0.000000
# 2 -0.005857 0.014585 -0.005272 0.000000 0.003181 0.000000
# 3 -0.000915 -0.005272 0.018134 0.000000 -0.006739 0.000000
# 4 0.000000 0.000000 0.000000 0.030551 0.000000 -0.005535
# 5 -0.002193 0.003181 -0.006739 0.000000 0.030625 0.000000
# 6 0.000000 0.000000 0.000000 -0.005535 0.000000 0.034134
#
#
# Mechanical properties :
#
#
# Convention : Reuss Voigt Hill
#
# Bulk Modulus (GPa) = 48.09990 54.74124 51.42057
# Shear Modulus (GPa) = 29.20474 31.71006 30.45740
#
# Velocity S-wave (km/s) = 3.91017 4.07444 3.99315
# Velocity P-wave (km/s) = 6.75037 7.12693 6.94121
#
# Compressibility (1/GPa) = 0.02079007
#
# Stress axis : x y z
#
# Youngs Moduli (GPa) = 82.24178 68.56420 55.14641
#
# Poissons Ratio (x) = 0.40157 0.05046
# Poissons Ratio (y) = 0.48168 0.29073
# Poissons Ratio (z) = 0.07525 0.36147
#
# Static dielectric constant tensor:
#      x y z
#    x 1.667870 0.000000 -0.006520 
#    y 0.000000 1.649690 0.000000 
#    z -0.006520 0.000000 1.618430 
# 
# From -- ./inp_files/45239.got.cif
#   From: 2010.05.17/outbox.cif.g08.bks.cpg/sg11_23_cif.got.tgz:45239.got - 2010.06.03 12:22:45.
