data_PCOD9165868
_publ_section_title
;
Structure prediction by ZEFSAII (Michael W. Deem and Ramdas Pophale) SiO2 
 PCOD9165868
Probable space group: P 21/M
;
_chemical_formula_sum "Si O2"
_cell_formula_units_Z 30
_cell_length_a 19.415939
_cell_length_b 13.114501
_cell_length_c 10.885875
_cell_angle_alpha 90.000000
_cell_angle_beta 151.321147
_cell_angle_gamma 90.000000
_cell_volume 1330.221651
_symmetry_space_group_name_H-M "P 21/M"
_symmetry_group_IT_number 11
_symmetry_cell_setting 'monoclinic'
loop_
_space_group_symop_operation_xyz
x,y,z
-x,1/2+y,-z
-x,-y,-z
x,1/2-y,z
loop_
_atom_site_type_symbol
_atom_site_label
_atom_site_fract_x
_atom_site_fract_y
_atom_site_fract_z
Si Si1 0.315604 0.590052 0.273851
Si Si2 0.467975 0.136308 0.054304
Si Si3 0.863244 0.136099 0.248889
Si Si4 0.869438 0.250000 0.907719
Si Si5 0.396716 0.364338 0.405939
Si Si6 0.088822 0.064816 0.236206
Si Si7 0.158843 0.450891 0.613998
Si Si8 0.580229 0.579904 0.295268
O O1 0.252318 0.658461 0.282314
O O2 0.300320 0.467138 0.253876
O O3 0.480905 0.616344 0.504060
O O4 0.224101 0.630325 0.014533
O O5 0.509888 0.250000 0.155023
O O6 0.299273 0.117870 0.817990
O O7 0.484058 0.123770 0.931371
O O8 0.545872 0.040371 0.237957
O O9 0.853894 0.250000 0.284513
O O10 0.027866 0.108663 0.472554
O O11 0.807275 0.049309 0.251609
O O12 0.995063 0.163359 0.112940
O O13 0.335028 0.250000 0.294204
O O14 0.468989 0.370893 0.654355
O O15 0.110762 0.012956 0.403393
O O16 0.247998 0.093094 0.440374
O O17 0.000000 0.000000 0.000000
#
# Coordination Sequence:
#
# PCOD9165868 Si02
#       8
#     4   4   4   2   4   4   4   4
#     4  11  22  40  67 100 129 183 228 272 340 410
#     4  10  21  41  64  92 133 170 222 283 341 404
#     4  11  20  39  64  94 134 176 224 285 339 395
#     4  12  22  44  72  92 134 182 224 276 334 412
#     4  11  23  41  65  95 140 176 228 280 338 401
#     4  11  24  44  67  99 134 179 230 281 335 406
#     4  10  22  37  67  98 128 175 232 275 337 417
#     4  10  23  40  64  99 127 175 228 272 342 409
#
# _framework density 22.552633
#
# number of rings (size 3 to 8) (size 9 to 14) (size 15 to 20)
#    0.000    1.333    2.667    2.400    4.667    0.000 
#    6.000   12.667    0.000    0.000    0.000    0.000 
#    0.000    0.000    0.000    0.000    0.000    0.000 
#
# Total GULP energy -167227.661352 kJ/mol
# GULP energy per Si atom -5574.255378 kJ/mol
# Density = 2.250130 g / cm^3
# Si number density = 22.552633 Si / 1000 Ang^3
#
#
#
# Elastic Constant Matrix: (Units=GPa)
#
#
# Indices 1 2 3 4 5 6 
#
# 1 47.1204 5.4697 1.1935 0.0000 3.9391 0.0000
# 2 5.4697 170.6881 25.4777 0.0000 2.7011 0.0000
# 3 1.1935 25.4777 54.8688 0.0000 6.8610 0.0000
# 4 0.0000 0.0000 0.0000 31.3075 0.0000 13.7123
# 5 3.9391 2.7011 6.8610 0.0000 29.2601 0.0000
# 6 0.0000 0.0000 0.0000 13.7123 0.0000 9.6867
#
#
#
# Elastic Compliance Matrix: (Units=1/GPa)
#
#
# Indices 1 2 3 4 5 6 
#
# 1 0.021537 -0.000675 0.000206 0.000000 -0.002885 0.000000
# 2 -0.000675 0.006316 -0.002943 0.000000 0.000198 0.000000
# 3 0.000206 -0.002943 0.020148 0.000000 -0.004480 0.000000
# 4 0.000000 0.000000 0.000000 0.084057 0.000000 -0.118989
# 5 -0.002885 0.000198 -0.004480 0.000000 0.035597 0.000000
# 6 0.000000 0.000000 0.000000 -0.118989 0.000000 0.271671
#
#
# Mechanical properties :
#
#
# Convention : Reuss Voigt Hill
#
# Bulk Modulus (GPa) = 24.28606 37.43988 30.86297
# Shear Modulus (GPa) = 10.87251 30.08662 20.47956
#
# Velocity S-wave (km/s) = 2.19805 3.65644 3.01670
# Velocity P-wave (km/s) = 4.15137 5.87054 5.08415
#
# Compressibility (1/GPa) = 0.04117588
#
# Stress axis : x y z
#
# Youngs Moduli (GPa) = 46.43259 158.31719 49.63370
#
# Poissons Ratio (x) = 0.10690 -0.01022
# Poissons Ratio (y) = 0.03135 0.14607
# Poissons Ratio (z) = -0.00956 0.46593
#
# Static dielectric constant tensor:
#      x y z
#    x 1.894890 0.000000 -0.021060 
#    y 0.000000 1.807880 0.000000 
#    z -0.021060 0.000000 1.828330 
# 
# From -- ./inp_files/43305.got.cif
#   From: 2010.05.17/outbox.cif.g08.bks.cpg/sg11_22_cif.got.tgz:43305.got - 2010.06.03 12:22:45.
