data_PCOD9165900
_publ_section_title
;
Structure prediction by ZEFSAII (Michael W. Deem and Ramdas Pophale) SiO2 
 PCOD9165900
Probable space group: P 21/M
;
_chemical_formula_sum "Si O2"
_cell_formula_units_Z 32
_cell_length_a 16.239312
_cell_length_b 17.694481
_cell_length_c 12.440690
_cell_angle_alpha 90.000000
_cell_angle_beta 27.864894
_cell_angle_gamma 90.000000
_cell_volume 1670.812418
_symmetry_space_group_name_H-M "P 21/M"
_symmetry_group_IT_number 11
_symmetry_cell_setting 'monoclinic'
loop_
_space_group_symop_operation_xyz
x,y,z
-x,1/2+y,-z
-x,-y,-z
x,1/2-y,z
loop_
_atom_site_type_symbol
_atom_site_label
_atom_site_fract_x
_atom_site_fract_y
_atom_site_fract_z
Si Si1 0.887668 0.451981 0.402416
Si Si2 0.945766 0.337712 0.518678
Si Si3 0.489092 0.986623 0.139370
Si Si4 0.744258 0.339686 0.174008
Si Si5 0.011899 0.085744 0.027024
Si Si6 0.356008 0.339634 0.706897
Si Si7 0.814143 0.428840 0.874423
Si Si8 0.345544 0.163872 0.974029
O O1 0.857944 0.389494 0.528592
O O2 0.710886 0.501022 0.593876
O O3 0.933125 0.412796 0.237873
O O4 0.048591 0.504754 0.254579
O O5 0.891634 0.250000 0.577421
O O6 0.901452 0.375218 0.683760
O O7 0.153998 0.340771 0.250557
O O8 0.532521 0.899679 0.116313
O O9 0.500000 0.000000 0.000000
O O10 0.637046 0.035399 0.028980
O O11 0.748176 0.250000 0.151710
O O12 0.896824 0.363638 0.080278
O O13 0.554489 0.359478 0.444284
O O14 0.771331 0.383493 0.031697
O O15 0.211759 0.113905 0.807522
O O16 0.000000 0.000000 0.000000
O O17 0.329561 0.250000 0.718318
O O18 0.329149 0.351998 0.865410
O O19 0.411188 0.250000 0.909762
#
# Coordination Sequence:
#
# PCOD9165900 Si02
#       8
#     4   4   4   4   4   4   4   4
#     4  12  24  42  68  98 128 168 218 271 330 378
#     4  11  22  40  68  94 125 171 214 263 329 385
#     4  12  24  40  64  95 124 168 212 264 322 386
#     4  11  26  44  66  95 134 180 219 264 324 393
#     4  12  24  40  65 102 130 169 220 269 324 388
#     4  10  22  43  67  93 130 171 215 271 325 378
#     4  12  24  45  64  92 138 171 216 265 324 395
#     4  10  21  41  66  94 126 163 212 272 330 378
#
# _framework density 19.152360000000002
#
# number of rings (size 3 to 8) (size 9 to 14) (size 15 to 20)
#    0.000    0.750    5.000    2.625    1.750    1.500 
#    0.000    0.000    0.000    1.500    0.000    0.000 
#    0.000    0.000    0.000    0.000    0.000    0.000 
#
# Total GULP energy -178953.615223 kJ/mol
# GULP energy per Si atom -5592.300476 kJ/mol
# Density = 1.910877 g / cm^3
# Si number density = 19.152360 Si / 1000 Ang^3
#
#
#
# Elastic Constant Matrix: (Units=GPa)
#
#
# Indices 1 2 3 4 5 6 
#
# 1 129.6156 56.9969 43.8245 0.0000 -0.1112 0.0000
# 2 56.9969 87.3680 28.7813 0.0000 -0.8970 0.0000
# 3 43.8245 28.7813 67.5673 0.0000 0.8312 0.0000
# 4 0.0000 0.0000 0.0000 22.4830 0.0000 -1.7177
# 5 -0.1112 -0.8970 0.8312 0.0000 40.2934 0.0000
# 6 0.0000 0.0000 0.0000 -1.7177 0.0000 27.6923
#
#
#
# Elastic Compliance Matrix: (Units=1/GPa)
#
#
# Indices 1 2 3 4 5 6 
#
# 1 0.012250 -0.006252 -0.005283 0.000000 0.000004 0.000000
# 2 -0.006252 0.016511 -0.002984 0.000000 0.000412 0.000000
# 3 -0.005283 -0.002984 0.019503 0.000000 -0.000483 0.000000
# 4 0.000000 0.000000 0.000000 0.044690 0.000000 0.002772
# 5 0.000004 0.000412 -0.000483 0.000000 0.024837 0.000000
# 6 0.000000 0.000000 0.000000 0.002772 0.000000 0.036283
#
#
# Mechanical properties :
#
#
# Convention : Reuss Voigt Hill
#
# Bulk Modulus (GPa) = 52.00392 60.41738 56.21065
# Shear Modulus (GPa) = 26.38241 28.42361 27.40301
#
# Velocity S-wave (km/s) = 3.71550 3.85655 3.78668
# Velocity P-wave (km/s) = 6.75413 7.17250 6.96646
#
# Compressibility (1/GPa) = 0.01922932
#
# Stress axis : x y z
#
# Youngs Moduli (GPa) = 81.63065 60.56472 51.27342
#
# Poissons Ratio (x) = 0.37862 0.27086
# Poissons Ratio (y) = 0.51031 0.15298
# Poissons Ratio (z) = 0.43123 0.18070
#
# Static dielectric constant tensor:
#      x y z
#    x 1.637960 0.000000 -0.009630 
#    y 0.000000 1.657990 0.000000 
#    z -0.009630 0.000000 1.666710 
# 
# From -- ./inp_files/39993.got.cif
#   From: 2010.05.17/outbox.cif.g08.bks.cpg/sg11_20_cif.got.tgz:39993.got - 2010.06.03 12:22:45.
