data_PCOD9165361
_publ_section_title
;
Structure prediction by ZEFSAII (Michael W. Deem and Ramdas Pophale) SiO2 
 PCOD9165361
Probable space group: P 21/M
;
_chemical_formula_sum "Si O2"
_cell_formula_units_Z 28
_cell_length_a 9.156998
_cell_length_b 14.309577
_cell_length_c 12.188148
_cell_angle_alpha 90.000000
_cell_angle_beta 121.954333
_cell_angle_gamma 90.000000
_cell_volume 1355.046581
_symmetry_space_group_name_H-M "P 21/M"
_symmetry_group_IT_number 11
_symmetry_cell_setting 'monoclinic'
loop_
_space_group_symop_operation_xyz
x,y,z
-x,1/2+y,-z
-x,-y,-z
x,1/2-y,z
loop_
_atom_site_type_symbol
_atom_site_label
_atom_site_fract_x
_atom_site_fract_y
_atom_site_fract_z
Si Si1 0.979056 0.514759 0.362186
Si Si2 0.484675 0.061384 0.689130
Si Si3 0.168267 0.143827 0.983893
Si Si4 0.165181 0.636872 0.272955
Si Si5 0.215146 0.353897 0.418760
Si Si6 0.385122 0.431342 0.880573
Si Si7 0.419252 0.358340 0.274540
O O1 0.784032 0.525214 0.244613
O O2 0.000000 0.500000 0.500000
O O3 0.092082 0.601291 0.360651
O O4 0.061227 0.424430 0.338091
O O5 0.656700 0.089140 0.690928
O O6 0.327637 0.110287 0.565022
O O7 0.494909 0.098493 0.818259
O O8 0.457862 0.948703 0.677613
O O9 0.818502 0.250000 0.721332
O O10 0.299773 0.139208 0.933395
O O11 0.986493 0.104079 0.871297
O O12 0.272213 0.108709 0.129835
O O13 0.871571 0.750000 0.003776
O O14 0.151808 0.250000 0.414738
O O15 0.338280 0.353437 0.362497
O O16 0.500000 0.500000 0.000000
O O17 0.474552 0.250000 0.268860
#
# Coordination Sequence:
#
# PCOD9165361 Si02
#       7
#     4   4   4   4   4   4   4
#     4  11  23  43  64  91 133 174 213 261 325 390
#     4  12  22  40  65  93 133 166 220 271 324 383
#     4   9  20  40  62  90 128 170 212 263 326 395
#     4  10  23  40  64  97 129 170 221 266 324 391
#     4  11  24  41  64  95 127 168 215 270 327 384
#     4  11  23  40  65  96 129 169 215 266 332 385
#     4  10  21  38  63  91 126 167 212 266 328 387
#
# _framework density 20.663495000000001
#
# number of rings (size 3 to 8) (size 9 to 14) (size 15 to 20)
#    0.000    1.429    4.286    0.857    0.000    3.429 
#    0.000    1.429    0.000    0.000    0.000    0.000 
#    0.000    0.000    0.000    0.000    0.000    0.000 
#
# Total GULP energy -156126.340601 kJ/mol
# GULP energy per Si atom -5575.940736 kJ/mol
# Density = 2.061646 g / cm^3
# Si number density = 20.663495 Si / 1000 Ang^3
#
#
#
# Elastic Constant Matrix: (Units=GPa)
#
#
# Indices 1 2 3 4 5 6 
#
# 1 68.4076 6.6323 7.8924 0.0000 -2.2774 0.0000
# 2 6.6323 90.4699 2.3963 0.0000 4.1270 0.0000
# 3 7.8924 2.3963 95.5556 0.0000 -19.2886 0.0000
# 4 0.0000 0.0000 0.0000 13.4052 0.0000 -4.3314
# 5 -2.2774 4.1270 -19.2886 0.0000 26.0480 0.0000
# 6 0.0000 0.0000 0.0000 -4.3314 0.0000 17.8516
#
#
#
# Elastic Compliance Matrix: (Units=1/GPa)
#
#
# Indices 1 2 3 4 5 6 
#
# 1 0.014870 -0.001093 -0.001062 0.000000 0.000687 0.000000
# 2 -0.001093 0.011260 -0.000672 0.000000 -0.002377 0.000000
# 3 -0.001062 -0.000672 0.012430 0.000000 0.009218 0.000000
# 4 0.000000 0.000000 0.000000 0.080944 0.000000 0.019640
# 5 0.000687 -0.002377 0.009218 0.000000 0.045653 0.000000
# 6 0.000000 0.000000 0.000000 0.019640 0.000000 0.060783
#
#
# Mechanical properties :
#
#
# Convention : Reuss Voigt Hill
#
# Bulk Modulus (GPa) = 30.39026 32.03059 31.21042
# Shear Modulus (GPa) = 20.61322 27.29512 23.95417
#
# Velocity S-wave (km/s) = 3.16186 3.63841 3.40847
# Velocity P-wave (km/s) = 5.29801 5.76068 5.53418
#
# Compressibility (1/GPa) = 0.03290528
#
# Stress axis : x y z
#
# Youngs Moduli (GPa) = 67.25108 88.81165 80.44741
#
# Poissons Ratio (x) = 0.09710 0.08544
# Poissons Ratio (y) = 0.07352 0.05405
# Poissons Ratio (z) = 0.07143 0.05967
#
# Static dielectric constant tensor:
#      x y z
#    x 1.774110 0.000000 -0.006220 
#    y 0.000000 1.694300 0.000000 
#    z -0.006220 0.000000 1.767200 
# 
# From -- ./inp_files/31958.got.cif
#   From: 2010.05.17/outbox.cif.g08.bks.cpg/sg11_16_cif.got.tgz:31958.got - 2010.06.03 12:22:45.
