data_PCOD9165552
_publ_section_title
;
Structure prediction by ZEFSAII (Michael W. Deem and Ramdas Pophale) SiO2 
 PCOD9165552
Probable space group: P 21/M
;
_chemical_formula_sum "Si O2"
_cell_formula_units_Z 28
_cell_length_a 18.261043
_cell_length_b 8.727497
_cell_length_c 18.203015
_cell_angle_alpha 90.000000
_cell_angle_beta 30.553981
_cell_angle_gamma 90.000000
_cell_volume 1474.760077
_symmetry_space_group_name_H-M "P 21/M"
_symmetry_group_IT_number 11
_symmetry_cell_setting 'monoclinic'
loop_
_space_group_symop_operation_xyz
x,y,z
-x,1/2+y,-z
-x,-y,-z
x,1/2-y,z
loop_
_atom_site_type_symbol
_atom_site_label
_atom_site_fract_x
_atom_site_fract_y
_atom_site_fract_z
Si Si1 0.438562 0.433224 0.629114
Si Si2 0.920740 0.931525 0.705205
Si Si3 0.128011 0.566912 0.939384
Si Si4 0.655071 0.431596 0.848493
Si Si5 0.693439 0.932637 0.501499
Si Si6 0.002375 0.932164 0.803252
Si Si7 0.220754 0.430853 0.404431
O O1 0.500000 0.500000 0.500000
O O2 0.432441 0.250000 0.630713
O O3 0.551387 0.487517 0.593515
O O4 0.280692 0.499359 0.782029
O O5 0.933075 0.750000 0.680818
O O6 0.226245 0.005389 0.200565
O O7 0.936371 0.956425 0.779153
O O8 0.054956 0.016977 0.551784
O O9 0.130754 0.750000 0.931498
O O10 0.090330 0.514437 0.054491
O O11 0.000000 0.500000 0.000000
O O12 0.654622 0.250000 0.857891
O O13 0.699474 0.476613 0.727558
O O14 0.500000 0.500000 0.000000
O O15 0.687004 0.750000 0.494098
O O16 0.714593 0.958621 0.570292
O O17 0.835653 0.000759 0.339477
O O18 0.008403 0.750000 0.812301
O O19 0.229396 0.250000 0.381187
#
# Coordination Sequence:
#
# PCOD9165552 Si02
#       7
#     4   4   4   4   4   4   4
#     4  12  25  42  63  88 120 157 198 243 292 348
#     4  10  21  39  63  89 119 155 197 241 290 349
#     4  12  25  42  63  88 120 157 198 243 292 348
#     4  12  25  40  59  84 118 156 198 246 297 350
#     4  10  21  39  63  91 121 155 195 241 292 348
#     4  10  21  39  63  91 121 155 195 241 292 348
#     4  10  21  39  63  89 119 155 197 241 290 349
#
# _framework density 18.986138
#
# number of rings (size 3 to 8) (size 9 to 14) (size 15 to 20)
#    0.000    1.143    0.000    6.857    0.000    4.571 
#    0.000    0.000    0.000    0.000    0.000    0.000 
#    0.000    0.000    0.000    0.000    0.000    0.000 
#
# Total GULP energy -156689.850460 kJ/mol
# GULP energy per Si atom -5596.066088 kJ/mol
# Density = 1.894292 g / cm^3
# Si number density = 18.986138 Si / 1000 Ang^3
#
#
#
# Elastic Constant Matrix: (Units=GPa)
#
#
# Indices 1 2 3 4 5 6 
#
# 1 80.2025 48.7640 58.8132 0.0000 -26.2388 0.0000
# 2 48.7640 118.4561 45.0667 0.0000 -9.3118 0.0000
# 3 58.8132 45.0667 129.2984 0.0000 -18.9371 0.0000
# 4 0.0000 0.0000 0.0000 41.0669 0.0000 -0.4834
# 5 -26.2388 -9.3118 -18.9371 0.0000 28.8348 0.0000
# 6 0.0000 0.0000 0.0000 -0.4834 0.0000 36.0949
#
#
#
# Elastic Compliance Matrix: (Units=1/GPa)
#
#
# Indices 1 2 3 4 5 6 
#
# 1 0.028808 -0.007431 -0.007773 0.000000 0.018709 0.000000
# 2 -0.007431 0.011676 -0.001248 0.000000 -0.003811 0.000000
# 3 -0.007773 -0.001248 0.011739 0.000000 0.000233 0.000000
# 4 0.000000 0.000000 0.000000 0.024354 0.000000 0.000326
# 5 0.018709 -0.003811 0.000233 0.000000 0.050628 0.000000
# 6 0.000000 0.000000 0.000000 0.000326 0.000000 0.027709
#
#
# Mechanical properties :
#
#
# Convention : Reuss Voigt Hill
#
# Bulk Modulus (GPa) = 51.76358 70.36054 61.06206
# Shear Modulus (GPa) = 25.73904 32.88685 29.31295
#
# Velocity S-wave (km/s) = 3.68594 4.16643 3.93353
# Velocity P-wave (km/s) = 6.74077 7.76433 7.27059
#
# Compressibility (1/GPa) = 0.01931860
#
# Stress axis : x y z
#
# Youngs Moduli (GPa) = 34.71299 85.64478 85.18687
#
# Poissons Ratio (x) = 0.63642 0.66219
# Poissons Ratio (y) = 0.25795 0.10629
# Poissons Ratio (z) = 0.26984 0.10686
#
# Static dielectric constant tensor:
#      x y z
#    x 1.656140 0.000000 0.017190 
#    y 0.000000 1.629110 0.000000 
#    z 0.017190 0.000000 1.613060 
# 
# From -- ./inp_files/66701.got.cif
#   From: 2010.05.17/outbox.cif.g08.bks.cpg/sg11_34_cif.got.tgz:66701.got - 2010.06.03 12:22:45.
