data_PCOD9165596
_publ_section_title
;
Structure prediction by ZEFSAII (Michael W. Deem and Ramdas Pophale) SiO2 
 PCOD9165596
Probable space group: P 21/M
;
_chemical_formula_sum "Si O2"
_cell_formula_units_Z 20
_cell_length_a 8.966722
_cell_length_b 11.508928
_cell_length_c 7.836483
_cell_angle_alpha 90.000000
_cell_angle_beta 71.903455
_cell_angle_gamma 90.000000
_cell_volume 768.701347
_symmetry_space_group_name_H-M "P 21/M"
_symmetry_group_IT_number 11
_symmetry_cell_setting 'monoclinic'
loop_
_space_group_symop_operation_xyz
x,y,z
-x,1/2+y,-z
-x,-y,-z
x,1/2-y,z
loop_
_atom_site_type_symbol
_atom_site_label
_atom_site_fract_x
_atom_site_fract_y
_atom_site_fract_z
Si Si1 0.708397 0.250000 0.494177
Si Si2 0.058535 0.508274 0.173348
Si Si3 0.926524 0.250000 0.707680
Si Si4 0.717936 0.750000 0.283846
Si Si5 0.714264 0.501329 0.428566
Si Si6 0.345785 0.119513 0.213709
Si Si7 0.497702 0.750000 0.089771
O O1 0.881031 0.250000 0.523867
O O2 0.677578 0.367163 0.399521
O O3 0.606327 0.250000 0.705555
O O4 0.135700 0.633098 0.184163
O O5 0.186300 0.413967 0.174496
O O6 0.903889 0.502045 0.347211
O O7 0.000000 0.500000 0.000000
O O8 0.107736 0.250000 0.701278
O O9 0.661511 0.618663 0.351853
O O10 0.675801 0.750000 0.100927
O O11 0.647079 0.525467 0.640194
O O12 0.327374 0.250000 0.299018
O O13 0.494896 0.138312 0.037088
#
# Coordination Sequence:
#
# PCOD9165596 Si02
#       7
#     2   4   2   2   4   4   2
#     4  12  26  41  64 104 133 171 219 285 318 382
#     4  11  23  37  64  98 133 163 214 277 335 383
#     4  10  22  38  65  94 126 163 218 274 316 383
#     4  10  21  43  67  94 127 177 216 266 332 406
#     4  11  23  39  69  97 133 169 222 271 329 394
#     4  10  21  39  64  90 119 181 215 258 317 400
#     4  10  25  44  66  92 136 175 227 265 328 393
#
# _framework density 26.017907000000001
#
# number of rings (size 3 to 8) (size 9 to 14) (size 15 to 20)
#    0.600    0.800    3.000    3.000    5.600    1.600 
#    0.000    0.000    4.400    0.000    0.000    0.000 
#    0.000    0.000    0.000    0.000    0.000    0.000 
#
# Total GULP energy -111570.710640 kJ/mol
# GULP energy per Si atom -5578.535532 kJ/mol
# Density = 2.595869 g / cm^3
# Si number density = 26.017907 Si / 1000 Ang^3
#
#
#
# Elastic Constant Matrix: (Units=GPa)
#
#
# Indices 1 2 3 4 5 6 
#
# 1 76.0183 17.0897 -6.0784 0.0000 -10.2945 0.0000
# 2 17.0897 243.2293 38.8490 0.0000 4.7026 0.0000
# 3 -6.0784 38.8490 60.4240 0.0000 -17.7054 0.0000
# 4 0.0000 0.0000 0.0000 38.6753 0.0000 2.9819
# 5 -10.2945 4.7026 -17.7054 0.0000 43.7524 0.0000
# 6 0.0000 0.0000 0.0000 2.9819 0.0000 21.6168
#
#
#
# Elastic Compliance Matrix: (Units=1/GPa)
#
#
# Indices 1 2 3 4 5 6 
#
# 1 0.014615 -0.001799 0.004188 0.000000 0.005327 0.000000
# 2 -0.001799 0.004949 -0.004132 0.000000 -0.002627 0.000000
# 3 0.004188 -0.004132 0.022744 0.000000 0.010633 0.000000
# 4 0.000000 0.000000 0.000000 0.026134 0.000000 -0.003605
# 5 0.005327 -0.002627 0.010633 0.000000 0.028695 0.000000
# 6 0.000000 0.000000 0.000000 -0.003605 0.000000 0.046758
#
#
# Mechanical properties :
#
#
# Convention : Reuss Voigt Hill
#
# Bulk Modulus (GPa) = 25.75974 53.26579 39.51277
# Shear Modulus (GPa) = 31.18739 42.79633 36.99186
#
# Velocity S-wave (km/s) = 3.46597 4.06011 3.77475
# Velocity P-wave (km/s) = 5.09308 6.51894 5.84962
#
# Compressibility (1/GPa) = 0.03882027
#
# Stress axis : x y z
#
# Youngs Moduli (GPa) = 68.42142 202.07859 43.96836
#
# Poissons Ratio (x) = 0.36348 -0.18412
# Poissons Ratio (y) = 0.12307 0.18170
# Poissons Ratio (z) = -0.28652 0.83508
#
# Static dielectric constant tensor:
#      x y z
#    x 2.117010 0.000000 -0.066990 
#    y 0.000000 2.065390 0.000000 
#    z -0.066990 0.000000 2.066790 
# 
# From -- ./inp_files/16556.got.cif
#   From: 2010.05.17/outbox.cif.g08.bks.cpg/sg11_9_cif.got.tgz:16556.got - 2010.06.03 12:22:45.
