data_PCOD9165685
_publ_section_title
;
Structure prediction by ZEFSAII (Michael W. Deem and Ramdas Pophale) SiO2 
 PCOD9165685
Probable space group: P 21/M
;
_chemical_formula_sum "Si O2"
_cell_formula_units_Z 32
_cell_length_a 12.399958
_cell_length_b 8.437389
_cell_length_c 16.009258
_cell_angle_alpha 90.000000
_cell_angle_beta 89.985606
_cell_angle_gamma 90.000000
_cell_volume 1674.940857
_symmetry_space_group_name_H-M "P 21/M"
_symmetry_group_IT_number 11
_symmetry_cell_setting 'monoclinic'
loop_
_space_group_symop_operation_xyz
x,y,z
-x,1/2+y,-z
-x,-y,-z
x,1/2-y,z
loop_
_atom_site_type_symbol
_atom_site_label
_atom_site_fract_x
_atom_site_fract_y
_atom_site_fract_z
Si Si1 0.623155 0.061591 0.500002
Si Si2 0.268780 0.059702 0.157644
Si Si3 0.729822 0.942932 0.156854
Si Si4 0.766656 0.938712 0.345460
Si Si5 0.494859 0.939993 0.093833
Si Si6 0.768565 0.558682 0.654050
Si Si7 0.123221 0.442318 0.000307
Si Si8 0.993130 0.060330 0.406274
O O1 0.620383 0.250000 0.501017
O O2 0.500000 0.000000 0.500000
O O3 0.688173 0.007560 0.416941
O O4 0.689140 0.004782 0.582108
O O5 0.257277 0.250000 0.159531
O O6 0.251089 0.000380 0.251781
O O7 0.389880 0.015325 0.134094
O O8 0.187803 0.003986 0.083928
O O9 0.736158 0.750000 0.157054
O O10 0.750349 0.998661 0.250967
O O11 0.607767 0.986992 0.134883
O O12 0.811422 0.995103 0.083137
O O13 0.750026 0.750000 0.346343
O O14 0.889531 0.978885 0.366977
O O15 0.486331 0.750000 0.096614
O O16 0.500000 0.000000 0.000000
O O17 0.757864 0.750000 0.652368
O O18 0.892407 0.519615 0.634064
O O19 0.123485 0.250000 0.000399
O O20 0.000000 0.500000 0.000000
O O21 0.979236 0.250000 0.403377
O O22 0.000000 0.000000 0.500000
#
# Coordination Sequence:
#
# PCOD9165685 Si02
#       8
#     4   4   4   4   4   4   4   4
#     4  12  26  44  65  90 124 164 205 253 309 373
#     4  10  22  41  63  89 124 162 202 255 308 357
#     4   9  21  40  61  86 122 162 199 247 308 360
#     4  11  23  41  64  91 124 162 206 259 309 365
#     4  11  21  39  64  90 120 159 206 255 306 366
#     4  10  23  42  64  91 124 163 206 253 309 366
#     4  10  21  40  61  86 123 162 199 246 300 358
#     4  11  22  39  64  91 122 161 206 256 308 368
#
# _framework density 19.105152
#
# number of rings (size 3 to 8) (size 9 to 14) (size 15 to 20)
#    0.000    1.500    2.500    2.250    3.500    1.500 
#    0.000    2.500    0.000    0.000    0.000    0.000 
#    0.000    0.000    0.000    0.000    0.000    0.000 
#
# Total GULP energy -178697.672156 kJ/mol
# GULP energy per Si atom -5584.302255 kJ/mol
# Density = 1.906167 g / cm^3
# Si number density = 19.105152 Si / 1000 Ang^3
#
#
#
# Elastic Constant Matrix: (Units=GPa)
#
#
# Indices 1 2 3 4 5 6 
#
# 1 164.3636 24.3724 113.4653 0.0000 2.1002 0.0000
# 2 24.3724 27.1836 30.0264 0.0000 -1.4902 0.0000
# 3 113.4653 30.0264 216.3011 0.0000 0.5285 0.0000
# 4 0.0000 0.0000 0.0000 5.5884 0.0000 -1.0716
# 5 2.1002 -1.4902 0.5285 0.0000 41.4496 0.0000
# 6 0.0000 0.0000 0.0000 -1.0716 0.0000 38.3110
#
#
#
# Elastic Compliance Matrix: (Units=1/GPa)
#
#
# Indices 1 2 3 4 5 6 
#
# 1 0.009855 -0.003731 -0.004650 0.000000 -0.000574 0.000000
# 2 -0.003731 0.044973 -0.004291 0.000000 0.001861 0.000000
# 3 -0.004650 -0.004291 0.007658 0.000000 -0.000016 0.000000
# 4 0.000000 0.000000 0.000000 0.179909 0.000000 0.005032
# 5 -0.000574 0.001861 -0.000016 0.000000 0.024222 0.000000
# 6 0.000000 0.000000 0.000000 0.005032 0.000000 0.026243
#
#
# Mechanical properties :
#
#
# Convention : Reuss Voigt Hill
#
# Bulk Modulus (GPa) = 26.92290 82.61961 54.77125
# Shear Modulus (GPa) = 15.12478 33.06874 24.09676
#
# Velocity S-wave (km/s) = 2.81670 4.16490 3.55529
# Velocity P-wave (km/s) = 4.97000 8.15273 6.75159
#
# Compressibility (1/GPa) = 0.03714311
#
# Stress axis : x y z
#
# Youngs Moduli (GPa) = 101.47314 22.23556 130.57808
#
# Poissons Ratio (x) = 0.08295 0.60723
# Poissons Ratio (y) = 0.37855 0.56027
# Poissons Ratio (z) = 0.47188 0.09541
#
# Static dielectric constant tensor:
#      x y z
#    x 1.607660 0.000000 0.000000 
#    y 0.000000 1.655160 0.000000 
#    z 0.000000 0.000000 1.684460 
# 
# From -- ./inp_files/45112.got.cif
#   From: 2010.05.17/outbox.cif.g08.bks.cpg/sg11_23_cif.got.tgz:45112.got - 2010.06.03 12:22:45.
