data_PCOD9165409
_publ_section_title
;
Structure prediction by ZEFSAII (Michael W. Deem and Ramdas Pophale) SiO2 
 PCOD9165409
Probable space group: P 21/M
;
_chemical_formula_sum "Si O2"
_cell_formula_units_Z 22
_cell_length_a 7.255694
_cell_length_b 16.325650
_cell_length_c 9.004478
_cell_angle_alpha 90.000000
_cell_angle_beta 57.568487
_cell_angle_gamma 90.000000
_cell_volume 900.258965
_symmetry_space_group_name_H-M "P 21/M"
_symmetry_group_IT_number 11
_symmetry_cell_setting 'monoclinic'
loop_
_space_group_symop_operation_xyz
x,y,z
-x,1/2+y,-z
-x,-y,-z
x,1/2-y,z
loop_
_atom_site_type_symbol
_atom_site_label
_atom_site_fract_x
_atom_site_fract_y
_atom_site_fract_z
Si Si1 0.277301 0.161717 0.218546
Si Si2 0.614130 0.590417 0.327235
Si Si3 0.127706 0.577422 0.513678
Si Si4 0.630168 0.043913 0.079905
Si Si5 0.044162 0.652709 0.248031
Si Si6 0.590449 0.750000 0.133723
O O1 0.246400 0.250000 0.307999
O O2 0.380309 0.181350 0.014433
O O3 0.044253 0.118946 0.301677
O O4 0.448320 0.104442 0.226553
O O5 0.366989 0.564625 0.476692
O O6 0.806378 0.611504 0.358122
O O7 0.694468 0.522638 0.173513
O O8 0.592689 0.677607 0.255416
O O9 0.000000 0.500000 0.500000
O O10 0.152445 0.638209 0.361393
O O11 0.821432 0.099998 0.930451
O O12 0.500000 0.000000 0.000000
O O13 0.047451 0.750000 0.212312
#
# Coordination Sequence:
#
# PCOD9165409 Si02
#       6
#     4   4   4   4   4   2
#     4  10  21  38  66  97 132 179 227 277 346 401
#     4  12  25  45  71 101 141 181 233 285 346 413
#     4  12  25  45  70  98 140 187 228 281 347 417
#     4  12  20  42  69  99 132 181 231 283 335 406
#     4  12  27  43  72 105 139 183 233 286 346 411
#     4  10  22  40  68 100 134 176 232 284 344 396
#
# _framework density 24.437412999999999
#
# number of rings (size 3 to 8) (size 9 to 14) (size 15 to 20)
#    0.545    0.000    6.364    1.636    5.091    0.727 
#    0.000    0.000    0.000    0.000    0.000    0.000 
#    0.000    0.000    0.000    0.000    0.000    0.000 
#
# Total GULP energy -122548.895320 kJ/mol
# GULP energy per Si atom -5570.404333 kJ/mol
# Density = 2.438179 g / cm^3
# Si number density = 24.437413 Si / 1000 Ang^3
#
#
#
# Elastic Constant Matrix: (Units=GPa)
#
#
# Indices 1 2 3 4 5 6 
#
# 1 144.6247 42.8303 24.5036 0.0000 -17.5219 0.0000
# 2 42.8303 152.9821 22.2587 0.0000 -14.0420 0.0000
# 3 24.5036 22.2587 44.5369 0.0000 -13.9466 0.0000
# 4 0.0000 0.0000 0.0000 30.3545 0.0000 14.7678
# 5 -17.5219 -14.0420 -13.9466 0.0000 34.2557 0.0000
# 6 0.0000 0.0000 0.0000 14.7678 0.0000 22.5927
#
#
#
# Elastic Compliance Matrix: (Units=1/GPa)
#
#
# Indices 1 2 3 4 5 6 
#
# 1 0.008183 -0.001649 -0.002956 0.000000 0.002306 0.000000
# 2 -0.001649 0.007466 -0.002441 0.000000 0.001223 0.000000
# 3 -0.002956 -0.002441 0.028095 0.000000 0.008926 0.000000
# 4 0.000000 0.000000 0.000000 0.048306 0.000000 -0.031575
# 5 0.002306 0.001223 0.008926 0.000000 0.034507 0.000000
# 6 0.000000 0.000000 0.000000 -0.031575 0.000000 0.064902
#
#
# Mechanical properties :
#
#
# Convention : Reuss Voigt Hill
#
# Bulk Modulus (GPa) = 33.72504 57.92545 45.82525
# Shear Modulus (GPa) = 23.20901 34.27732 28.74316
#
# Velocity S-wave (km/s) = 3.08512 3.74927 3.43329
# Velocity P-wave (km/s) = 5.14987 6.51903 5.87447
#
# Compressibility (1/GPa) = 0.02965156
#
# Stress axis : x y z
#
# Youngs Moduli (GPa) = 122.20347 133.94301 35.59415
#
# Poissons Ratio (x) = 0.22091 0.10521
# Poissons Ratio (y) = 0.20155 0.08688
# Poissons Ratio (z) = 0.36121 0.32694
#
# Static dielectric constant tensor:
#      x y z
#    x 1.974710 0.000000 -0.056570 
#    y 0.000000 2.017940 0.000000 
#    z -0.056570 0.000000 1.951480 
# 
# From -- ./inp_files/31309.got.cif
#   From: 2010.05.17/outbox.cif.g08.bks.cpg/sg11_16_cif.got.tgz:31309.got - 2010.06.03 12:22:45.
