data_PCOD9165684
_publ_section_title
;
Structure prediction by ZEFSAII (Michael W. Deem and Ramdas Pophale) SiO2 
 PCOD9165684
Probable space group: P 21/M
;
_chemical_formula_sum "Si O2"
_cell_formula_units_Z 20
_cell_length_a 9.525242
_cell_length_b 11.566948
_cell_length_c 13.802324
_cell_angle_alpha 90.000000
_cell_angle_beta 44.050348
_cell_angle_gamma 90.000000
_cell_volume 1057.336284
_symmetry_space_group_name_H-M "P 21/M"
_symmetry_group_IT_number 11
_symmetry_cell_setting 'monoclinic'
loop_
_space_group_symop_operation_xyz
x,y,z
-x,1/2+y,-z
-x,-y,-z
x,1/2-y,z
loop_
_atom_site_type_symbol
_atom_site_label
_atom_site_fract_x
_atom_site_fract_y
_atom_site_fract_z
Si Si1 0.019140 0.874753 0.543669
Si Si2 0.755515 0.616977 0.388935
Si Si3 0.177165 0.485340 0.188771
Si Si4 0.454394 0.951104 0.368924
Si Si5 0.460999 0.112059 0.886094
O O1 0.985108 0.750000 0.510235
O O2 0.250082 0.875852 0.465140
O O3 0.000000 0.000000 0.500000
O O4 0.868203 0.887585 0.708558
O O5 0.803587 0.750000 0.375460
O O6 0.626585 0.570413 0.544498
O O7 0.617615 0.596819 0.362909
O O8 0.962361 0.545544 0.277722
O O9 0.334599 0.574834 0.159173
O O10 0.278909 0.432330 0.043393
O O11 0.536837 0.950333 0.219217
O O12 0.454408 0.250000 0.875600
#
# Coordination Sequence:
#
# PCOD9165684 Si02
#       5
#     4   4   4   4   4
#     4  11  21  36  59  88 117 155 198 245 295 352
#     4  10  21  40  61  86 121 155 196 251 297 352
#     4  10  23  37  57  89 117 154 200 244 291 358
#     4  10  22  38  61  89 116 156 201 239 301 362
#     4  11  21  39  59  83 120 158 196 246 298 352
#
# _framework density 18.915458000000001
#
# number of rings (size 3 to 8) (size 9 to 14) (size 15 to 20)
#    0.000    1.600    2.000    3.000    0.000    4.000 
#    0.000    3.000    0.000    0.000    0.000    0.000 
#    0.000    0.000    0.000    0.000    0.000    0.000 
#
# Total GULP energy -111574.375692 kJ/mol
# GULP energy per Si atom -5578.718785 kJ/mol
# Density = 1.887241 g / cm^3
# Si number density = 18.915458 Si / 1000 Ang^3
#
#
#
# Elastic Constant Matrix: (Units=GPa)
#
#
# Indices 1 2 3 4 5 6 
#
# 1 100.8043 48.3293 45.7523 0.0000 3.3114 0.0000
# 2 48.3293 113.3475 42.5872 0.0000 -6.8283 0.0000
# 3 45.7523 42.5872 165.2238 0.0000 15.8885 0.0000
# 4 0.0000 0.0000 0.0000 6.2171 0.0000 1.2709
# 5 3.3114 -6.8283 15.8885 0.0000 26.4101 0.0000
# 6 0.0000 0.0000 0.0000 1.2709 0.0000 11.7780
#
#
#
# Elastic Compliance Matrix: (Units=1/GPa)
#
#
# Indices 1 2 3 4 5 6 
#
# 1 0.013376 -0.004943 -0.002277 0.000000 -0.001585 0.000000
# 2 -0.004943 0.012075 -0.002233 0.000000 0.005085 0.000000
# 3 -0.002277 -0.002233 0.007734 0.000000 -0.004945 0.000000
# 4 0.000000 0.000000 0.000000 0.164475 0.000000 -0.017748
# 5 -0.001585 0.005085 -0.004945 0.000000 0.042352 0.000000
# 6 0.000000 0.000000 0.000000 -0.017748 0.000000 0.086819
#
#
# Mechanical properties :
#
#
# Convention : Reuss Voigt Hill
#
# Bulk Modulus (GPa) = 70.03355 72.52370 71.27862
# Shear Modulus (GPa) = 14.26543 25.06150 19.66346
#
# Velocity S-wave (km/s) = 2.74919 3.64390 3.22769
# Velocity P-wave (km/s) = 6.86894 7.49187 7.18716
#
# Compressibility (1/GPa) = 0.01427887
#
# Stress axis : x y z
#
# Youngs Moduli (GPa) = 74.76196 82.81423 129.29925
#
# Poissons Ratio (x) = 0.40935 0.29447
# Poissons Ratio (y) = 0.36955 0.28868
# Poissons Ratio (z) = 0.17026 0.18490
#
# Static dielectric constant tensor:
#      x y z
#    x 1.666440 0.000000 0.023590 
#    y 0.000000 1.678330 0.000000 
#    z 0.023590 0.000000 1.663420 
# 
# From -- ./inp_files/31063.got.cif
#   From: 2010.05.17/outbox.cif.g08.bks.cpg/sg11_16_cif.got.tgz:31063.got - 2010.06.03 12:22:45.
