data_PCOD9165259
_publ_section_title
;
Structure prediction by ZEFSAII (Michael W. Deem and Ramdas Pophale) SiO2 
 PCOD9165259
Probable space group: P 21/M
;
_chemical_formula_sum "Si O2"
_cell_formula_units_Z 32
_cell_length_a 14.679280
_cell_length_b 8.702352
_cell_length_c 12.732807
_cell_angle_alpha 90.000000
_cell_angle_beta 90.256945
_cell_angle_gamma 90.000000
_cell_volume 1626.526673
_symmetry_space_group_name_H-M "P 21/M"
_symmetry_group_IT_number 11
_symmetry_cell_setting 'monoclinic'
loop_
_space_group_symop_operation_xyz
x,y,z
-x,1/2+y,-z
-x,-y,-z
x,1/2-y,z
loop_
_atom_site_type_symbol
_atom_site_label
_atom_site_fract_x
_atom_site_fract_y
_atom_site_fract_z
Si Si1 0.348821 0.065698 0.705034
Si Si2 0.026310 0.926695 0.610185
Si Si3 0.223816 0.926322 0.531391
Si Si4 0.269075 0.067832 0.322632
Si Si5 0.465257 0.565484 0.387889
Si Si6 0.988092 0.566476 0.169556
Si Si7 0.816204 0.065351 0.890046
Si Si8 0.784614 0.936151 0.108366
O O1 0.338365 0.250000 0.697436
O O2 0.455855 0.031310 0.697650
O O3 0.290816 0.015138 0.806249
O O4 0.304620 0.993176 0.601105
O O5 0.996333 0.750000 0.617956
O O6 0.135875 0.930836 0.605020
O O7 0.994550 0.021647 0.709744
O O8 0.000000 0.000000 0.500000
O O9 0.240829 0.750000 0.501434
O O10 0.210602 0.021460 0.425007
O O11 0.269923 0.250000 0.310108
O O12 0.369871 0.006558 0.351953
O O13 0.229624 0.991135 0.217690
O O14 0.500000 0.500000 0.500000
O O15 0.456570 0.750000 0.396892
O O16 0.985365 0.750000 0.159564
O O17 0.887187 0.508922 0.139297
O O18 0.077444 0.510827 0.107971
O O19 0.815300 0.250000 0.892625
O O20 0.767174 0.998620 0.992103
O O21 0.785266 0.750000 0.107094
#
# Coordination Sequence:
#
# PCOD9165259 Si02
#       8
#     4   4   4   4   4   4   4   4
#     4  10  21  38  63  91 121 155 195 241 298 360
#     4  11  23  35  52  82 119 160 201 245 300 359
#     4  11  22  36  57  86 121 156 196 248 301 357
#     4  12  25  41  62  88 121 164 205 250 307 365
#     4  11  22  38  63  96 126 157 198 247 302 367
#     4  10  21  38  61  87 120 159 202 251 301 355
#     4  11  24  41  61  89 122 160 206 257 305 355
#     4  10  21  40  64  90 121 161 204 248 298 363
#
# _framework density 19.673822999999999
#
# number of rings (size 3 to 8) (size 9 to 14) (size 15 to 20)
#    0.000    1.250    2.500    3.750    0.000    7.000 
#    0.000    0.625    0.000    0.000    0.000    0.000 
#    0.000    0.000    0.000    0.000    0.000    0.000 
#
# Total GULP energy -178797.784114 kJ/mol
# GULP energy per Si atom -5587.430754 kJ/mol
# Density = 1.962904 g / cm^3
# Si number density = 19.673823 Si / 1000 Ang^3
#
#
#
# Elastic Constant Matrix: (Units=GPa)
#
#
# Indices 1 2 3 4 5 6 
#
# 1 82.8267 21.6821 28.6188 0.0000 -15.4147 0.0000
# 2 21.6821 22.3937 14.8435 0.0000 -9.7097 0.0000
# 3 28.6188 14.8435 104.1612 0.0000 -13.9214 0.0000
# 4 0.0000 0.0000 0.0000 31.4988 0.0000 -0.1476
# 5 -15.4147 -9.7097 -13.9214 0.0000 26.2165 0.0000
# 6 0.0000 0.0000 0.0000 -0.1476 0.0000 22.4508
#
#
#
# Elastic Compliance Matrix: (Units=1/GPa)
#
#
# Indices 1 2 3 4 5 6 
#
# 1 0.017074 -0.013339 -0.002270 0.000000 0.003894 0.000000
# 2 -0.013339 0.066513 -0.003842 0.000000 0.014751 0.000000
# 3 -0.002270 -0.003842 0.011198 0.000000 0.003189 0.000000
# 4 0.000000 0.000000 0.000000 0.031748 0.000000 0.000209
# 5 0.003894 0.014751 0.003189 0.000000 0.047590 0.000000
# 6 0.000000 0.000000 0.000000 0.000209 0.000000 0.044543
#
#
# Mechanical properties :
#
#
# Convention : Reuss Voigt Hill
#
# Bulk Modulus (GPa) = 17.89440 37.74114 27.81777
# Shear Modulus (GPa) = 18.10314 25.64904 21.87609
#
# Velocity S-wave (km/s) = 3.03671 3.61462 3.33819
# Velocity P-wave (km/s) = 4.62718 6.05357 5.38778
#
# Compressibility (1/GPa) = 0.05588339
#
# Stress axis : x y z
#
# Youngs Moduli (GPa) = 58.56810 15.03470 89.30275
#
# Poissons Ratio (x) = 0.20054 0.20271
# Poissons Ratio (y) = 0.78122 0.34310
# Poissons Ratio (z) = 0.13295 0.05776
#
# Static dielectric constant tensor:
#      x y z
#    x 1.710790 0.000000 -0.007320 
#    y 0.000000 1.664310 0.000000 
#    z -0.007320 0.000000 1.650380 
# 
# From -- ./inp_files/38173.got.cif
#   From: 2010.05.17/outbox.cif.g08.bks.cpg/sg11_20_cif.got.tgz:38173.got - 2010.06.03 12:22:45.
