data_PCOD9165744
_publ_section_title
;
Structure prediction by ZEFSAII (Michael W. Deem and Ramdas Pophale) SiO2 
 PCOD9165744
Probable space group: P 21/M
;
_chemical_formula_sum "Si O2"
_cell_formula_units_Z 20
_cell_length_a 8.799900
_cell_length_b 18.758465
_cell_length_c 12.690176
_cell_angle_alpha 90.000000
_cell_angle_beta 149.744922
_cell_angle_gamma 90.000000
_cell_volume 1055.466379
_symmetry_space_group_name_H-M "P 21/M"
_symmetry_group_IT_number 11
_symmetry_cell_setting 'monoclinic'
loop_
_space_group_symop_operation_xyz
x,y,z
-x,1/2+y,-z
-x,-y,-z
x,1/2-y,z
loop_
_atom_site_type_symbol
_atom_site_label
_atom_site_fract_x
_atom_site_fract_y
_atom_site_fract_z
Si Si1 0.315387 0.543273 0.687877
Si Si2 0.499099 0.669220 0.379672
Si Si3 0.739323 0.087581 0.966297
Si Si4 0.456199 0.071512 0.406528
Si Si5 0.772511 0.168226 0.198901
O O1 0.574482 0.488123 0.879053
O O2 0.382470 0.565702 0.608377
O O3 0.310209 0.611834 0.760250
O O4 0.000000 0.500000 0.500000
O O5 0.390129 0.750000 0.305572
O O6 0.372947 0.622324 0.209178
O O7 0.426744 0.634989 0.449182
O O8 0.862455 0.668691 0.587922
O O9 0.664629 0.137430 0.021701
O O10 0.098546 0.079749 0.175648
O O11 0.500000 0.000000 0.500000
O O12 0.672670 0.250000 0.156298
#
# Coordination Sequence:
#
# PCOD9165744 Si02
#       5
#     4   4   4   4   4
#     4  12  22  40  65  93 124 160 206 256 308 361
#     4  10  21  40  64  89 122 165 206 249 305 367
#     4  11  21  41  66  88 120 167 209 249 302 370
#     4  11  23  40  64  91 122 158 208 256 299 363
#     4  10  22  39  60  91 128 161 202 253 312 369
#
# _framework density 18.948969000000002
#
# number of rings (size 3 to 8) (size 9 to 14) (size 15 to 20)
#    0.000    1.200    4.000    3.000    0.000    1.600 
#    0.000    0.000    0.000    0.000    0.000    0.000 
#    0.000    0.000    0.000    0.000    0.000    0.000 
#
# Total GULP energy -111776.197543 kJ/mol
# GULP energy per Si atom -5588.809877 kJ/mol
# Density = 1.890584 g / cm^3
# Si number density = 18.948969 Si / 1000 Ang^3
#
#
#
# Elastic Constant Matrix: (Units=GPa)
#
#
# Indices 1 2 3 4 5 6 
#
# 1 141.8450 80.1252 41.1681 0.0000 -26.3886 0.0000
# 2 80.1252 151.6243 37.4230 0.0000 -21.0888 0.0000
# 3 41.1681 37.4230 70.3515 0.0000 -26.0413 0.0000
# 4 0.0000 0.0000 0.0000 14.5688 0.0000 -4.4508
# 5 -26.3886 -21.0888 -26.0413 0.0000 21.2362 0.0000
# 6 0.0000 0.0000 0.0000 -4.4508 0.0000 35.0386
#
#
#
# Elastic Compliance Matrix: (Units=1/GPa)
#
#
# Indices 1 2 3 4 5 6 
#
# 1 0.011578 -0.004667 -0.001250 0.000000 0.008220 0.000000
# 2 -0.004667 0.009742 -0.001862 0.000000 0.001593 0.000000
# 3 -0.001250 -0.001862 0.026877 0.000000 0.029556 0.000000
# 4 0.000000 0.000000 0.000000 0.071411 0.000000 0.009071
# 5 0.008220 0.001593 0.029556 0.000000 0.095128 0.000000
# 6 0.000000 0.000000 0.000000 0.009071 0.000000 0.029692
#
#
# Mechanical properties :
#
#
# Convention : Reuss Voigt Hill
#
# Bulk Modulus (GPa) = 30.63779 75.69484 53.16631
# Shear Modulus (GPa) = 18.45929 27.84235 23.15082
#
# Velocity S-wave (km/s) = 3.12454 3.83735 3.49914
# Velocity P-wave (km/s) = 5.40561 7.72444 6.66662
#
# Compressibility (1/GPa) = 0.03263943
#
# Stress axis : x y z
#
# Youngs Moduli (GPa) = 86.37044 102.64457 37.20683
#
# Poissons Ratio (x) = 0.47899 0.04652
# Poissons Ratio (y) = 0.40305 0.06929
# Poissons Ratio (z) = 0.10798 0.19114
#
# Static dielectric constant tensor:
#      x y z
#    x 1.637660 0.000000 0.004450 
#    y 0.000000 1.666870 0.000000 
#    z 0.004450 0.000000 1.642480 
# 
# From -- ./inp_files/1874.got.cif
#   From: 2010.05.17/outbox.cif.g08.bks.cpg/sg11_1_cif.got.tgz:1874.got - 2010.06.03 12:22:45.
