data_PCOD9165312
_publ_section_title
;
Structure prediction by ZEFSAII (Michael W. Deem and Ramdas Pophale) SiO2 
 PCOD9165312
Probable space group: P 21/M
;
_chemical_formula_sum "Si O2"
_cell_formula_units_Z 32
_cell_length_a 9.699185
_cell_length_b 23.245431
_cell_length_c 14.724864
_cell_angle_alpha 90.000000
_cell_angle_beta 29.002013
_cell_angle_gamma 90.000000
_cell_volume 1609.618270
_symmetry_space_group_name_H-M "P 21/M"
_symmetry_group_IT_number 11
_symmetry_cell_setting 'monoclinic'
loop_
_space_group_symop_operation_xyz
x,y,z
-x,1/2+y,-z
-x,-y,-z
x,1/2-y,z
loop_
_atom_site_type_symbol
_atom_site_label
_atom_site_fract_x
_atom_site_fract_y
_atom_site_fract_z
Si Si1 0.608250 0.515892 0.091884
Si Si2 0.121197 0.932657 0.487303
Si Si3 0.830320 0.816594 0.338628
Si Si4 0.482404 0.588529 0.435827
Si Si5 0.351266 0.377987 0.371490
Si Si6 0.520052 0.314735 0.099083
Si Si7 0.368537 0.071631 0.112707
Si Si8 0.759343 0.036781 0.244184
O O1 0.340628 0.526074 0.310513
O O2 0.608130 0.453347 0.043425
O O3 0.571984 0.556124 0.023999
O O4 0.904876 0.531694 0.967367
O O5 0.319289 0.893963 0.437911
O O6 0.915263 0.903901 0.531896
O O7 0.912836 0.959107 0.684643
O O8 0.733822 0.750000 0.389003
O O9 0.677806 0.859843 0.357010
O O10 0.765268 0.843094 0.475125
O O11 0.163823 0.817104 0.123395
O O12 0.281394 0.571010 0.636929
O O13 0.643826 0.528107 0.323479
O O14 0.508207 0.336413 0.209673
O O15 0.568485 0.426971 0.283178
O O16 0.411835 0.250000 0.155341
O O17 0.340780 0.361179 0.145638
#
# Coordination Sequence:
#
# PCOD9165312 Si02
#       8
#     4   4   4   4   4   4   4   4
#     4  11  22  36  62  89 122 159 195 245 299 362
#     4  11  23  37  60  89 124 153 196 244 301 355
#     4  10  21  41  63  85 117 160 202 247 297 354
#     4  10  22  38  59  88 126 155 199 245 303 354
#     4  10  23  39  63  91 119 159 197 249 301 359
#     4  10  21  38  62  87 117 156 205 245 289 356
#     4  10  22  38  57  89 124 154 196 245 304 352
#     4  10  22  38  60  89 126 159 196 244 302 359
#
# _framework density 19.880490000000002
#
# number of rings (size 3 to 8) (size 9 to 14) (size 15 to 20)
#    0.000    1.750    1.250    2.250    7.000    2.500 
#    0.000    3.125    0.000    0.750    0.000    0.000 
#    0.000    0.000    0.000    0.000    0.000    0.000 
#
# Total GULP energy -178571.404825 kJ/mol
# GULP energy per Si atom -5580.356401 kJ/mol
# Density = 1.983524 g / cm^3
# Si number density = 19.880490 Si / 1000 Ang^3
#
#
#
# Elastic Constant Matrix: (Units=GPa)
#
#
# Indices 1 2 3 4 5 6 
#
# 1 114.0565 45.9925 21.6097 0.0000 3.9908 0.0000
# 2 45.9925 126.3918 40.1100 0.0000 2.9315 0.0000
# 3 21.6097 40.1100 91.5194 0.0000 4.3168 0.0000
# 4 0.0000 0.0000 0.0000 25.1056 0.0000 1.5095
# 5 3.9908 2.9315 4.3168 0.0000 30.2398 0.0000
# 6 0.0000 0.0000 0.0000 1.5095 0.0000 23.1238
#
#
#
# Elastic Compliance Matrix: (Units=1/GPa)
#
#
# Indices 1 2 3 4 5 6 
#
# 1 0.010366 -0.003471 -0.000884 0.000000 -0.000905 0.000000
# 2 -0.003471 0.010355 -0.003718 0.000000 -0.000015 0.000000
# 3 -0.000884 -0.003718 0.012829 0.000000 -0.001354 0.000000
# 4 0.000000 0.000000 0.000000 0.039989 0.000000 -0.002610
# 5 -0.000905 -0.000015 -0.001354 0.000000 0.033383 0.000000
# 6 0.000000 0.000000 0.000000 -0.002610 0.000000 0.043416
#
#
# Mechanical properties :
#
#
# Convention : Reuss Voigt Hill
#
# Bulk Modulus (GPa) = 57.45549 60.82135 59.13842
# Shear Modulus (GPa) = 29.02171 30.64421 29.83296
#
# Velocity S-wave (km/s) = 3.82489 3.93035 3.87798
# Velocity P-wave (km/s) = 6.96201 7.15939 7.06139
#
# Compressibility (1/GPa) = 0.01740478
#
# Stress axis : x y z
#
# Youngs Moduli (GPa) = 96.46685 96.57060 77.94988
#
# Poissons Ratio (x) = 0.33516 0.06890
# Poissons Ratio (y) = 0.33480 0.28983
# Poissons Ratio (z) = 0.08527 0.35906
#
# Static dielectric constant tensor:
#      x y z
#    x 1.749160 0.000000 -0.015720 
#    y 0.000000 1.704970 0.000000 
#    z -0.015720 0.000000 1.750090 
# 
# From -- ./inp_files/48452.got.cif
#   From: 2010.05.17/outbox.cif.g08.bks.cpg/sg11_25_cif.got.tgz:48452.got - 2010.06.03 12:22:45.
