data_PCOD9165459
_publ_section_title
;
Structure prediction by ZEFSAII (Michael W. Deem and Ramdas Pophale) SiO2 
 PCOD9165459
Probable space group: P 21/M
;
_chemical_formula_sum "Si O2"
_cell_formula_units_Z 32
_cell_length_a 18.649377
_cell_length_b 23.043087
_cell_length_c 10.925282
_cell_angle_alpha 90.000000
_cell_angle_beta 22.689341
_cell_angle_gamma 90.000000
_cell_volume 1811.031598
_symmetry_space_group_name_H-M "P 21/M"
_symmetry_group_IT_number 11
_symmetry_cell_setting 'monoclinic'
loop_
_space_group_symop_operation_xyz
x,y,z
-x,1/2+y,-z
-x,-y,-z
x,1/2-y,z
loop_
_atom_site_type_symbol
_atom_site_label
_atom_site_fract_x
_atom_site_fract_y
_atom_site_fract_z
Si Si1 0.439549 0.184320 0.874116
Si Si2 0.570877 0.681403 0.814822
Si Si3 0.705068 0.026207 0.650797
Si Si4 0.282876 0.593422 0.603233
Si Si5 0.279262 0.902758 0.138025
Si Si6 0.108418 0.410739 0.652379
Si Si7 0.416796 0.004794 0.766894
Si Si8 0.123141 0.093331 0.334309
O O1 0.415286 0.250000 0.877068
O O2 0.618709 0.154690 0.534496
O O3 0.462554 0.180777 0.985528
O O4 0.266161 0.146500 0.103576
O O5 0.589388 0.750000 0.750881
O O6 0.757908 0.641612 0.513224
O O7 0.408327 0.647709 0.994894
O O8 0.734828 0.079320 0.512040
O O9 0.766319 0.051010 0.683771
O O10 0.812646 0.971921 0.426556
O O11 0.500000 0.000000 0.000000
O O12 0.427577 0.542977 0.410955
O O13 0.096561 0.593712 0.972756
O O14 0.078942 0.888438 0.396259
O O15 0.392370 0.940648 0.860545
O O16 0.110903 0.417360 0.500422
O O17 0.500000 0.000000 0.500000
O O18 0.223696 0.040284 0.101172
#
# Coordination Sequence:
#
# PCOD9165459 Si02
#       8
#     4   4   4   4   4   4   4   4
#     4   9  19  39  61  80 110 151 199 242 280 341
#     4  10  21  39  61  83 111 155 198 237 289 342
#     4  12  19  36  57  85 121 152 183 234 297 346
#     4  11  21  34  57  90 113 149 193 233 288 344
#     4  12  21  36  60  85 122 152 188 242 291 349
#     4  11  21  37  58  85 118 151 194 236 281 350
#     4  11  22  36  56  86 120 153 189 231 290 352
#     4  10  22  37  57  84 114 153 190 232 290 344
#
# _framework density 17.669487
#
# number of rings (size 3 to 8) (size 9 to 14) (size 15 to 20)
#    0.000    1.250    5.000    2.250    1.750    1.000 
#    0.000    0.000    0.000    6.000    0.000    0.000 
#    0.000    0.000    0.000    0.000    0.000    0.000 
#
# Total GULP energy -178256.182399 kJ/mol
# GULP energy per Si atom -5570.505700 kJ/mol
# Density = 1.762927 g / cm^3
# Si number density = 17.669487 Si / 1000 Ang^3
#
#
#
# Elastic Constant Matrix: (Units=GPa)
#
#
# Indices 1 2 3 4 5 6 
#
# 1 68.0431 20.8383 23.2609 0.0000 -7.9586 0.0000
# 2 20.8383 105.9400 34.2473 0.0000 -8.4014 0.0000
# 3 23.2609 34.2473 103.6050 0.0000 -3.7245 0.0000
# 4 0.0000 0.0000 0.0000 11.2333 0.0000 3.3326
# 5 -7.9586 -8.4014 -3.7245 0.0000 31.5349 0.0000
# 6 0.0000 0.0000 0.0000 3.3326 0.0000 18.1040
#
#
#
# Elastic Compliance Matrix: (Units=1/GPa)
#
#
# Indices 1 2 3 4 5 6 
#
# 1 0.016729 -0.002073 -0.002951 0.000000 0.003321 0.000000
# 2 -0.002073 0.011012 -0.003101 0.000000 0.002044 0.000000
# 3 -0.002951 -0.003101 0.011331 0.000000 -0.000233 0.000000
# 4 0.000000 0.000000 0.000000 0.094163 0.000000 -0.017334
# 5 0.003321 0.002044 -0.000233 0.000000 0.033066 0.000000
# 6 0.000000 0.000000 0.000000 -0.017334 0.000000 0.058427
#
#
# Mechanical properties :
#
#
# Convention : Reuss Voigt Hill
#
# Bulk Modulus (GPa) = 43.81916 48.25346 46.03631
# Shear Modulus (GPa) = 20.11374 25.45720 22.78547
#
# Velocity S-wave (km/s) = 3.37758 3.79983 3.59491
# Velocity P-wave (km/s) = 6.32960 6.82787 6.58345
#
# Compressibility (1/GPa) = 0.02282107
#
# Stress axis : x y z
#
# Youngs Moduli (GPa) = 59.77720 90.81260 88.25080
#
# Poissons Ratio (x) = 0.18827 0.26044
# Poissons Ratio (y) = 0.12393 0.27367
# Poissons Ratio (z) = 0.17641 0.28161
#
# Static dielectric constant tensor:
#      x y z
#    x 1.557780 0.000000 -0.095980 
#    y 0.000000 1.596340 0.000000 
#    z -0.095980 0.000000 1.569360 
# 
# From -- ./inp_files/43555.got.cif
#   From: 2010.05.17/outbox.cif.g08.bks.cpg/sg11_22_cif.got.tgz:43555.got - 2010.06.03 12:22:45.
