data_PCOD9165392
_publ_section_title
;
Structure prediction by ZEFSAII (Michael W. Deem and Ramdas Pophale) SiO2 
 PCOD9165392
Probable space group: P 21/M
;
_chemical_formula_sum "Si O2"
_cell_formula_units_Z 28
_cell_length_a 4.976292
_cell_length_b 19.826273
_cell_length_c 12.858682
_cell_angle_alpha 90.000000
_cell_angle_beta 69.517834
_cell_angle_gamma 90.000000
_cell_volume 1188.451704
_symmetry_space_group_name_H-M "P 21/M"
_symmetry_group_IT_number 11
_symmetry_cell_setting 'monoclinic'
loop_
_space_group_symop_operation_xyz
x,y,z
-x,1/2+y,-z
-x,-y,-z
x,1/2-y,z
loop_
_atom_site_type_symbol
_atom_site_label
_atom_site_fract_x
_atom_site_fract_y
_atom_site_fract_z
Si Si1 0.595859 0.750000 0.384343
Si Si2 0.035443 0.250000 0.463954
Si Si3 0.759427 0.887057 0.606450
Si Si4 0.719672 0.328768 0.192607
Si Si5 0.352954 0.171101 0.041267
Si Si6 0.736894 0.026031 0.698643
Si Si7 0.307654 0.466183 0.939358
Si Si8 0.712231 0.896881 0.364113
O O1 0.699087 0.750000 0.491251
O O2 0.705712 0.820130 0.324743
O O3 0.253459 0.750000 0.430456
O O4 0.053788 0.319704 0.399797
O O5 0.455201 0.872082 0.701652
O O6 0.734064 0.896220 0.486259
O O7 0.865442 0.956076 0.641534
O O8 0.654723 0.250000 0.222417
O O9 0.604684 0.342118 0.090641
O O10 0.058512 0.337956 0.145759
O O11 0.367780 0.250000 0.005462
O O12 0.329587 0.114570 0.955535
O O13 0.469844 0.016086 0.811608
O O14 0.583522 0.067446 0.627152
O O15 0.998269 0.067158 0.713128
O O16 0.500000 0.500000 0.000000
O O17 0.000000 0.500000 0.000000
#
# Coordination Sequence:
#
# PCOD9165392 Si02
#       8
#     2   2   4   4   4   4   4   4
#     4  10  22  44  64  84 127 176 225 270 300 378
#     4  10  22  36  62  92 121 174 221 254 332 372
#     4  11  22  41  64  97 139 172 214 271 324 393
#     4  10  21  38  65 101 128 167 217 268 333 389
#     4  10  22  41  64  94 130 167 219 279 331 391
#     4  12  26  42  67  99 133 175 225 266 336 399
#     4  12  25  46  71  97 133 173 222 279 342 393
#     4  11  25  44  63  96 133 181 221 267 321 392
#
# _framework density 23.560065999999999
#
# number of rings (size 3 to 8) (size 9 to 14) (size 15 to 20)
#    0.000    1.143    0.714    6.000    0.000    6.857 
#    2.571    0.000    0.000    0.000    0.000    0.000 
#    0.000    0.000    0.000    0.000    0.000    0.000 
#
# Total GULP energy -156729.324594 kJ/mol
# GULP energy per Si atom -5597.475878 kJ/mol
# Density = 2.350644 g / cm^3
# Si number density = 23.560066 Si / 1000 Ang^3
#
#
#
# Elastic Constant Matrix: (Units=GPa)
#
#
# Indices 1 2 3 4 5 6 
#
# 1 94.9446 35.9585 3.7018 0.0000 -9.8249 0.0000
# 2 35.9585 147.6377 13.9278 0.0000 -8.7587 0.0000
# 3 3.7018 13.9278 31.2495 0.0000 4.2900 0.0000
# 4 0.0000 0.0000 0.0000 33.1184 0.0000 -5.5178
# 5 -9.8249 -8.7587 4.2900 0.0000 18.4140 0.0000
# 6 0.0000 0.0000 0.0000 -5.5178 0.0000 16.9261
#
#
#
# Elastic Compliance Matrix: (Units=1/GPa)
#
#
# Indices 1 2 3 4 5 6 
#
# 1 0.012098 -0.002519 -0.001066 0.000000 0.005505 0.000000
# 2 -0.002519 0.007930 -0.003687 0.000000 0.003287 0.000000
# 3 -0.001066 -0.003687 0.035215 0.000000 -0.010527 0.000000
# 4 0.000000 0.000000 0.000000 0.031929 0.000000 0.010409
# 5 0.005505 0.003287 -0.010527 0.000000 0.061259 0.000000
# 6 0.000000 0.000000 0.000000 0.010409 0.000000 0.062474
#
#
# Mechanical properties :
#
#
# Convention : Reuss Voigt Hill
#
# Bulk Modulus (GPa) = 24.57116 42.33423 33.45270
# Shear Modulus (GPa) = 20.91916 28.37461 24.64688
#
# Velocity S-wave (km/s) = 2.98301 3.47414 3.23790
# Velocity P-wave (km/s) = 4.72401 5.83957 5.31116
#
# Compressibility (1/GPa) = 0.04069811
#
# Stress axis : x y z
#
# Youngs Moduli (GPa) = 82.65931 126.10720 28.39683
#
# Poissons Ratio (x) = 0.31772 0.03027
# Poissons Ratio (y) = 0.20825 0.10470
# Poissons Ratio (z) = 0.08811 0.46496
#
# Static dielectric constant tensor:
#      x y z
#    x 1.874430 0.000000 0.031030 
#    y 0.000000 1.966330 0.000000 
#    z 0.031030 0.000000 1.860240 
# 
# From -- ./inp_files/46005.got.cif
#   From: 2010.05.17/outbox.cif.g08.bks.cpg/sg11_24_cif.got.tgz:46005.got - 2010.06.03 12:22:45.
