data_PCOD9165394
_publ_section_title
;
Structure prediction by ZEFSAII (Michael W. Deem and Ramdas Pophale) SiO2 
 PCOD9165394
Probable space group: P 21/M
;
_chemical_formula_sum "Si O2"
_cell_formula_units_Z 24
_cell_length_a 11.435437
_cell_length_b 15.633135
_cell_length_c 19.218158
_cell_angle_alpha 90.000000
_cell_angle_beta 157.696797
_cell_angle_gamma 90.000000
_cell_volume 1303.861321
_symmetry_space_group_name_H-M "P 21/M"
_symmetry_group_IT_number 11
_symmetry_cell_setting 'monoclinic'
loop_
_space_group_symop_operation_xyz
x,y,z
-x,1/2+y,-z
-x,-y,-z
x,1/2-y,z
loop_
_atom_site_type_symbol
_atom_site_label
_atom_site_fract_x
_atom_site_fract_y
_atom_site_fract_z
Si Si1 0.706883 0.003757 0.544880
Si Si2 0.364238 0.004926 0.208465
Si Si3 0.611474 0.348876 0.244521
Si Si4 0.847216 0.654584 0.245955
Si Si5 0.298172 0.347545 0.676237
Si Si6 0.337975 0.914527 0.881430
O O1 0.495593 0.003631 0.359421
O O2 0.910480 0.090436 0.655069
O O3 0.500000 0.000000 0.500000
O O4 0.971584 0.929650 0.686956
O O5 0.475271 0.090276 0.229276
O O6 0.496117 0.920578 0.243540
O O7 0.000000 0.000000 0.000000
O O8 0.498058 0.250000 0.182906
O O9 0.571211 0.393632 0.147668
O O10 0.976952 0.345608 0.458574
O O11 0.976063 0.750000 0.318552
O O12 0.784958 0.626794 0.290713
O O13 0.516539 0.654368 0.026067
O O14 0.424701 0.250000 0.746414
O O15 0.500000 0.000000 0.000000
#
# Coordination Sequence:
#
# PCOD9165394 Si02
#       6
#     4   4   4   4   4   4
#     4  11  24  40  58  88 128 162 199 249 315 381
#     4  12  25  39  63  91 126 167 205 256 319 375
#     4  11  22  41  68  92 120 165 218 268 312 364
#     4  10  21  40  65  90 117 157 208 258 308 367
#     4  10  21  41  67  91 117 159 216 269 309 361
#     4  10  21  38  65  89 121 159 207 254 304 369
#
# _framework density 18.406865
#
# number of rings (size 3 to 8) (size 9 to 14) (size 15 to 20)
#    0.000    1.333    3.333    3.000    7.000    0.667 
#    0.000    2.500    0.000    0.000    0.000    0.000 
#    0.000    0.000    0.000    0.000    0.000    0.000 
#
# Total GULP energy -133852.969167 kJ/mol
# GULP energy per Si atom -5577.207049 kJ/mol
# Density = 1.836497 g / cm^3
# Si number density = 18.406865 Si / 1000 Ang^3
#
#
#
# Elastic Constant Matrix: (Units=GPa)
#
#
# Indices 1 2 3 4 5 6 
#
# 1 150.1542 76.4287 57.6178 0.0000 -10.2179 0.0000
# 2 76.4287 113.9977 44.3264 0.0000 21.1725 0.0000
# 3 57.6178 44.3264 117.2279 0.0000 -2.8057 0.0000
# 4 0.0000 0.0000 0.0000 15.2289 0.0000 -8.5661
# 5 -10.2179 21.1725 -2.8057 0.0000 36.7439 0.0000
# 6 0.0000 0.0000 0.0000 -8.5661 0.0000 0.7630
#
#
#
# Elastic Compliance Matrix: (Units=1/GPa)
#
#
# Indices 1 2 3 4 5 6 
#
# 1 0.013034 -0.009337 -0.002665 0.000000 0.008801 0.000000
# 2 -0.009337 0.018627 -0.002778 0.000000 -0.013542 0.000000
# 3 -0.002665 -0.002778 0.010931 0.000000 0.001695 0.000000
# 4 0.000000 0.000000 0.000000 -0.012355 0.000000 -0.138704
# 5 0.008801 -0.013542 0.001695 0.000000 0.037595 0.000000
# 6 0.000000 0.000000 0.000000 -0.138704 0.000000 -0.246588
#
#
# Mechanical properties :
#
#
# Convention : Reuss Voigt Hill
#
# Bulk Modulus (GPa) = 76.73422 82.01396 79.37409
# Shear Modulus (GPa) = -34.51825 24.08097 -5.21864
#
# Velocity S-wave (km/s) = -4.33516 3.62091 -1.68562
# Velocity P-wave (km/s) = 4.08903 7.88253 6.27911
#
# Compressibility (1/GPa) = 0.01303200
#
# Stress axis : x y z
#
# Youngs Moduli (GPa) = 76.72401 53.68489 91.47915
#
# Poissons Ratio (x) = 0.50124 0.24380
# Poissons Ratio (y) = 0.71634 0.25417
# Poissons Ratio (z) = 0.20448 0.14916
#
# Static dielectric constant tensor:
#      x y z
#    x 1.625390 0.000000 -0.022680 
#    y 0.000000 1.302060 0.000000 
#    z -0.022680 0.000000 1.647830 
# 
# From -- ./inp_files/25155.got.cif
#   From: 2010.05.17/outbox.cif.g08.bks.cpg/sg11_13_cif.got.tgz:25155.got - 2010.06.03 12:22:45.
