data_PCOD9165663
_publ_section_title
;
Structure prediction by ZEFSAII (Michael W. Deem and Ramdas Pophale) SiO2 
 PCOD9165663
Probable space group: P 21/M
;
_chemical_formula_sum "Si O2"
_cell_formula_units_Z 20
_cell_length_a 11.162390
_cell_length_b 9.297590
_cell_length_c 9.820029
_cell_angle_alpha 90.000000
_cell_angle_beta 58.024486
_cell_angle_gamma 90.000000
_cell_volume 864.523410
_symmetry_space_group_name_H-M "P 21/M"
_symmetry_group_IT_number 11
_symmetry_cell_setting 'monoclinic'
loop_
_space_group_symop_operation_xyz
x,y,z
-x,1/2+y,-z
-x,-y,-z
x,1/2-y,z
loop_
_atom_site_type_symbol
_atom_site_label
_atom_site_fract_x
_atom_site_fract_y
_atom_site_fract_z
Si Si1 0.630444 0.911192 0.200087
Si Si2 0.582077 0.577980 0.827324
Si Si3 0.856605 0.401570 0.966350
Si Si4 0.854275 0.415774 0.568796
Si Si5 0.847030 0.493902 0.269880
O O1 0.580596 0.750000 0.204020
O O2 0.509828 0.028170 0.249234
O O3 0.710165 0.921289 0.296954
O O4 0.755417 0.960209 0.019832
O O5 0.588769 0.750000 0.836596
O O6 0.500000 0.500000 0.000000
O O7 0.787423 0.250000 0.968554
O O8 0.733609 0.504295 0.718311
O O9 0.007537 0.416998 0.805683
O O10 0.880230 0.398293 0.116241
O O11 0.862457 0.250000 0.607393
O O12 0.819896 0.419651 0.428226
O O13 0.000000 0.500000 0.500000
#
# Coordination Sequence:
#
# PCOD9165663 Si02
#       5
#     4   4   4   4   4
#     4  10  21  39  68 101 136 177 227 283 340 406
#     4  12  28  50  74 101 139 184 235 288 354 423
#     4   9  18  35  63  99 137 180 226 276 337 407
#     4  12  28  49  72 101 142 186 237 292 351 416
#     4   9  22  37  67  98 143 179 231 280 348 406
#
# _framework density 23.134132000000001
#
# number of rings (size 3 to 8) (size 9 to 14) (size 15 to 20)
#    1.200    0.400    0.000    4.200    2.800    4.800 
#    0.000    0.000    0.000    0.000    0.000    0.000 
#    0.000    0.000    0.000    0.000    0.000    0.000 
#
# Total GULP energy -111579.240392 kJ/mol
# GULP energy per Si atom -5578.962020 kJ/mol
# Density = 2.308148 g / cm^3
# Si number density = 23.134132 Si / 1000 Ang^3
#
#
#
# Elastic Constant Matrix: (Units=GPa)
#
#
# Indices 1 2 3 4 5 6 
#
# 1 142.7516 64.5438 26.6998 0.0000 -12.8545 0.0000
# 2 64.5438 218.7902 33.5187 0.0000 -14.2138 0.0000
# 3 26.6998 33.5187 116.0837 0.0000 -8.3443 0.0000
# 4 0.0000 0.0000 0.0000 18.4161 0.0000 5.7563
# 5 -12.8545 -14.2138 -8.3443 0.0000 30.5190 0.0000
# 6 0.0000 0.0000 0.0000 5.7563 0.0000 29.2352
#
#
#
# Elastic Compliance Matrix: (Units=1/GPa)
#
#
# Indices 1 2 3 4 5 6 
#
# 1 0.008395 -0.002156 -0.001149 0.000000 0.002217 0.000000
# 2 -0.002156 0.005445 -0.000978 0.000000 0.001360 0.000000
# 3 -0.001149 -0.000978 0.009276 0.000000 0.001597 0.000000
# 4 0.000000 0.000000 0.000000 0.057861 0.000000 -0.011393
# 5 0.002217 0.001360 0.001597 0.000000 0.034770 0.000000
# 6 0.000000 0.000000 0.000000 -0.011393 0.000000 0.036448
#
#
# Mechanical properties :
#
#
# Convention : Reuss Voigt Hill
#
# Bulk Modulus (GPa) = 68.73613 80.79445 74.76529
# Shear Modulus (GPa) = 30.19091 39.15828 34.67459
#
# Velocity S-wave (km/s) = 3.61645 4.11866 3.87570
# Velocity P-wave (km/s) = 6.87130 7.59065 7.23992
#
# Compressibility (1/GPa) = 0.01454839
#
# Stress axis : x y z
#
# Youngs Moduli (GPa) = 119.12249 183.65469 107.80521
#
# Poissons Ratio (x) = 0.39604 0.12384
# Poissons Ratio (y) = 0.25688 0.10548
# Poissons Ratio (z) = 0.13684 0.17970
#
# Static dielectric constant tensor:
#      x y z
#    x 1.906650 0.000000 0.068580 
#    y 0.000000 1.817520 0.000000 
#    z 0.068580 0.000000 1.923560 
# 
# From -- ./inp_files/16656.got.cif
#   From: 2010.05.17/outbox.cif.g08.bks.cpg/sg11_9_cif.got.tgz:16656.got - 2010.06.03 12:22:45.
