data_PCOD9165792
_publ_section_title
;
Structure prediction by ZEFSAII (Michael W. Deem and Ramdas Pophale) SiO2 
 PCOD9165792
Probable space group: P 21/M
;
_chemical_formula_sum "Si O2"
_cell_formula_units_Z 28
_cell_length_a 10.540015
_cell_length_b 14.169196
_cell_length_c 8.671987
_cell_angle_alpha 90.000000
_cell_angle_beta 59.054467
_cell_angle_gamma 90.000000
_cell_volume 1110.755443
_symmetry_space_group_name_H-M "P 21/M"
_symmetry_group_IT_number 11
_symmetry_cell_setting 'monoclinic'
loop_
_space_group_symop_operation_xyz
x,y,z
-x,1/2+y,-z
-x,-y,-z
x,1/2-y,z
loop_
_atom_site_type_symbol
_atom_site_label
_atom_site_fract_x
_atom_site_fract_y
_atom_site_fract_z
Si Si1 0.987586 0.406051 0.613248
Si Si2 0.166664 0.140470 0.996657
Si Si3 0.424876 0.363557 0.065273
Si Si4 0.286083 0.503931 0.712691
Si Si5 0.325754 0.140400 0.463861
Si Si6 0.868447 0.349096 0.382333
Si Si7 0.729031 0.364557 0.988245
O O1 0.904104 0.343856 0.538753
O O2 0.000000 0.500000 0.500000
O O3 0.147248 0.366687 0.559911
O O4 0.879890 0.406800 0.826711
O O5 0.184859 0.250000 0.932542
O O6 0.311735 0.108831 0.003216
O O7 0.024051 0.139980 0.194506
O O8 0.161375 0.064028 0.866549
O O9 0.410856 0.250000 0.077883
O O10 0.376093 0.395985 0.264991
O O11 0.597642 0.385618 0.947858
O O12 0.385417 0.423058 0.568257
O O13 0.228812 0.563271 0.604041
O O14 0.314046 0.582387 0.826221
O O15 0.368297 0.250000 0.455625
O O16 0.800257 0.250000 0.372849
O O17 0.740162 0.250000 0.001223
#
# Coordination Sequence:
#
# PCOD9165792 Si02
#       7
#     4   4   4   4   4   4   4
#     4  12  23  43  67  98 128 167 226 274 320 393
#     4  10  21  40  65  95 128 172 223 277 328 383
#     4   9  21  45  69  92 129 177 226 271 322 392
#     4  12  25  38  61  98 141 168 215 270 332 403
#     4  11  23  42  69  96 130 176 224 275 327 386
#     4  11  22  39  63  92 129 172 216 272 333 388
#     4  11  26  45  67  98 137 177 216 271 336 392
#
# _framework density 25.208068999999998
#
# number of rings (size 3 to 8) (size 9 to 14) (size 15 to 20)
#    0.000    1.143    2.857    3.429    2.000    1.143 
#    0.000    1.429    0.000    3.429    0.000    0.000 
#    0.000    0.000    0.000    0.000    0.000    0.000 
#
# Total GULP energy -156536.891197 kJ/mol
# GULP energy per Si atom -5590.603257 kJ/mol
# Density = 2.515069 g / cm^3
# Si number density = 25.208069 Si / 1000 Ang^3
#
#
#
# Elastic Constant Matrix: (Units=GPa)
#
#
# Indices 1 2 3 4 5 6 
#
# 1 52.2914 20.8826 10.7156 0.0000 -4.7120 0.0000
# 2 20.8826 154.2897 19.2937 0.0000 15.4182 0.0000
# 3 10.7156 19.2937 66.0913 0.0000 3.1016 0.0000
# 4 0.0000 0.0000 0.0000 0.2606 0.0000 28.8655
# 5 -4.7120 15.4182 3.1016 0.0000 33.6137 0.0000
# 6 0.0000 0.0000 0.0000 28.8655 0.0000 9.1945
#
#
#
# Elastic Compliance Matrix: (Units=1/GPa)
#
#
# Indices 1 2 3 4 5 6 
#
# 1 0.021310 -0.002996 -0.002797 0.000000 0.004619 0.000000
# 2 -0.002996 0.007445 -0.001514 0.000000 -0.003695 0.000000
# 3 -0.002797 -0.001514 0.016082 0.000000 -0.001181 0.000000
# 4 0.000000 0.000000 0.000000 -0.011067 0.000000 0.034743
# 5 0.004619 -0.003695 -0.001181 0.000000 0.032201 0.000000
# 6 0.000000 0.000000 0.000000 0.034743 0.000000 -0.000314
#
#
# Mechanical properties :
#
#
# Convention : Reuss Voigt Hill
#
# Bulk Modulus (GPa) = 33.08898 41.60625 37.34761
# Shear Modulus (GPa) = 55.34252 23.39913 39.37083
#
# Velocity S-wave (km/s) = 4.69062 3.05001 3.95629
# Velocity P-wave (km/s) = 6.51849 5.38000 5.97642
#
# Compressibility (1/GPa) = 0.03022155
#
# Stress axis : x y z
#
# Youngs Moduli (GPa) = 46.92738 134.30999 62.18284
#
# Poissons Ratio (x) = 0.40239 0.17394
# Poissons Ratio (y) = 0.14060 0.09417
# Poissons Ratio (z) = 0.13126 0.20339
#
# Static dielectric constant tensor:
#      x y z
#    x 2.021980 0.000000 0.014300 
#    y 0.000000 2.101080 0.000000 
#    z 0.014300 0.000000 1.969510 
# 
# From -- ./inp_files/17908.got.cif
#   From: 2010.05.17/outbox.cif.g08.bks.cpg/sg11_9_cif.got.tgz:17908.got - 2010.06.03 12:22:45.
