data_PCOD9165955
_publ_section_title
;
Structure prediction by ZEFSAII (Michael W. Deem and Ramdas Pophale) SiO2 
 PCOD9165955
Probable space group: P 21/M
;
_chemical_formula_sum "Si O2"
_cell_formula_units_Z 20
_cell_length_a 25.561155
_cell_length_b 7.926866
_cell_length_c 9.904234
_cell_angle_alpha 90.000000
_cell_angle_beta 152.732163
_cell_angle_gamma 90.000000
_cell_volume 919.414178
_symmetry_space_group_name_H-M "P 21/M"
_symmetry_group_IT_number 11
_symmetry_cell_setting 'monoclinic'
loop_
_space_group_symop_operation_xyz
x,y,z
-x,1/2+y,-z
-x,-y,-z
x,1/2-y,z
loop_
_atom_site_type_symbol
_atom_site_label
_atom_site_fract_x
_atom_site_fract_y
_atom_site_fract_z
Si Si1 0.975288 0.547069 0.290480
Si Si2 0.719370 0.546971 0.659745
Si Si3 0.351434 0.051611 0.787369
Si Si4 0.892138 0.047642 0.660126
Si Si5 0.528882 0.049227 0.413924
O O1 0.972236 0.750000 0.273158
O O2 0.000000 0.500000 0.500000
O O3 0.071914 0.489770 0.407404
O O4 0.849483 0.483755 0.959934
O O5 0.723926 0.750000 0.658771
O O6 0.652639 0.480055 0.374212
O O7 0.652397 0.503652 0.642046
O O8 0.378304 0.250000 0.836863
O O9 0.223484 0.033092 0.551008
O O10 0.438674 0.977299 0.096993
O O11 0.877459 0.250000 0.628291
O O12 0.000000 0.000000 0.000000
O O13 0.522710 0.250000 0.395478
O O14 0.500000 0.000000 0.500000
#
# Coordination Sequence:
#
# PCOD9165955 Si02
#       5
#     4   4   4   4   4
#     4  10  23  40  60  89 125 162 199 248 302 354
#     4  10  21  42  65  87 121 159 201 252 303 356
#     4  10  22  42  65  89 121 160 203 252 303 355
#     4  11  22  39  63  93 125 159 201 247 299 361
#     4  11  25  42  63  91 122 159 202 251 307 362
#
# _framework density 21.752981999999999
#
# number of rings (size 3 to 8) (size 9 to 14) (size 15 to 20)
#    0.000    1.600    2.000    1.800    2.800    4.800 
#    0.000    0.000    0.000    0.000    0.000    0.000 
#    0.000    0.000    0.000    0.000    0.000    0.000 
#
# Total GULP energy -111790.603650 kJ/mol
# GULP energy per Si atom -5589.530183 kJ/mol
# Density = 2.170347 g / cm^3
# Si number density = 21.752982 Si / 1000 Ang^3
#
#
#
# Elastic Constant Matrix: (Units=GPa)
#
#
# Indices 1 2 3 4 5 6 
#
# 1 142.3483 -7.0901 10.3211 0.0000 -13.9941 0.0000
# 2 -7.0901 26.8379 -1.2446 0.0000 -6.6753 0.0000
# 3 10.3211 -1.2446 50.9626 0.0000 -10.0134 0.0000
# 4 0.0000 0.0000 0.0000 24.2391 0.0000 0.5685
# 5 -13.9941 -6.6753 -10.0134 0.0000 38.8790 0.0000
# 6 0.0000 0.0000 0.0000 0.5685 0.0000 32.2689
#
#
#
# Elastic Compliance Matrix: (Units=1/GPa)
#
#
# Indices 1 2 3 4 5 6 
#
# 1 0.007511 0.002674 -0.000879 0.000000 0.002936 0.000000
# 2 0.002674 0.040152 0.002088 0.000000 0.008394 0.000000
# 3 -0.000879 0.002088 0.020918 0.000000 0.005430 0.000000
# 4 0.000000 0.000000 0.000000 0.041273 0.000000 -0.000727
# 5 0.002936 0.008394 0.005430 0.000000 0.029617 0.000000
# 6 0.000000 0.000000 0.000000 -0.000727 0.000000 0.031002
#
#
# Mechanical properties :
#
#
# Convention : Reuss Voigt Hill
#
# Bulk Modulus (GPa) = 13.09811 24.90238 19.00025
# Shear Modulus (GPa) = 26.57378 33.62155 30.09767
#
# Velocity S-wave (km/s) = 3.49895 3.93569 3.72373
# Velocity P-wave (km/s) = 4.72842 5.66793 5.21936
#
# Compressibility (1/GPa) = 0.07634686
#
# Stress axis : x y z
#
# Youngs Moduli (GPa) = 133.14594 24.90554 47.80545
#
# Poissons Ratio (x) = -0.06659 0.04201
# Poissons Ratio (y) = -0.35599 -0.09984
# Poissons Ratio (z) = 0.11702 -0.05201
#
# Static dielectric constant tensor:
#      x y z
#    x 1.794670 0.000000 -0.019740 
#    y 0.000000 1.801550 0.000000 
#    z -0.019740 0.000000 1.801520 
# 
# From -- ./inp_files/15893.got.cif
#   From: 2010.05.17/outbox.cif.g08.bks.cpg/sg11_8_cif.got.tgz:15893.got - 2010.06.03 12:22:45.
