data_PCOD9165571
_publ_section_title
;
Structure prediction by ZEFSAII (Michael W. Deem and Ramdas Pophale) SiO2 
 PCOD9165571
Probable space group: P 21/M
;
_chemical_formula_sum "Si O2"
_cell_formula_units_Z 24
_cell_length_a 9.267832
_cell_length_b 14.237834
_cell_length_c 19.513872
_cell_angle_alpha 90.000000
_cell_angle_beta 150.769560
_cell_angle_gamma 90.000000
_cell_volume 1257.398753
_symmetry_space_group_name_H-M "P 21/M"
_symmetry_group_IT_number 11
_symmetry_cell_setting 'monoclinic'
loop_
_space_group_symop_operation_xyz
x,y,z
-x,1/2+y,-z
-x,-y,-z
x,1/2-y,z
loop_
_atom_site_type_symbol
_atom_site_label
_atom_site_fract_x
_atom_site_fract_y
_atom_site_fract_z
Si Si1 0.597853 0.965631 0.966224
Si Si2 0.174207 0.859791 0.167621
Si Si3 0.747341 0.974095 0.449599
Si Si4 0.980856 0.139204 0.311555
Si Si5 0.174612 0.644228 0.007409
Si Si6 0.664627 0.642187 0.682324
O O1 0.354651 0.893779 0.837955
O O2 0.915672 0.915311 0.099336
O O3 0.500000 0.000000 0.000000
O O4 0.617293 0.058379 0.927252
O O5 0.187596 0.750000 0.192745
O O6 0.486001 0.910600 0.309016
O O7 0.095997 0.864854 0.054469
O O8 0.880758 0.917939 0.568804
O O9 0.594030 0.069038 0.412751
O O10 0.000000 0.000000 0.500000
O O11 0.994223 0.250000 0.330556
O O12 0.156674 0.121058 0.313422
O O13 0.298173 0.750000 0.048094
O O14 0.892654 0.635951 0.840540
O O15 0.560476 0.750000 0.635294
#
# Coordination Sequence:
#
# PCOD9165571 Si02
#       6
#     4   4   4   4   4   4
#     4  12  22  39  66  98 127 162 212 267 319 380
#     4  11  24  41  63  92 130 170 215 264 319 381
#     4  12  25  42  64  94 130 170 216 266 319 382
#     4  11  24  42  65  94 131 170 213 260 321 388
#     4  10  21  39  63  91 126 165 210 264 316 373
#     4  10  22  42  65  91 124 168 215 263 321 379
#
# _framework density 19.087024
#
# number of rings (size 3 to 8) (size 9 to 14) (size 15 to 20)
#    0.000    1.000    3.333    3.000    2.333    2.000 
#    0.000    0.833    0.000    0.000    0.000    0.000 
#    0.000    0.000    0.000    0.000    0.000    0.000 
#
# Total GULP energy -134172.655023 kJ/mol
# GULP energy per Si atom -5590.527293 kJ/mol
# Density = 1.904358 g / cm^3
# Si number density = 19.087024 Si / 1000 Ang^3
#
#
#
# Elastic Constant Matrix: (Units=GPa)
#
#
# Indices 1 2 3 4 5 6 
#
# 1 94.1556 68.5258 62.1378 0.0000 18.0660 0.0000
# 2 68.5258 131.8858 49.3216 0.0000 21.9477 0.0000
# 3 62.1378 49.3216 111.4311 0.0000 -0.4104 0.0000
# 4 0.0000 0.0000 0.0000 40.2482 0.0000 -2.1301
# 5 18.0660 21.9477 -0.4104 0.0000 30.9682 0.0000
# 6 0.0000 0.0000 0.0000 -2.1301 0.0000 23.7781
#
#
#
# Elastic Compliance Matrix: (Units=1/GPa)
#
#
# Indices 1 2 3 4 5 6 
#
# 1 0.024747 -0.007339 -0.010586 0.000000 -0.009376 0.000000
# 2 -0.007339 0.012788 -0.001585 0.000000 -0.004802 0.000000
# 3 -0.010586 -0.001585 0.015607 0.000000 0.007506 0.000000
# 4 0.000000 0.000000 0.000000 0.024964 0.000000 0.002236
# 5 -0.009376 -0.004802 0.007506 0.000000 0.041264 0.000000
# 6 0.000000 0.000000 0.000000 0.002236 0.000000 0.042256
#
#
# Mechanical properties :
#
#
# Convention : Reuss Voigt Hill
#
# Bulk Modulus (GPa) = 70.81765 77.49365 74.15565
# Shear Modulus (GPa) = 24.34835 29.49807 26.92321
#
# Velocity S-wave (km/s) = 3.57550 3.93549 3.75980
# Velocity P-wave (km/s) = 7.36401 7.83193 7.60157
#
# Compressibility (1/GPa) = 0.01412077
#
# Stress axis : x y z
#
# Youngs Moduli (GPa) = 40.40845 78.20062 64.07577
#
# Poissons Ratio (x) = 0.57393 0.67831
# Poissons Ratio (y) = 0.29657 0.10157
# Poissons Ratio (z) = 0.42776 0.12396
#
# Static dielectric constant tensor:
#      x y z
#    x 1.642620 0.000000 -0.008770 
#    y 0.000000 1.670470 0.000000 
#    z -0.008770 0.000000 1.647780 
# 
# From -- ./inp_files/12541.got.cif
#   From: 2010.05.17/outbox.cif.g08.bks.cpg/sg11_7_cif.got.tgz:12541.got - 2010.06.03 12:22:45.
