data_PCOD9165923
_publ_section_title
;
Structure prediction by ZEFSAII (Michael W. Deem and Ramdas Pophale) SiO2 
 PCOD9165923
Probable space group: P 21/M
;
_chemical_formula_sum "Si O2"
_cell_formula_units_Z 24
_cell_length_a 11.188360
_cell_length_b 16.998736
_cell_length_c 16.655272
_cell_angle_alpha 90.000000
_cell_angle_beta 22.288243
_cell_angle_gamma 90.000000
_cell_volume 1201.376259
_symmetry_space_group_name_H-M "P 21/M"
_symmetry_group_IT_number 11
_symmetry_cell_setting 'monoclinic'
loop_
_space_group_symop_operation_xyz
x,y,z
-x,1/2+y,-z
-x,-y,-z
x,1/2-y,z
loop_
_atom_site_type_symbol
_atom_site_label
_atom_site_fract_x
_atom_site_fract_y
_atom_site_fract_z
Si Si1 0.332085 0.582897 0.092860
Si Si2 0.293615 0.841412 0.815306
Si Si3 0.606073 0.343873 0.770075
Si Si4 0.385806 0.034938 0.487009
Si Si5 0.685896 0.843304 0.723263
Si Si6 0.734191 0.567993 0.153270
O O1 0.355584 0.632320 0.160784
O O2 0.970471 0.565702 0.294041
O O3 0.500000 0.500000 0.000000
O O4 0.521185 0.623931 0.903922
O O5 0.353964 0.750000 0.765290
O O6 0.395504 0.891418 0.674736
O O7 0.508668 0.873695 0.753977
O O8 0.930022 0.857057 0.063515
O O9 0.526226 0.250000 0.812803
O O10 0.372845 0.403414 0.868164
O O11 0.944066 0.357209 0.517384
O O12 0.500000 0.000000 0.500000
O O13 0.446913 0.965650 0.383647
O O14 0.640097 0.750000 0.751606
O O15 0.000000 0.500000 0.000000
#
# Coordination Sequence:
#
# PCOD9165923 Si02
#       6
#     4   4   4   4   4   4
#     4  12  26  38  67 100 131 174 219 270 336 400
#     4  10  21  41  68  92 127 176 225 278 336 397
#     4  11  24  45  68  96 136 177 220 282 341 396
#     4  11  24  41  63  97 138 173 220 277 336 397
#     4  10  22  42  67  96 128 170 221 275 333 398
#     4  10  23  41  65  90 131 173 221 271 330 401
#
# _framework density 19.977087999999998
#
# number of rings (size 3 to 8) (size 9 to 14) (size 15 to 20)
#    0.000    1.333    1.667    3.000    9.333    2.000 
#    0.000    1.667    0.000    0.000    0.000    0.000 
#    0.000    0.000    0.000    0.000    0.000    0.000 
#
# Total GULP energy -133911.065888 kJ/mol
# GULP energy per Si atom -5579.627745 kJ/mol
# Density = 1.993162 g / cm^3
# Si number density = 19.977088 Si / 1000 Ang^3
#
#
#
# Elastic Constant Matrix: (Units=GPa)
#
#
# Indices 1 2 3 4 5 6 
#
# 1 134.5696 67.2957 36.2935 0.0000 9.0447 0.0000
# 2 67.2957 86.0896 49.8124 0.0000 8.4639 0.0000
# 3 36.2935 49.8124 83.3855 0.0000 15.0389 0.0000
# 4 0.0000 0.0000 0.0000 40.3207 0.0000 6.3524
# 5 9.0447 8.4639 15.0389 0.0000 29.7062 0.0000
# 6 0.0000 0.0000 0.0000 6.3524 0.0000 42.9552
#
#
#
# Elastic Compliance Matrix: (Units=1/GPa)
#
#
# Indices 1 2 3 4 5 6 
#
# 1 0.012267 -0.009945 0.000841 0.000000 -0.001327 0.000000
# 2 -0.009945 0.025818 -0.011350 0.000000 0.001418 0.000000
# 3 0.000841 -0.011350 0.019665 0.000000 -0.006978 0.000000
# 4 0.000000 0.000000 0.000000 0.025393 0.000000 -0.003755
# 5 -0.001327 0.001418 -0.006978 0.000000 0.037196 0.000000
# 6 0.000000 0.000000 0.000000 -0.003755 0.000000 0.023835
#
#
# Mechanical properties :
#
#
# Convention : Reuss Voigt Hill
#
# Bulk Modulus (GPa) = 59.37633 67.87200 63.62416
# Shear Modulus (GPa) = 26.21987 32.63928 29.42958
#
# Velocity S-wave (km/s) = 3.62677 4.04646 3.84235
# Velocity P-wave (km/s) = 6.87929 7.47532 7.18349
#
# Compressibility (1/GPa) = 0.01684173
#
# Stress axis : x y z
#
# Youngs Moduli (GPa) = 81.52080 38.73312 50.85170
#
# Poissons Ratio (x) = 0.38521 -0.04278
# Poissons Ratio (y) = 0.81074 0.57717
# Poissons Ratio (z) = -0.06858 0.43962
#
# Static dielectric constant tensor:
#      x y z
#    x 1.794070 0.000000 0.029370 
#    y 0.000000 1.714270 0.000000 
#    z 0.029370 0.000000 1.820150 
# 
# From -- ./inp_files/59664.got.cif
#   From: 2010.05.17/outbox.cif.g08.bks.cpg/sg11_30_cif.got.tgz:59664.got - 2010.06.03 12:22:45.
