data_PCOD9165474
_publ_section_title
;
Structure prediction by ZEFSAII (Michael W. Deem and Ramdas Pophale) SiO2 
 PCOD9165474
Probable space group: P 21/M
;
_chemical_formula_sum "Si O2"
_cell_formula_units_Z 24
_cell_length_a 15.076535
_cell_length_b 8.822382
_cell_length_c 10.425141
_cell_angle_alpha 90.000000
_cell_angle_beta 79.999607
_cell_angle_gamma 90.000000
_cell_volume 1365.589818
_symmetry_space_group_name_H-M "P 21/M"
_symmetry_group_IT_number 11
_symmetry_cell_setting 'monoclinic'
loop_
_space_group_symop_operation_xyz
x,y,z
-x,1/2+y,-z
-x,-y,-z
x,1/2-y,z
loop_
_atom_site_type_symbol
_atom_site_label
_atom_site_fract_x
_atom_site_fract_y
_atom_site_fract_z
Si Si1 0.065857 0.931199 0.876464
Si Si2 0.451141 0.067032 0.889810
Si Si3 0.447272 0.569606 0.393457
Si Si4 0.738951 0.568659 0.164833
Si Si5 0.062805 0.432242 0.594487
Si Si6 0.728198 0.571011 0.468548
O O1 0.058746 0.750000 0.875531
O O2 0.168262 0.981956 0.882161
O O3 0.045030 0.997898 0.739804
O O4 0.000000 0.000000 0.000000
O O5 0.452845 0.250000 0.894649
O O6 0.505599 0.018688 0.749386
O O7 0.346373 0.023041 0.899186
O O8 0.500000 0.000000 0.000000
O O9 0.500000 0.500000 0.500000
O O10 0.454603 0.750000 0.398496
O O11 0.343833 0.519869 0.431468
O O12 0.754999 0.750000 0.147267
O O13 0.712381 0.543835 0.320665
O O14 0.053724 0.250000 0.604351
O O15 0.167342 0.466292 0.534939
O O16 0.000000 0.500000 0.500000
O O17 0.715068 0.750000 0.494432
#
# Coordination Sequence:
#
# PCOD9165474 Si02
#       6
#     4   4   4   4   4   4
#     4  11  22  38  61  88 114 148 194 239 286 344
#     4  10  22  39  56  80 115 151 186 231 283 333
#     4  11  21  35  57  84 112 145 188 234 275 330
#     4   9  18  37  59  80 113 150 186 234 283 334
#     4  10  21  39  61  86 119 153 188 236 289 341
#     4   9  18  35  58  84 113 146 185 229 280 333
#
# _framework density 17.574824
#
# number of rings (size 3 to 8) (size 9 to 14) (size 15 to 20)
#    0.000    2.000    1.667    3.500    0.000    5.333 
#    3.000    0.000    0.000    0.000    0.000    0.000 
#    0.000    0.000    0.000    0.000    0.000    0.000 
#
# Total GULP energy -133978.863019 kJ/mol
# GULP energy per Si atom -5582.452626 kJ/mol
# Density = 1.753482 g / cm^3
# Si number density = 17.574824 Si / 1000 Ang^3
#
#
#
# Elastic Constant Matrix: (Units=GPa)
#
#
# Indices 1 2 3 4 5 6 
#
# 1 141.1793 64.2815 94.5139 0.0000 13.1441 0.0000
# 2 64.2815 72.3615 58.6119 0.0000 -3.8148 0.0000
# 3 94.5139 58.6119 130.4035 0.0000 1.0539 0.0000
# 4 0.0000 0.0000 0.0000 31.3718 0.0000 -0.3963
# 5 13.1441 -3.8148 1.0539 0.0000 36.1113 0.0000
# 6 0.0000 0.0000 0.0000 -0.3963 0.0000 35.4440
#
#
#
# Elastic Compliance Matrix: (Units=1/GPa)
#
#
# Indices 1 2 3 4 5 6 
#
# 1 0.017689 -0.009046 -0.008697 0.000000 -0.007140 0.000000
# 2 -0.009046 0.026600 -0.005450 0.000000 0.006262 0.000000
# 3 -0.008697 -0.005450 0.016405 0.000000 0.002111 0.000000
# 4 0.000000 0.000000 0.000000 0.031880 0.000000 0.000356
# 5 -0.007140 0.006262 0.002111 0.000000 0.030891 0.000000
# 6 0.000000 0.000000 0.000000 0.000356 0.000000 0.028217
#
#
# Mechanical properties :
#
#
# Convention : Reuss Voigt Hill
#
# Bulk Modulus (GPa) = 69.89404 86.52877 78.21141
# Shear Modulus (GPa) = 24.65021 29.02122 26.83572
#
# Velocity S-wave (km/s) = 3.74917 4.06802 3.91185
# Velocity P-wave (km/s) = 7.65490 8.45023 8.06238
#
# Compressibility (1/GPa) = 0.01430737
#
# Stress axis : x y z
#
# Youngs Moduli (GPa) = 56.53181 37.59425 60.95785
#
# Poissons Ratio (x) = 0.34007 0.53017
# Poissons Ratio (y) = 0.51137 0.33223
# Poissons Ratio (z) = 0.49168 0.20490
#
# Static dielectric constant tensor:
#      x y z
#    x 1.603210 0.000000 -0.005220 
#    y 0.000000 1.589650 0.000000 
#    z -0.005220 0.000000 1.571370 
# 
# From -- ./inp_files/20377.got.cif
#   From: 2010.05.17/outbox.cif.g08.bks.cpg/sg11_11_cif.got.tgz:20377.got - 2010.06.03 12:22:45.
