data_PCOD9165471
_publ_section_title
;
Structure prediction by ZEFSAII (Michael W. Deem and Ramdas Pophale) SiO2 
 PCOD9165471
Probable space group: P 21/M
;
_chemical_formula_sum "Si O2"
_cell_formula_units_Z 24
_cell_length_a 11.951940
_cell_length_b 8.442918
_cell_length_c 22.632921
_cell_angle_alpha 90.000000
_cell_angle_beta 30.965478
_cell_angle_gamma 90.000000
_cell_volume 1175.100811
_symmetry_space_group_name_H-M "P 21/M"
_symmetry_group_IT_number 11
_symmetry_cell_setting 'monoclinic'
loop_
_space_group_symop_operation_xyz
x,y,z
-x,1/2+y,-z
-x,-y,-z
x,1/2-y,z
loop_
_atom_site_type_symbol
_atom_site_label
_atom_site_fract_x
_atom_site_fract_y
_atom_site_fract_z
Si Si1 0.538095 0.441513 0.831656
Si Si2 0.943369 0.438503 0.960625
Si Si3 0.942443 0.443180 0.726060
Si Si4 0.837736 0.559224 0.256520
Si Si5 0.628159 0.938623 0.539299
Si Si6 0.246715 0.560117 0.391185
O O1 0.519804 0.250000 0.842788
O O2 0.301906 0.515472 0.945091
O O3 0.631233 0.482019 0.724597
O O4 0.717508 0.494909 0.798231
O O5 0.965514 0.250000 0.952489
O O6 0.000000 0.500000 0.000000
O O7 0.097906 0.499538 0.837799
O O8 0.939609 0.250000 0.725645
O O9 0.991413 0.493053 0.770817
O O10 0.151094 0.494329 0.592753
O O11 0.841697 0.750000 0.253505
O O12 0.595747 0.508342 0.383606
O O13 0.621085 0.750000 0.536994
O O14 0.644734 0.987068 0.600203
O O15 0.248252 0.750000 0.395515
O O16 0.000000 0.500000 0.500000
#
# Coordination Sequence:
#
# PCOD9165471 Si02
#       6
#     4   4   4   4   4   4
#     4  10  21  39  61  85 117 155 189 233 292 345
#     4  11  24  41  61  86 114 150 195 242 289 343
#     4   9  19  38  60  84 118 155 190 236 293 348
#     4  10  22  40  60  83 115 156 198 240 289 343
#     4  11  21  36  59  88 120 154 195 239 289 345
#     4  11  21  35  57  86 118 151 189 233 286 342
#
# _framework density 20.423780000000001
#
# number of rings (size 3 to 8) (size 9 to 14) (size 15 to 20)
#    0.000    1.667    1.667    3.000    0.000    7.333 
#    0.000    1.667    0.000    0.000    0.000    0.000 
#    0.000    0.000    0.000    0.000    0.000    0.000 
#
# Total GULP energy -134128.789492 kJ/mol
# GULP energy per Si atom -5588.699562 kJ/mol
# Density = 2.037729 g / cm^3
# Si number density = 20.423780 Si / 1000 Ang^3
#
#
#
# Elastic Constant Matrix: (Units=GPa)
#
#
# Indices 1 2 3 4 5 6 
#
# 1 142.1440 13.2566 39.1008 0.0000 -8.1243 0.0000
# 2 13.2566 12.8446 11.6322 0.0000 6.5396 0.0000
# 3 39.1008 11.6322 89.0839 0.0000 -13.0186 0.0000
# 4 0.0000 0.0000 0.0000 26.4545 0.0000 -10.0896
# 5 -8.1243 6.5396 -13.0186 0.0000 29.3402 0.0000
# 6 0.0000 0.0000 0.0000 -10.0896 0.0000 27.8707
#
#
#
# Elastic Compliance Matrix: (Units=1/GPa)
#
#
# Indices 1 2 3 4 5 6 
#
# 1 0.008630 -0.008653 -0.002168 0.000000 0.003357 0.000000
# 2 -0.008653 0.121652 -0.017537 0.000000 -0.037292 0.000000
# 3 -0.002168 -0.017537 0.015987 0.000000 0.010402 0.000000
# 4 0.000000 0.000000 0.000000 0.043856 0.000000 0.015877
# 5 0.003357 -0.037292 0.010402 0.000000 0.047940 0.000000
# 6 0.000000 0.000000 0.000000 0.015877 0.000000 0.041628
#
#
# Mechanical properties :
#
#
# Convention : Reuss Voigt Hill
#
# Bulk Modulus (GPa) = 11.16637 41.33906 26.25272
# Shear Modulus (GPa) = 13.65158 28.73861 21.19509
#
# Velocity S-wave (km/s) = 2.58818 3.75522 3.22493
# Velocity P-wave (km/s) = 3.79615 6.25195 5.17193
#
# Compressibility (1/GPa) = 0.08955460
#
# Stress axis : x y z
#
# Youngs Moduli (GPa) = 115.87187 8.22017 62.55180
#
# Poissons Ratio (x) = 0.07113 0.13559
# Poissons Ratio (y) = 1.00264 1.09694
# Poissons Ratio (z) = 0.25116 0.14415
#
# Static dielectric constant tensor:
#      x y z
#    x 1.732790 0.000000 0.015280 
#    y 0.000000 1.707880 0.000000 
#    z 0.015280 0.000000 1.715830 
# 
# From -- ./inp_files/42651.got.cif
#   From: 2010.05.17/outbox.cif.g08.bks.cpg/sg11_22_cif.got.tgz:42651.got - 2010.06.03 12:22:45.
