data_PCOD9165797
_publ_section_title
;
Structure prediction by ZEFSAII (Michael W. Deem and Ramdas Pophale) SiO2 
 PCOD9165797
Probable space group: P 21/M
;
_chemical_formula_sum "Si O2"
_cell_formula_units_Z 28
_cell_length_a 17.785994
_cell_length_b 16.853311
_cell_length_c 5.055038
_cell_angle_alpha 90.000000
_cell_angle_beta 112.449990
_cell_angle_gamma 90.000000
_cell_volume 1400.425367
_symmetry_space_group_name_H-M "P 21/M"
_symmetry_group_IT_number 11
_symmetry_cell_setting 'monoclinic'
loop_
_space_group_symop_operation_xyz
x,y,z
-x,1/2+y,-z
-x,-y,-z
x,1/2-y,z
loop_
_atom_site_type_symbol
_atom_site_label
_atom_site_fract_x
_atom_site_fract_y
_atom_site_fract_z
Si Si1 0.856810 0.750000 0.447317
Si Si2 0.283650 0.567666 0.272711
Si Si3 0.370877 0.397325 0.405141
Si Si4 0.479031 0.408738 0.042750
Si Si5 0.066619 0.416161 0.311109
Si Si6 0.890943 0.487499 0.131867
Si Si7 0.653361 0.156911 0.148742
Si Si8 0.745559 0.750000 0.797613
O O1 0.908428 0.828420 0.575674
O O2 0.782272 0.750000 0.553479
O O3 0.818898 0.750000 0.104963
O O4 0.324287 0.481067 0.352730
O O5 0.291210 0.612721 0.560159
O O6 0.191637 0.555997 0.053493
O O7 0.331775 0.616771 0.114568
O O8 0.442437 0.403643 0.285649
O O9 0.309444 0.327929 0.242627
O O10 0.410983 0.381117 0.742960
O O11 0.560912 0.359152 0.115522
O O12 0.500000 0.500000 0.000000
O O13 0.109175 0.476497 0.574861
O O14 0.970423 0.432431 0.207204
O O15 0.095169 0.440626 0.057134
O O16 0.670166 0.250000 0.160797
#
# Coordination Sequence:
#
# PCOD9165797 Si02
#       8
#     2   4   4   4   4   4   4   2
#     4  12  22  42  62  94 137 166 195 266 320 376
#     4  12  22  43  66  90 127 164 210 260 314 365
#     4  12  24  40  64  95 123 167 206 260 317 374
#     4  12  23  44  63  89 122 164 220 253 311 383
#     4  10  21  40  65  96 127 167 212 246 320 377
#     4  10  22  40  68  94 122 170 215 256 298 387
#     4  12  27  42  63  92 123 168 210 266 314 361
#     4  12  28  40  64 104 131 162 209 264 324 380
#
# _framework density 19.993925999999998
#
# number of rings (size 3 to 8) (size 9 to 14) (size 15 to 20)
#    0.000    0.571    2.857    6.000    2.000    0.000 
#    2.571    0.000    0.000    0.000    0.000    0.000 
#    0.000    0.000    0.000    0.000    0.000    0.000 
#
# Total GULP energy -156783.801349 kJ/mol
# GULP energy per Si atom -5599.421477 kJ/mol
# Density = 1.994842 g / cm^3
# Si number density = 19.993926 Si / 1000 Ang^3
#
#
#
# Elastic Constant Matrix: (Units=GPa)
#
#
# Indices 1 2 3 4 5 6 
#
# 1 32.6103 15.9001 1.2569 0.0000 8.7769 0.0000
# 2 15.9001 109.3863 6.5496 0.0000 21.4682 0.0000
# 3 1.2569 6.5496 75.9944 0.0000 14.0815 0.0000
# 4 0.0000 0.0000 0.0000 19.6607 0.0000 11.3326
# 5 8.7769 21.4682 14.0815 0.0000 40.7641 0.0000
# 6 0.0000 0.0000 0.0000 11.3326 0.0000 -9.1641
#
#
#
# Elastic Compliance Matrix: (Units=1/GPa)
#
#
# Indices 1 2 3 4 5 6 
#
# 1 0.034032 -0.003906 0.000802 0.000000 -0.005547 0.000000
# 2 -0.003906 0.010645 0.000032 0.000000 -0.004776 0.000000
# 3 0.000802 0.000032 0.014079 0.000000 -0.005053 0.000000
# 4 0.000000 0.000000 0.000000 0.029696 0.000000 0.036722
# 5 -0.005547 -0.004776 -0.005053 0.000000 0.029987 0.000000
# 6 0.000000 0.000000 0.000000 0.036722 0.000000 -0.063709
#
#
# Mechanical properties :
#
#
# Convention : Reuss Voigt Hill
#
# Bulk Modulus (GPa) = 19.00723 29.48935 24.24829
# Shear Modulus (GPa) = 63.76663 23.20443 43.48553
#
# Velocity S-wave (km/s) = 5.65352 3.41042 4.66868
# Velocity P-wave (km/s) = 7.22104 5.50355 6.41999
#
# Compressibility (1/GPa) = 0.05261157
#
# Stress axis : x y z
#
# Youngs Moduli (GPa) = 29.38432 93.93941 71.02705
#
# Poissons Ratio (x) = 0.36693 -0.05694
# Poissons Ratio (y) = 0.11478 -0.00229
# Poissons Ratio (z) = -0.02356 -0.00302
#
# Static dielectric constant tensor:
#      x y z
#    x 1.682940 0.000000 0.004470 
#    y 0.000000 1.676710 0.000000 
#    z 0.004470 0.000000 1.692730 
# 
# From -- ./inp_files/8156.got.cif
#   From: 2010.05.17/outbox.cif.g08.bks.cpg/sg11_5_cif.got.tgz:8156.got - 2010.06.03 12:22:45.
