data_PCOD9165848
_publ_section_title
;
Structure prediction by ZEFSAII (Michael W. Deem and Ramdas Pophale) SiO2 
 PCOD9165848
Probable space group: P 21/M
;
_chemical_formula_sum "Si O2"
_cell_formula_units_Z 24
_cell_length_a 10.674497
_cell_length_b 14.104061
_cell_length_c 13.112319
_cell_angle_alpha 90.000000
_cell_angle_beta 34.400643
_cell_angle_gamma 90.000000
_cell_volume 1115.324662
_symmetry_space_group_name_H-M "P 21/M"
_symmetry_group_IT_number 11
_symmetry_cell_setting 'monoclinic'
loop_
_space_group_symop_operation_xyz
x,y,z
-x,1/2+y,-z
-x,-y,-z
x,1/2-y,z
loop_
_atom_site_type_symbol
_atom_site_label
_atom_site_fract_x
_atom_site_fract_y
_atom_site_fract_z
Si Si1 0.242910 0.361718 0.063130
Si Si2 0.236316 0.643535 0.925244
Si Si3 0.538909 0.956352 0.277095
Si Si4 0.695062 0.139834 0.878240
Si Si5 0.084533 0.492370 0.618901
Si Si6 0.261579 0.359035 0.676990
O O1 0.196773 0.250000 0.091496
O O2 0.036885 0.422310 0.241177
O O3 0.325725 0.398918 0.898589
O O4 0.452649 0.379250 0.997109
O O5 0.304001 0.750000 0.849583
O O6 0.344247 0.558566 0.791327
O O7 0.302224 0.628920 0.000439
O O8 0.970232 0.638231 0.103809
O O9 0.552741 0.900933 0.374187
O O10 0.283961 0.970288 0.415896
O O11 0.749944 0.250000 0.820142
O O12 0.886759 0.071697 0.707303
O O13 0.209615 0.424037 0.615433
O O14 0.301158 0.250000 0.622016
#
# Coordination Sequence:
#
# PCOD9165848 Si02
#       6
#     4   4   4   4   4   4
#     4  11  24  41  61  86 125 162 196 248 301 349
#     4   9  19  36  63  88 115 160 205 242 290 353
#     4  12  23  38  62  92 123 150 203 247 303 353
#     4   9  19  41  64  87 122 162 197 241 297 353
#     4  11  23  39  65  87 118 159 204 245 295 357
#     4  10  21  41  62  86 123 160 197 246 296 357
#
# _framework density 21.518398000000001
#
# number of rings (size 3 to 8) (size 9 to 14) (size 15 to 20)
#    0.000    1.667    3.333    3.500    0.000    3.333 
#    0.000    0.000    0.000    0.000    0.000    0.000 
#    0.000    0.000    0.000    0.000    0.000    0.000 
#
# Total GULP energy -134163.010904 kJ/mol
# GULP energy per Si atom -5590.125454 kJ/mol
# Density = 2.146942 g / cm^3
# Si number density = 21.518398 Si / 1000 Ang^3
#
#
#
# Elastic Constant Matrix: (Units=GPa)
#
#
# Indices 1 2 3 4 5 6 
#
# 1 52.7433 36.4311 0.0421 0.0000 -5.4985 0.0000
# 2 36.4311 111.9584 16.3142 0.0000 -11.8061 0.0000
# 3 0.0421 16.3142 43.3482 0.0000 -7.2141 0.0000
# 4 0.0000 0.0000 0.0000 -5.3709 0.0000 -10.8528
# 5 -5.4985 -11.8061 -7.2141 0.0000 9.8774 0.0000
# 6 0.0000 0.0000 0.0000 -10.8528 0.0000 31.2351
#
#
#
# Elastic Compliance Matrix: (Units=1/GPa)
#
#
# Indices 1 2 3 4 5 6 
#
# 1 0.025314 -0.008060 0.004270 0.000000 0.007576 0.000000
# 2 -0.008060 0.012951 -0.003457 0.000000 0.008468 0.000000
# 3 0.004270 -0.003457 0.027405 0.000000 0.018260 0.000000
# 4 0.000000 0.000000 0.000000 -0.109389 0.000000 -0.038008
# 5 0.007576 0.008468 0.018260 0.000000 0.128916 0.000000
# 6 0.000000 0.000000 0.000000 -0.038008 0.000000 0.018809
#
#
# Mechanical properties :
#
#
# Convention : Reuss Voigt Hill
#
# Bulk Modulus (GPa) = 19.54105 34.84721 27.19413
# Shear Modulus (GPa) = 36.88382 17.49916 27.19149
#
# Velocity S-wave (km/s) = 4.14461 2.85479 3.55863
# Velocity P-wave (km/s) = 5.65726 5.20536 5.43600
#
# Compressibility (1/GPa) = 0.05117432
#
# Stress axis : x y z
#
# Youngs Moduli (GPa) = 39.50445 77.21124 36.48988
#
# Poissons Ratio (x) = 0.62235 -0.15580
# Poissons Ratio (y) = 0.31842 0.12615
# Poissons Ratio (z) = -0.16867 0.26693
#
# Static dielectric constant tensor:
#      x y z
#    x 1.785450 0.000000 0.023620 
#    y 0.000000 1.780230 0.000000 
#    z 0.023620 0.000000 1.775490 
# 
# From -- ./inp_files/50306.got.cif
#   From: 2010.05.17/outbox.cif.g08.bks.cpg/sg11_26_cif.got.tgz:50306.got - 2010.06.03 12:22:45.
