data_PCOD9165188
_publ_section_title
;
Structure prediction by ZEFSAII (Michael W. Deem and Ramdas Pophale) SiO2 
 PCOD9165188
Probable space group: P 21/M
;
_chemical_formula_sum "Si O2"
_cell_formula_units_Z 32
_cell_length_a 15.698021
_cell_length_b 8.135040
_cell_length_c 23.624637
_cell_angle_alpha 90.000000
_cell_angle_beta 149.552198
_cell_angle_gamma 90.000000
_cell_volume 1528.854760
_symmetry_space_group_name_H-M "P 21/M"
_symmetry_group_IT_number 11
_symmetry_cell_setting 'monoclinic'
loop_
_space_group_symop_operation_xyz
x,y,z
-x,1/2+y,-z
-x,-y,-z
x,1/2-y,z
loop_
_atom_site_type_symbol
_atom_site_label
_atom_site_fract_x
_atom_site_fract_y
_atom_site_fract_z
Si Si1 0.837602 0.055669 0.831930
Si Si2 0.793113 0.051083 0.549861
Si Si3 0.895431 0.948355 0.195778
Si Si4 0.671613 0.054406 0.971952
Si Si5 0.454132 0.554916 0.410843
Si Si6 0.791099 0.554958 0.925346
Si Si7 0.016190 0.052378 0.573686
Si Si8 0.672568 0.549730 0.172493
O O1 0.859018 0.250000 0.833824
O O2 0.719258 0.986192 0.714907
O O3 0.748250 0.028850 0.841427
O O4 0.025374 0.988714 0.949281
O O5 0.789806 0.250000 0.548064
O O6 0.926385 0.000629 0.675313
O O7 0.871427 0.996035 0.534673
O O8 0.609410 0.989104 0.459265
O O9 0.896157 0.750000 0.194661
O O10 0.753164 0.004787 0.159373
O O11 0.839683 0.009772 0.102786
O O12 0.659816 0.250000 0.960214
O O13 0.511991 0.991950 0.916612
O O14 0.671461 0.979598 0.909451
O O15 0.500000 0.500000 0.500000
O O16 0.435926 0.750000 0.401958
O O17 0.802226 0.750000 0.921581
O O18 0.013177 0.250000 0.573747
O O19 0.193254 0.000588 0.702710
O O20 0.000000 0.000000 0.500000
O O21 0.669243 0.750000 0.168490
#
# Coordination Sequence:
#
# PCOD9165188 Si02
#       8
#     4   4   4   4   4   4   4   4
#     4   9  21  42  61  79 109 145 183 231 281 330
#     4   9  20  38  57  80 112 149 190 235 284 337
#     4   9  18  35  56  75 106 149 187 225 274 327
#     4  11  21  32  52  83 113 141 181 227 274 330
#     4  11  24  40  61  88 117 151 192 237 289 345
#     4  10  21  38  60  83 108 145 187 226 279 338
#     4   9  18  35  57  79 107 147 187 226 278 335
#     4   8  17  34  52  73 106 146 181 219 271 327
#
# _framework density 20.930700000000002
#
# number of rings (size 3 to 8) (size 9 to 14) (size 15 to 20)
#    0.000    2.500    0.000    3.000    1.750    3.500 
#    0.000    7.500    0.000    0.000    0.000    0.000 
#    0.000    0.000    0.000    0.000    0.000    0.000 
#
# Total GULP energy -178608.313217 kJ/mol
# GULP energy per Si atom -5581.509788 kJ/mol
# Density = 2.088306 g / cm^3
# Si number density = 20.930700 Si / 1000 Ang^3
#
#
#
# Elastic Constant Matrix: (Units=GPa)
#
#
# Indices 1 2 3 4 5 6 
#
# 1 36.7631 -6.0114 20.1649 0.0000 -16.8182 0.0000
# 2 -6.0114 10.0340 2.5611 0.0000 3.4362 0.0000
# 3 20.1649 2.5611 77.5660 0.0000 -15.2143 0.0000
# 4 0.0000 0.0000 0.0000 22.7063 0.0000 -4.1319
# 5 -16.8182 3.4362 -15.2143 0.0000 31.3489 0.0000
# 6 0.0000 0.0000 0.0000 -4.1319 0.0000 30.6649
#
#
#
# Elastic Compliance Matrix: (Units=1/GPa)
#
#
# Indices 1 2 3 4 5 6 
#
# 1 0.043209 0.022477 -0.008744 0.000000 0.016473 0.000000
# 2 0.022477 0.118047 -0.010957 0.000000 -0.006198 0.000000
# 3 -0.008744 -0.010957 0.016404 0.000000 0.004471 0.000000
# 4 0.000000 0.000000 0.000000 0.045148 0.000000 0.006083
# 5 0.016473 -0.006198 0.004471 0.000000 0.043586 0.000000
# 6 0.000000 0.000000 0.000000 0.006083 0.000000 0.033430
#
#
# Mechanical properties :
#
#
# Convention : Reuss Voigt Hill
#
# Bulk Modulus (GPa) = 5.45813 17.53247 11.49530
# Shear Modulus (GPa) = 14.07092 24.12059 19.09575
#
# Velocity S-wave (km/s) = 2.59561 3.39839 3.02376
# Velocity P-wave (km/s) = 3.40534 4.87784 4.20652
#
# Compressibility (1/GPa) = 0.18321282
#
# Stress axis : x y z
#
# Youngs Moduli (GPa) = 23.14331 8.47120 60.95970
#
# Poissons Ratio (x) = -0.19041 0.53303
# Poissons Ratio (y) = -0.52020 0.66794
# Poissons Ratio (z) = 0.20237 0.09282
#
# Static dielectric constant tensor:
#      x y z
#    x 1.788600 0.000000 -0.015460 
#    y 0.000000 1.747540 0.000000 
#    z -0.015460 0.000000 1.796890 
# 
# From -- ./inp_files/69163.got.cif
#   From: 2010.05.17/outbox.cif.g08.bks.cpg/sg11_35_cif.got.tgz:69163.got - 2010.06.03 12:22:45.
