data_PCOD9165120
_publ_section_title
;
Structure prediction by ZEFSAII (Michael W. Deem and Ramdas Pophale) SiO2 
 PCOD9165120
Probable space group: P 21/M
;
_chemical_formula_sum "Si O2"
_cell_formula_units_Z 20
_cell_length_a 17.745818
_cell_length_b 8.842936
_cell_length_c 5.766929
_cell_angle_alpha 90.000000
_cell_angle_beta 88.206161
_cell_angle_gamma 90.000000
_cell_volume 904.532600
_symmetry_space_group_name_H-M "P 21/M"
_symmetry_group_IT_number 11
_symmetry_cell_setting 'monoclinic'
loop_
_space_group_symop_operation_xyz
x,y,z
-x,1/2+y,-z
-x,-y,-z
x,1/2-y,z
loop_
_atom_site_type_symbol
_atom_site_label
_atom_site_fract_x
_atom_site_fract_y
_atom_site_fract_z
Si Si1 0.837543 0.081244 0.052261
Si Si2 0.690658 0.574480 0.279668
Si Si3 0.470207 0.568571 0.753346
Si Si4 0.051389 0.417547 0.683060
Si Si5 0.197309 0.086400 0.351827
O O1 0.834576 0.250000 0.143118
O O2 0.762859 0.991643 0.140119
O O3 0.919444 0.011996 0.100846
O O4 0.826196 0.061911 0.781399
O O5 0.676056 0.750000 0.220072
O O6 0.618170 0.473839 0.243780
O O7 0.720788 0.573418 0.541969
O O8 0.500000 0.500000 0.500000
O O9 0.483186 0.750000 0.751489
O O10 0.500000 0.500000 0.000000
O O11 0.022745 0.250000 0.742157
O O12 0.132892 0.401548 0.551039
O O13 0.000000 0.500000 0.500000
O O14 0.192607 0.250000 0.223668
#
# Coordination Sequence:
#
# PCOD9165120 Si02
#       5
#     4   4   4   4   4
#     4  11  22  36  59  89 120 158 205 256 315 382
#     4  10  22  42  66  91 125 167 212 266 325 390
#     4  12  27  48  73 105 144 186 235 288 350 417
#     4  10  21  38  58  82 116 155 201 255 314 377
#     4   9  20  38  60  85 116 158 205 253 313 381
#
# _framework density 22.110865
#
# number of rings (size 3 to 8) (size 9 to 14) (size 15 to 20)
#    0.000    1.600    0.000    6.000    2.800    5.600 
#    0.000    0.000    0.000    0.000    0.000    0.000 
#    0.000    0.000    0.000    0.000    0.000    0.000 
#
# Total GULP energy -111404.081153 kJ/mol
# GULP energy per Si atom -5570.204058 kJ/mol
# Density = 2.206054 g / cm^3
# Si number density = 22.110865 Si / 1000 Ang^3
#
#
#
# Elastic Constant Matrix: (Units=GPa)
#
#
# Indices 1 2 3 4 5 6 
#
# 1 108.6283 30.4181 31.4825 0.0000 24.3516 0.0000
# 2 30.4181 133.9277 38.8303 0.0000 16.3032 0.0000
# 3 31.4825 38.8303 72.1449 0.0000 17.6006 0.0000
# 4 0.0000 0.0000 0.0000 28.1888 0.0000 4.0338
# 5 24.3516 16.3032 17.6006 0.0000 36.8284 0.0000
# 6 0.0000 0.0000 0.0000 4.0338 0.0000 30.5518
#
#
#
# Elastic Compliance Matrix: (Units=1/GPa)
#
#
# Indices 1 2 3 4 5 6 
#
# 1 0.011702 -0.001046 -0.003134 0.000000 -0.005777 0.000000
# 2 -0.001046 0.009054 -0.004084 0.000000 -0.001365 0.000000
# 3 -0.003134 -0.004084 0.018655 0.000000 -0.005035 0.000000
# 4 0.000000 0.000000 0.000000 0.036158 0.000000 -0.004774
# 5 -0.005777 -0.001365 -0.005035 0.000000 0.033983 0.000000
# 6 0.000000 0.000000 0.000000 -0.004774 0.000000 0.033362
#
#
# Mechanical properties :
#
#
# Convention : Reuss Voigt Hill
#
# Bulk Modulus (GPa) = 43.69983 57.35142 50.52562
# Shear Modulus (GPa) = 29.92745 33.37846 31.65296
#
# Velocity S-wave (km/s) = 3.68301 3.88957 3.78770
# Velocity P-wave (km/s) = 6.15573 6.79456 6.48302
#
# Compressibility (1/GPa) = 0.02288339
#
# Stress axis : x y z
#
# Youngs Moduli (GPa) = 85.45613 110.44234 53.60425
#
# Poissons Ratio (x) = 0.11551 0.16801
# Poissons Ratio (y) = 0.08937 0.21892
# Poissons Ratio (z) = 0.26784 0.45105
#
# Static dielectric constant tensor:
#      x y z
#    x 1.765360 0.000000 -0.035190 
#    y 0.000000 2.321700 0.000000 
#    z -0.035190 0.000000 2.014680 
# 
# From -- ./inp_files/7493.got.cif
#   From: 2010.05.17/outbox.cif.g08.bks.cpg/sg11_4_cif.got.tgz:7493.got - 2010.06.03 12:22:45.
