data_PCOD9165154
_publ_section_title
;
Structure prediction by ZEFSAII (Michael W. Deem and Ramdas Pophale) SiO2 
 PCOD9165154
Probable space group: P 21/M
;
_chemical_formula_sum "Si O2"
_cell_formula_units_Z 28
_cell_length_a 14.801356
_cell_length_b 8.868200
_cell_length_c 13.390041
_cell_angle_alpha 90.000000
_cell_angle_beta 123.658493
_cell_angle_gamma 90.000000
_cell_volume 1462.944759
_symmetry_space_group_name_H-M "P 21/M"
_symmetry_group_IT_number 11
_symmetry_cell_setting 'monoclinic'
loop_
_space_group_symop_operation_xyz
x,y,z
-x,1/2+y,-z
-x,-y,-z
x,1/2-y,z
loop_
_atom_site_type_symbol
_atom_site_label
_atom_site_fract_x
_atom_site_fract_y
_atom_site_fract_z
Si Si1 0.599326 0.929726 0.499982
Si Si2 0.246489 0.070039 0.787456
Si Si3 0.835110 0.929955 0.734139
Si Si4 0.957069 0.930938 0.209977
Si Si5 0.390790 0.570760 0.712846
Si Si6 0.370401 0.069840 0.068058
Si Si7 0.825978 0.429669 0.944536
O O1 0.586592 0.750000 0.489505
O O2 0.713694 0.963964 0.623435
O O3 0.500000 0.000000 0.500000
O O4 0.603644 0.993744 0.391108
O O5 0.250792 0.250000 0.774284
O O6 0.125660 0.030325 0.751060
O O7 0.291531 0.987222 0.718645
O O8 0.325041 0.034910 0.930070
O O9 0.847822 0.750000 0.750304
O O10 0.852837 0.005876 0.852519
O O11 0.924719 0.996296 0.713997
O O12 0.963344 0.750000 0.207310
O O13 0.900557 0.994726 0.075042
O O14 0.384815 0.750000 0.696709
O O15 0.503617 0.535746 0.839490
O O16 0.353575 0.250000 0.074121
O O17 0.296017 0.979685 0.100418
O O18 0.837776 0.250000 0.954104
#
# Coordination Sequence:
#
# PCOD9165154 Si02
#       7
#     4   4   4   4   4   4   4
#     4  11  25  43  62  84 113 147 186 232 280 330
#     4   9  19  36  57  82 115 149 183 227 280 333
#     4  11  23  39  58  81 111 148 189 234 280 330
#     4  10  21  38  59  84 115 149 185 230 280 332
#     4  11  22  36  58  85 114 149 190 233 279 332
#     4   9  19  35  54  82 118 152 186 230 280 330
#     4  11  21  33  55  86 117 150 186 228 279 337
#
# _framework density 19.139479000000001
#
# number of rings (size 3 to 8) (size 9 to 14) (size 15 to 20)
#    0.000    1.714    0.000    5.571    0.000    9.714 
#    0.000    0.714    0.000    0.000    0.000    0.000 
#    0.000    0.000    0.000    0.000    0.000    0.000 
#
# Total GULP energy -156513.460513 kJ/mol
# GULP energy per Si atom -5589.766447 kJ/mol
# Density = 1.909592 g / cm^3
# Si number density = 19.139479 Si / 1000 Ang^3
#
#
#
# Elastic Constant Matrix: (Units=GPa)
#
#
# Indices 1 2 3 4 5 6 
#
# 1 176.8033 67.7734 58.2913 0.0000 -2.4997 0.0000
# 2 67.7734 54.9311 31.5087 0.0000 4.3497 0.0000
# 3 58.2913 31.5087 41.4083 0.0000 -8.3633 0.0000
# 4 0.0000 0.0000 0.0000 25.0759 0.0000 -3.3835
# 5 -2.4997 4.3497 -8.3633 0.0000 25.4390 0.0000
# 6 0.0000 0.0000 0.0000 -3.3835 0.0000 38.8299
#
#
#
# Elastic Compliance Matrix: (Units=1/GPa)
#
#
# Indices 1 2 3 4 5 6 
#
# 1 0.012994 -0.009568 -0.011164 0.000000 -0.000758 0.000000
# 2 -0.009568 0.045326 -0.024397 0.000000 -0.016711 0.000000
# 3 -0.011164 -0.024397 0.063251 0.000000 0.023869 0.000000
# 4 0.000000 0.000000 0.000000 0.040353 0.000000 0.003516
# 5 -0.000758 -0.016711 0.023869 0.000000 0.049940 0.000000
# 6 0.000000 0.000000 0.000000 0.003516 0.000000 0.026060
#
#
# Mechanical properties :
#
#
# Convention : Reuss Voigt Hill
#
# Bulk Modulus (GPa) = 31.93489 65.36552 48.65020
# Shear Modulus (GPa) = 14.76592 25.57356 20.16974
#
# Velocity S-wave (km/s) = 2.78058 3.65933 3.24980
# Velocity P-wave (km/s) = 5.19908 7.21669 6.28932
#
# Compressibility (1/GPa) = 0.03131372
#
# Stress axis : x y z
#
# Youngs Moduli (GPa) = 76.96138 22.06232 15.81014
#
# Poissons Ratio (x) = 0.21108 0.17651
# Poissons Ratio (y) = 0.73633 0.38571
# Poissons Ratio (z) = 0.85921 0.53825
#
# Static dielectric constant tensor:
#      x y z
#    x 1.676990 0.000000 0.022450 
#    y 0.000000 1.635140 0.000000 
#    z 0.022450 0.000000 1.647150 
# 
# From -- ./inp_files/38415.got.cif
#   From: 2010.05.17/outbox.cif.g08.bks.cpg/sg11_20_cif.got.tgz:38415.got - 2010.06.03 12:22:45.
