data_PCOD9165475
_publ_section_title
;
Structure prediction by ZEFSAII (Michael W. Deem and Ramdas Pophale) SiO2 
 PCOD9165475
Probable space group: P 21/M
;
_chemical_formula_sum "Si O2"
_cell_formula_units_Z 32
_cell_length_a 15.783509
_cell_length_b 8.565030
_cell_length_c 12.049873
_cell_angle_alpha 90.000000
_cell_angle_beta 86.082744
_cell_angle_gamma 90.000000
_cell_volume 1625.171181
_symmetry_space_group_name_H-M "P 21/M"
_symmetry_group_IT_number 11
_symmetry_cell_setting 'monoclinic'
loop_
_space_group_symop_operation_xyz
x,y,z
-x,1/2+y,-z
-x,-y,-z
x,1/2-y,z
loop_
_atom_site_type_symbol
_atom_site_label
_atom_site_fract_x
_atom_site_fract_y
_atom_site_fract_z
Si Si1 0.424955 0.436294 0.753202
Si Si2 0.156802 0.062512 0.011976
Si Si3 0.232587 0.436853 0.393094
Si Si4 0.920046 0.939712 0.743126
Si Si5 0.896836 0.439022 0.212143
Si Si6 0.267238 0.563406 0.634139
Si Si7 0.386645 0.938440 0.233624
Si Si8 0.652025 0.436544 0.015012
O O1 0.422535 0.250000 0.745879
O O2 0.355961 0.504608 0.675449
O O3 0.522165 0.487090 0.725964
O O4 0.397534 0.485621 0.879453
O O5 0.162455 0.250000 0.009604
O O6 0.102766 0.004330 0.912285
O O7 0.250386 0.990843 0.990862
O O8 0.117781 0.014261 0.133620
O O9 0.229842 0.250000 0.401759
O O10 0.143843 0.493512 0.346962
O O11 0.250654 0.506892 0.511507
O O12 0.308213 0.484705 0.303500
O O13 0.919138 0.750000 0.740485
O O14 0.018118 0.988600 0.730755
O O15 0.896097 0.250000 0.206297
O O16 0.810800 0.491032 0.280877
O O17 0.267650 0.750000 0.636623
O O18 0.378880 0.750000 0.243262
O O19 0.383602 0.977733 0.103198
O O20 0.648375 0.250000 0.029096
#
# Coordination Sequence:
#
# PCOD9165475 Si02
#       8
#     4   4   4   4   4   4   4   4
#     4  11  23  40  63  90 121 156 197 246 294 352
#     4  11  20  34  59  90 123 157 195 241 292 352
#     4  11  23  41  64  87 116 157 202 251 299 350
#     4   9  20  38  60  89 121 155 196 244 298 349
#     4  10  21  39  61  86 121 159 197 243 295 354
#     4  11  24  41  61  86 118 158 202 249 299 353
#     4  10  23  41  62  90 122 156 196 243 298 355
#     4  11  21  36  60  90 124 159 192 237 297 358
#
# _framework density 19.690232000000002
#
# number of rings (size 3 to 8) (size 9 to 14) (size 15 to 20)
#    0.000    1.500    2.500    2.625    0.000    3.000 
#    0.000    1.875    0.000    0.000    0.000    0.000 
#    0.000    0.000    0.000    0.000    0.000    0.000 
#
# Total GULP energy -178865.099946 kJ/mol
# GULP energy per Si atom -5589.534373 kJ/mol
# Density = 1.964542 g / cm^3
# Si number density = 19.690232 Si / 1000 Ang^3
#
#
#
# Elastic Constant Matrix: (Units=GPa)
#
#
# Indices 1 2 3 4 5 6 
#
# 1 122.5016 21.5358 26.0907 0.0000 37.6725 0.0000
# 2 21.5358 22.6893 22.6201 0.0000 14.7613 0.0000
# 3 26.0907 22.6201 85.1119 0.0000 38.2458 0.0000
# 4 0.0000 0.0000 0.0000 30.2244 0.0000 3.5387
# 5 37.6725 14.7613 38.2458 0.0000 14.8974 0.0000
# 6 0.0000 0.0000 0.0000 3.5387 0.0000 22.5918
#
#
#
# Elastic Compliance Matrix: (Units=1/GPa)
#
#
# Indices 1 2 3 4 5 6 
#
# 1 0.004221 -0.010870 -0.010101 0.000000 0.026027 0.000000
# 2 -0.010870 0.066584 -0.019081 0.000000 0.010497 0.000000
# 3 -0.010101 -0.019081 0.000371 0.000000 0.043496 0.000000
# 4 0.000000 0.000000 0.000000 0.033704 0.000000 -0.005279
# 5 0.026027 0.010497 0.043496 0.000000 -0.120759 0.000000
# 6 0.000000 0.000000 0.000000 -0.005279 0.000000 0.045091
#
#
# Mechanical properties :
#
#
# Convention : Reuss Voigt Hill
#
# Bulk Modulus (GPa) = -112.03868 41.19955 -35.41957
# Shear Modulus (GPa) = 47.01898 24.21313 35.61605
#
# Velocity S-wave (km/s) = 4.89195 3.51052 4.25763
# Velocity P-wave (km/s) = 5.01158 6.11563 2.47840
#
# Compressibility (1/GPa) = -0.00892549
#
# Stress axis : x y z
#
# Youngs Moduli (GPa) = 236.89706 15.01861 2692.01755
#
# Poissons Ratio (x) = 0.16325 27.19157
# Poissons Ratio (y) = 2.57498 51.36557
# Poissons Ratio (z) = 2.39285 0.28657
#
# Static dielectric constant tensor:
#      x y z
#    x 1.703880 0.000000 0.012040 
#    y 0.000000 1.672520 0.000000 
#    z 0.012040 0.000000 1.662840 
# 
# From -- ./inp_files/38082.got.cif
#   From: 2010.05.17/outbox.cif.g08.bks.cpg/sg11_20_cif.got.tgz:38082.got - 2010.06.03 12:22:45.
