data_PCOD9165639
_publ_section_title
;
Structure prediction by ZEFSAII (Michael W. Deem and Ramdas Pophale) SiO2 
 PCOD9165639
Probable space group: P 21/M
;
_chemical_formula_sum "Si O2"
_cell_formula_units_Z 32
_cell_length_a 31.707556
_cell_length_b 8.757468
_cell_length_c 12.236461
_cell_angle_alpha 90.000000
_cell_angle_beta 150.146485
_cell_angle_gamma 90.000000
_cell_volume 1691.368770
_symmetry_space_group_name_H-M "P 21/M"
_symmetry_group_IT_number 11
_symmetry_cell_setting 'monoclinic'
loop_
_space_group_symop_operation_xyz
x,y,z
-x,1/2+y,-z
-x,-y,-z
x,1/2-y,z
loop_
_atom_site_type_symbol
_atom_site_label
_atom_site_fract_x
_atom_site_fract_y
_atom_site_fract_z
Si Si1 0.593800 0.066976 0.697956
Si Si2 0.252149 0.932690 0.806013
Si Si3 0.276411 0.069625 0.629517
Si Si4 0.770863 0.431786 0.707770
Si Si5 0.477404 0.068674 0.067290
Si Si6 0.922140 0.932605 0.181753
Si Si7 0.625660 0.932202 0.537786
Si Si8 0.106584 0.432411 0.630183
O O1 0.588781 0.250000 0.680399
O O2 0.500000 0.000000 0.500000
O O3 0.633725 0.002549 0.676058
O O4 0.656041 0.025173 0.937338
O O5 0.248476 0.750000 0.789021
O O6 0.239733 0.006982 0.660040
O O7 0.181590 0.990866 0.731549
O O8 0.260611 0.250000 0.582715
O O9 0.242321 0.984707 0.446090
O O10 0.377912 0.046338 0.862418
O O11 0.765463 0.250000 0.703745
O O12 0.696908 0.505705 0.615686
O O13 0.859270 0.491861 0.954354
O O14 0.495665 0.250000 0.110024
O O15 0.535495 0.985118 0.286436
O O16 0.500000 0.000000 0.000000
O O17 0.924967 0.750000 0.173769
O O18 0.887532 0.964042 0.226698
O O19 0.016208 0.001348 0.389055
O O20 0.630407 0.750000 0.553519
O O21 0.108352 0.250000 0.619563
#
# Coordination Sequence:
#
# PCOD9165639 Si02
#       8
#     4   4   4   4   4   4   4   4
#     4  11  24  41  61  88 122 160 204 252 305 362
#     4  11  24  41  62  88 121 162 205 249 301 361
#     4  11  24  41  61  86 119 160 205 251 303 364
#     4  12  24  39  61  89 122 157 200 251 304 359
#     4  11  22  37  59  85 117 157 203 253 304 359
#     4  10  21  39  65  95 127 157 194 246 302 359
#     4  12  24  38  59  87 121 159 204 253 306 361
#     4  10  21  39  65  95 124 159 199 242 297 360
#
# _framework density 18.919587
#
# number of rings (size 3 to 8) (size 9 to 14) (size 15 to 20)
#    0.000    1.000    1.250    6.000    0.000    9.000 
#    0.000    0.625    0.000    0.000    0.000    0.000 
#    0.000    0.000    0.000    0.000    0.000    0.000 
#
# Total GULP energy -179074.662806 kJ/mol
# GULP energy per Si atom -5596.083213 kJ/mol
# Density = 1.887653 g / cm^3
# Si number density = 18.919587 Si / 1000 Ang^3
#
#
#
# Elastic Constant Matrix: (Units=GPa)
#
#
# Indices 1 2 3 4 5 6 
#
# 1 72.8353 18.1057 30.9264 0.0000 -4.7628 0.0000
# 2 18.1057 72.9929 43.1700 0.0000 -5.9936 0.0000
# 3 30.9264 43.1700 100.9645 0.0000 -14.2151 0.0000
# 4 0.0000 0.0000 0.0000 30.9962 0.0000 -1.3961
# 5 -4.7628 -5.9936 -14.2151 0.0000 31.6905 0.0000
# 6 0.0000 0.0000 0.0000 -1.3961 0.0000 34.9043
#
#
#
# Elastic Compliance Matrix: (Units=1/GPa)
#
#
# Indices 1 2 3 4 5 6 
#
# 1 0.015893 -0.001423 -0.004228 0.000000 0.000223 0.000000
# 2 -0.001423 0.018465 -0.007469 0.000000 -0.000072 0.000000
# 3 -0.004228 -0.007469 0.015056 0.000000 0.004705 0.000000
# 4 0.000000 0.000000 0.000000 0.032320 0.000000 0.001293
# 5 0.000223 -0.000072 0.004705 0.000000 0.033686 0.000000
# 6 0.000000 0.000000 0.000000 0.001293 0.000000 0.028701
#
#
# Mechanical properties :
#
#
# Convention : Reuss Voigt Hill
#
# Bulk Modulus (GPa) = 43.15540 47.91077 45.53309
# Shear Modulus (GPa) = 28.07620 29.82423 28.95022
#
# Velocity S-wave (km/s) = 3.85642 3.97466 3.91598
# Velocity P-wave (km/s) = 6.53366 6.81485 6.67574
#
# Compressibility (1/GPa) = 0.02317207
#
# Stress axis : x y z
#
# Youngs Moduli (GPa) = 62.91933 54.15783 66.41966
#
# Poissons Ratio (x) = 0.07708 0.28085
# Poissons Ratio (y) = 0.08955 0.49610
# Poissons Ratio (z) = 0.26605 0.40452
#
# Static dielectric constant tensor:
#      x y z
#    x 1.633910 0.000000 -0.004940 
#    y 0.000000 1.626650 0.000000 
#    z -0.004940 0.000000 1.646710 
# 
# From -- ./inp_files/45321.got.cif
#   From: 2010.05.17/outbox.cif.g08.bks.cpg/sg11_23_cif.got.tgz:45321.got - 2010.06.03 12:22:45.
