data_PCOD9165463
_publ_section_title
;
Structure prediction by ZEFSAII (Michael W. Deem and Ramdas Pophale) SiO2 
 PCOD9165463
Probable space group: P 21/M
;
_chemical_formula_sum "Si O2"
_cell_formula_units_Z 12
_cell_length_a 10.823033
_cell_length_b 11.708835
_cell_length_c 9.086632
_cell_angle_alpha 90.000000
_cell_angle_beta 27.183144
_cell_angle_gamma 90.000000
_cell_volume 526.048957
_symmetry_space_group_name_H-M "P 21/M"
_symmetry_group_IT_number 11
_symmetry_cell_setting 'monoclinic'
loop_
_space_group_symop_operation_xyz
x,y,z
-x,1/2+y,-z
-x,-y,-z
x,1/2-y,z
loop_
_atom_site_type_symbol
_atom_site_label
_atom_site_fract_x
_atom_site_fract_y
_atom_site_fract_z
Si Si1 0.490150 0.875169 0.227278
Si Si2 0.973253 0.503431 0.854475
Si Si3 0.114662 0.122258 0.438103
O O1 0.558589 0.750000 0.212924
O O2 0.177120 0.898470 0.581409
O O3 0.590579 0.877931 0.951550
O O4 0.670639 0.966399 0.124184
O O5 0.082822 0.394880 0.646510
O O6 0.000000 0.500000 0.000000
O O7 0.004077 0.250000 0.518544
O O8 0.000000 0.000000 0.500000
#
# Coordination Sequence:
#
# PCOD9165463 Si02
#       3
#     4   4   4
#     4  10  21  39  61  84 118 162 206 251 307 370
#     4  11  22  38  59  91 124 159 203 259 313 369
#     4   9  20  39  63  91 123 165 212 258 307 369
#
# _framework density 22.811565000000002
#
# number of rings (size 3 to 8) (size 9 to 14) (size 15 to 20)
#    0.000    2.000    0.000    3.000    0.000    4.000 
#    0.000   13.333    0.000    0.000    0.000    0.000 
#    0.000    0.000    0.000    0.000    0.000    0.000 
#
# Total GULP energy -66843.983480 kJ/mol
# GULP energy per Si atom -5570.331957 kJ/mol
# Density = 2.275965 g / cm^3
# Si number density = 22.811565 Si / 1000 Ang^3
#
#
#
# Elastic Constant Matrix: (Units=GPa)
#
#
# Indices 1 2 3 4 5 6 
#
# 1 85.8614 31.3902 26.0236 0.0000 25.0470 0.0000
# 2 31.3902 145.2110 36.5468 0.0000 13.4615 0.0000
# 3 26.0236 36.5468 80.0350 0.0000 17.9006 0.0000
# 4 0.0000 0.0000 0.0000 24.5468 0.0000 -6.1563
# 5 25.0470 13.4615 17.9006 0.0000 45.6701 0.0000
# 6 0.0000 0.0000 0.0000 -6.1563 0.0000 23.9941
#
#
#
# Elastic Compliance Matrix: (Units=1/GPa)
#
#
# Indices 1 2 3 4 5 6 
#
# 1 0.015094 -0.002015 -0.002487 0.000000 -0.006709 0.000000
# 2 -0.002015 0.008091 -0.003018 0.000000 -0.000097 0.000000
# 3 -0.002487 -0.003018 0.015539 0.000000 -0.003837 0.000000
# 4 0.000000 0.000000 0.000000 0.043540 0.000000 0.011171
# 5 -0.006709 -0.000097 -0.003837 0.000000 0.027108 0.000000
# 6 0.000000 0.000000 0.000000 0.011171 0.000000 0.044543
#
#
# Mechanical properties :
#
#
# Convention : Reuss Voigt Hill
#
# Bulk Modulus (GPa) = 42.22112 55.44761 48.83437
# Shear Modulus (GPa) = 28.27239 33.31866 30.79552
#
# Velocity S-wave (km/s) = 3.52431 3.82593 3.67822
# Velocity P-wave (km/s) = 5.92536 6.62394 6.28436
#
# Compressibility (1/GPa) = 0.02368483
#
# Stress axis : x y z
#
# Youngs Moduli (GPa) = 66.24952 123.60088 64.35239
#
# Poissons Ratio (x) = 0.24905 0.16006
# Poissons Ratio (y) = 0.13349 0.19419
# Poissons Ratio (z) = 0.16478 0.37298
#
# Static dielectric constant tensor:
#      x y z
#    x 1.951280 0.000000 0.039980 
#    y 0.000000 1.889570 0.000000 
#    z 0.039980 0.000000 1.843620 
# 
# From -- ./inp_files/1112.got.cif
#   From: 2010.05.17/outbox.cif.g08.bks.cpg/sg11_1_cif.got.tgz:1112.got - 2010.06.03 12:22:45.
