data_PCOD9165595
_publ_section_title
;
Structure prediction by ZEFSAII (Michael W. Deem and Ramdas Pophale) SiO2 
 PCOD9165595
Probable space group: P 21/M
;
_chemical_formula_sum "Si O2"
_cell_formula_units_Z 26
_cell_length_a 20.794434
_cell_length_b 9.364722
_cell_length_c 12.237319
_cell_angle_alpha 90.000000
_cell_angle_beta 29.104754
_cell_angle_gamma 90.000000
_cell_volume 1159.121270
_symmetry_space_group_name_H-M "P 21/M"
_symmetry_group_IT_number 11
_symmetry_cell_setting 'monoclinic'
loop_
_space_group_symop_operation_xyz
x,y,z
-x,1/2+y,-z
-x,-y,-z
x,1/2-y,z
loop_
_atom_site_type_symbol
_atom_site_label
_atom_site_fract_x
_atom_site_fract_y
_atom_site_fract_z
Si Si1 0.269035 0.916455 0.544186
Si Si2 0.938041 0.750000 0.585269
Si Si3 0.683694 0.087498 0.766753
Si Si4 0.573428 0.914262 0.124201
Si Si5 0.026816 0.973750 0.616881
Si Si6 0.619689 0.083748 0.265307
Si Si7 0.119129 0.918021 0.971844
O O1 0.232657 0.750000 0.580926
O O2 0.290746 0.976695 0.391319
O O3 0.415951 0.915216 0.378440
O O4 0.165000 0.975847 0.785523
O O5 0.963558 0.626121 0.454511
O O6 0.929827 0.874291 0.692768
O O7 0.629383 0.250000 0.839038
O O8 0.828115 0.094501 0.606399
O O9 0.599329 0.984660 0.968486
O O10 0.622805 0.750000 0.052060
O O11 0.639652 0.009792 0.118587
O O12 0.986352 0.992951 0.803143
O O13 0.584478 0.250000 0.303042
O O14 0.749997 0.077615 0.145911
O O15 0.500000 0.000000 0.500000
O O16 0.081975 0.750000 0.016915
#
# Coordination Sequence:
#
# PCOD9165595 Si02
#       7
#     4   2   4   4   4   4   4
#     4   9  20  42  63  87 123 165 209 256 310 368
#     4  10  24  40  60  88 130 154 200 258 298 370
#     4  11  24  41  64  89 123 167 211 258 310 371
#     4  11  23  39  65  93 123 162 211 265 314 367
#     4  11  23  40  64  93 123 163 207 247 315 370
#     4  11  22  38  62  93 128 162 205 249 312 373
#     4  10  21  39  64  89 124 167 201 250 309 368
#
# _framework density 22.430785
#
# number of rings (size 3 to 8) (size 9 to 14) (size 15 to 20)
#    0.000    1.538    3.077    1.385    5.385    0.615 
#    1.385    0.769    1.692    0.000    0.000    0.000 
#    0.000    0.000    0.000    0.000    0.000    0.000 
#
# Total GULP energy -144817.778727 kJ/mol
# GULP energy per Si atom -5569.914566 kJ/mol
# Density = 2.237973 g / cm^3
# Si number density = 22.430785 Si / 1000 Ang^3
#
#
#
# Elastic Constant Matrix: (Units=GPa)
#
#
# Indices 1 2 3 4 5 6 
#
# 1 46.4720 22.4949 20.0655 0.0000 25.3960 0.0000
# 2 22.4949 119.0540 21.3819 0.0000 13.8361 0.0000
# 3 20.0655 21.3819 108.9642 0.0000 33.7842 0.0000
# 4 0.0000 0.0000 0.0000 4.8656 0.0000 14.9940
# 5 25.3960 13.8361 33.7842 0.0000 50.9528 0.0000
# 6 0.0000 0.0000 0.0000 14.9940 0.0000 18.9391
#
#
#
# Elastic Compliance Matrix: (Units=1/GPa)
#
#
# Indices 1 2 3 4 5 6 
#
# 1 0.031571 -0.004210 -0.000583 0.000000 -0.014206 0.000000
# 2 -0.004210 0.009366 -0.001164 0.000000 0.000327 0.000000
# 3 -0.000583 -0.001164 0.011738 0.000000 -0.007176 0.000000
# 4 0.000000 0.000000 0.000000 -0.142753 0.000000 0.113017
# 5 -0.014206 0.000327 -0.007176 0.000000 0.031376 0.000000
# 6 0.000000 0.000000 0.000000 0.113017 0.000000 -0.036675
#
#
# Mechanical properties :
#
#
# Convention : Reuss Voigt Hill
#
# Bulk Modulus (GPa) = 24.53273 44.70829 34.62051
# Shear Modulus (GPa) = -71.55522 28.98801 -21.28361
#
# Velocity S-wave (km/s) = -5.65418 3.59880 -3.08369
# Velocity P-wave (km/s) = 5.62721 6.10274 1.67003
#
# Compressibility (1/GPa) = 0.04076187
#
# Stress axis : x y z
#
# Youngs Moduli (GPa) = 31.67458 106.76889 85.19269
#
# Poissons Ratio (x) = 0.44945 0.04968
# Poissons Ratio (y) = 0.13334 0.09916
# Poissons Ratio (z) = 0.01847 0.12427
#
# Static dielectric constant tensor:
#      x y z
#    x 1.914840 0.000000 -0.026130 
#    y 0.000000 1.776730 0.000000 
#    z -0.026130 0.000000 1.865960 
# 
# From -- ./inp_files/43910.got.cif
#   From: 2010.05.17/outbox.cif.g08.bks.cpg/sg11_22_cif.got.tgz:43910.got - 2010.06.03 12:22:45.
