data_PCOD9165052
_publ_section_title
;
Structure prediction by ZEFSAII (Michael W. Deem and Ramdas Pophale) SiO2 
 PCOD9165052
Probable space group: P 21/M
;
_chemical_formula_sum "Si O2"
_cell_formula_units_Z 32
_cell_length_a 12.860630
_cell_length_b 11.455354
_cell_length_c 12.860607
_cell_angle_alpha 90.000000
_cell_angle_beta 113.615692
_cell_angle_gamma 90.000000
_cell_volume 1735.991755
_symmetry_space_group_name_H-M "P 21/M"
_symmetry_group_IT_number 11
_symmetry_cell_setting 'monoclinic'
loop_
_space_group_symop_operation_xyz
x,y,z
-x,1/2+y,-z
-x,-y,-z
x,1/2-y,z
loop_
_atom_site_type_symbol
_atom_site_label
_atom_site_fract_x
_atom_site_fract_y
_atom_site_fract_z
Si Si1 0.839568 0.000001 0.839568
Si Si2 0.602281 0.120998 0.786319
Si Si3 0.018401 0.878613 0.568964
Si Si4 0.431037 0.621387 0.981600
Si Si5 0.913142 0.888448 0.086858
Si Si6 0.213679 0.379003 0.397717
Si Si7 0.648792 0.892867 0.351209
Si Si8 0.219477 0.523072 0.780524
O O1 0.723686 0.069167 0.810704
O O2 0.954392 0.073305 0.863574
O O3 0.810703 0.930835 0.723686
O O4 0.863575 0.926698 0.954392
O O5 0.599501 0.250000 0.738306
O O6 0.481808 0.065220 0.705900
O O7 0.596067 0.127984 0.907945
O O8 0.025697 0.750000 0.517076
O O9 0.907947 0.872017 0.596070
O O10 0.128846 0.899005 0.682920
O O11 0.000000 0.000000 0.500000
O O12 0.482924 0.750000 0.974302
O O13 0.317079 0.600995 0.871155
O O14 0.500000 0.500000 0.000000
O O15 0.903689 0.750000 0.096309
O O16 0.846094 0.952912 0.153907
O O17 0.261692 0.250000 0.400497
O O18 0.294098 0.434779 0.518191
O O19 0.652301 0.750000 0.347699
O O20 0.719508 0.939794 0.280491
#
# Coordination Sequence:
#
# PCOD9165052 Si02
#       8
#     4   4   4   4   4   4   4   4
#     4  11  22  41  58  84 120 165 214 255 308 362
#     4  10  21  39  61  86 121 162 205 253 308 369
#     4  11  23  40  63  94 128 166 205 253 314 374
#     4  11  23  40  63  94 128 166 205 253 314 374
#     4  11  24  37  58  92 125 162 208 259 313 372
#     4  10  21  39  61  86 121 162 205 253 308 369
#     4  10  21  37  63  92 121 157 204 252 311 373
#     4  12  21  39  61  94 125 160 197 260 311 371
#
# _framework density 18.433268000000002
#
# number of rings (size 3 to 8) (size 9 to 14) (size 15 to 20)
#    0.000    1.250    5.000    1.500    0.000    1.500 
#    0.000    0.000    0.000    0.000    0.000    0.000 
#    0.000    0.000    0.000    0.000    0.000    0.000 
#
# Total GULP energy -178223.622444 kJ/mol
# GULP energy per Si atom -5569.488201 kJ/mol
# Density = 1.839131 g / cm^3
# Si number density = 18.433268 Si / 1000 Ang^3
#
#
#
# Elastic Constant Matrix: (Units=GPa)
#
#
# Indices 1 2 3 4 5 6 
#
# 1 100.3153 42.0866 52.8267 0.0000 11.4475 0.0000
# 2 42.0866 112.4492 37.6293 0.0000 -6.1211 0.0000
# 3 52.8267 37.6293 122.6843 0.0000 19.2894 0.0000
# 4 0.0000 0.0000 0.0000 25.7676 0.0000 0.6087
# 5 11.4475 -6.1211 19.2894 0.0000 38.6828 0.0000
# 6 0.0000 0.0000 0.0000 0.6087 0.0000 25.3262
#
#
#
# Elastic Compliance Matrix: (Units=1/GPa)
#
#
# Indices 1 2 3 4 5 6 
#
# 1 0.014328 -0.003986 -0.004537 0.000000 -0.002609 0.000000
# 2 -0.003986 0.011435 -0.002453 0.000000 0.004212 0.000000
# 3 -0.004537 -0.002453 0.011618 0.000000 -0.004839 0.000000
# 4 0.000000 0.000000 0.000000 0.038830 0.000000 -0.000933
# 5 -0.002609 0.004212 -0.004839 0.000000 0.029703 0.000000
# 6 0.000000 0.000000 0.000000 -0.000933 0.000000 0.039507
#
#
# Mechanical properties :
#
#
# Convention : Reuss Voigt Hill
#
# Bulk Modulus (GPa) = 64.81598 66.72598 65.77098
# Shear Modulus (GPa) = 28.98288 31.48242 30.23265
#
# Velocity S-wave (km/s) = 3.96954 4.13717 4.05423
# Velocity P-wave (km/s) = 7.49990 7.68758 7.59432
#
# Compressibility (1/GPa) = 0.01542829
#
# Stress axis : x y z
#
# Youngs Moduli (GPa) = 69.79498 87.45005 86.07620
#
# Poissons Ratio (x) = 0.34861 0.39049
# Poissons Ratio (y) = 0.27823 0.21116
# Poissons Ratio (z) = 0.31663 0.21453
#
# Static dielectric constant tensor:
#      x y z
#    x 1.575390 0.000000 0.061370 
#    y 0.000000 1.706410 0.000000 
#    z 0.061370 0.000000 1.620060 
# 
# From -- ./inp_files/35094.got.cif
#   From: 2010.05.17/outbox.cif.g08.bks.cpg/sg11_18_cif.got.tgz:35094.got - 2010.06.03 12:22:45.
