data_PCOD9165638
_publ_section_title
;
Structure prediction by ZEFSAII (Michael W. Deem and Ramdas Pophale) SiO2 
 PCOD9165638
Probable space group: P 21/M
;
_chemical_formula_sum "Si O2"
_cell_formula_units_Z 26
_cell_length_a 7.081650
_cell_length_b 24.904042
_cell_length_c 6.358028
_cell_angle_alpha 90.000000
_cell_angle_beta 78.128220
_cell_angle_gamma 90.000000
_cell_volume 1097.328286
_symmetry_space_group_name_H-M "P 21/M"
_symmetry_group_IT_number 11
_symmetry_cell_setting 'monoclinic'
loop_
_space_group_symop_operation_xyz
x,y,z
-x,1/2+y,-z
-x,-y,-z
x,1/2-y,z
loop_
_atom_site_type_symbol
_atom_site_label
_atom_site_fract_x
_atom_site_fract_y
_atom_site_fract_z
Si Si1 0.168788 0.635812 0.731332
Si Si2 0.393772 0.477480 0.317218
Si Si3 0.287859 0.563598 0.059071
Si Si4 0.318857 0.250000 0.199540
Si Si5 0.511215 0.359893 0.664306
Si Si6 0.933691 0.250000 0.051694
Si Si7 0.349407 0.750000 0.199363
Si Si8 0.794925 0.637078 0.554429
O O1 0.372265 0.623412 0.573057
O O2 0.150157 0.695834 0.825883
O O3 0.014937 0.633562 0.577023
O O4 0.144230 0.596091 0.937963
O O5 0.500000 0.500000 0.500000
O O6 0.242296 0.520723 0.253105
O O7 0.288421 0.420346 0.352672
O O8 0.578401 0.469440 0.127611
O O9 0.421958 0.606148 0.152077
O O10 0.284409 0.193717 0.330304
O O11 0.159639 0.250000 0.050174
O O12 0.525687 0.250000 0.043261
O O13 0.588512 0.301080 0.687375
O O14 0.284223 0.361124 0.666553
O O15 0.872050 0.250000 0.822096
#
# Coordination Sequence:
#
# PCOD9165638 Si02
#       8
#     4   4   4   2   4   2   2   4
#     4  11  23  43  63  96 134 170 219 265 329 388
#     4  11  22  43  70  95 131 169 219 276 322 381
#     4  11  22  41  69  92 127 171 217 271 320 386
#     4  10  23  41  65 102 130 164 223 259 323 396
#     4  12  23  41  64  99 130 167 224 264 321 391
#     4  10  21  39  65  94 135 170 210 274 318 386
#     4  12  22  36  70  96 125 182 213 261 333 384
#     4  11  23  43  68  93 135 173 206 277 322 381
#
# _framework density 23.693913999999999
#
# number of rings (size 3 to 8) (size 9 to 14) (size 15 to 20)
#    0.000    0.923    4.615    2.769    0.000    1.846 
#    2.769    3.077    0.000    0.000    0.000    0.000 
#    0.000    0.000    0.000    0.000    0.000    0.000 
#
# Total GULP energy -145113.824291 kJ/mol
# GULP energy per Si atom -5581.300934 kJ/mol
# Density = 2.363999 g / cm^3
# Si number density = 23.693914 Si / 1000 Ang^3
#
#
#
# Elastic Constant Matrix: (Units=GPa)
#
#
# Indices 1 2 3 4 5 6 
#
# 1 78.8032 16.2703 25.6881 0.0000 39.0565 0.0000
# 2 16.2703 125.2145 36.7213 0.0000 4.4386 0.0000
# 3 25.6881 36.7213 71.9656 0.0000 32.7088 0.0000
# 4 0.0000 0.0000 0.0000 26.4770 0.0000 3.4238
# 5 39.0565 4.4386 32.7088 0.0000 38.3880 0.0000
# 6 0.0000 0.0000 0.0000 3.4238 0.0000 17.8565
#
#
#
# Elastic Compliance Matrix: (Units=1/GPa)
#
#
# Indices 1 2 3 4 5 6 
#
# 1 0.028796 -0.005013 0.008701 0.000000 -0.036132 0.000000
# 2 -0.005013 0.010863 -0.008977 0.000000 0.011493 0.000000
# 3 0.008701 -0.008977 0.030882 0.000000 -0.034128 0.000000
# 4 0.000000 0.000000 0.000000 0.038729 0.000000 -0.007426
# 5 -0.036132 0.011493 -0.034128 0.000000 0.090561 0.000000
# 6 0.000000 0.000000 0.000000 -0.007426 0.000000 0.057426
#
#
# Mechanical properties :
#
#
# Convention : Reuss Voigt Hill
#
# Bulk Modulus (GPa) = 16.67697 48.14920 32.41308
# Shear Modulus (GPa) = 17.37183 29.69786 23.53484
#
# Velocity S-wave (km/s) = 2.71066 3.54417 3.15506
# Velocity P-wave (km/s) = 4.10496 6.09210 5.19444
#
# Compressibility (1/GPa) = 0.05996294
#
# Stress axis : x y z
#
# Youngs Moduli (GPa) = 34.72687 92.05529 32.38154
#
# Poissons Ratio (x) = 0.46145 -0.28176
# Poissons Ratio (y) = 0.17408 0.29070
# Poissons Ratio (z) = -0.30217 0.82643
#
# Static dielectric constant tensor:
#      x y z
#    x 1.880080 0.000000 0.014880 
#    y 0.000000 1.935030 0.000000 
#    z 0.014880 0.000000 1.976740 
# 
# From -- ./inp_files/3058.got.cif
#   From: 2010.05.17/outbox.cif.g08.bks.cpg/sg11_2_cif.got.tgz:3058.got - 2010.06.03 12:22:45.
