data_PCOD9165548
_publ_section_title
;
Structure prediction by ZEFSAII (Michael W. Deem and Ramdas Pophale) SiO2 
 PCOD9165548
Probable space group: P 21/M
;
_chemical_formula_sum "Si O2"
_cell_formula_units_Z 28
_cell_length_a 27.989695
_cell_length_b 8.506386
_cell_length_c 9.589155
_cell_angle_alpha 90.000000
_cell_angle_beta 37.955408
_cell_angle_gamma 90.000000
_cell_volume 1404.211741
_symmetry_space_group_name_H-M "P 21/M"
_symmetry_group_IT_number 11
_symmetry_cell_setting 'monoclinic'
loop_
_space_group_symop_operation_xyz
x,y,z
-x,1/2+y,-z
-x,-y,-z
x,1/2-y,z
loop_
_atom_site_type_symbol
_atom_site_label
_atom_site_fract_x
_atom_site_fract_y
_atom_site_fract_z
Si Si1 0.202903 0.560165 0.848089
Si Si2 0.518230 0.939870 0.802268
Si Si3 0.661934 0.938150 0.285417
Si Si4 0.235362 0.558204 0.464492
Si Si5 0.373665 0.559831 0.942116
Si Si6 0.023558 0.561797 0.296618
Si Si7 0.067548 0.562560 0.746044
O O1 0.204358 0.750000 0.850203
O O2 0.253835 0.496648 0.858227
O O3 0.240306 0.508623 0.614405
O O4 0.112268 0.512038 0.057868
O O5 0.517995 0.750000 0.809982
O O6 0.599665 0.991981 0.546332
O O7 0.452072 0.987221 0.842609
O O8 0.500000 0.000000 0.000000
O O9 0.661196 0.750000 0.284649
O O10 0.637334 0.997222 0.188922
O O11 0.236435 0.750000 0.462698
O O12 0.152039 0.505715 0.597952
O O13 0.303464 0.507383 0.204849
O O14 0.372692 0.750000 0.936660
O O15 0.022114 0.750000 0.291622
O O16 0.000000 0.500000 0.500000
O O17 0.959407 0.492624 0.341810
O O18 0.068976 0.750000 0.751212
O O19 0.000000 0.500000 0.000000
#
# Coordination Sequence:
#
# PCOD9165548 Si02
#       7
#     4   4   4   4   4   4   4
#     4  10  21  41  63  83 114 161 204 239 291 363
#     4  10  22  40  64  91 121 156 196 240 291 350
#     4  11  24  39  57  90 127 154 191 248 299 341
#     4   9  19  37  61  86 112 148 202 247 283 348
#     4  10  21  39  63  88 116 158 200 236 287 356
#     4  11  24  41  61  87 119 159 204 252 307 363
#     4  11  21  38  61  88 120 158 202 253 302 354
#
# _framework density 19.940013
#
# number of rings (size 3 to 8) (size 9 to 14) (size 15 to 20)
#    0.000    1.714    1.429    2.571    2.000    4.000 
#    0.000    1.429    0.000    0.000    0.000    0.000 
#    0.000    0.000    0.000    0.000    0.000    0.000 
#
# Total GULP energy -156398.257219 kJ/mol
# GULP energy per Si atom -5585.652044 kJ/mol
# Density = 1.989463 g / cm^3
# Si number density = 19.940013 Si / 1000 Ang^3
#
#
#
# Elastic Constant Matrix: (Units=GPa)
#
#
# Indices 1 2 3 4 5 6 
#
# 1 130.8094 13.6490 16.2364 0.0000 6.8453 0.0000
# 2 13.6490 21.0427 8.7478 0.0000 -2.4272 0.0000
# 3 16.2364 8.7478 70.5705 0.0000 6.0722 0.0000
# 4 0.0000 0.0000 0.0000 27.3118 0.0000 6.8565
# 5 6.8453 -2.4272 6.0722 0.0000 42.8347 0.0000
# 6 0.0000 0.0000 0.0000 6.8565 0.0000 31.4675
#
#
#
# Elastic Compliance Matrix: (Units=1/GPa)
#
#
# Indices 1 2 3 4 5 6 
#
# 1 0.008402 -0.005133 -0.001171 0.000000 -0.001468 0.000000
# 2 -0.005133 0.053847 -0.005899 0.000000 0.004708 0.000000
# 3 -0.001171 -0.005899 0.015371 0.000000 -0.002326 0.000000
# 4 0.000000 0.000000 0.000000 0.038733 0.000000 -0.008440
# 5 -0.001468 0.004708 -0.002326 0.000000 0.024177 0.000000
# 6 0.000000 0.000000 0.000000 -0.008440 0.000000 0.033618
#
#
# Mechanical properties :
#
#
# Convention : Reuss Voigt Hill
#
# Bulk Modulus (GPa) = 18.79148 33.29879 26.04513
# Shear Modulus (GPa) = 23.11705 32.57543 27.84624
#
# Velocity S-wave (km/s) = 3.40859 4.04625 3.74103
# Velocity P-wave (km/s) = 4.99357 6.21010 5.63476
#
# Compressibility (1/GPa) = 0.05321561
#
# Stress axis : x y z
#
# Youngs Moduli (GPa) = 119.01402 18.57120 65.05782
#
# Poissons Ratio (x) = 0.09532 0.07616
# Poissons Ratio (y) = 0.61086 0.38377
# Poissons Ratio (z) = 0.13932 0.10955
#
# Static dielectric constant tensor:
#      x y z
#    x 1.602190 0.000000 -0.033820 
#    y 0.000000 1.717610 0.000000 
#    z -0.033820 0.000000 1.691170 
# 
# From -- ./inp_files/28318.got.cif
#   From: 2010.05.17/outbox.cif.g08.bks.cpg/sg11_15_cif.got.tgz:28318.got - 2010.06.03 12:22:45.
