data_PCOD9165945
_publ_section_title
;
Structure prediction by ZEFSAII (Michael W. Deem and Ramdas Pophale) SiO2 
 PCOD9165945
Probable space group: P 21/M
;
_chemical_formula_sum "Si O2"
_cell_formula_units_Z 20
_cell_length_a 5.412997
_cell_length_b 26.851181
_cell_length_c 7.487641
_cell_angle_alpha 90.000000
_cell_angle_beta 58.735573
_cell_angle_gamma 90.000000
_cell_volume 930.253179
_symmetry_space_group_name_H-M "P 21/M"
_symmetry_group_IT_number 11
_symmetry_cell_setting 'monoclinic'
loop_
_space_group_symop_operation_xyz
x,y,z
-x,1/2+y,-z
-x,-y,-z
x,1/2-y,z
loop_
_atom_site_type_symbol
_atom_site_label
_atom_site_fract_x
_atom_site_fract_y
_atom_site_fract_z
Si Si1 0.352567 0.602780 0.038622
Si Si2 0.614588 0.425286 0.351482
Si Si3 0.014932 0.304966 0.764011
Si Si4 0.622285 0.343045 0.621774
Si Si5 0.062649 0.017207 0.678495
O O1 0.496589 0.624230 0.163997
O O2 0.129509 0.648206 0.081022
O O3 0.189725 0.552376 0.157077
O O4 0.504984 0.591329 0.795678
O O5 0.725503 0.379896 0.428757
O O6 0.858458 0.467702 0.241233
O O7 0.351024 0.449407 0.559750
O O8 0.931475 0.250000 0.860126
O O9 0.357188 0.311380 0.647339
O O10 0.882627 0.312765 0.615111
O O11 0.000000 0.000000 0.500000
#
# Coordination Sequence:
#
# PCOD9165945 Si02
#       5
#     4   4   4   4   4
#     4  10  23  39  63  90 127 169 208 264 318 362
#     4  11  22  39  63  91 130 167 213 256 315 383
#     4  10  21  42  67  89 125 164 208 269 323 371
#     4  10  21  42  63  91 126 163 208 261 317 377
#     4  11  21  39  59  93 131 168 214 254 311 384
#
# _framework density 21.499524999999998
#
# number of rings (size 3 to 8) (size 9 to 14) (size 15 to 20)
#    1.200    0.400    4.000    1.200    0.000    2.400 
#    0.000    2.000    0.000    0.000    0.000    0.000 
#    0.000    0.000    0.000    0.000    0.000    0.000 
#
# Total GULP energy -111480.867451 kJ/mol
# GULP energy per Si atom -5574.043373 kJ/mol
# Density = 2.145059 g / cm^3
# Si number density = 21.499525 Si / 1000 Ang^3
#
#
#
# Elastic Constant Matrix: (Units=GPa)
#
#
# Indices 1 2 3 4 5 6 
#
# 1 105.5374 13.4611 8.1717 0.0000 12.4093 0.0000
# 2 13.4611 76.3567 19.9492 0.0000 9.9555 0.0000
# 3 8.1717 19.9492 39.8995 0.0000 25.4010 0.0000
# 4 0.0000 0.0000 0.0000 6.1835 0.0000 6.9070
# 5 12.4093 9.9555 25.4010 0.0000 22.0101 0.0000
# 6 0.0000 0.0000 0.0000 6.9070 0.0000 11.1557
#
#
#
# Elastic Compliance Matrix: (Units=1/GPa)
#
#
# Indices 1 2 3 4 5 6 
#
# 1 0.010815 -0.002121 0.007978 0.000000 -0.014345 0.000000
# 2 -0.002121 0.015779 -0.013843 0.000000 0.010034 0.000000
# 3 0.007978 -0.013843 0.110169 0.000000 -0.125378 0.000000
# 4 0.000000 0.000000 0.000000 0.524355 0.000000 -0.324652
# 5 -0.014345 0.010034 -0.125378 0.000000 0.193677 0.000000
# 6 0.000000 0.000000 0.000000 -0.324652 0.000000 0.290647
#
#
# Mechanical properties :
#
#
# Convention : Reuss Voigt Hill
#
# Bulk Modulus (GPa) = 8.27876 33.88419 21.08147
# Shear Modulus (GPa) = 4.16086 19.88396 12.02241
#
# Velocity S-wave (km/s) = 1.39267 3.04444 2.36729
# Velocity P-wave (km/s) = 2.53871 5.30592 4.15920
#
# Compressibility (1/GPa) = 0.12079098
#
# Stress axis : x y z
#
# Youngs Moduli (GPa) = 92.46602 63.37701 9.07699
#
# Poissons Ratio (x) = 0.13439 -0.07241
# Poissons Ratio (y) = 0.19608 0.12565
# Poissons Ratio (z) = -0.73765 0.87730
#
# Static dielectric constant tensor:
#      x y z
#    x 1.814620 0.000000 -0.010470 
#    y 0.000000 1.804360 0.000000 
#    z -0.010470 0.000000 1.776390 
# 
# From -- ./inp_files/953.got.cif
#   From: 2010.05.17/outbox.cif.g08.bks.cpg/sg11_1_cif.got.tgz:953.got - 2010.06.03 12:22:45.
