data_PCOD9165261
_publ_section_title
;
Structure prediction by ZEFSAII (Michael W. Deem and Ramdas Pophale) SiO2 
 PCOD9165261
Probable space group: P 21/M
;
_chemical_formula_sum "Si O2"
_cell_formula_units_Z 28
_cell_length_a 15.672018
_cell_length_b 8.158060
_cell_length_c 21.334866
_cell_angle_alpha 90.000000
_cell_angle_beta 27.809385
_cell_angle_gamma 90.000000
_cell_volume 1272.573088
_symmetry_space_group_name_H-M "P 21/M"
_symmetry_group_IT_number 11
_symmetry_cell_setting 'monoclinic'
loop_
_space_group_symop_operation_xyz
x,y,z
-x,1/2+y,-z
-x,-y,-z
x,1/2-y,z
loop_
_atom_site_type_symbol
_atom_site_label
_atom_site_fract_x
_atom_site_fract_y
_atom_site_fract_z
Si Si1 0.239437 0.552886 0.632045
Si Si2 0.312795 0.052622 0.091480
Si Si3 0.605396 0.552451 0.100622
Si Si4 0.809462 0.551818 0.091956
Si Si5 0.803955 0.941206 0.598812
Si Si6 0.940975 0.052147 0.379892
Si Si7 0.370325 0.053959 0.668239
O O1 0.239938 0.750000 0.635505
O O2 0.112597 0.509030 0.656614
O O3 0.437459 0.487811 0.481289
O O4 0.215068 0.491392 0.718518
O O5 0.296836 0.250000 0.098896
O O6 0.151597 0.999092 0.243047
O O7 0.318269 0.992680 0.015973
O O8 0.500000 0.000000 0.000000
O O9 0.619131 0.750000 0.091473
O O10 0.733856 0.491864 0.074364
O O11 0.389430 0.514230 0.251367
O O12 0.813376 0.750000 0.086285
O O13 0.666100 0.497608 0.238314
O O14 0.000000 0.500000 0.000000
O O15 0.793728 0.750000 0.618722
O O16 0.824013 0.975705 0.511364
O O17 0.000000 0.000000 0.500000
O O18 0.922877 0.250000 0.398302
O O19 0.383966 0.250000 0.660740
#
# Coordination Sequence:
#
# PCOD9165261 Si02
#       7
#     4   4   4   4   4   4   4
#     4   9  18  33  57  82 108 146 189 237 291 347
#     4  10  22  39  61  88 118 156 200 246 304 366
#     4  10  22  42  65  90 125 167 209 256 311 370
#     4  10  22  38  59  85 120 162 206 252 301 358
#     4  12  25  41  64  93 123 159 203 254 313 374
#     4  10  21  38  61  88 117 152 199 247 297 360
#     4   9  18  33  51  79 115 149 186 235 291 342
#
# _framework density 22.002663999999999
#
# number of rings (size 3 to 8) (size 9 to 14) (size 15 to 20)
#    0.000    2.000    0.000    3.000    2.000    7.429 
#    0.000    2.857    0.000    0.000    0.000    0.000 
#    0.000    0.000    0.000    0.000    0.000    0.000 
#
# Total GULP energy -156192.146698 kJ/mol
# GULP energy per Si atom -5578.290953 kJ/mol
# Density = 2.195259 g / cm^3
# Si number density = 22.002664 Si / 1000 Ang^3
#
#
#
# Elastic Constant Matrix: (Units=GPa)
#
#
# Indices 1 2 3 4 5 6 
#
# 1 85.0129 1.1933 -1.9872 0.0000 10.0578 0.0000
# 2 1.1933 9.0558 -1.2931 0.0000 3.3922 0.0000
# 3 -1.9872 -1.2931 61.7623 0.0000 5.4659 0.0000
# 4 0.0000 0.0000 0.0000 21.6445 0.0000 -4.1687
# 5 10.0578 3.3922 5.4659 0.0000 37.6801 0.0000
# 6 0.0000 0.0000 0.0000 -4.1687 0.0000 27.2294
#
#
#
# Elastic Compliance Matrix: (Units=1/GPa)
#
#
# Indices 1 2 3 4 5 6 
#
# 1 0.012176 -0.000262 0.000681 0.000000 -0.003325 0.000000
# 2 -0.000262 0.114973 0.003352 0.000000 -0.010767 0.000000
# 3 0.000681 0.003352 0.016538 0.000000 -0.002882 0.000000
# 4 0.000000 0.000000 0.000000 0.047605 0.000000 0.007288
# 5 -0.003325 -0.010767 -0.002882 0.000000 0.028814 0.000000
# 6 0.000000 0.000000 0.000000 0.007288 0.000000 0.037841
#
#
# Mechanical properties :
#
#
# Convention : Reuss Voigt Hill
#
# Bulk Modulus (GPa) = 6.61253 16.85075 11.73164
# Shear Modulus (GPa) = 16.62151 27.83865 22.23008
#
# Velocity S-wave (km/s) = 2.75149 3.56088 3.18203
# Velocity P-wave (km/s) = 3.62024 4.95799 4.34095
#
# Compressibility (1/GPa) = 0.15122802
#
# Stress axis : x y z
#
# Youngs Moduli (GPa) = 82.12935 8.69772 60.46582
#
# Poissons Ratio (x) = 0.00228 -0.04115
# Poissons Ratio (y) = 0.02149 -0.20266
# Poissons Ratio (z) = -0.05589 -0.02915
#
# Static dielectric constant tensor:
#      x y z
#    x 1.855530 0.000000 -0.035160 
#    y 0.000000 1.785370 0.000000 
#    z -0.035160 0.000000 1.854760 
# 
# From -- ./inp_files/65378.got.cif
#   From: 2010.05.17/outbox.cif.g08.bks.cpg/sg11_33_cif.got.tgz:65378.got - 2010.06.03 12:22:45.
