data_PCOD9165984
_publ_section_title
;
Structure prediction by ZEFSAII (Michael W. Deem and Ramdas Pophale) SiO2 
 PCOD9165984
Probable space group: P 21/M
;
_chemical_formula_sum "Si O2"
_cell_formula_units_Z 18
_cell_length_a 4.880587
_cell_length_b 14.632619
_cell_length_c 10.097548
_cell_angle_alpha 90.000000
_cell_angle_beta 108.216701
_cell_angle_gamma 90.000000
_cell_volume 684.982122
_symmetry_space_group_name_H-M "P 21/M"
_symmetry_group_IT_number 11
_symmetry_cell_setting 'monoclinic'
loop_
_space_group_symop_operation_xyz
x,y,z
-x,1/2+y,-z
-x,-y,-z
x,1/2-y,z
loop_
_atom_site_type_symbol
_atom_site_label
_atom_site_fract_x
_atom_site_fract_y
_atom_site_fract_z
Si Si1 0.648400 0.250000 0.374773
Si Si2 0.296594 0.904401 0.259155
Si Si3 0.443921 0.609390 0.990032
Si Si4 0.181730 0.381743 0.186221
Si Si5 0.076537 0.103153 0.555224
O O1 0.396051 0.327608 0.310744
O O2 0.893592 0.171084 0.439817
O O3 0.579799 0.888508 0.390548
O O4 0.029653 0.876425 0.309839
O O5 0.237847 0.011205 0.220324
O O6 0.370424 0.862015 0.127732
O O7 0.714767 0.643562 0.947708
O O8 0.159785 0.633578 0.861702
O O9 0.500000 0.500000 0.000000
O O10 0.000000 0.000000 0.500000
#
# Coordination Sequence:
#
# PCOD9165984 Si02
#       5
#     2   4   4   4   4
#     4  12  30  46  70 108 152 188 256 298 356 434
#     4  11  22  45  73 101 138 186 244 291 361 436
#     4  10  21  42  73 107 134 178 236 301 371 429
#     4  11  23  42  72 106 141 184 238 304 364 432
#     4  12  26  46  70 103 147 196 243 293 359 429
#
# _framework density 26.278055999999999
#
# number of rings (size 3 to 8) (size 9 to 14) (size 15 to 20)
#    0.000    0.889    2.222    7.333    0.000    3.556 
#    0.000    6.667    0.000    0.000    0.000    0.000 
#    0.000    0.000    0.000    0.000    0.000    0.000 
#
# Total GULP energy -100357.970893 kJ/mol
# GULP energy per Si atom -5575.442827 kJ/mol
# Density = 2.621825 g / cm^3
# Si number density = 26.278056 Si / 1000 Ang^3
#
#
#
# Elastic Constant Matrix: (Units=GPa)
#
#
# Indices 1 2 3 4 5 6 
#
# 1 137.3063 -7.0276 18.6724 0.0000 3.0136 0.0000
# 2 -7.0276 97.5097 2.4607 0.0000 18.7586 0.0000
# 3 18.6724 2.4607 107.7401 0.0000 -8.6159 0.0000
# 4 0.0000 0.0000 0.0000 242.9302 0.0000 149.0601
# 5 3.0136 18.7586 -8.6159 0.0000 72.0082 0.0000
# 6 0.0000 0.0000 0.0000 149.0601 0.0000 63.0851
#
#
#
# Elastic Compliance Matrix: (Units=1/GPa)
#
#
# Indices 1 2 3 4 5 6 
#
# 1 0.007520 0.000704 -0.001372 0.000000 -0.000662 0.000000
# 2 0.000704 0.010887 -0.000606 0.000000 -0.002938 0.000000
# 3 -0.001372 -0.000606 0.009643 0.000000 0.001369 0.000000
# 4 0.000000 0.000000 0.000000 -0.009151 0.000000 0.021623
# 5 -0.000662 -0.002938 0.001369 0.000000 0.014844 0.000000
# 6 0.000000 0.000000 0.000000 0.021623 0.000000 -0.035240
#
#
# Mechanical properties :
#
#
# Convention : Reuss Voigt Hill
#
# Bulk Modulus (GPa) = 39.21311 41.19634 40.20473
# Shear Modulus (GPa) = 523.49580 97.50140 310.49860
#
# Velocity S-wave (km/s) = 14.12963 6.09789 10.88188
# Velocity P-wave (km/s) = 16.76753 8.08023 13.16131
#
# Compressibility (1/GPa) = 0.02550168
#
# Stress axis : x y z
#
# Youngs Moduli (GPa) = 132.97539 91.85592 103.70494
#
# Poissons Ratio (x) = -0.06467 0.14232
# Poissons Ratio (y) = -0.09362 0.06280
# Poissons Ratio (z) = 0.18249 0.05563
#
# Static dielectric constant tensor:
#      x y z
#    x 1.975630 0.000000 -0.134700 
#    y 0.000000 2.047990 0.000000 
#    z -0.134700 0.000000 2.174500 
# 
# From -- ./inp_files/10128.got.cif
#   From: 2010.05.17/outbox.cif.g08.bks.cpg/sg11_6_cif.got.tgz:10128.got - 2010.06.03 12:22:45.
