data_PCOD9165832
_publ_section_title
;
Structure prediction by ZEFSAII (Michael W. Deem and Ramdas Pophale) SiO2 
 PCOD9165832
Probable space group: P 21/M
;
_chemical_formula_sum "Si O2"
_cell_formula_units_Z 24
_cell_length_a 13.932133
_cell_length_b 14.067344
_cell_length_c 8.635052
_cell_angle_alpha 90.000000
_cell_angle_beta 43.323817
_cell_angle_gamma 90.000000
_cell_volume 1161.168573
_symmetry_space_group_name_H-M "P 21/M"
_symmetry_group_IT_number 11
_symmetry_cell_setting 'monoclinic'
loop_
_space_group_symop_operation_xyz
x,y,z
-x,1/2+y,-z
-x,-y,-z
x,1/2-y,z
loop_
_atom_site_type_symbol
_atom_site_label
_atom_site_fract_x
_atom_site_fract_y
_atom_site_fract_z
Si Si1 0.350516 0.639083 0.387115
Si Si2 0.242743 0.138153 0.370916
Si Si3 0.427938 0.861480 0.951261
Si Si4 0.402775 0.470426 0.755255
Si Si5 0.908459 0.020415 0.258340
Si Si6 0.146382 0.362868 0.128999
O O1 0.339417 0.750000 0.433169
O O2 0.501294 0.601003 0.258520
O O3 0.230495 0.580996 0.613235
O O4 0.343878 0.625024 0.209647
O O5 0.223630 0.250000 0.424846
O O6 0.407285 0.116878 0.209055
O O7 0.200088 0.122089 0.241974
O O8 0.146471 0.073859 0.592427
O O9 0.418618 0.750000 0.918348
O O10 0.374038 0.934771 0.887577
O O11 0.500000 0.500000 0.500000
O O12 0.262287 0.413229 0.884497
O O13 0.001983 0.084326 0.264185
O O14 0.000000 0.000000 0.000000
O O15 0.136419 0.250000 0.113195
#
# Coordination Sequence:
#
# PCOD9165832 Si02
#       6
#     4   4   4   4   4   4
#     4  11  22  41  67  90 122 165 217 260 305 372
#     4  10  21  41  68  94 123 168 216 261 310 368
#     4  10  21  40  68  97 123 164 215 265 312 365
#     4  12  23  39  62  96 128 165 204 260 321 373
#     4  12  25  42  61  96 130 172 205 255 320 378
#     4  11  24  42  64  92 128 167 213 260 312 372
#
# _framework density 20.668831999999998
#
# number of rings (size 3 to 8) (size 9 to 14) (size 15 to 20)
#    0.000    1.000    3.333    4.000    0.000    2.667 
#    0.000    2.500    0.000    0.000    0.000    0.000 
#    0.000    0.000    0.000    0.000    0.000    0.000 
#
# Total GULP energy -134258.644415 kJ/mol
# GULP energy per Si atom -5594.110184 kJ/mol
# Density = 2.062179 g / cm^3
# Si number density = 20.668832 Si / 1000 Ang^3
#
#
#
# Elastic Constant Matrix: (Units=GPa)
#
#
# Indices 1 2 3 4 5 6 
#
# 1 29.1688 20.5398 2.6989 0.0000 -13.1395 0.0000
# 2 20.5398 103.6485 56.4980 0.0000 3.7781 0.0000
# 3 2.6989 56.4980 117.6291 0.0000 -5.5003 0.0000
# 4 0.0000 0.0000 0.0000 27.0603 0.0000 -6.7870
# 5 -13.1395 3.7781 -5.5003 0.0000 32.2412 0.0000
# 6 0.0000 0.0000 0.0000 -6.7870 0.0000 4.2710
#
#
#
# Elastic Compliance Matrix: (Units=1/GPa)
#
#
# Indices 1 2 3 4 5 6 
#
# 1 0.057266 -0.016638 0.007923 0.000000 0.026640 0.000000
# 2 -0.016638 0.018128 -0.008812 0.000000 -0.010408 0.000000
# 3 0.007923 -0.008812 0.012854 0.000000 0.006454 0.000000
# 4 0.000000 0.000000 0.000000 0.061444 0.000000 0.097641
# 5 0.026640 -0.010408 0.006454 0.000000 0.044194 0.000000
# 6 0.000000 0.000000 0.000000 0.097641 0.000000 0.389302
#
#
# Mechanical properties :
#
#
# Convention : Reuss Voigt Hill
#
# Bulk Modulus (GPa) = 18.79909 45.54663 32.17286
# Shear Modulus (GPa) = 7.86197 24.09514 15.97855
#
# Velocity S-wave (km/s) = 1.95244 3.41804 2.78344
# Velocity P-wave (km/s) = 3.76800 6.13690 5.09212
#
# Compressibility (1/GPa) = 0.05319407
#
# Stress axis : x y z
#
# Youngs Moduli (GPa) = 17.46226 55.16386 77.79866
#
# Poissons Ratio (x) = 0.91783 -0.61641
# Poissons Ratio (y) = 0.29054 0.68555
# Poissons Ratio (z) = -0.13836 0.48609
#
# Static dielectric constant tensor:
#      x y z
#    x 1.753370 0.000000 0.021370 
#    y 0.000000 1.715890 0.000000 
#    z 0.021370 0.000000 1.716730 
# 
# From -- ./inp_files/21983.got.cif
#   From: 2010.05.17/outbox.cif.g08.bks.cpg/sg11_11_cif.got.tgz:21983.got - 2010.06.03 12:22:45.
