data_PCOD9165217
_publ_section_title
;
Structure prediction by ZEFSAII (Michael W. Deem and Ramdas Pophale) SiO2 
 PCOD9165217
Probable space group: P 21/M
;
_chemical_formula_sum "Si O2"
_cell_formula_units_Z 28
_cell_length_a 9.229292
_cell_length_b 11.745966
_cell_length_c 14.860770
_cell_angle_alpha 90.000000
_cell_angle_beta 121.008441
_cell_angle_gamma 90.000000
_cell_volume 1380.783483
_symmetry_space_group_name_H-M "P 21/M"
_symmetry_group_IT_number 11
_symmetry_cell_setting 'monoclinic'
loop_
_space_group_symop_operation_xyz
x,y,z
-x,1/2+y,-z
-x,-y,-z
x,1/2-y,z
loop_
_atom_site_type_symbol
_atom_site_label
_atom_site_fract_x
_atom_site_fract_y
_atom_site_fract_z
Si Si1 0.963777 0.619541 0.542959
Si Si2 0.792408 0.382629 0.728815
Si Si3 0.323872 0.524573 0.490624
Si Si4 0.489173 0.039269 0.277448
Si Si5 0.265564 0.619994 0.781384
Si Si6 0.804892 0.867872 0.917995
Si Si7 0.098241 0.965465 0.905848
O O1 0.969910 0.750000 0.505307
O O2 0.777128 0.591025 0.520137
O O3 0.000000 0.500000 0.500000
O O4 0.096357 0.619286 0.666760
O O5 0.806359 0.250000 0.751488
O O6 0.779344 0.405379 0.616974
O O7 0.620646 0.432695 0.720553
O O8 0.955345 0.449420 0.818984
O O9 0.500000 0.500000 0.500000
O O10 0.380590 0.579491 0.603355
O O11 0.603625 0.034333 0.224822
O O12 0.339103 0.123676 0.203006
O O13 0.332884 0.750000 0.800756
O O14 0.210508 0.585474 0.863191
O O15 0.792133 0.750000 0.964662
O O16 0.793381 0.969396 0.984712
O O17 0.983303 0.877659 0.924542
#
# Coordination Sequence:
#
# PCOD9165217 Si02
#       7
#     4   4   4   4   4   4   4
#     4  11  23  42  64  94 133 174 215 258 314 381
#     4  10  21  38  60  87 123 162 207 260 312 365
#     4  10  21  39  59  90 124 162 207 257 309 368
#     4  10  22  39  58  88 125 158 208 246 312 375
#     4  11  22  39  62  89 126 162 204 258 313 375
#     4  10  21  39  62  86 117 159 204 261 314 374
#     4  10  21  39  62  89 118 152 212 256 311 376
#
# _framework density 20.278341000000001
#
# number of rings (size 3 to 8) (size 9 to 14) (size 15 to 20)
#    0.000    1.714    2.857    1.286    0.000    4.571 
#    0.000    4.286    0.000    0.000    0.000    0.000 
#    0.000    0.000    0.000    0.000    0.000    0.000 
#
# Total GULP energy -155943.987474 kJ/mol
# GULP energy per Si atom -5569.428124 kJ/mol
# Density = 2.023219 g / cm^3
# Si number density = 20.278341 Si / 1000 Ang^3
#
#
#
# Elastic Constant Matrix: (Units=GPa)
#
#
# Indices 1 2 3 4 5 6 
#
# 1 75.8213 16.4946 8.8893 0.0000 -13.2077 0.0000
# 2 16.4946 107.5575 29.0248 0.0000 -1.8347 0.0000
# 3 8.8893 29.0248 70.3740 0.0000 -4.1012 0.0000
# 4 0.0000 0.0000 0.0000 -47.8619 0.0000 3.4263
# 5 -13.2077 -1.8347 -4.1012 0.0000 34.6762 0.0000
# 6 0.0000 0.0000 0.0000 3.4263 0.0000 12.7053
#
#
#
# Elastic Compliance Matrix: (Units=1/GPa)
#
#
# Indices 1 2 3 4 5 6 
#
# 1 0.014638 -0.001956 -0.000728 0.000000 0.005386 0.000000
# 2 -0.001956 0.010723 -0.004215 0.000000 -0.000676 0.000000
# 3 -0.000728 -0.004215 0.016122 0.000000 0.001406 0.000000
# 4 0.000000 0.000000 0.000000 -0.020498 0.000000 0.005528
# 5 0.005386 -0.000676 0.001406 0.000000 0.031020 0.000000
# 6 0.000000 0.000000 0.000000 0.005528 0.000000 0.077217
#
#
# Mechanical properties :
#
#
# Convention : Reuss Voigt Hill
#
# Bulk Modulus (GPa) = 36.12164 40.28557 38.20361
# Shear Modulus (GPa) = 32.84071 13.19351 23.01711
#
# Velocity S-wave (km/s) = 4.02866 2.55349 3.37272
# Velocity P-wave (km/s) = 6.28425 5.34820 5.83502
#
# Compressibility (1/GPa) = 0.02768423
#
# Stress axis : x y z
#
# Youngs Moduli (GPa) = 68.31499 93.25509 62.02646
#
# Poissons Ratio (x) = 0.18245 0.04517
# Poissons Ratio (y) = 0.13365 0.26144
# Poissons Ratio (z) = 0.04975 0.39307
#
# Static dielectric constant tensor:
#      x y z
#    x 1.793130 0.000000 -0.005110 
#    y 0.000000 1.688190 0.000000 
#    z -0.005110 0.000000 1.749090 
# 
# From -- ./inp_files/47277.got.cif
#   From: 2010.05.17/outbox.cif.g08.bks.cpg/sg11_24_cif.got.tgz:47277.got - 2010.06.03 12:22:45.
