data_PCOD9165860
_publ_section_title
;
Structure prediction by ZEFSAII (Michael W. Deem and Ramdas Pophale) SiO2 
 PCOD9165860
Probable space group: P 21/M
;
_chemical_formula_sum "Si O2"
_cell_formula_units_Z 28
_cell_length_a 7.910647
_cell_length_b 28.476095
_cell_length_c 5.809823
_cell_angle_alpha 90.000000
_cell_angle_beta 63.774371
_cell_angle_gamma 90.000000
_cell_volume 1174.024646
_symmetry_space_group_name_H-M "P 21/M"
_symmetry_group_IT_number 11
_symmetry_cell_setting 'monoclinic'
loop_
_space_group_symop_operation_xyz
x,y,z
-x,1/2+y,-z
-x,-y,-z
x,1/2-y,z
loop_
_atom_site_type_symbol
_atom_site_label
_atom_site_fract_x
_atom_site_fract_y
_atom_site_fract_z
Si Si1 0.980974 0.846370 0.876416
Si Si2 0.829572 0.603316 0.363758
Si Si3 0.609684 0.250000 0.991655
Si Si4 0.106198 0.563312 0.585503
Si Si5 0.825392 0.250000 0.359740
Si Si6 0.404911 0.941306 0.053112
Si Si7 0.418462 0.350013 0.134538
Si Si8 0.225181 0.478147 0.966882
O O1 0.771147 0.855077 0.902380
O O2 0.118930 0.888546 0.719654
O O3 0.052845 0.797387 0.738151
O O4 0.947612 0.855655 0.164879
O O5 0.651032 0.629649 0.579417
O O6 0.969845 0.579815 0.459962
O O7 0.768202 0.560326 0.237146
O O8 0.713934 0.250000 0.179717
O O9 0.486843 0.297242 0.075236
O O10 0.720799 0.250000 0.674905
O O11 0.294302 0.545886 0.353242
O O12 0.982418 0.525558 0.798629
O O13 0.299765 0.968485 0.909901
O O14 0.416352 0.885438 0.036984
O O15 0.619941 0.958006 0.944102
#
# Coordination Sequence:
#
# PCOD9165860 Si02
#       8
#     4   4   2   4   2   4   4   4
#     4  10  23  44  68  92 138 182 230 288 364 421
#     4  10  21  41  67  93 138 178 232 283 356 423
#     4  12  31  47  74 112 140 175 254 288 359 436
#     4  10  21  41  63  96 133 182 236 287 350 423
#     4  12  29  47  72 106 142 181 236 306 355 432
#     4  11  21  40  67  91 142 178 234 290 355 415
#     4  11  24  45  68 100 134 185 231 296 351 431
#     4  10  22  42  59 100 134 185 230 292 351 424
#
# _framework density 23.849582999999999
#
# number of rings (size 3 to 8) (size 9 to 14) (size 15 to 20)
#    0.000    1.429    4.286    1.714    8.000    2.857 
#    2.571    0.000    0.000    0.000    0.000    0.000 
#    0.000    0.000    0.000    0.000    0.000    0.000 
#
# Total GULP energy -156481.093393 kJ/mol
# GULP energy per Si atom -5588.610478 kJ/mol
# Density = 2.379530 g / cm^3
# Si number density = 23.849583 Si / 1000 Ang^3
#
#
#
# Elastic Constant Matrix: (Units=GPa)
#
#
# Indices 1 2 3 4 5 6 
#
# 1 66.0254 20.4511 21.1960 0.0000 -7.4126 0.0000
# 2 20.4511 185.5876 48.2389 0.0000 -13.3040 0.0000
# 3 21.1960 48.2389 140.7579 0.0000 -12.9351 0.0000
# 4 0.0000 0.0000 0.0000 41.7017 0.0000 -13.2315
# 5 -7.4126 -13.3040 -12.9351 0.0000 28.5665 0.0000
# 6 0.0000 0.0000 0.0000 -13.2315 0.0000 41.6700
#
#
#
# Elastic Compliance Matrix: (Units=1/GPa)
#
#
# Indices 1 2 3 4 5 6 
#
# 1 0.016405 -0.001127 -0.001817 0.000000 0.002909 0.000000
# 2 -0.001127 0.006095 -0.001758 0.000000 0.001750 0.000000
# 3 -0.001817 -0.001758 0.008203 0.000000 0.002424 0.000000
# 4 0.000000 0.000000 0.000000 0.026666 0.000000 0.008467
# 5 0.002909 0.001750 0.002424 0.000000 0.037674 0.000000
# 6 0.000000 0.000000 0.000000 0.008467 0.000000 0.026687
#
#
# Mechanical properties :
#
#
# Convention : Reuss Voigt Hill
#
# Bulk Modulus (GPa) = 46.95060 63.57144 55.26102
# Shear Modulus (GPa) = 36.17074 42.55331 39.36203
#
# Velocity S-wave (km/s) = 3.89860 4.22861 4.06695
# Velocity P-wave (km/s) = 6.32411 7.11017 6.72863
#
# Compressibility (1/GPa) = 0.02129898
#
# Stress axis : x y z
#
# Youngs Moduli (GPa) = 60.95848 164.07035 121.90192
#
# Poissons Ratio (x) = 0.18490 0.22146
# Poissons Ratio (y) = 0.06870 0.21434
# Poissons Ratio (z) = 0.11074 0.28848
#
# Static dielectric constant tensor:
#      x y z
#    x 1.932250 0.000000 0.054130 
#    y 0.000000 1.908380 0.000000 
#    z 0.054130 0.000000 1.994530 
# 
# From -- ./inp_files/3373.got.cif
#   From: 2010.05.17/outbox.cif.g08.bks.cpg/sg11_2_cif.got.tgz:3373.got - 2010.06.03 12:22:45.
