data_PCOD9165841
_publ_section_title
;
Structure prediction by ZEFSAII (Michael W. Deem and Ramdas Pophale) SiO2 
 PCOD9165841
Probable space group: P 21/M
;
_chemical_formula_sum "Si O2"
_cell_formula_units_Z 32
_cell_length_a 11.618109
_cell_length_b 23.825595
_cell_length_c 6.468180
_cell_angle_alpha 90.000000
_cell_angle_beta 73.388945
_cell_angle_gamma 90.000000
_cell_volume 1715.726378
_symmetry_space_group_name_H-M "P 21/M"
_symmetry_group_IT_number 11
_symmetry_cell_setting 'monoclinic'
loop_
_space_group_symop_operation_xyz
x,y,z
-x,1/2+y,-z
-x,-y,-z
x,1/2-y,z
loop_
_atom_site_type_symbol
_atom_site_label
_atom_site_fract_x
_atom_site_fract_y
_atom_site_fract_z
Si Si1 0.308457 0.395311 0.365940
Si Si2 0.816097 0.095028 0.935091
Si Si3 0.059441 0.965995 0.781268
Si Si4 0.527589 0.112370 0.574048
Si Si5 0.380377 0.516768 0.188217
Si Si6 0.057320 0.076602 0.544924
Si Si7 0.561683 0.813896 0.995833
Si Si8 0.667367 0.186873 0.189459
O O1 0.413473 0.394907 0.482494
O O2 0.316911 0.457719 0.265929
O O3 0.174624 0.386213 0.520530
O O4 0.338418 0.349167 0.177751
O O5 0.710973 0.057354 0.888320
O O6 0.936113 0.092121 0.732377
O O7 0.843570 0.069942 0.148029
O O8 0.768988 0.157280 0.000349
O O9 0.974151 0.928004 0.681963
O O10 0.097081 0.014793 0.605018
O O11 0.000000 0.000000 0.000000
O O12 0.577079 0.053484 0.636575
O O13 0.482577 0.150267 0.787165
O O14 0.628792 0.146920 0.398289
O O15 0.500000 0.500000 0.000000
O O16 0.596162 0.750000 0.032205
O O17 0.450024 0.810956 0.895284
O O18 0.697301 0.250000 0.240335
#
# Coordination Sequence:
#
# PCOD9165841 Si02
#       8
#     4   4   4   4   4   4   4   4
#     4  11  23  37  60  89 126 156 199 243 297 368
#     4  11  23  38  60  88 124 160 203 251 299 367
#     4   9  19  35  56  82 116 160 200 236 287 355
#     4  11  22  38  61  91 119 162 190 249 313 363
#     4  12  22  37  58  96 130 153 190 251 317 363
#     4  10  22  38  56  86 120 170 199 238 298 363
#     4  10  21  41  61  86 121 157 203 250 301 365
#     4  10  22  40  62  89 118 158 208 256 304 362
#
# _framework density 18.650991999999999
#
# number of rings (size 3 to 8) (size 9 to 14) (size 15 to 20)
#    0.000    1.500    2.500    3.750    5.250    2.500 
#    0.000    0.625    0.000    2.250    0.000    0.000 
#    0.000    0.000    0.000    0.000    0.000    0.000 
#
# Total GULP energy -178484.970966 kJ/mol
# GULP energy per Si atom -5577.655343 kJ/mol
# Density = 1.860854 g / cm^3
# Si number density = 18.650992 Si / 1000 Ang^3
#
#
#
# Elastic Constant Matrix: (Units=GPa)
#
#
# Indices 1 2 3 4 5 6 
#
# 1 83.3803 22.3140 34.4128 0.0000 -18.9171 0.0000
# 2 22.3140 81.0214 22.5248 0.0000 -18.6004 0.0000
# 3 34.4128 22.5248 66.9443 0.0000 -6.0969 0.0000
# 4 0.0000 0.0000 0.0000 21.5533 0.0000 5.1510
# 5 -18.9171 -18.6004 -6.0969 0.0000 36.4631 0.0000
# 6 0.0000 0.0000 0.0000 5.1510 0.0000 11.6445
#
#
#
# Elastic Compliance Matrix: (Units=1/GPa)
#
#
# Indices 1 2 3 4 5 6 
#
# 1 0.017073 -0.000898 -0.007829 0.000000 0.007091 0.000000
# 2 -0.000898 0.015241 -0.004063 0.000000 0.006630 0.000000
# 3 -0.007829 -0.004063 0.020076 0.000000 -0.002777 0.000000
# 4 0.000000 0.000000 0.000000 0.051881 0.000000 -0.022950
# 5 0.007091 0.006630 -0.002777 0.000000 0.034021 0.000000
# 6 0.000000 0.000000 0.000000 -0.022950 0.000000 0.096030
#
#
# Mechanical properties :
#
#
# Convention : Reuss Voigt Hill
#
# Bulk Modulus (GPa) = 37.29689 43.31659 40.30674
# Shear Modulus (GPa) = 18.59847 24.07179 21.33513
#
# Velocity S-wave (km/s) = 3.16125 3.59645 3.38585
# Velocity P-wave (km/s) = 5.77627 6.36563 6.07810
#
# Compressibility (1/GPa) = 0.02681189
#
# Stress axis : x y z
#
# Youngs Moduli (GPa) = 58.57098 65.61158 49.81006
#
# Poissons Ratio (x) = 0.05891 0.38995
# Poissons Ratio (y) = 0.05259 0.20237
# Poissons Ratio (z) = 0.45853 0.26657
#
# Static dielectric constant tensor:
#      x y z
#    x 1.670930 0.000000 -0.006430 
#    y 0.000000 1.653380 0.000000 
#    z -0.006430 0.000000 1.665710 
# 
# From -- ./inp_files/5462.got.cif
#   From: 2010.05.17/outbox.cif.g08.bks.cpg/sg11_3_cif.got.tgz:5462.got - 2010.06.03 12:22:45.
