data_PCOD9165173
_publ_section_title
;
Structure prediction by ZEFSAII (Michael W. Deem and Ramdas Pophale) SiO2 
 PCOD9165173
Probable space group: P 21/M
;
_chemical_formula_sum "Si O2"
_cell_formula_units_Z 32
_cell_length_a 14.746221
_cell_length_b 9.420783
_cell_length_c 25.802713
_cell_angle_alpha 90.000000
_cell_angle_beta 26.261459
_cell_angle_gamma 90.000000
_cell_volume 1586.043266
_symmetry_space_group_name_H-M "P 21/M"
_symmetry_group_IT_number 11
_symmetry_cell_setting 'monoclinic'
loop_
_space_group_symop_operation_xyz
x,y,z
-x,1/2+y,-z
-x,-y,-z
x,1/2-y,z
loop_
_atom_site_type_symbol
_atom_site_label
_atom_site_fract_x
_atom_site_fract_y
_atom_site_fract_z
Si Si1 0.417905 0.411784 0.964943
Si Si2 0.315170 0.584109 0.923819
Si Si3 0.846876 0.584748 0.199277
Si Si4 0.819818 0.087460 0.831489
Si Si5 0.893553 0.084093 0.507683
Si Si6 0.406032 0.413093 0.775533
Si Si7 0.866238 0.917603 0.416983
Si Si8 0.563791 0.083116 0.415805
O O1 0.362293 0.250000 0.981524
O O2 0.450232 0.499413 0.896115
O O3 0.624123 0.411733 0.893314
O O4 0.244699 0.487449 0.088491
O O5 0.364776 0.750000 0.898344
O O6 0.340793 0.517786 0.854361
O O7 0.082029 0.565818 0.062880
O O8 0.814739 0.750000 0.230306
O O9 0.713614 0.556403 0.216077
O O10 0.762673 0.485927 0.287771
O O11 0.852183 0.250000 0.833418
O O12 0.009987 0.042836 0.698572
O O13 0.955006 0.250000 0.475607
O O14 0.648766 0.077581 0.642016
O O15 0.931846 0.009050 0.432772
O O16 0.000000 0.000000 0.500000
O O17 0.356889 0.250000 0.815662
O O18 0.908802 0.750000 0.404713
O O19 0.626463 0.933255 0.526779
O O20 0.589784 0.250000 0.412916
O O21 0.500000 0.000000 0.500000
#
# Coordination Sequence:
#
# PCOD9165173 Si02
#       8
#     4   4   4   4   4   4   4   4
#     4  10  21  38  59  87 120 155 196 244 293 354
#     4  11  24  38  61  90 119 154 197 249 299 355
#     4  10  22  43  64  86 119 158 200 248 302 357
#     4   9  20  39  61  83 117 158 196 241 296 351
#     4  11  24  41  64  92 125 163 203 252 303 361
#     4  10  22  42  64  86 118 157 198 247 301 355
#     4  10  22  41  64  91 122 161 205 251 305 361
#     4  11  24  40  63  93 126 163 204 253 303 363
#
# _framework density 20.175992999999998
#
# number of rings (size 3 to 8) (size 9 to 14) (size 15 to 20)
#    0.000    1.750    1.250    1.875    3.500    4.000 
#    0.000    0.000    0.000    0.000    0.000    0.000 
#    0.000    0.000    0.000    0.000    0.000    0.000 
#
# Total GULP energy -178930.811679 kJ/mol
# GULP energy per Si atom -5591.587865 kJ/mol
# Density = 2.013007 g / cm^3
# Si number density = 20.175993 Si / 1000 Ang^3
#
#
#
# Elastic Constant Matrix: (Units=GPa)
#
#
# Indices 1 2 3 4 5 6 
#
# 1 71.8634 40.6279 -6.5423 0.0000 9.9678 0.0000
# 2 40.6279 104.7688 35.8085 0.0000 28.4012 0.0000
# 3 -6.5423 35.8085 56.6187 0.0000 15.7072 0.0000
# 4 0.0000 0.0000 0.0000 36.5803 0.0000 10.6996
# 5 9.9678 28.4012 15.7072 0.0000 22.6303 0.0000
# 6 0.0000 0.0000 0.0000 10.6996 0.0000 30.3008
#
#
#
# Elastic Compliance Matrix: (Units=1/GPa)
#
#
# Indices 1 2 3 4 5 6 
#
# 1 0.021507 -0.011136 0.010253 0.000000 -0.002614 0.000000
# 2 -0.011136 0.021524 -0.010857 0.000000 -0.014573 0.000000
# 3 0.010253 -0.010857 0.028715 0.000000 -0.010821 0.000000
# 4 0.000000 0.000000 0.000000 0.030486 0.000000 -0.010765
# 5 -0.002614 -0.014573 -0.010821 0.000000 0.071139 0.000000
# 6 0.000000 0.000000 0.000000 -0.010765 0.000000 0.036804
#
#
# Mechanical properties :
#
#
# Convention : Reuss Voigt Hill
#
# Bulk Modulus (GPa) = 20.71810 41.44880 31.08345
# Shear Modulus (GPa) = 20.02049 28.79275 24.40662
#
# Velocity S-wave (km/s) = 3.15348 3.78177 3.48183
# Velocity P-wave (km/s) = 4.85286 6.29740 5.62172
#
# Compressibility (1/GPa) = 0.04826698
#
# Stress axis : x y z
#
# Youngs Moduli (GPa) = 46.49658 46.45880 34.82459
#
# Poissons Ratio (x) = 0.51736 -0.35706
# Poissons Ratio (y) = 0.51778 0.37810
# Poissons Ratio (z) = -0.47674 0.50441
#
# Static dielectric constant tensor:
#      x y z
#    x 1.710990 0.000000 -0.023920 
#    y 0.000000 1.687960 0.000000 
#    z -0.023920 0.000000 1.695490 
# 
# From -- ./inp_files/68975.got.cif
#   From: 2010.05.17/outbox.cif.g08.bks.cpg/sg11_35_cif.got.tgz:68975.got - 2010.06.03 12:22:45.
