data_PCOD9165262
_publ_section_title
;
Structure prediction by ZEFSAII (Michael W. Deem and Ramdas Pophale) SiO2 
 PCOD9165262
Probable space group: P 21/M
;
_chemical_formula_sum "Si O2"
_cell_formula_units_Z 28
_cell_length_a 7.817842
_cell_length_b 9.061708
_cell_length_c 28.324989
_cell_angle_alpha 90.000000
_cell_angle_beta 134.175839
_cell_angle_gamma 90.000000
_cell_volume 1439.162145
_symmetry_space_group_name_H-M "P 21/M"
_symmetry_group_IT_number 11
_symmetry_cell_setting 'monoclinic'
loop_
_space_group_symop_operation_xyz
x,y,z
-x,1/2+y,-z
-x,-y,-z
x,1/2-y,z
loop_
_atom_site_type_symbol
_atom_site_label
_atom_site_fract_x
_atom_site_fract_y
_atom_site_fract_z
Si Si1 0.457576 0.415042 0.303277
Si Si2 0.156588 0.572784 0.071164
Si Si3 0.715478 0.415713 0.566567
Si Si4 0.960455 0.916739 0.699968
Si Si5 0.880656 0.586977 0.434322
Si Si6 0.071698 0.070540 0.156435
Si Si7 0.719413 0.926108 0.165263
O O1 0.553169 0.250000 0.313617
O O2 0.658037 0.511619 0.366117
O O3 0.242368 0.406074 0.299115
O O4 0.324129 0.468493 0.230541
O O5 0.121386 0.750000 0.066800
O O6 0.436256 0.546460 0.112945
O O7 0.081620 0.498495 0.106405
O O8 0.000000 0.500000 0.000000
O O9 0.500000 0.500000 0.500000
O O10 0.644368 0.250000 0.567796
O O11 0.833261 0.505148 0.631850
O O12 0.917871 0.403102 0.566318
O O13 0.039250 0.750000 0.703443
O O14 0.167566 0.010622 0.764528
O O15 0.812600 0.750000 0.437778
O O16 0.000000 0.500000 0.500000
O O17 0.053904 0.250000 0.152230
O O18 0.859665 0.005085 0.148762
O O19 0.760448 0.750000 0.170001
#
# Coordination Sequence:
#
# PCOD9165262 Si02
#       7
#     4   4   4   4   4   4   4
#     4   9  20  38  59  86 116 149 194 243 296 359
#     4  11  25  43  66  96 131 170 214 264 318 380
#     4  11  24  39  55  81 114 152 198 249 303 364
#     4  10  21  38  61  88 117 154 198 248 303 366
#     4  11  24  38  55  80 112 150 195 245 299 358
#     4  10  22  41  66  96 129 168 212 260 315 379
#     4  10  22  41  65  95 129 167 211 261 316 377
#
# _framework density 19.455765
#
# number of rings (size 3 to 8) (size 9 to 14) (size 15 to 20)
#    0.000    1.714    0.000    4.286    2.000   12.000 
#    0.000    0.000    0.000    0.000    0.000    0.000 
#    0.000    0.000    0.000    0.000    0.000    0.000 
#
# Total GULP energy -156356.062943 kJ/mol
# GULP energy per Si atom -5584.145105 kJ/mol
# Density = 1.941148 g / cm^3
# Si number density = 19.455765 Si / 1000 Ang^3
#
#
#
# Elastic Constant Matrix: (Units=GPa)
#
#
# Indices 1 2 3 4 5 6 
#
# 1 73.5465 49.0178 65.0592 0.0000 -6.2752 0.0000
# 2 49.0178 141.4573 105.4861 0.0000 1.1795 0.0000
# 3 65.0592 105.4861 201.3589 0.0000 -11.9404 0.0000
# 4 0.0000 0.0000 0.0000 37.7627 0.0000 -0.8407
# 5 -6.2752 1.1795 -11.9404 0.0000 41.7129 0.0000
# 6 0.0000 0.0000 0.0000 -0.8407 0.0000 24.8813
#
#
#
# Elastic Compliance Matrix: (Units=1/GPa)
#
#
# Indices 1 2 3 4 5 6 
#
# 1 0.020162 -0.003653 -0.004491 0.000000 0.001851 0.000000
# 2 -0.003653 0.012448 -0.005487 0.000000 -0.002472 0.000000
# 3 -0.004491 -0.005487 0.009421 0.000000 0.002176 0.000000
# 4 0.000000 0.000000 0.000000 0.026501 0.000000 0.000895
# 5 0.001851 -0.002472 0.002176 0.000000 0.024945 0.000000
# 6 0.000000 0.000000 0.000000 0.000895 0.000000 0.040221
#
#
# Mechanical properties :
#
#
# Convention : Reuss Voigt Hill
#
# Bulk Modulus (GPa) = 67.71291 95.05433 81.38362
# Shear Modulus (GPa) = 30.14174 33.99136 32.06655
#
# Velocity S-wave (km/s) = 3.94031 4.18438 4.06418
# Velocity P-wave (km/s) = 7.45523 8.50342 7.99652
#
# Compressibility (1/GPa) = 0.01476823
#
# Stress axis : x y z
#
# Youngs Moduli (GPa) = 49.59787 80.33648 106.14678
#
# Poissons Ratio (x) = 0.29348 0.47669
# Poissons Ratio (y) = 0.18119 0.58245
# Poissons Ratio (z) = 0.22274 0.44082
#
# Static dielectric constant tensor:
#      x y z
#    x 1.654450 0.000000 0.068550 
#    y 0.000000 1.717420 0.000000 
#    z 0.068550 0.000000 1.226540 
# 
# From -- ./inp_files/72749.got.cif
#   From: 2010.05.17/outbox.cif.g08.bks.cpg/sg11_37_cif.got.tgz:72749.got - 2010.06.03 12:22:45.
