data_PCOD9165632
_publ_section_title
;
Structure prediction by ZEFSAII (Michael W. Deem and Ramdas Pophale) SiO2 
 PCOD9165632
Probable space group: P 21/M
;
_chemical_formula_sum "Si O2"
_cell_formula_units_Z 24
_cell_length_a 5.850791
_cell_length_b 14.462572
_cell_length_c 13.718250
_cell_angle_alpha 90.000000
_cell_angle_beta 96.269091
_cell_angle_gamma 90.000000
_cell_volume 1153.862232
_symmetry_space_group_name_H-M "P 21/M"
_symmetry_group_IT_number 11
_symmetry_cell_setting 'monoclinic'
loop_
_space_group_symop_operation_xyz
x,y,z
-x,1/2+y,-z
-x,-y,-z
x,1/2-y,z
loop_
_atom_site_type_symbol
_atom_site_label
_atom_site_fract_x
_atom_site_fract_y
_atom_site_fract_z
Si Si1 0.931358 0.936114 0.225962
Si Si2 0.117950 0.359503 0.430056
Si Si3 0.396304 0.931764 0.912565
Si Si4 0.205794 0.250000 0.878712
Si Si5 0.264170 0.750000 0.014299
Si Si6 0.739117 0.503034 0.410730
Si Si7 0.676406 0.556906 0.745855
O O1 0.839128 0.839633 0.187300
O O2 0.903998 0.946572 0.340007
O O3 0.782956 0.010852 0.160154
O O4 0.191537 0.963879 0.215530
O O5 0.127771 0.250000 0.449848
O O6 0.289324 0.423583 0.503523
O O7 0.168990 0.378997 0.317619
O O8 0.874426 0.408845 0.443918
O O9 0.274805 0.844310 0.954040
O O10 0.584748 0.899320 0.841369
O O11 0.500000 0.000000 0.000000
O O12 0.474887 0.250000 0.924536
O O13 0.983431 0.250000 0.941918
O O14 0.524015 0.475896 0.335470
#
# Coordination Sequence:
#
# PCOD9165632 Si02
#       7
#     4   4   4   2   2   4   4
#     4  10  23  42  66  92 129 172 219 277 334 403
#     4  10  21  39  65  93 127 169 217 276 335 414
#     4  11  23  43  65  90 132 176 221 277 338 399
#     4  12  26  44  68 101 133 175 232 283 338 403
#     4  12  28  42  68  99 133 181 230 283 336 409
#     4   9  21  42  63  92 130 167 218 272 340 397
#     4  10  22  41  63  90 131 170 216 278 336 402
#
# _framework density 20.799710999999999
#
# number of rings (size 3 to 8) (size 9 to 14) (size 15 to 20)
#    0.000    1.667    1.667    1.500    7.000    2.000 
#   13.500    0.000    0.000    0.000    0.000    0.000 
#    0.000    0.000    0.000    0.000    0.000    0.000 
#
# Total GULP energy -133754.214520 kJ/mol
# GULP energy per Si atom -5573.092272 kJ/mol
# Density = 2.075237 g / cm^3
# Si number density = 20.799711 Si / 1000 Ang^3
#
#
#
# Elastic Constant Matrix: (Units=GPa)
#
#
# Indices 1 2 3 4 5 6 
#
# 1 51.9362 -2.6742 14.3839 0.0000 6.1216 0.0000
# 2 -2.6742 117.8954 21.2624 0.0000 1.7327 0.0000
# 3 14.3839 21.2624 95.0248 0.0000 -2.4707 0.0000
# 4 0.0000 0.0000 0.0000 31.2739 0.0000 16.4937
# 5 6.1216 1.7327 -2.4707 0.0000 35.1461 0.0000
# 6 0.0000 0.0000 0.0000 16.4937 0.0000 36.7299
#
#
#
# Elastic Compliance Matrix: (Units=1/GPa)
#
#
# Indices 1 2 3 4 5 6 
#
# 1 0.020746 0.001160 -0.003502 0.000000 -0.003917 0.000000
# 2 0.001160 0.008915 -0.002191 0.000000 -0.000796 0.000000
# 3 -0.003502 -0.002191 0.011584 0.000000 0.001532 0.000000
# 4 0.000000 0.000000 0.000000 0.041898 0.000000 -0.018815
# 5 -0.003917 -0.000796 0.001532 0.000000 0.029282 0.000000
# 6 0.000000 0.000000 0.000000 -0.018815 0.000000 0.035675
#
#
# Mechanical properties :
#
#
# Convention : Reuss Voigt Hill
#
# Bulk Modulus (GPa) = 31.07666 36.75563 33.91615
# Shear Modulus (GPa) = 29.78118 36.08893 32.93505
#
# Velocity S-wave (km/s) = 3.78803 4.16993 3.98356
# Velocity P-wave (km/s) = 5.84000 6.39485 6.12371
#
# Compressibility (1/GPa) = 0.03217849
#
# Stress axis : x y z
#
# Youngs Moduli (GPa) = 48.20320 112.16739 86.32820
#
# Poissons Ratio (x) = -0.13007 0.30228
# Poissons Ratio (y) = -0.05590 0.18915
# Poissons Ratio (z) = 0.16879 0.24577
#
# Static dielectric constant tensor:
#      x y z
#    x 1.875960 0.000000 -0.035740 
#    y 0.000000 1.702090 0.000000 
#    z -0.035740 0.000000 1.754950 
# 
# From -- ./inp_files/45762.got.cif
#   From: 2010.05.17/outbox.cif.g08.bks.cpg/sg11_23_cif.got.tgz:45762.got - 2010.06.03 12:22:45.
