data_PCOD9165161
_publ_section_title
;
Structure prediction by ZEFSAII (Michael W. Deem and Ramdas Pophale) SiO2 
 PCOD9165161
Probable space group: P 21/M
;
_chemical_formula_sum "Si O2"
_cell_formula_units_Z 20
_cell_length_a 19.501905
_cell_length_b 8.823670
_cell_length_c 13.844549
_cell_angle_alpha 90.000000
_cell_angle_beta 27.887189
_cell_angle_gamma 90.000000
_cell_volume 1114.300624
_symmetry_space_group_name_H-M "P 21/M"
_symmetry_group_IT_number 11
_symmetry_cell_setting 'monoclinic'
loop_
_space_group_symop_operation_xyz
x,y,z
-x,1/2+y,-z
-x,-y,-z
x,1/2-y,z
loop_
_atom_site_type_symbol
_atom_site_label
_atom_site_fract_x
_atom_site_fract_y
_atom_site_fract_z
Si Si1 0.249483 0.069126 0.929322
Si Si2 0.849146 0.068861 0.148814
Si Si3 0.562808 0.067176 0.627859
Si Si4 0.551955 0.068972 0.036063
Si Si5 0.143445 0.431554 0.273044
O O1 0.246405 0.250000 0.916217
O O2 0.417763 0.026722 0.745961
O O3 0.188070 0.986325 0.912510
O O4 0.156405 0.037454 0.142131
O O5 0.859685 0.250000 0.137210
O O6 0.711065 0.025020 0.388260
O O7 0.000000 0.000000 0.000000
O O8 0.558466 0.250000 0.646247
O O9 0.546379 0.989381 0.752107
O O10 0.551542 0.250000 0.032947
O O11 0.500000 0.000000 0.000000
O O12 0.713830 0.006464 0.857342
O O13 0.149195 0.250000 0.278232
O O14 0.000000 0.500000 0.500000
#
# Coordination Sequence:
#
# PCOD9165161 Si02
#       5
#     4   4   4   4   4
#     4   9  19  37  59  81 109 143 182 228 276 327
#     4  11  23  37  56  82 113 146 182 227 278 329
#     4   9  20  39  59  81 110 145 185 230 277 330
#     4  11  22  37  59  85 113 148 188 233 281 333
#     4  10  21  38  59  85 116 150 187 230 278 331
#
# _framework density 17.948477
#
# number of rings (size 3 to 8) (size 9 to 14) (size 15 to 20)
#    0.000    2.000    0.000    4.800    0.000    7.200 
#    0.000    2.000    0.000    0.000    0.000    0.000 
#    0.000    0.000    0.000    0.000    0.000    0.000 
#
# Total GULP energy -111717.300655 kJ/mol
# GULP energy per Si atom -5585.865033 kJ/mol
# Density = 1.790763 g / cm^3
# Si number density = 17.948477 Si / 1000 Ang^3
#
#
#
# Elastic Constant Matrix: (Units=GPa)
#
#
# Indices 1 2 3 4 5 6 
#
# 1 169.5501 77.6401 103.1894 0.0000 19.1144 0.0000
# 2 77.6401 84.7720 78.8160 0.0000 9.7779 0.0000
# 3 103.1894 78.8160 182.2923 0.0000 3.4566 0.0000
# 4 0.0000 0.0000 0.0000 33.7747 0.0000 2.3213
# 5 19.1144 9.7779 3.4566 0.0000 13.5372 0.0000
# 6 0.0000 0.0000 0.0000 2.3213 0.0000 38.0941
#
#
#
# Elastic Compliance Matrix: (Units=1/GPa)
#
#
# Indices 1 2 3 4 5 6 
#
# 1 0.012786 -0.006302 -0.004278 0.000000 -0.012410 0.000000
# 2 -0.006302 0.025035 -0.007117 0.000000 -0.007367 0.000000
# 3 -0.004278 -0.007117 0.010825 0.000000 0.008417 0.000000
# 4 0.000000 0.000000 0.000000 0.029732 0.000000 -0.001812
# 5 -0.012410 -0.007367 0.008417 0.000000 0.094565 0.000000
# 6 0.000000 0.000000 0.000000 -0.001812 0.000000 0.026361
#
#
# Mechanical properties :
#
#
# Convention : Reuss Voigt Hill
#
# Bulk Modulus (GPa) = 75.45882 106.21171 90.83527
# Shear Modulus (GPa) = 20.91035 28.87913 24.89474
#
# Velocity S-wave (km/s) = 3.41694 4.01559 3.72830
# Velocity P-wave (km/s) = 7.59609 8.98912 8.32180
#
# Compressibility (1/GPa) = 0.01325226
#
# Stress axis : x y z
#
# Youngs Moduli (GPa) = 78.20883 39.94425 92.38005
#
# Poissons Ratio (x) = 0.25172 0.39519
# Poissons Ratio (y) = 0.49286 0.65748
# Poissons Ratio (z) = 0.33457 0.28429
#
# Static dielectric constant tensor:
#      x y z
#    x 1.670930 0.000000 -0.074200 
#    y 0.000000 1.599100 0.000000 
#    z -0.074200 0.000000 1.670280 
# 
# From -- ./inp_files/15943.got.cif
#   From: 2010.05.17/outbox.cif.g08.bks.cpg/sg11_8_cif.got.tgz:15943.got - 2010.06.03 12:22:45.
