data_PCOD9165705
_publ_section_title
;
Structure prediction by ZEFSAII (Michael W. Deem and Ramdas Pophale) SiO2 
 PCOD9165705
Probable space group: P 21/M
;
_chemical_formula_sum "Si O2"
_cell_formula_units_Z 28
_cell_length_a 13.937866
_cell_length_b 8.615618
_cell_length_c 13.952428
_cell_angle_alpha 90.000000
_cell_angle_beta 60.069435
_cell_angle_gamma 90.000000
_cell_volume 1451.999881
_symmetry_space_group_name_H-M "P 21/M"
_symmetry_group_IT_number 11
_symmetry_cell_setting 'monoclinic'
loop_
_space_group_symop_operation_xyz
x,y,z
-x,1/2+y,-z
-x,-y,-z
x,1/2-y,z
loop_
_atom_site_type_symbol
_atom_site_label
_atom_site_fract_x
_atom_site_fract_y
_atom_site_fract_z
Si Si1 0.166357 0.064376 0.667167
Si Si2 0.550853 0.063023 0.761081
Si Si3 0.304821 0.061773 0.949059
Si Si4 0.116018 0.564624 0.903242
Si Si5 0.737149 0.936950 0.810263
Si Si6 0.980651 0.937003 0.616156
Si Si7 0.597378 0.063056 0.518694
O O1 0.167240 0.250000 0.666882
O O2 0.139513 0.002676 0.786383
O O3 0.285569 0.001921 0.574858
O O4 0.073726 0.002812 0.640301
O O5 0.554279 0.250000 0.762388
O O6 0.427888 0.015330 0.854779
O O7 0.575307 0.015066 0.639739
O O8 0.643123 0.000084 0.786997
O O9 0.296727 0.250000 0.947051
O O10 0.213261 0.989242 0.925761
O O11 0.283922 0.015158 0.069521
O O12 0.111363 0.750000 0.900774
O O13 0.000000 0.500000 0.000000
O O14 0.732981 0.750000 0.809842
O O15 0.858961 0.984366 0.714031
O O16 0.986474 0.750000 0.613018
O O17 0.000000 0.000000 0.500000
O O18 0.598829 0.250000 0.513886
O O19 0.500000 0.000000 0.500000
#
# Coordination Sequence:
#
# PCOD9165705 Si02
#       7
#     4   4   4   4   4   4   4
#     4  12  25  42  64  91 123 163 207 256 310 367
#     4  10  22  38  60  88 121 158 200 249 303 359
#     4  10  21  40  62  89 123 159 200 251 304 360
#     4  12  25  42  65  93 123 160 203 252 307 369
#     4  10  22  38  60  87 119 157 199 247 303 363
#     4  11  23  40  61  89 122 161 207 257 312 372
#     4  11  23  40  62  91 124 162 206 256 310 370
#
# _framework density 19.283747999999999
#
# number of rings (size 3 to 8) (size 9 to 14) (size 15 to 20)
#    0.000    1.143    0.000    6.429    0.000    8.000 
#    0.000    0.000    0.000    0.000    0.000    0.000 
#    0.000    0.000    0.000    0.000    0.000    0.000 
#
# Total GULP energy -156701.820184 kJ/mol
# GULP energy per Si atom -5596.493578 kJ/mol
# Density = 1.923986 g / cm^3
# Si number density = 19.283748 Si / 1000 Ang^3
#
#
#
# Elastic Constant Matrix: (Units=GPa)
#
#
# Indices 1 2 3 4 5 6 
#
# 1 238.3821 68.5761 145.5182 0.0000 -0.2358 0.0000
# 2 68.5761 85.7348 70.3171 0.0000 -0.7190 0.0000
# 3 145.5182 70.3171 243.1708 0.0000 -0.5702 0.0000
# 4 0.0000 0.0000 0.0000 29.6200 0.0000 0.9622
# 5 -0.2358 -0.7190 -0.5702 0.0000 46.9602 0.0000
# 6 0.0000 0.0000 0.0000 0.9622 0.0000 44.8407
#
#
#
# Elastic Compliance Matrix: (Units=1/GPa)
#
#
# Indices 1 2 3 4 5 6 
#
# 1 0.007114 -0.002883 -0.003424 0.000000 -0.000050 0.000000
# 2 -0.002883 0.016460 -0.003034 0.000000 0.000201 0.000000
# 3 -0.003424 -0.003034 0.007039 0.000000 0.000022 0.000000
# 4 0.000000 0.000000 0.000000 0.033785 0.000000 -0.000725
# 5 -0.000050 0.000201 0.000022 0.000000 0.021298 0.000000
# 6 0.000000 0.000000 0.000000 -0.000725 0.000000 0.022317
#
#
# Mechanical properties :
#
#
# Convention : Reuss Voigt Hill
#
# Bulk Modulus (GPa) = 83.81242 126.23449 105.02345
# Shear Modulus (GPa) = 38.26431 43.14258 40.70345
#
# Velocity S-wave (km/s) = 4.45936 4.73509 4.59929
# Velocity P-wave (km/s) = 8.37088 9.77233 9.09863
#
# Compressibility (1/GPa) = 0.01193141
#
# Stress axis : x y z
#
# Youngs Moduli (GPa) = 140.56365 60.75402 142.07300
#
# Poissons Ratio (x) = 0.17514 0.48643
# Poissons Ratio (y) = 0.40520 0.43106
# Poissons Ratio (z) = 0.48126 0.18433
#
# Static dielectric constant tensor:
#      x y z
#    x 1.619440 0.000000 -0.003020 
#    y 0.000000 1.654810 0.000000 
#    z -0.003020 0.000000 1.647880 
# 
# From -- ./inp_files/49117.got.cif
#   From: 2010.05.17/outbox.cif.g08.bks.cpg/sg11_25_cif.got.tgz:49117.got - 2010.06.03 12:22:45.
