data_PCOD9165021
_publ_section_title
;
Structure prediction by ZEFSAII (Michael W. Deem and Ramdas Pophale) SiO2 
 PCOD9165021
Probable space group: P 21/M
;
_chemical_formula_sum "Si O2"
_cell_formula_units_Z 20
_cell_length_a 8.452019
_cell_length_b 16.479692
_cell_length_c 7.005828
_cell_angle_alpha 90.000000
_cell_angle_beta 50.248934
_cell_angle_gamma 90.000000
_cell_volume 750.238437
_symmetry_space_group_name_H-M "P 21/M"
_symmetry_group_IT_number 11
_symmetry_cell_setting 'monoclinic'
loop_
_space_group_symop_operation_xyz
x,y,z
-x,1/2+y,-z
-x,-y,-z
x,1/2-y,z
loop_
_atom_site_type_symbol
_atom_site_label
_atom_site_fract_x
_atom_site_fract_y
_atom_site_fract_z
Si Si1 0.149040 0.127576 0.656217
Si Si2 0.104582 0.558172 0.623107
Si Si3 0.287072 0.613002 0.098527
Si Si4 0.422069 0.655760 0.616948
Si Si5 0.724776 0.838669 0.876756
O O1 0.341764 0.152265 0.637368
O O2 0.218635 0.157440 0.393048
O O3 0.913149 0.156698 0.840359
O O4 0.136129 0.030392 0.682590
O O5 0.177892 0.557434 0.343480
O O6 0.253731 0.624461 0.601549
O O7 0.874784 0.591395 0.837113
O O8 0.400543 0.591980 0.812110
O O9 0.478202 0.652040 0.065259
O O10 0.392616 0.750000 0.695768
O O11 0.785987 0.750000 0.900243
#
# Coordination Sequence:
#
# PCOD9165021 Si02
#       5
#     4   4   4   4   4
#     4  10  22  41  65  92 124 163 207 255 307 365
#     4  11  24  42  65  93 125 162 207 258 306 363
#     4  10  22  40  64  87 120 163 199 247 314 360
#     4  11  25  41  61  93 127 161 209 258 303 369
#     4  10  21  37  61  93 125 161 209 255 302 369
#
# _framework density 26.658192
#
# number of rings (size 3 to 8) (size 9 to 14) (size 15 to 20)
#    0.000    1.600    0.000    6.000    0.000   19.200 
#    0.000    0.000    0.000    0.000    0.000    0.000 
#    0.000    0.000    0.000    0.000    0.000    0.000 
#
# Total GULP energy -111549.104768 kJ/mol
# GULP energy per Si atom -5577.455238 kJ/mol
# Density = 2.659752 g / cm^3
# Si number density = 26.658192 Si / 1000 Ang^3
#
#
#
# Elastic Constant Matrix: (Units=GPa)
#
#
# Indices 1 2 3 4 5 6 
#
# 1 138.2492 35.4120 30.6386 0.0000 -51.1319 0.0000
# 2 35.4120 150.0215 48.3263 0.0000 -29.5370 0.0000
# 3 30.6386 48.3263 122.3437 0.0000 -22.6554 0.0000
# 4 0.0000 0.0000 0.0000 28.3235 0.0000 1.5363
# 5 -51.1319 -29.5370 -22.6554 0.0000 65.4965 0.0000
# 6 0.0000 0.0000 0.0000 1.5363 0.0000 25.3181
#
#
#
# Elastic Compliance Matrix: (Units=1/GPa)
#
#
# Indices 1 2 3 4 5 6 
#
# 1 0.010379 -0.000673 -0.000950 0.000000 0.007471 0.000000
# 2 -0.000673 0.008107 -0.002622 0.000000 0.002224 0.000000
# 3 -0.000950 -0.002622 0.009713 0.000000 0.001436 0.000000
# 4 0.000000 0.000000 0.000000 0.035423 0.000000 -0.002150
# 5 0.007471 0.002224 0.001436 0.000000 0.022600 0.000000
# 6 0.000000 0.000000 0.000000 -0.002150 0.000000 0.039628
#
#
# Mechanical properties :
#
#
# Convention : Reuss Voigt Hill
#
# Bulk Modulus (GPa) = 50.73724 71.04091 60.88907
# Shear Modulus (GPa) = 35.48365 43.57680 39.53023
#
# Velocity S-wave (km/s) = 3.65233 4.04747 3.85496
# Velocity P-wave (km/s) = 6.07123 6.96773 6.53487
#
# Compressibility (1/GPa) = 0.01970939
#
# Stress axis : x y z
#
# Youngs Moduli (GPa) = 96.34498 123.35020 102.95309
#
# Poissons Ratio (x) = 0.08303 0.09781
# Poissons Ratio (y) = 0.06485 0.26994
# Poissons Ratio (z) = 0.09153 0.32342
#
# Static dielectric constant tensor:
#      x y z
#    x 2.203070 0.000000 0.006010 
#    y 0.000000 2.061430 0.000000 
#    z 0.006010 0.000000 2.142460 
# 
# From -- ./inp_files/13415.got.cif
#   From: 2010.05.17/outbox.cif.g08.bks.cpg/sg11_7_cif.got.tgz:13415.got - 2010.06.03 12:22:45.
