data_PCOD9165667
_publ_section_title
;
Structure prediction by ZEFSAII (Michael W. Deem and Ramdas Pophale) SiO2 
 PCOD9165667
Probable space group: P 21/M
;
_chemical_formula_sum "Si O2"
_cell_formula_units_Z 26
_cell_length_a 10.212392
_cell_length_b 24.211753
_cell_length_c 6.814237
_cell_angle_alpha 90.000000
_cell_angle_beta 135.384266
_cell_angle_gamma 90.000000
_cell_volume 1183.378405
_symmetry_space_group_name_H-M "P 21/M"
_symmetry_group_IT_number 11
_symmetry_cell_setting 'monoclinic'
loop_
_space_group_symop_operation_xyz
x,y,z
-x,1/2+y,-z
-x,-y,-z
x,1/2-y,z
loop_
_atom_site_type_symbol
_atom_site_label
_atom_site_fract_x
_atom_site_fract_y
_atom_site_fract_z
Si Si1 0.694251 0.025635 0.139985
Si Si2 0.058854 0.750000 0.276678
Si Si3 0.047015 0.446163 0.747866
Si Si4 0.837676 0.862157 0.476325
Si Si5 0.877393 0.136501 0.873347
Si Si6 0.277870 0.250000 0.864338
Si Si7 0.564922 0.133074 0.802156
Si Si8 0.345043 0.750000 0.908676
O O1 0.656220 0.088841 0.046265
O O2 0.855699 0.024482 0.475658
O O3 0.790084 0.991726 0.063175
O O4 0.500000 0.000000 0.000000
O O5 0.148150 0.750000 0.589636
O O6 0.834221 0.750000 0.052988
O O7 0.119382 0.694317 0.236117
O O8 0.117182 0.405843 0.646836
O O9 0.988574 0.408966 0.868038
O O10 0.785646 0.804696 0.317531
O O11 0.012329 0.856768 0.805391
O O12 0.655462 0.876181 0.412199
O O13 0.664116 0.122383 0.700081
O O14 0.500481 0.250000 0.100908
O O15 0.615890 0.195240 0.923584
#
# Coordination Sequence:
#
# PCOD9165667 Si02
#       8
#     4   2   4   4   4   2   4   2
#     4  11  23  44  71  92 130 177 221 267 330 385
#     4  12  22  38  66  98 129 174 215 271 327 392
#     4  11  24  43  68  94 128 174 222 269 320 393
#     4  11  22  44  65  95 135 171 214 272 323 389
#     4  12  25  40  66 102 131 167 224 270 330 388
#     4  10  21  39  69  96 129 178 214 262 332 388
#     4  11  23  43  67  97 131 172 212 273 330 385
#     4  10  23  41  71  94 132 170 219 263 327 394
#
# _framework density 21.970994999999998
#
# number of rings (size 3 to 8) (size 9 to 14) (size 15 to 20)
#    0.000    0.923    4.615    2.769    0.000    3.077 
#    0.000    1.538    0.000    0.000    0.000    0.000 
#    0.000    0.000    0.000    0.000    0.000    0.000 
#
# Total GULP energy -145343.231371 kJ/mol
# GULP energy per Si atom -5590.124284 kJ/mol
# Density = 2.192099 g / cm^3
# Si number density = 21.970995 Si / 1000 Ang^3
#
#
#
# Elastic Constant Matrix: (Units=GPa)
#
#
# Indices 1 2 3 4 5 6 
#
# 1 131.0398 15.7886 19.0438 0.0000 43.0286 0.0000
# 2 15.7886 105.5176 12.3617 0.0000 9.2594 0.0000
# 3 19.0438 12.3617 34.1636 0.0000 26.6483 0.0000
# 4 0.0000 0.0000 0.0000 17.9923 0.0000 22.7886
# 5 43.0286 9.2594 26.6483 0.0000 39.7725 0.0000
# 6 0.0000 0.0000 0.0000 22.7886 0.0000 -2.9984
#
#
#
# Elastic Compliance Matrix: (Units=1/GPa)
#
#
# Indices 1 2 3 4 5 6 
#
# 1 0.012865 -0.001205 0.008175 0.000000 -0.019115 0.000000
# 2 -0.001205 0.010010 -0.004503 0.000000 0.001991 0.000000
# 3 0.008175 -0.004503 0.067922 0.000000 -0.053305 0.000000
# 4 0.000000 0.000000 0.000000 0.005230 0.000000 0.039752
# 5 -0.019115 0.001991 -0.053305 0.000000 0.081075 0.000000
# 6 0.000000 0.000000 0.000000 0.039752 0.000000 -0.031386
#
#
# Mechanical properties :
#
#
# Convention : Reuss Voigt Hill
#
# Bulk Modulus (GPa) = 10.44594 40.56769 25.50681
# Shear Modulus (GPa) = 28.95286 25.85507 27.40397
#
# Velocity S-wave (km/s) = 3.63406 3.43415 3.53552
# Velocity P-wave (km/s) = 4.73004 5.85054 5.31987
#
# Compressibility (1/GPa) = 0.09573101
#
# Stress axis : x y z
#
# Youngs Moduli (GPa) = 77.72951 99.89707 14.72270
#
# Poissons Ratio (x) = 0.12041 -0.12036
# Poissons Ratio (y) = 0.09369 0.06629
# Poissons Ratio (z) = -0.63543 0.44983
#
# Static dielectric constant tensor:
#      x y z
#    x 1.862190 0.000000 0.018330 
#    y 0.000000 1.809570 0.000000 
#    z 0.018330 0.000000 1.758950 
# 
# From -- ./inp_files/19776.got.cif
#   From: 2010.05.17/outbox.cif.g08.bks.cpg/sg11_10_cif.got.tgz:19776.got - 2010.06.03 12:22:45.
