data_PCOD9165119
_publ_section_title
;
Structure prediction by ZEFSAII (Michael W. Deem and Ramdas Pophale) SiO2 
 PCOD9165119
Probable space group: P 21/M
;
_chemical_formula_sum "Si O2"
_cell_formula_units_Z 32
_cell_length_a 20.329075
_cell_length_b 7.988797
_cell_length_c 13.578170
_cell_angle_alpha 90.000000
_cell_angle_beta 139.776115
_cell_angle_gamma 90.000000
_cell_volume 1424.039942
_symmetry_space_group_name_H-M "P 21/M"
_symmetry_group_IT_number 11
_symmetry_cell_setting 'monoclinic'
loop_
_space_group_symop_operation_xyz
x,y,z
-x,1/2+y,-z
-x,-y,-z
x,1/2-y,z
loop_
_atom_site_type_symbol
_atom_site_label
_atom_site_fract_x
_atom_site_fract_y
_atom_site_fract_z
Si Si1 0.678172 0.953330 0.595045
Si Si2 0.941065 0.942632 0.138477
Si Si3 0.905943 0.941297 0.825473
Si Si4 0.748654 0.949436 0.309563
Si Si5 0.646025 0.955191 0.990329
Si Si6 0.714953 0.545903 0.851075
Si Si7 0.024526 0.449928 0.418404
Si Si8 0.415301 0.948489 0.716132
O O1 0.675196 0.750000 0.588304
O O2 0.793926 0.017007 0.704821
O O3 0.656694 0.004383 0.684188
O O4 0.609352 0.013960 0.426470
O O5 0.954559 0.750000 0.125633
O O6 0.833694 0.004251 0.974221
O O7 0.041345 0.040503 0.219714
O O8 0.941451 0.961237 0.255158
O O9 0.889425 0.750000 0.831747
O O10 0.000000 0.000000 0.000000
O O11 0.759802 0.750000 0.310950
O O12 0.860037 0.012796 0.466996
O O13 0.667596 0.979457 0.303420
O O14 0.710666 0.012943 0.159056
O O15 0.649455 0.750000 0.993007
O O16 0.678915 0.010518 0.917737
O O17 0.528929 0.007954 0.870989
O O18 0.714460 0.750000 0.852616
O O19 0.017567 0.250000 0.396682
O O20 0.000000 0.500000 0.500000
O O21 0.413157 0.750000 0.726418
#
# Coordination Sequence:
#
# PCOD9165119 Si02
#       8
#     4   4   4   4   4   4   4   4
#     4  10  21  38  58  82 115 157 196 227 279 356
#     4  11  21  36  58  85 116 156 196 234 286 343
#     4  11  21  35  55  83 114 149 192 234 278 335
#     4  10  21  40  63  84 112 154 195 232 285 357
#     4   9  19  37  61  85 110 144 192 244 292 346
#     4   9  18  36  59  82 112 155 196 229 280 356
#     4  11  23  38  58  87 118 154 194 235 284 344
#     4  11  23  37  58  89 116 144 189 249 300 330
#
# _framework density 22.47128
#
# number of rings (size 3 to 8) (size 9 to 14) (size 15 to 20)
#    0.000    1.750    1.250    3.375    0.000    7.500 
#    0.000    0.625    0.000    4.500    0.000    0.000 
#    0.000    0.000    0.000    0.000    0.000    0.000 
#
# Total GULP energy -178656.422187 kJ/mol
# GULP energy per Si atom -5583.013193 kJ/mol
# Density = 2.242013 g / cm^3
# Si number density = 22.471280 Si / 1000 Ang^3
#
#
#
# Elastic Constant Matrix: (Units=GPa)
#
#
# Indices 1 2 3 4 5 6 
#
# 1 67.0177 -9.0069 2.3444 0.0000 -12.3662 0.0000
# 2 -9.0069 19.1287 -3.2748 0.0000 6.7393 0.0000
# 3 2.3444 -3.2748 87.5092 0.0000 -15.0499 0.0000
# 4 0.0000 0.0000 0.0000 22.0266 0.0000 -4.8580
# 5 -12.3662 6.7393 -15.0499 0.0000 40.7378 0.0000
# 6 0.0000 0.0000 0.0000 -4.8580 0.0000 13.6405
#
#
#
# Elastic Compliance Matrix: (Units=1/GPa)
#
#
# Indices 1 2 3 4 5 6 
#
# 1 0.016530 0.006410 0.000510 0.000000 0.004146 0.000000
# 2 0.006410 0.058022 0.000730 0.000000 -0.007383 0.000000
# 3 0.000510 0.000730 0.012224 0.000000 0.004550 0.000000
# 4 0.000000 0.000000 0.000000 0.049270 0.000000 0.017547
# 5 0.004146 -0.007383 0.004550 0.000000 0.028708 0.000000
# 6 0.000000 0.000000 0.000000 0.017547 0.000000 0.079561
#
#
# Mechanical properties :
#
#
# Convention : Reuss Voigt Hill
#
# Bulk Modulus (GPa) = 9.79670 17.08679 13.44174
# Shear Modulus (GPa) = 19.00858 27.52048 23.26453
#
# Velocity S-wave (km/s) = 2.91160 3.50336 3.22110
# Velocity P-wave (km/s) = 3.95883 4.89746 4.45294
#
# Compressibility (1/GPa) = 0.10207522
#
# Stress axis : x y z
#
# Youngs Moduli (GPa) = 60.49591 17.23486 81.80958
#
# Poissons Ratio (x) = -0.11048 -0.04172
# Poissons Ratio (y) = -0.38778 -0.05971
# Poissons Ratio (z) = -0.03085 -0.01258
#
# Static dielectric constant tensor:
#      x y z
#    x 1.962160 0.000000 -0.036810 
#    y 0.000000 1.824520 0.000000 
#    z -0.036810 0.000000 1.834230 
# 
# From -- ./inp_files/54314.got.cif
#   From: 2010.05.17/outbox.cif.g08.bks.cpg/sg11_28_cif.got.tgz:54314.got - 2010.06.03 12:22:45.
