data_PCOD9165432
_publ_section_title
;
Structure prediction by ZEFSAII (Michael W. Deem and Ramdas Pophale) SiO2 
 PCOD9165432
Probable space group: P 21/M
;
_chemical_formula_sum "Si O2"
_cell_formula_units_Z 32
_cell_length_a 26.884933
_cell_length_b 8.706303
_cell_length_c 21.466125
_cell_angle_alpha 90.000000
_cell_angle_beta 159.249298
_cell_angle_gamma 90.000000
_cell_volume 1780.207397
_symmetry_space_group_name_H-M "P 21/M"
_symmetry_group_IT_number 11
_symmetry_cell_setting 'monoclinic'
loop_
_space_group_symop_operation_xyz
x,y,z
-x,1/2+y,-z
-x,-y,-z
x,1/2-y,z
loop_
_atom_site_type_symbol
_atom_site_label
_atom_site_fract_x
_atom_site_fract_y
_atom_site_fract_z
Si Si1 0.935187 0.065147 0.986422
Si Si2 0.342446 0.065140 0.020086
Si Si3 0.235996 0.564078 0.026541
Si Si4 0.360304 0.564765 0.305540
Si Si5 0.647449 0.434879 0.194698
Si Si6 0.844364 0.434759 0.311608
Si Si7 0.938368 0.564989 0.734250
Si Si8 0.343241 0.564778 0.652191
O O1 0.936236 0.250000 0.985053
O O2 0.775225 0.016896 0.812679
O O3 0.023355 0.018811 0.150543
O O4 0.000000 0.000000 0.000000
O O5 0.336400 0.250000 0.010863
O O6 0.240552 0.999237 0.847146
O O7 0.503548 0.017098 0.193879
O O8 0.293745 0.007343 0.030754
O O9 0.240300 0.750000 0.027058
O O10 0.326094 0.519893 0.193724
O O11 0.073586 0.519783 0.850562
O O12 0.500000 0.500000 0.500000
O O13 0.366603 0.750000 0.313294
O O14 0.640646 0.250000 0.187235
O O15 0.762334 0.480419 0.278515
O O16 0.673424 0.486330 0.295607
O O17 0.500000 0.500000 0.000000
O O18 0.847673 0.250000 0.311325
O O19 0.000000 0.500000 0.500000
O O20 0.931620 0.750000 0.724089
O O21 0.790464 0.497584 0.540895
O O22 0.340441 0.750000 0.647209
#
# Coordination Sequence:
#
# PCOD9165432 Si02
#       8
#     4   4   4   4   4   4   4   4
#     4   9  19  36  56  81 113 145 182 227 273 325
#     4  11  23  39  58  82 114 148 184 231 280 329
#     4   9  20  39  58  80 112 149 187 231 277 327
#     4   9  19  36  57  81 113 148 186 229 275 329
#     4  10  21  39  60  82 111 146 184 228 277 329
#     4  11  24  40  60  86 114 147 187 230 278 332
#     4   9  20  38  58  81 109 146 187 225 273 329
#     4  10  22  38  56  82 114 145 181 228 277 327
#
# _framework density 17.975432999999999
#
# number of rings (size 3 to 8) (size 9 to 14) (size 15 to 20)
#    0.000    2.250    1.250    2.250    1.750    5.000 
#    0.000    7.500    0.000    0.000    0.000    0.000 
#    0.000    0.000    0.000    0.000    0.000    0.000 
#
# Total GULP energy -178575.903642 kJ/mol
# GULP energy per Si atom -5580.496989 kJ/mol
# Density = 1.793452 g / cm^3
# Si number density = 17.975433 Si / 1000 Ang^3
#
#
#
# Elastic Constant Matrix: (Units=GPa)
#
#
# Indices 1 2 3 4 5 6 
#
# 1 201.6245 45.9059 117.0492 0.0000 8.9166 0.0000
# 2 45.9059 22.6984 42.8893 0.0000 3.5059 0.0000
# 3 117.0492 42.8893 206.4151 0.0000 7.2390 0.0000
# 4 0.0000 0.0000 0.0000 37.9546 0.0000 -1.3141
# 5 8.9166 3.5059 7.2390 0.0000 19.7579 0.0000
# 6 0.0000 0.0000 0.0000 -1.3141 0.0000 30.0127
#
#
#
# Elastic Compliance Matrix: (Units=1/GPa)
#
#
# Indices 1 2 3 4 5 6 
#
# 1 0.009871 -0.015329 -0.002382 0.000000 -0.000862 0.000000
# 2 -0.015329 0.097436 -0.011335 0.000000 -0.006218 0.000000
# 3 -0.002382 -0.011335 0.008552 0.000000 -0.000047 0.000000
# 4 0.000000 0.000000 0.000000 0.026387 0.000000 0.001155
# 5 -0.000862 -0.006218 -0.000047 0.000000 0.052122 0.000000
# 6 0.000000 0.000000 0.000000 0.001155 0.000000 0.033370
#
#
# Mechanical properties :
#
#
# Convention : Reuss Voigt Hill
#
# Bulk Modulus (GPa) = 17.31085 93.60297 55.45691
# Shear Modulus (GPa) = 16.38881 32.53794 24.46338
#
# Velocity S-wave (km/s) = 3.02277 4.25918 3.69309
# Velocity P-wave (km/s) = 4.67269 8.73918 7.00740
#
# Compressibility (1/GPa) = 0.05776725
#
# Stress axis : x y z
#
# Youngs Moduli (GPa) = 101.30959 10.26312 116.92924
#
# Poissons Ratio (x) = 0.15732 0.27852
# Poissons Ratio (y) = 1.55297 1.32539
# Poissons Ratio (z) = 0.24132 0.11633
#
# Static dielectric constant tensor:
#      x y z
#    x 1.590730 0.000000 0.001840 
#    y 0.000000 1.611050 0.000000 
#    z 0.001840 0.000000 1.590200 
# 
# From -- ./inp_files/67218.got.cif
#   From: 2010.05.17/outbox.cif.g08.bks.cpg/sg11_34_cif.got.tgz:67218.got - 2010.06.03 12:22:45.
