data_PCOD9165373
_publ_section_title
;
Structure prediction by ZEFSAII (Michael W. Deem and Ramdas Pophale) SiO2 
 PCOD9165373
Probable space group: P 21/M
;
_chemical_formula_sum "Si O2"
_cell_formula_units_Z 28
_cell_length_a 20.759015
_cell_length_b 13.494895
_cell_length_c 8.572495
_cell_angle_alpha 90.000000
_cell_angle_beta 34.436772
_cell_angle_gamma 90.000000
_cell_volume 1358.042518
_symmetry_space_group_name_H-M "P 21/M"
_symmetry_group_IT_number 11
_symmetry_cell_setting 'monoclinic'
loop_
_space_group_symop_operation_xyz
x,y,z
-x,1/2+y,-z
-x,-y,-z
x,1/2-y,z
loop_
_atom_site_type_symbol
_atom_site_label
_atom_site_fract_x
_atom_site_fract_y
_atom_site_fract_z
Si Si1 0.019695 0.637561 0.186776
Si Si2 0.977868 0.868771 0.913121
Si Si3 0.660865 0.633219 0.855409
Si Si4 0.857127 0.000216 0.619070
Si Si5 0.765109 0.140337 0.066384
Si Si6 0.717090 0.635126 0.376010
Si Si7 0.448721 0.968670 0.436119
O O1 0.981306 0.750000 0.279898
O O2 0.154000 0.632715 0.944614
O O3 0.961156 0.574979 0.439850
O O4 0.985223 0.605434 0.082435
O O5 0.988352 0.750000 0.882518
O O6 0.081388 0.920124 0.616214
O O7 0.851591 0.893960 0.099584
O O8 0.655974 0.750000 0.915107
O O9 0.763448 0.571306 0.728322
O O10 0.684282 0.634261 0.624107
O O11 0.548200 0.570942 0.125094
O O12 0.801142 0.057169 0.872403
O O13 0.784280 0.250000 0.961295
O O14 0.636239 0.122659 0.368675
O O15 0.706368 0.750000 0.341781
O O16 0.631089 0.558867 0.465297
O O17 0.500000 0.000000 0.500000
#
# Coordination Sequence:
#
# PCOD9165373 Si02
#       7
#     4   4   4   4   4   4   4
#     4  10  21  38  63  94 129 169 209 261 324 385
#     4  10  21  39  65  98 134 165 207 266 324 385
#     4  11  24  44  68  95 130 169 220 275 322 378
#     4  12  21  38  64  96 127 173 210 257 323 388
#     4  11  25  42  60  90 132 171 219 267 315 380
#     4  10  23  44  70 101 129 164 215 269 323 389
#     4  12  25  46  66  92 124 178 218 266 324 377
#
# _framework density 20.617909999999998
#
# number of rings (size 3 to 8) (size 9 to 14) (size 15 to 20)
#    0.000    1.143    2.857    3.429    2.000    1.143 
#    0.000    1.429    0.000    0.000    0.000    0.000 
#    0.000    0.000    0.000    0.000    0.000    0.000 
#
# Total GULP energy -156370.806748 kJ/mol
# GULP energy per Si atom -5584.671670 kJ/mol
# Density = 2.057098 g / cm^3
# Si number density = 20.617910 Si / 1000 Ang^3
#
#
#
# Elastic Constant Matrix: (Units=GPa)
#
#
# Indices 1 2 3 4 5 6 
#
# 1 83.3990 47.3343 19.9574 0.0000 -24.5509 0.0000
# 2 47.3343 123.4951 21.3148 0.0000 -5.5453 0.0000
# 3 19.9574 21.3148 99.0942 0.0000 -17.5501 0.0000
# 4 0.0000 0.0000 0.0000 39.5281 0.0000 -4.0181
# 5 -24.5509 -5.5453 -17.5501 0.0000 27.7357 0.0000
# 6 0.0000 0.0000 0.0000 -4.0181 0.0000 35.6064
#
#
#
# Elastic Compliance Matrix: (Units=1/GPa)
#
#
# Indices 1 2 3 4 5 6 
#
# 1 0.021311 -0.007451 0.000437 0.000000 0.017650 0.000000
# 2 -0.007451 0.011024 -0.001856 0.000000 -0.005566 0.000000
# 3 0.000437 -0.001856 0.011719 0.000000 0.007431 0.000000
# 4 0.000000 0.000000 0.000000 0.025592 0.000000 0.002888
# 5 0.017650 -0.005566 0.007431 0.000000 0.055267 0.000000
# 6 0.000000 0.000000 0.000000 0.002888 0.000000 0.028411
#
#
# Mechanical properties :
#
#
# Convention : Reuss Voigt Hill
#
# Bulk Modulus (GPa) = 38.00527 53.68902 45.84715
# Shear Modulus (GPa) = 27.80316 35.06615 31.43466
#
# Velocity S-wave (km/s) = 3.67617 4.12850 3.90889
# Velocity P-wave (km/s) = 6.04087 6.98732 6.53126
#
# Compressibility (1/GPa) = 0.02631214
#
# Stress axis : x y z
#
# Youngs Moduli (GPa) = 46.92431 90.71239 85.33333
#
# Poissons Ratio (x) = 0.67590 -0.03726
# Poissons Ratio (y) = 0.34964 0.15841
# Poissons Ratio (z) = -0.02049 0.16839
#
# Static dielectric constant tensor:
#      x y z
#    x 1.727780 0.000000 -0.016210 
#    y 0.000000 1.786180 0.000000 
#    z -0.016210 0.000000 1.718990 
# 
# From -- ./inp_files/26909.got.cif
#   From: 2010.05.17/outbox.cif.g08.bks.cpg/sg11_14_cif.got.tgz:26909.got - 2010.06.03 12:22:45.
