data_PCOD9165723
_publ_section_title
;
Structure prediction by ZEFSAII (Michael W. Deem and Ramdas Pophale) SiO2 
 PCOD9165723
Probable space group: P 21/M
;
_chemical_formula_sum "Si O2"
_cell_formula_units_Z 24
_cell_length_a 17.299866
_cell_length_b 8.592108
_cell_length_c 24.878677
_cell_angle_alpha 90.000000
_cell_angle_beta 160.559699
_cell_angle_gamma 90.000000
_cell_volume 1230.793048
_symmetry_space_group_name_H-M "P 21/M"
_symmetry_group_IT_number 11
_symmetry_cell_setting 'monoclinic'
loop_
_space_group_symop_operation_xyz
x,y,z
-x,1/2+y,-z
-x,-y,-z
x,1/2-y,z
loop_
_atom_site_type_symbol
_atom_site_label
_atom_site_fract_x
_atom_site_fract_y
_atom_site_fract_z
Si Si1 0.959132 0.439145 0.101804
Si Si2 0.459413 0.938521 0.249724
Si Si3 0.071197 0.063123 0.294362
Si Si4 0.031760 0.436348 0.461139
Si Si5 0.569450 0.563234 0.649051
Si Si6 0.248133 0.064935 0.820093
O O1 0.956700 0.250000 0.100413
O O2 0.963122 0.488010 0.166519
O O3 0.198093 0.487013 0.229650
O O4 0.737536 0.488778 0.921770
O O5 0.450512 0.750000 0.249092
O O6 0.714634 0.980683 0.395667
O O7 0.416596 0.011970 0.279785
O O8 0.057961 0.250000 0.289688
O O9 0.338870 0.012142 0.472989
O O10 0.933482 0.991105 0.253850
O O11 0.019130 0.250000 0.453388
O O12 0.000000 0.500000 0.500000
O O13 0.840261 0.502105 0.294972
O O14 0.550828 0.750000 0.633578
O O15 0.255086 0.250000 0.823216
O O16 0.500000 0.000000 0.000000
#
# Coordination Sequence:
#
# PCOD9165723 Si02
#       6
#     4   4   4   4   4   4
#     4   9  21  38  60  91 124 163 211 259 308 365
#     4  10  21  40  63  88 123 166 206 253 313 373
#     4  11  22  40  64  90 125 166 208 257 315 372
#     4  11  24  42  67  96 128 166 209 257 317 377
#     4  11  21  37  61  90 125 165 210 258 309 368
#     4  12  26  45  68  95 127 162 208 261 317 380
#
# _framework density 19.499623
#
# number of rings (size 3 to 8) (size 9 to 14) (size 15 to 20)
#    0.000    1.333    1.667    4.000    2.333    0.667 
#    0.000    5.000    0.000    0.000    0.000    0.000 
#    0.000    0.000    0.000    0.000    0.000    0.000 
#
# Total GULP energy -134237.316437 kJ/mol
# GULP energy per Si atom -5593.221518 kJ/mol
# Density = 1.945524 g / cm^3
# Si number density = 19.499623 Si / 1000 Ang^3
#
#
#
# Elastic Constant Matrix: (Units=GPa)
#
#
# Indices 1 2 3 4 5 6 
#
# 1 101.2448 33.5169 33.7413 0.0000 -19.3535 0.0000
# 2 33.5169 63.3934 32.1868 0.0000 -2.0592 0.0000
# 3 33.7413 32.1868 131.4922 0.0000 -11.7954 0.0000
# 4 0.0000 0.0000 0.0000 29.2099 0.0000 -0.2064
# 5 -19.3535 -2.0592 -11.7954 0.0000 36.5293 0.0000
# 6 0.0000 0.0000 0.0000 -0.2064 0.0000 25.4349
#
#
#
# Elastic Compliance Matrix: (Units=1/GPa)
#
#
# Indices 1 2 3 4 5 6 
#
# 1 0.013656 -0.006309 -0.001383 0.000000 0.006433 0.000000
# 2 -0.006309 0.020934 -0.003810 0.000000 -0.003393 0.000000
# 3 -0.001383 -0.003810 0.009070 0.000000 0.001981 0.000000
# 4 0.000000 0.000000 0.000000 0.034237 0.000000 0.000278
# 5 0.006433 -0.003393 0.001981 0.000000 0.031232 0.000000
# 6 0.000000 0.000000 0.000000 0.000278 0.000000 0.039318
#
#
# Mechanical properties :
#
#
# Convention : Reuss Voigt Hill
#
# Bulk Modulus (GPa) = 48.40892 55.00225 51.70558
# Shear Modulus (GPa) = 28.03678 31.34719 29.69199
#
# Velocity S-wave (km/s) = 3.79596 4.01381 3.90641
# Velocity P-wave (km/s) = 6.64017 7.05330 6.84985
#
# Compressibility (1/GPa) = 0.02065735
#
# Stress axis : x y z
#
# Youngs Moduli (GPa) = 73.22671 47.76837 110.25197
#
# Poissons Ratio (x) = 0.30138 0.15246
# Poissons Ratio (y) = 0.46200 0.42003
# Poissons Ratio (z) = 0.10126 0.18198
#
# Static dielectric constant tensor:
#      x y z
#    x 1.650800 0.000000 -0.002010 
#    y 0.000000 1.669200 0.000000 
#    z -0.002010 0.000000 1.664370 
# 
# From -- ./inp_files/69534.got.cif
#   From: 2010.05.17/outbox.cif.g08.bks.cpg/sg11_35_cif.got.tgz:69534.got - 2010.06.03 12:22:45.
