data_PCOD9165644
_publ_section_title
;
Structure prediction by ZEFSAII (Michael W. Deem and Ramdas Pophale) SiO2 
 PCOD9165644
Probable space group: P 21/M
;
_chemical_formula_sum "Si O2"
_cell_formula_units_Z 26
_cell_length_a 4.954320
_cell_length_b 21.095805
_cell_length_c 13.590992
_cell_angle_alpha 90.000000
_cell_angle_beta 51.722240
_cell_angle_gamma 90.000000
_cell_volume 1115.091003
_symmetry_space_group_name_H-M "P 21/M"
_symmetry_group_IT_number 11
_symmetry_cell_setting 'monoclinic'
loop_
_space_group_symop_operation_xyz
x,y,z
-x,1/2+y,-z
-x,-y,-z
x,1/2-y,z
loop_
_atom_site_type_symbol
_atom_site_label
_atom_site_fract_x
_atom_site_fract_y
_atom_site_fract_z
Si Si1 0.515118 0.880183 0.820860
Si Si2 0.334970 0.466319 0.387420
Si Si3 0.501055 0.177421 0.681923
Si Si4 0.701921 0.847936 0.488810
Si Si5 0.243286 0.438779 0.034995
Si Si6 0.821589 0.558612 0.171356
Si Si7 0.394460 0.250000 0.307338
O O1 0.724505 0.925585 0.698761
O O2 0.125828 0.902355 0.889155
O O3 0.583621 0.807391 0.779846
O O4 0.587175 0.898885 0.916561
O O5 0.433979 0.416436 0.448957
O O6 0.607319 0.519752 0.299679
O O7 0.000000 0.500000 0.500000
O O8 0.467115 0.250000 0.723555
O O9 0.478188 0.176086 0.568778
O O10 0.201011 0.131101 0.788859
O O11 0.884305 0.152762 0.621633
O O12 0.626737 0.803942 0.599268
O O13 0.150398 0.512212 0.083555
O O14 0.358672 0.440033 0.895195
#
# Coordination Sequence:
#
# PCOD9165644 Si02
#       7
#     4   4   4   4   4   4   2
#     4  10  24  42  68  97 129 174 222 273 331 390
#     4  10  21  39  66 101 128 168 217 269 333 397
#     4  12  24  42  63  95 132 179 208 262 331 401
#     4  11  24  40  64  95 136 168 213 258 329 401
#     4  10  24  46  67  99 127 176 231 276 329 378
#     4  10  24  43  71  94 138 174 222 284 327 389
#     4  10  22  44  66  94 136 176 212 276 324 398
#
# _framework density 23.316483000000002
#
# number of rings (size 3 to 8) (size 9 to 14) (size 15 to 20)
#    0.000    1.538    3.077    0.000    2.154   16.615 
#    2.769    0.000    0.000    0.000    0.000    0.000 
#    0.000    0.000    0.000    0.000    0.000    0.000 
#
# Total GULP energy -144871.745538 kJ/mol
# GULP energy per Si atom -5571.990213 kJ/mol
# Density = 2.326341 g / cm^3
# Si number density = 23.316483 Si / 1000 Ang^3
#
#
#
# Elastic Constant Matrix: (Units=GPa)
#
#
# Indices 1 2 3 4 5 6 
#
# 1 46.6352 -0.5682 2.4234 0.0000 7.4220 0.0000
# 2 -0.5682 143.9714 41.1282 0.0000 0.7976 0.0000
# 3 2.4234 41.1282 75.6222 0.0000 8.9973 0.0000
# 4 0.0000 0.0000 0.0000 44.2239 0.0000 13.0625
# 5 7.4220 0.7976 8.9973 0.0000 24.6679 0.0000
# 6 0.0000 0.0000 0.0000 13.0625 0.0000 4.3135
#
#
#
# Elastic Compliance Matrix: (Units=1/GPa)
#
#
# Indices 1 2 3 4 5 6 
#
# 1 0.022524 0.000121 0.000020 0.000000 -0.006788 0.000000
# 2 0.000121 0.008272 -0.004669 0.000000 0.001399 0.000000
# 3 0.000020 -0.004669 0.016460 0.000000 -0.005859 0.000000
# 4 0.000000 0.000000 0.000000 0.214300 0.000000 -0.648970
# 5 -0.006788 0.001399 -0.005859 0.000000 0.044672 0.000000
# 6 0.000000 0.000000 0.000000 -0.648970 0.000000 2.197121
#
#
# Mechanical properties :
#
#
# Convention : Reuss Voigt Hill
#
# Bulk Modulus (GPa) = 26.17888 39.13283 32.65585
# Shear Modulus (GPa) = 1.98009 29.52409 15.75209
#
# Velocity S-wave (km/s) = 0.92253 3.56228 2.60201
# Velocity P-wave (km/s) = 3.51948 5.80857 4.80241
#
# Compressibility (1/GPa) = 0.03819874
#
# Stress axis : x y z
#
# Youngs Moduli (GPa) = 44.39751 120.88298 60.75494
#
# Poissons Ratio (x) = -0.01460 -0.00123
# Poissons Ratio (y) = -0.00536 0.28369
# Poissons Ratio (z) = -0.00090 0.56446
#
# Static dielectric constant tensor:
#      x y z
#    x 2.045840 0.000000 -0.081050 
#    y 0.000000 2.356430 0.000000 
#    z -0.081050 0.000000 1.863230 
# 
# From -- ./inp_files/29951.got.cif
#   From: 2010.05.17/outbox.cif.g08.bks.cpg/sg11_15_cif.got.tgz:29951.got - 2010.06.03 12:22:45.
