data_PCOD9165784
_publ_section_title
;
Structure prediction by ZEFSAII (Michael W. Deem and Ramdas Pophale) SiO2 
 PCOD9165784
Probable space group: P 21/M
;
_chemical_formula_sum "Si O2"
_cell_formula_units_Z 28
_cell_length_a 11.853142
_cell_length_b 13.445923
_cell_length_c 9.157107
_cell_angle_alpha 90.000000
_cell_angle_beta 114.437355
_cell_angle_gamma 90.000000
_cell_volume 1328.683031
_symmetry_space_group_name_H-M "P 21/M"
_symmetry_group_IT_number 11
_symmetry_cell_setting 'monoclinic'
loop_
_space_group_symop_operation_xyz
x,y,z
-x,1/2+y,-z
-x,-y,-z
x,1/2-y,z
loop_
_atom_site_type_symbol
_atom_site_label
_atom_site_fract_x
_atom_site_fract_y
_atom_site_fract_z
Si Si1 0.817865 0.140386 0.318399
Si Si2 0.944218 0.461370 0.816719
Si Si3 0.590140 0.134766 0.406721
Si Si4 0.190762 0.424010 0.793980
Si Si5 0.589428 0.968221 0.917372
Si Si6 0.311266 0.632870 0.236381
Si Si7 0.104775 0.362840 0.440361
O O1 0.793397 0.250000 0.239296
O O2 0.726907 0.129771 0.406501
O O3 0.964085 0.135949 0.428506
O O4 0.796453 0.043867 0.210467
O O5 0.829213 0.391639 0.792863
O O6 0.897406 0.553137 0.687336
O O7 0.057405 0.406655 0.795240
O O8 0.000000 0.500000 0.000000
O O9 0.555058 0.250000 0.390999
O O10 0.494413 0.080392 0.252104
O O11 0.604148 0.101692 0.580172
O O12 0.190253 0.386222 0.626604
O O13 0.304979 0.396146 0.958403
O O14 0.650748 0.064297 0.876575
O O15 0.500000 0.000000 0.000000
O O16 0.325820 0.750000 0.217546
O O17 0.128623 0.250000 0.399511
#
# Coordination Sequence:
#
# PCOD9165784 Si02
#       7
#     4   4   4   4   4   4   4
#     4   9  17  34  63  93 123 167 221 266 312 382
#     4  11  22  41  68 101 136 166 217 283 336 383
#     4  10  21  40  65  93 127 174 225 272 325 386
#     4  11  21  39  63  97 135 173 214 268 328 394
#     4  12  25  41  66  95 133 175 219 277 326 386
#     4  11  25  46  72  96 125 173 228 275 329 402
#     4  10  22  39  64  96 134 179 219 265 330 396
#
# _framework density 21.073499000000002
#
# number of rings (size 3 to 8) (size 9 to 14) (size 15 to 20)
#    0.000    1.429    2.857    3.857    0.000    4.000 
#    0.000    0.714    0.000    0.000    0.000    0.000 
#    0.000    0.000    0.000    0.000    0.000    0.000 
#
# Total GULP energy -156337.488424 kJ/mol
# GULP energy per Si atom -5583.481729 kJ/mol
# Density = 2.102553 g / cm^3
# Si number density = 21.073499 Si / 1000 Ang^3
#
#
#
# Elastic Constant Matrix: (Units=GPa)
#
#
# Indices 1 2 3 4 5 6 
#
# 1 66.2032 19.5792 21.5037 0.0000 -10.3562 0.0000
# 2 19.5792 42.2505 28.5459 0.0000 2.9814 0.0000
# 3 21.5037 28.5459 144.6899 0.0000 1.6367 0.0000
# 4 0.0000 0.0000 0.0000 16.0756 0.0000 0.6197
# 5 -10.3562 2.9814 1.6367 0.0000 22.1335 0.0000
# 6 0.0000 0.0000 0.0000 0.6197 0.0000 20.3988
#
#
#
# Elastic Compliance Matrix: (Units=1/GPa)
#
#
# Indices 1 2 3 4 5 6 
#
# 1 0.019871 -0.009093 -0.001279 0.000000 0.010617 0.000000
# 2 -0.009093 0.031710 -0.004812 0.000000 -0.008170 0.000000
# 3 -0.001279 -0.004812 0.008057 0.000000 -0.000546 0.000000
# 4 0.000000 0.000000 0.000000 0.062279 0.000000 -0.001892
# 5 0.010617 -0.008170 -0.000546 0.000000 0.051289 0.000000
# 6 0.000000 0.000000 0.000000 -0.001892 0.000000 0.049080
#
#
# Mechanical properties :
#
#
# Convention : Reuss Voigt Hill
#
# Bulk Modulus (GPa) = 34.16647 43.60014 38.88330
# Shear Modulus (GPa) = 19.05411 23.95591 21.50501
#
# Velocity S-wave (km/s) = 3.01021 3.37527 3.19796
# Velocity P-wave (km/s) = 5.32260 5.99370 5.66809
#
# Compressibility (1/GPa) = 0.02926846
#
# Stress axis : x y z
#
# Youngs Moduli (GPa) = 50.32578 31.53586 124.11505
#
# Poissons Ratio (x) = 0.28676 0.15878
# Poissons Ratio (y) = 0.45761 0.59727
# Poissons Ratio (z) = 0.06438 0.15176
#
# Static dielectric constant tensor:
#      x y z
#    x 1.761830 0.000000 0.032910 
#    y 0.000000 1.773850 0.000000 
#    z 0.032910 0.000000 1.801520 
# 
# From -- ./inp_files/18164.got.cif
#   From: 2010.05.17/outbox.cif.g08.bks.cpg/sg11_10_cif.got.tgz:18164.got - 2010.06.03 12:22:45.
