data_PCOD9165418
_publ_section_title
;
Structure prediction by ZEFSAII (Michael W. Deem and Ramdas Pophale) SiO2 
 PCOD9165418
Probable space group: P 21/M
;
_chemical_formula_sum "Si O2"
_cell_formula_units_Z 32
_cell_length_a 17.064317
_cell_length_b 15.105566
_cell_length_c 13.614764
_cell_angle_alpha 90.000000
_cell_angle_beta 152.701974
_cell_angle_gamma 90.000000
_cell_volume 1609.489011
_symmetry_space_group_name_H-M "P 21/M"
_symmetry_group_IT_number 11
_symmetry_cell_setting 'monoclinic'
loop_
_space_group_symop_operation_xyz
x,y,z
-x,1/2+y,-z
-x,-y,-z
x,1/2-y,z
loop_
_atom_site_type_symbol
_atom_site_label
_atom_site_fract_x
_atom_site_fract_y
_atom_site_fract_z
Si Si1 0.208634 0.642844 0.384794
Si Si2 0.455275 0.846383 0.112594
Si Si3 0.893880 0.006309 0.575430
Si Si4 0.641679 0.925113 0.146756
Si Si5 0.525283 0.932705 0.619800
Si Si6 0.200866 0.146210 0.389163
Si Si7 0.282028 0.477073 0.968952
Si Si8 0.851971 0.853874 0.889617
O O1 0.214555 0.750000 0.408331
O O2 0.218014 0.582358 0.494065
O O3 0.353507 0.614989 0.467197
O O4 0.023234 0.615354 0.134339
O O5 0.375504 0.750000 0.033202
O O6 0.568051 0.851730 0.138350
O O7 0.599839 0.858221 0.357796
O O8 0.319926 0.925091 0.968057
O O9 0.808861 0.969477 0.381332
O O10 0.896582 0.920265 0.648317
O O11 0.084833 0.038328 0.771492
O O12 0.500000 0.000000 0.000000
O O13 0.663769 0.908630 0.056292
O O14 0.677178 0.869134 0.752595
O O15 0.500000 0.000000 0.500000
O O16 0.606240 0.973629 0.808582
O O17 0.151482 0.250000 0.343515
O O18 0.171761 0.111477 0.246982
O O19 0.877594 0.750000 0.906541
#
# Coordination Sequence:
#
# PCOD9165418 Si02
#       8
#     4   4   4   4   4   4   4   4
#     4  11  24  41  61  88 123 165 207 251 303 360
#     4   9  18  36  58  85 116 151 195 247 299 360
#     4  11  21  38  62  87 122 157 198 250 304 363
#     4   9  19  38  60  83 112 152 198 242 304 359
#     4  12  24  39  62  90 120 161 208 250 305 361
#     4   9  19  36  60  85 118 157 200 251 302 354
#     4  11  22  37  58  88 119 156 199 248 300 361
#     4  10  21  39  58  84 121 160 206 255 298 353
#
# _framework density 19.882086999999999
#
# number of rings (size 3 to 8) (size 9 to 14) (size 15 to 20)
#    0.000    1.750    1.250    4.500    1.750    1.500 
#    0.000    7.500    0.000    1.500    0.000    0.000 
#    0.000    0.000    0.000    0.000    0.000    0.000 
#
# Total GULP energy -178366.532333 kJ/mol
# GULP energy per Si atom -5573.954135 kJ/mol
# Density = 1.983683 g / cm^3
# Si number density = 19.882087 Si / 1000 Ang^3
#
#
#
# Elastic Constant Matrix: (Units=GPa)
#
#
# Indices 1 2 3 4 5 6 
#
# 1 85.3594 3.0839 30.0940 0.0000 -9.2100 0.0000
# 2 3.0839 35.9748 -2.2389 0.0000 -10.0611 0.0000
# 3 30.0940 -2.2389 53.9881 0.0000 1.5135 0.0000
# 4 0.0000 0.0000 0.0000 18.2710 0.0000 11.0853
# 5 -9.2100 -10.0611 1.5135 0.0000 38.3479 0.0000
# 6 0.0000 0.0000 0.0000 11.0853 0.0000 4.5357
#
#
#
# Elastic Compliance Matrix: (Units=1/GPa)
#
#
# Indices 1 2 3 4 5 6 
#
# 1 0.015184 -0.000779 -0.008602 0.000000 0.003782 0.000000
# 2 -0.000779 0.030095 0.001468 0.000000 0.007651 0.000000
# 3 -0.008602 0.001468 0.023452 0.000000 -0.002606 0.000000
# 4 0.000000 0.000000 0.000000 -0.113357 0.000000 0.277047
# 5 0.003782 0.007651 -0.002606 0.000000 0.029095 0.000000
# 6 0.000000 0.000000 0.000000 0.277047 0.000000 -0.456634
#
#
# Mechanical properties :
#
#
# Convention : Reuss Voigt Hill
#
# Bulk Modulus (GPa) = 18.90233 26.35561 22.62897
# Shear Modulus (GPa) = -11.39724 21.85646 5.22961
#
# Velocity S-wave (km/s) = -2.39684 3.31917 1.62358
# Velocity P-wave (km/s) = 1.36676 5.28904 3.86277
#
# Compressibility (1/GPa) = 0.05290353
#
# Stress axis : x y z
#
# Youngs Moduli (GPa) = 65.85809 33.22804 42.64101
#
# Poissons Ratio (x) = 0.02590 0.36681
# Poissons Ratio (y) = 0.05133 -0.06260
# Poissons Ratio (z) = 0.56653 -0.04878
#
# Static dielectric constant tensor:
#      x y z
#    x 1.740420 0.000000 -0.046300 
#    y 0.000000 1.711590 0.000000 
#    z -0.046300 0.000000 1.756740 
# 
# From -- ./inp_files/40023.got.cif
#   From: 2010.05.17/outbox.cif.g08.bks.cpg/sg11_21_cif.got.tgz:40023.got - 2010.06.03 12:22:45.
