data_PCOD9165437
_publ_section_title
;
Structure prediction by ZEFSAII (Michael W. Deem and Ramdas Pophale) SiO2 
 PCOD9165437
Probable space group: P 21/M
;
_chemical_formula_sum "Si O2"
_cell_formula_units_Z 32
_cell_length_a 26.753438
_cell_length_b 8.779812
_cell_length_c 21.283421
_cell_angle_alpha 90.000000
_cell_angle_beta 159.172735
_cell_angle_gamma 90.000000
_cell_volume 1777.497913
_symmetry_space_group_name_H-M "P 21/M"
_symmetry_group_IT_number 11
_symmetry_cell_setting 'monoclinic'
loop_
_space_group_symop_operation_xyz
x,y,z
-x,1/2+y,-z
-x,-y,-z
x,1/2-y,z
loop_
_atom_site_type_symbol
_atom_site_label
_atom_site_fract_x
_atom_site_fract_y
_atom_site_fract_z
Si Si1 0.940570 0.567303 0.994057
Si Si2 0.155553 0.432943 0.681648
Si Si3 0.663331 0.067939 0.359329
Si Si4 0.650989 0.564703 0.973027
Si Si5 0.359872 0.432521 0.305806
Si Si6 0.649564 0.069031 0.194485
Si Si7 0.946482 0.568714 0.745278
Si Si8 0.775369 0.565336 0.984632
O O1 0.952215 0.750000 0.008271
O O2 0.776948 0.527322 0.813489
O O3 0.022688 0.499522 0.149878
O O4 0.000000 0.500000 0.000000
O O5 0.150130 0.250000 0.675714
O O6 0.247584 0.482649 0.850527
O O7 0.234176 0.490522 0.711947
O O8 0.000000 0.500000 0.500000
O O9 0.675502 0.250000 0.385211
O O10 0.670755 0.043922 0.293283
O O11 0.509705 0.016981 0.203081
O O12 0.793526 0.983791 0.543576
O O13 0.649941 0.750000 0.972448
O O14 0.710126 0.517707 0.974592
O O15 0.500000 0.500000 0.500000
O O16 0.372519 0.250000 0.320053
O O17 0.321153 0.479675 0.188722
O O18 0.649997 0.250000 0.183711
O O19 0.500000 0.000000 0.000000
O O20 0.957114 0.750000 0.758988
O O21 0.069963 0.501621 0.845990
O O22 0.786219 0.750000 0.996577
#
# Coordination Sequence:
#
# PCOD9165437 Si02
#       8
#     4   4   4   4   4   4   4   4
#     4  10  21  39  61  87 118 154 193 236 283 338
#     4  11  23  40  59  87 118 151 196 244 295 357
#     4  10  21  39  60  83 113 155 196 235 290 352
#     4   9  19  38  61  82 109 148 194 237 285 348
#     4   9  19  34  55  84 115 147 188 231 276 332
#     4  11  22  39  62  86 116 155 196 245 299 354
#     4  11  23  38  57  87 119 151 192 238 286 340
#     4   9  19  38  60  81 110 151 193 234 282 340
#
# _framework density 18.002832999999999
#
# number of rings (size 3 to 8) (size 9 to 14) (size 15 to 20)
#    0.000    2.000    1.250    3.000    1.750    4.500 
#    0.000    2.500    0.000    0.000    0.000    0.000 
#    0.000    0.000    0.000    0.000    0.000    0.000 
#
# Total GULP energy -178684.060819 kJ/mol
# GULP energy per Si atom -5583.876901 kJ/mol
# Density = 1.796186 g / cm^3
# Si number density = 18.002833 Si / 1000 Ang^3
#
#
#
# Elastic Constant Matrix: (Units=GPa)
#
#
# Indices 1 2 3 4 5 6 
#
# 1 167.2654 61.9087 85.6606 0.0000 18.7006 0.0000
# 2 61.9087 58.7703 62.4313 0.0000 2.0301 0.0000
# 3 85.6606 62.4313 171.7341 0.0000 15.7996 0.0000
# 4 0.0000 0.0000 0.0000 36.0256 0.0000 1.2822
# 5 18.7006 2.0301 15.7996 0.0000 19.0524 0.0000
# 6 0.0000 0.0000 0.0000 1.2822 0.0000 29.1347
#
#
#
# Elastic Compliance Matrix: (Units=1/GPa)
#
#
# Indices 1 2 3 4 5 6 
#
# 1 0.011503 -0.010773 -0.000962 0.000000 -0.009346 0.000000
# 2 -0.010773 0.038426 -0.009951 0.000000 0.014732 0.000000
# 3 -0.000962 -0.009951 0.010540 0.000000 -0.006736 0.000000
# 4 0.000000 0.000000 0.000000 0.027802 0.000000 -0.001223
# 5 -0.009346 0.014732 -0.006736 0.000000 0.065676 0.000000
# 6 0.000000 0.000000 0.000000 -0.001223 0.000000 0.034377
#
#
# Mechanical properties :
#
#
# Convention : Reuss Voigt Hill
#
# Bulk Modulus (GPa) = 58.48778 90.86346 74.67562
# Shear Modulus (GPa) = 21.06206 29.36048 25.21127
#
# Velocity S-wave (km/s) = 3.42414 4.04280 3.74626
# Velocity P-wave (km/s) = 6.94201 8.50727 7.76419
#
# Compressibility (1/GPa) = 0.01709759
#
# Stress axis : x y z
#
# Youngs Moduli (GPa) = 86.93218 26.02432 94.87904
#
# Poissons Ratio (x) = 0.28037 0.09123
# Poissons Ratio (y) = 0.93654 0.94411
# Poissons Ratio (z) = 0.08359 0.25896
#
# Static dielectric constant tensor:
#      x y z
#    x 1.594350 0.000000 -0.005420 
#    y 0.000000 1.610050 0.000000 
#    z -0.005420 0.000000 1.596490 
# 
# From -- ./inp_files/67156.got.cif
#   From: 2010.05.17/outbox.cif.g08.bks.cpg/sg11_34_cif.got.tgz:67156.got - 2010.06.03 12:22:45.
