data_PCOD9165344
_publ_section_title
;
Structure prediction by ZEFSAII (Michael W. Deem and Ramdas Pophale) SiO2 
 PCOD9165344
Probable space group: P 21/M
;
_chemical_formula_sum "Si O2"
_cell_formula_units_Z 20
_cell_length_a 12.055454
_cell_length_b 13.547925
_cell_length_c 5.696781
_cell_angle_alpha 90.000000
_cell_angle_beta 124.586645
_cell_angle_gamma 90.000000
_cell_volume 765.997734
_symmetry_space_group_name_H-M "P 21/M"
_symmetry_group_IT_number 11
_symmetry_cell_setting 'monoclinic'
loop_
_space_group_symop_operation_xyz
x,y,z
-x,1/2+y,-z
-x,-y,-z
x,1/2-y,z
loop_
_atom_site_type_symbol
_atom_site_label
_atom_site_fract_x
_atom_site_fract_y
_atom_site_fract_z
Si Si1 0.084978 0.411692 0.704340
Si Si2 0.665614 0.471729 0.791012
Si Si3 0.910770 0.250000 0.752082
Si Si4 0.615459 0.750000 0.470552
Si Si5 0.656999 0.250000 0.680514
Si Si6 0.418473 0.466723 0.749554
Si Si7 0.113388 0.250000 0.362637
O O1 0.211956 0.454864 0.994418
O O2 0.136684 0.343919 0.553418
O O3 0.000000 0.500000 0.500000
O O4 0.982813 0.343917 0.726782
O O5 0.500000 0.500000 0.500000
O O6 0.683794 0.352894 0.846827
O O7 0.583604 0.496061 0.975217
O O8 0.691513 0.476892 0.526073
O O9 0.750504 0.250000 0.565103
O O10 0.963533 0.250000 0.084333
O O11 0.506896 0.750000 0.550195
O O12 0.588210 0.850471 0.294451
O O13 0.774235 0.750000 0.708261
#
# Coordination Sequence:
#
# PCOD9165344 Si02
#       7
#     4   4   2   2   2   4   2
#     4  11  25  43  68  99 134 177 227 279 336 401
#     4  10  22  40  61  91 129 166 216 271 323 393
#     4  11  25  44  68  97 135 177 223 279 334 403
#     4  10  21  39  65  95 130 167 220 279 333 401
#     4  10  23  41  63  95 134 175 218 271 341 401
#     4  10  21  38  62  91 126 170 213 267 334 391
#     4  11  23  42  70 101 131 177 231 277 336 401
#
# _framework density 26.109739999999999
#
# number of rings (size 3 to 8) (size 9 to 14) (size 15 to 20)
#    0.000    1.600    0.000    3.600    0.000    8.800 
#    0.000    8.000    0.000    0.000    0.000    0.000 
#    0.000    0.000    0.000    0.000    0.000    0.000 
#
# Total GULP energy -111488.617925 kJ/mol
# GULP energy per Si atom -5574.430896 kJ/mol
# Density = 2.605031 g / cm^3
# Si number density = 26.109740 Si / 1000 Ang^3
#
#
#
# Elastic Constant Matrix: (Units=GPa)
#
#
# Indices 1 2 3 4 5 6 
#
# 1 201.3365 60.5108 34.9817 0.0000 -10.5120 0.0000
# 2 60.5108 239.7646 56.9976 0.0000 1.9211 0.0000
# 3 34.9817 56.9976 134.2290 0.0000 9.0832 0.0000
# 4 0.0000 0.0000 0.0000 36.7846 0.0000 1.5891
# 5 -10.5120 1.9211 9.0832 0.0000 8.3780 0.0000
# 6 0.0000 0.0000 0.0000 1.5891 0.0000 21.8675
#
#
#
# Elastic Compliance Matrix: (Units=1/GPa)
#
#
# Indices 1 2 3 4 5 6 
#
# 1 0.006155 -0.001215 -0.001759 0.000000 0.009908 0.000000
# 2 -0.001215 0.004889 -0.001706 0.000000 -0.000796 0.000000
# 3 -0.001759 -0.001706 0.009449 0.000000 -0.012059 0.000000
# 4 0.000000 0.000000 0.000000 0.027271 0.000000 -0.001982
# 5 0.009908 -0.000796 -0.012059 0.000000 0.145048 0.000000
# 6 0.000000 0.000000 0.000000 -0.001982 0.000000 0.045874
#
#
# Mechanical properties :
#
#
# Convention : Reuss Voigt Hill
#
# Bulk Modulus (GPa) = 89.81051 97.81226 93.81139
# Shear Modulus (GPa) = 19.86060 41.59535 30.72798
#
# Velocity S-wave (km/s) = 2.76100 3.99569 3.43429
# Velocity P-wave (km/s) = 6.68103 7.67012 7.19259
#
# Compressibility (1/GPa) = 0.01113455
#
# Stress axis : x y z
#
# Youngs Moduli (GPa) = 162.47744 204.53445 105.83547
#
# Poissons Ratio (x) = 0.24843 0.18613
# Poissons Ratio (y) = 0.19735 0.18052
# Poissons Ratio (z) = 0.28574 0.34887
#
# Static dielectric constant tensor:
#      x y z
#    x 0.998970 0.000000 0.915260 
#    y 0.000000 1.829660 0.000000 
#    z 0.915260 0.000000 1.117380 
# 
# From -- ./inp_files/4380.got.cif
#   From: 2010.05.17/outbox.cif.g08.bks.cpg/sg11_3_cif.got.tgz:4380.got - 2010.06.03 12:22:45.
