data_PCOD9165009
_publ_section_title
;
Structure prediction by ZEFSAII (Michael W. Deem and Ramdas Pophale) SiO2 
 PCOD9165009
Probable space group: P 21/M
;
_chemical_formula_sum "Si O2"
_cell_formula_units_Z 28
_cell_length_a 8.840443
_cell_length_b 18.159171
_cell_length_c 19.096994
_cell_angle_alpha 90.000000
_cell_angle_beta 27.162220
_cell_angle_gamma 90.000000
_cell_volume 1399.544291
_symmetry_space_group_name_H-M "P 21/M"
_symmetry_group_IT_number 11
_symmetry_cell_setting 'monoclinic'
loop_
_space_group_symop_operation_xyz
x,y,z
-x,1/2+y,-z
-x,-y,-z
x,1/2-y,z
loop_
_atom_site_type_symbol
_atom_site_label
_atom_site_fract_x
_atom_site_fract_y
_atom_site_fract_z
Si Si1 0.496884 0.664631 0.163535
Si Si2 0.855870 0.334373 0.012163
Si Si3 0.773673 0.029674 0.656984
Si Si4 0.311038 0.543966 0.517852
Si Si5 0.342669 0.075252 0.035233
Si Si6 0.152110 0.335546 0.251836
Si Si7 0.815791 0.976131 0.184091
O O1 0.400296 0.750000 0.199470
O O2 0.281198 0.616799 0.307891
O O3 0.881910 0.662666 0.031637
O O4 0.466835 0.622569 0.101924
O O5 0.898228 0.250000 0.965999
O O6 0.972291 0.402965 0.916976
O O7 0.457662 0.343296 0.181481
O O8 0.399337 0.003513 0.796083
O O9 0.000000 0.000000 0.500000
O O10 0.965014 0.997760 0.644380
O O11 0.500000 0.500000 0.500000
O O12 0.548457 0.543787 0.353383
O O13 0.185482 0.624992 0.586879
O O14 0.261778 0.126043 0.134503
O O15 0.021806 0.044233 0.127117
O O16 0.500000 0.000000 0.000000
O O17 0.099671 0.250000 0.262002
#
# Coordination Sequence:
#
# PCOD9165009 Si02
#       7
#     4   4   4   4   4   4   4
#     4  10  22  39  63  92 124 159 205 258 313 374
#     4   9  20  38  60  89 118 150 196 255 315 370
#     4   9  21  39  62  87 119 157 204 247 303 359
#     4  11  22  39  60  85 120 159 209 248 304 371
#     4  12  22  36  61  90 124 157 206 253 311 362
#     4  11  23  39  59  88 125 157 200 262 320 369
#     4  10  21  37  61  85 115 160 199 250 296 371
#
# _framework density 20.006513000000002
#
# number of rings (size 3 to 8) (size 9 to 14) (size 15 to 20)
#    0.000    1.714    2.857    1.286    2.000    1.714 
#    0.000    2.857    0.000    0.000    0.000    0.000 
#    0.000    0.000    0.000    0.000    0.000    0.000 
#
# Total GULP energy -156063.203280 kJ/mol
# GULP energy per Si atom -5573.685831 kJ/mol
# Density = 1.996098 g / cm^3
# Si number density = 20.006513 Si / 1000 Ang^3
#
#
#
# Elastic Constant Matrix: (Units=GPa)
#
#
# Indices 1 2 3 4 5 6 
#
# 1 77.5849 46.8457 12.5535 0.0000 -15.8940 0.0000
# 2 46.8457 161.8057 48.2652 0.0000 -1.4235 0.0000
# 3 12.5535 48.2652 51.1330 0.0000 -0.4887 0.0000
# 4 0.0000 0.0000 0.0000 36.9126 0.0000 -2.7335
# 5 -15.8940 -1.4235 -0.4887 0.0000 31.7657 0.0000
# 6 0.0000 0.0000 0.0000 -2.7335 0.0000 33.9721
#
#
#
# Elastic Compliance Matrix: (Units=1/GPa)
#
#
# Indices 1 2 3 4 5 6 
#
# 1 0.017725 -0.005265 0.000700 0.000000 0.008644 0.000000
# 2 -0.005265 0.010168 -0.008327 0.000000 -0.002307 0.000000
# 3 0.000700 -0.008327 0.027249 0.000000 0.000396 0.000000
# 4 0.000000 0.000000 0.000000 0.027253 0.000000 0.002193
# 5 0.008644 -0.002307 0.000396 0.000000 0.035708 0.000000
# 6 0.000000 0.000000 0.000000 0.002193 0.000000 0.029612
#
#
# Mechanical properties :
#
#
# Convention : Reuss Voigt Hill
#
# Bulk Modulus (GPa) = 34.06107 56.20582 45.13345
# Shear Modulus (GPa) = 27.27970 32.72069 30.00019
#
# Velocity S-wave (km/s) = 3.69662 4.04852 3.87657
# Velocity P-wave (km/s) = 5.93986 7.07169 6.53034
#
# Compressibility (1/GPa) = 0.02935903
#
# Stress axis : x y z
#
# Youngs Moduli (GPa) = 56.41629 98.34612 36.69854
#
# Poissons Ratio (x) = 0.51776 -0.02570
# Poissons Ratio (y) = 0.29701 0.30560
# Poissons Ratio (z) = -0.03951 0.81897
#
# Static dielectric constant tensor:
#      x y z
#    x 1.832700 0.000000 -0.002280 
#    y 0.000000 1.719960 0.000000 
#    z -0.002280 0.000000 1.723390 
# 
# From -- ./inp_files/63877.got.cif
#   From: 2010.05.17/outbox.cif.g08.bks.cpg/sg11_32_cif.got.tgz:63877.got - 2010.06.03 12:22:45.
