data_PCOD9165628
_publ_section_title
;
Structure prediction by ZEFSAII (Michael W. Deem and Ramdas Pophale) SiO2 
 PCOD9165628
Probable space group: P 21/M
;
_chemical_formula_sum "Si O2"
_cell_formula_units_Z 32
_cell_length_a 11.638240
_cell_length_b 8.043993
_cell_length_c 15.651821
_cell_angle_alpha 90.000000
_cell_angle_beta 91.786952
_cell_angle_gamma 90.000000
_cell_volume 1464.578354
_symmetry_space_group_name_H-M "P 21/M"
_symmetry_group_IT_number 11
_symmetry_cell_setting 'monoclinic'
loop_
_space_group_symop_operation_xyz
x,y,z
-x,1/2+y,-z
-x,-y,-z
x,1/2-y,z
loop_
_atom_site_type_symbol
_atom_site_label
_atom_site_fract_x
_atom_site_fract_y
_atom_site_fract_z
Si Si1 0.890412 0.452194 0.056834
Si Si2 0.635339 0.049080 0.981399
Si Si3 0.998485 0.945629 0.402251
Si Si4 0.360823 0.443738 0.731816
Si Si5 0.243384 0.546784 0.369825
Si Si6 0.379359 0.550522 0.538722
Si Si7 0.384786 0.951920 0.210532
Si Si8 0.125791 0.936413 0.758736
O O1 0.886679 0.250000 0.058576
O O2 0.917819 0.514940 0.154148
O O3 0.757461 0.505027 0.029512
O O4 0.000000 0.500000 0.000000
O O5 0.634586 0.250000 0.986539
O O6 0.653874 0.993778 0.883409
O O7 0.500000 0.000000 0.000000
O O8 0.006608 0.750000 0.405826
O O9 0.113395 0.010567 0.359537
O O10 0.000000 0.000000 0.500000
O O11 0.898204 0.987914 0.334714
O O12 0.337539 0.250000 0.750381
O O13 0.367077 0.466755 0.629939
O O14 0.482502 0.492301 0.773183
O O15 0.262656 0.556059 0.768696
O O16 0.249515 0.750000 0.368733
O O17 0.287939 0.498293 0.464617
O O18 0.317155 0.485518 0.291918
O O19 0.500000 0.500000 0.500000
O O20 0.372721 0.750000 0.549850
O O21 0.376142 0.750000 0.211720
O O22 0.082033 0.750000 0.753520
#
# Coordination Sequence:
#
# PCOD9165628 Si02
#       8
#     4   4   4   4   4   4   4   4
#     4  10  24  43  66  95 129 169 216 270 327 388
#     4  10  21  39  65  92 122 160 204 258 319 380
#     4  11  23  40  65  91 120 163 209 254 307 367
#     4  11  21  36  60  89 119 156 206 253 306 374
#     4   9  19  35  56  82 112 149 195 246 297 352
#     4  11  20  34  55  82 119 159 196 244 303 364
#     4   9  18  34  58  87 116 148 192 249 304 367
#     4  11  24  42  61  88 129 166 204 258 312 371
#
# _framework density 21.849294
#
# number of rings (size 3 to 8) (size 9 to 14) (size 15 to 20)
#    0.000    1.750    1.250    3.000    1.750    2.500 
#    0.000    2.500    0.000    0.000    0.000    0.000 
#    0.000    0.000    0.000    0.000    0.000    0.000 
#
# Total GULP energy -178452.387675 kJ/mol
# GULP energy per Si atom -5576.637115 kJ/mol
# Density = 2.179956 g / cm^3
# Si number density = 21.849294 Si / 1000 Ang^3
#
#
#
# Elastic Constant Matrix: (Units=GPa)
#
#
# Indices 1 2 3 4 5 6 
#
# 1 80.0219 13.0502 28.0533 0.0000 11.0443 0.0000
# 2 13.0502 28.1234 6.6705 0.0000 8.4969 0.0000
# 3 28.0533 6.6705 133.4927 0.0000 11.6551 0.0000
# 4 0.0000 0.0000 0.0000 18.3367 0.0000 -5.0685
# 5 11.0443 8.4969 11.6551 0.0000 25.7083 0.0000
# 6 0.0000 0.0000 0.0000 -5.0685 0.0000 24.7377
#
#
#
# Elastic Compliance Matrix: (Units=1/GPa)
#
#
# Indices 1 2 3 4 5 6 
#
# 1 0.014705 -0.005179 -0.002530 0.000000 -0.003459 0.000000
# 2 -0.005179 0.041423 0.000020 0.000000 -0.011475 0.000000
# 3 -0.002530 0.000020 0.008254 0.000000 -0.002662 0.000000
# 4 0.000000 0.000000 0.000000 0.057809 0.000000 0.011844
# 5 -0.003459 -0.011475 -0.002662 0.000000 0.045384 0.000000
# 6 0.000000 0.000000 0.000000 0.011844 0.000000 0.042851
#
#
# Mechanical properties :
#
#
# Convention : Reuss Voigt Hill
#
# Bulk Modulus (GPa) = 20.40553 37.46511 28.93532
# Shear Modulus (GPa) = 20.64945 26.68081 23.66513
#
# Velocity S-wave (km/s) = 3.07756 3.49826 3.29463
# Velocity P-wave (km/s) = 4.68914 5.78804 5.26732
#
# Compressibility (1/GPa) = 0.04900632
#
# Stress axis : x y z
#
# Youngs Moduli (GPa) = 68.00256 24.14128 121.15295
#
# Poissons Ratio (x) = 0.12502 0.30646
# Poissons Ratio (y) = 0.35217 -0.00246
# Poissons Ratio (z) = 0.17201 -0.00049
#
# Static dielectric constant tensor:
#      x y z
#    x 1.839020 0.000000 0.071970 
#    y 0.000000 -0.033470 0.000000 
#    z 0.071970 0.000000 1.677530 
# 
# From -- ./inp_files/49403.got.cif
#   From: 2010.05.17/outbox.cif.g08.bks.cpg/sg11_25_cif.got.tgz:49403.got - 2010.06.03 12:22:45.
