data_PCOD9165592
_publ_section_title
;
Structure prediction by ZEFSAII (Michael W. Deem and Ramdas Pophale) SiO2 
 PCOD9165592
Probable space group: P 21/M
;
_chemical_formula_sum "Si O2"
_cell_formula_units_Z 26
_cell_length_a 14.127077
_cell_length_b 12.110047
_cell_length_c 7.091992
_cell_angle_alpha 90.000000
_cell_angle_beta 62.890202
_cell_angle_gamma 90.000000
_cell_volume 1079.996137
_symmetry_space_group_name_H-M "P 21/M"
_symmetry_group_IT_number 11
_symmetry_cell_setting 'monoclinic'
loop_
_space_group_symop_operation_xyz
x,y,z
-x,1/2+y,-z
-x,-y,-z
x,1/2-y,z
loop_
_atom_site_type_symbol
_atom_site_label
_atom_site_fract_x
_atom_site_fract_y
_atom_site_fract_z
Si Si1 0.225755 0.750000 0.509681
Si Si2 0.359491 0.533984 0.283937
Si Si3 0.126462 0.750000 0.233284
Si Si4 0.311781 0.750000 0.810832
Si Si5 0.173263 0.122139 0.526304
Si Si6 0.222335 0.125257 0.930028
Si Si7 0.030947 0.519925 0.190627
Si Si8 0.579715 0.466771 0.198166
O O1 0.291828 0.638919 0.409851
O O2 0.124779 0.750000 0.462589
O O3 0.250523 0.750000 0.064303
O O4 0.280400 0.429251 0.344505
O O5 0.458544 0.504508 0.328411
O O6 0.406337 0.560312 0.036739
O O7 0.078671 0.640680 0.186340
O O8 0.216798 0.750000 0.743247
O O9 0.384428 0.856764 0.728719
O O10 0.149983 0.250000 0.491033
O O11 0.191409 0.126064 0.736691
O O12 0.078467 0.031410 0.592530
O O13 0.236013 0.250000 0.981575
O O14 0.331530 0.058516 0.843626
O O15 0.126415 0.066835 0.131718
O O16 0.000000 0.500000 0.000000
#
# Coordination Sequence:
#
# PCOD9165592 Si02
#       8
#     2   4   2   2   4   4   4   4
#     4  12  26  44  72 105 140 193 240 296 351 432
#     4  11  25  44  68 100 140 180 241 293 361 423
#     4  12  22  48  73 102 152 180 242 295 347 428
#     4  12  24  44  77 101 140 191 242 291 366 422
#     4  10  22  41  65  99 137 180 234 292 347 422
#     4  10  21  39  64 101 142 179 234 286 353 430
#     4  10  21  40  74  99 139 194 225 292 361 416
#     4  11  24  45  70  97 140 188 230 303 360 427
#
# _framework density 24.074162999999999
#
# number of rings (size 3 to 8) (size 9 to 14) (size 15 to 20)
#    0.000    1.231    3.846    0.923    5.385    3.077 
#    1.385    3.077    0.000    0.000    0.000    0.000 
#    0.000    0.000    0.000    0.000    0.000    0.000 
#
# Total GULP energy -145468.998206 kJ/mol
# GULP energy per Si atom -5594.961469 kJ/mol
# Density = 2.401937 g / cm^3
# Si number density = 24.074163 Si / 1000 Ang^3
#
#
#
# Elastic Constant Matrix: (Units=GPa)
#
#
# Indices 1 2 3 4 5 6 
#
# 1 140.8769 71.3339 14.9320 0.0000 -11.8844 0.0000
# 2 71.3339 174.9465 13.2575 0.0000 -16.2039 0.0000
# 3 14.9320 13.2575 68.5397 0.0000 -1.8695 0.0000
# 4 0.0000 0.0000 0.0000 11.5576 0.0000 10.8539
# 5 -11.8844 -16.2039 -1.8695 0.0000 50.3149 0.0000
# 6 0.0000 0.0000 0.0000 10.8539 0.0000 35.6848
#
#
#
# Elastic Compliance Matrix: (Units=1/GPa)
#
#
# Indices 1 2 3 4 5 6 
#
# 1 0.009100 -0.003524 -0.001274 0.000000 0.000967 0.000000
# 2 -0.003524 0.007339 -0.000611 0.000000 0.001508 0.000000
# 3 -0.001274 -0.000611 0.014987 0.000000 0.000059 0.000000
# 4 0.000000 0.000000 0.000000 0.121120 0.000000 -0.036840
# 5 0.000967 0.001508 0.000059 0.000000 0.020591 0.000000
# 6 0.000000 0.000000 0.000000 -0.036840 0.000000 0.039228
#
#
# Mechanical properties :
#
#
# Convention : Reuss Voigt Hill
#
# Bulk Modulus (GPa) = 48.52578 64.82332 56.67455
# Shear Modulus (GPa) = 21.73412 38.50078 30.11745
#
# Velocity S-wave (km/s) = 3.00792 4.00341 3.54082
# Velocity P-wave (km/s) = 5.68014 6.95375 6.34896
#
# Compressibility (1/GPa) = 0.02060760
#
# Stress axis : x y z
#
# Youngs Moduli (GPa) = 109.89579 136.25851 66.72249
#
# Poissons Ratio (x) = 0.48020 0.08503
# Poissons Ratio (y) = 0.38729 0.04074
# Poissons Ratio (z) = 0.14005 0.08321
#
# Static dielectric constant tensor:
#      x y z
#    x 1.979240 0.000000 0.045540 
#    y 0.000000 1.890210 0.000000 
#    z 0.045540 0.000000 2.019050 
# 
# From -- ./inp_files/21127.got.cif
#   From: 2010.05.17/outbox.cif.g08.bks.cpg/sg11_11_cif.got.tgz:21127.got - 2010.06.03 12:22:45.
