data_PCOD9165939
_publ_section_title
;
Structure prediction by ZEFSAII (Michael W. Deem and Ramdas Pophale) SiO2 
 PCOD9165939
Probable space group: P 21/M
;
_chemical_formula_sum "Si O2"
_cell_formula_units_Z 32
_cell_length_a 8.602425
_cell_length_b 23.997238
_cell_length_c 13.974918
_cell_angle_alpha 90.000000
_cell_angle_beta 149.176923
_cell_angle_gamma 90.000000
_cell_volume 1478.192650
_symmetry_space_group_name_H-M "P 21/M"
_symmetry_group_IT_number 11
_symmetry_cell_setting 'monoclinic'
loop_
_space_group_symop_operation_xyz
x,y,z
-x,1/2+y,-z
-x,-y,-z
x,1/2-y,z
loop_
_atom_site_type_symbol
_atom_site_label
_atom_site_fract_x
_atom_site_fract_y
_atom_site_fract_z
Si Si1 0.564237 0.916566 0.280253
Si Si2 0.860209 0.314371 0.963524
Si Si3 0.582299 0.587672 0.984183
Si Si4 0.974774 0.314203 0.797361
Si Si5 0.503241 0.815437 0.609879
Si Si6 0.740315 0.091482 0.385495
Si Si7 0.790227 0.468078 0.066996
Si Si8 0.426548 0.004401 0.350250
O O1 0.406194 0.858915 0.168124
O O2 0.921480 0.911557 0.475040
O O3 0.420912 0.943700 0.299308
O O4 0.477670 0.959420 0.150358
O O5 0.770638 0.250000 0.933229
O O6 0.960689 0.318400 0.904965
O O7 0.143395 0.328186 0.182793
O O8 0.772890 0.530668 0.098618
O O9 0.783606 0.641239 0.114180
O O10 0.487670 0.590947 0.823967
O O11 0.282776 0.576520 0.889515
O O12 0.058612 0.250000 0.818829
O O13 0.647739 0.324699 0.574060
O O14 0.471628 0.750000 0.615198
O O15 0.313579 0.852861 0.582444
O O16 0.665501 0.040670 0.417165
O O17 0.103358 0.464590 0.175596
O O18 0.500000 0.000000 0.500000
#
# Coordination Sequence:
#
# PCOD9165939 Si02
#       8
#     4   4   4   4   4   4   4   4
#     4  12  25  44  65  97 137 181 227 282 338 406
#     4  10  22  43  70 100 135 175 226 285 337 400
#     4  11  23  42  67  99 138 174 224 284 337 404
#     4  10  21  41  71 103 135 179 225 277 344 411
#     4  10  22  41  70 100 132 176 223 275 342 408
#     4  12  25  42  68  97 137 179 226 279 340 403
#     4  11  25  41  64  93 136 178 224 279 338 398
#     4  12  27  42  66  96 132 182 231 277 340 410
#
# _framework density 21.648057999999999
#
# number of rings (size 3 to 8) (size 9 to 14) (size 15 to 20)
#    0.000    1.000    2.500    3.750    7.000    0.500 
#    2.250    0.625    0.000    0.750    0.000    0.000 
#    0.000    0.000    0.000    0.000    0.000    0.000 
#
# Total GULP energy -178935.289401 kJ/mol
# GULP energy per Si atom -5591.727794 kJ/mol
# Density = 2.159879 g / cm^3
# Si number density = 21.648058 Si / 1000 Ang^3
#
#
#
# Elastic Constant Matrix: (Units=GPa)
#
#
# Indices 1 2 3 4 5 6 
#
# 1 54.9012 32.3979 27.6707 0.0000 -1.0561 0.0000
# 2 32.3979 118.2123 48.0353 0.0000 11.9116 0.0000
# 3 27.6707 48.0353 114.2798 0.0000 -9.8499 0.0000
# 4 0.0000 0.0000 0.0000 20.9827 0.0000 1.1535
# 5 -1.0561 11.9116 -9.8499 0.0000 34.7853 0.0000
# 6 0.0000 0.0000 0.0000 1.1535 0.0000 25.4232
#
#
#
# Elastic Compliance Matrix: (Units=1/GPa)
#
#
# Indices 1 2 3 4 5 6 
#
# 1 0.022902 -0.005100 -0.003271 0.000000 0.001516 0.000000
# 2 -0.005100 0.012194 -0.004371 0.000000 -0.005568 0.000000
# 3 -0.003271 -0.004371 0.011788 0.000000 0.004735 0.000000
# 4 0.000000 0.000000 0.000000 0.047777 0.000000 -0.002168
# 5 0.001516 -0.005568 0.004735 0.000000 0.032041 0.000000
# 6 0.000000 0.000000 0.000000 -0.002168 0.000000 0.039433
#
#
# Mechanical properties :
#
#
# Convention : Reuss Voigt Hill
#
# Bulk Modulus (GPa) = 46.72805 55.95567 51.34186
# Shear Modulus (GPa) = 25.15697 28.19085 26.67391
#
# Velocity S-wave (km/s) = 3.41264 3.61256 3.51402
# Velocity P-wave (km/s) = 6.09593 6.58064 6.34292
#
# Compressibility (1/GPa) = 0.02140042
#
# Stress axis : x y z
#
# Youngs Moduli (GPa) = 43.66439 82.00612 84.83460
#
# Poissons Ratio (x) = 0.41825 0.27748
# Poissons Ratio (y) = 0.22270 0.37078
# Poissons Ratio (z) = 0.14282 0.35841
#
# Static dielectric constant tensor:
#      x y z
#    x 1.807410 0.000000 0.006540 
#    y 0.000000 1.804890 0.000000 
#    z 0.006540 0.000000 1.813990 
# 
# From -- ./inp_files/48459.got.cif
#   From: 2010.05.17/outbox.cif.g08.bks.cpg/sg11_25_cif.got.tgz:48459.got - 2010.06.03 12:22:45.
