data_PCOD9165395
_publ_section_title
;
Structure prediction by ZEFSAII (Michael W. Deem and Ramdas Pophale) SiO2 
 PCOD9165395
Probable space group: P 21/M
;
_chemical_formula_sum "Si O2"
_cell_formula_units_Z 24
_cell_length_a 5.317661
_cell_length_b 25.074236
_cell_length_c 7.350428
_cell_angle_alpha 90.000000
_cell_angle_beta 90.901667
_cell_angle_gamma 90.000000
_cell_volume 979.957418
_symmetry_space_group_name_H-M "P 21/M"
_symmetry_group_IT_number 11
_symmetry_cell_setting 'monoclinic'
loop_
_space_group_symop_operation_xyz
x,y,z
-x,1/2+y,-z
-x,-y,-z
x,1/2-y,z
loop_
_atom_site_type_symbol
_atom_site_label
_atom_site_fract_x
_atom_site_fract_y
_atom_site_fract_z
Si Si1 0.139800 0.617046 0.526520
Si Si2 0.252315 0.511439 0.385720
Si Si3 0.299283 0.808208 0.120592
Si Si4 0.841090 0.912940 0.847363
Si Si5 0.802558 0.633253 0.219016
Si Si6 0.492082 0.689033 0.726713
O O1 0.254261 0.575396 0.382843
O O2 0.313701 0.667968 0.562292
O O3 0.094576 0.593532 0.728738
O O4 0.866193 0.623155 0.429999
O O5 0.500000 0.500000 0.500000
O O6 0.258610 0.470539 0.218697
O O7 0.000000 0.500000 0.500000
O O8 0.358167 0.750000 0.193512
O O9 0.020608 0.824497 0.172159
O O10 0.315915 0.806747 0.902519
O O11 0.526910 0.845415 0.183001
O O12 0.683831 0.859285 0.785836
O O13 0.853516 0.911748 0.065855
O O14 0.594112 0.750000 0.697782
#
# Coordination Sequence:
#
# PCOD9165395 Si02
#       6
#     4   4   4   4   4   4
#     4  11  23  40  63  95 125 161 219 255 316 376
#     4  10  21  38  68  90 123 169 205 259 314 370
#     4  10  22  42  61  87 126 171 209 253 313 373
#     4  10  22  43  62  90 132 164 212 258 317 372
#     4  11  24  38  65  91 126 164 207 264 311 370
#     4  10  21  38  65  89 123 168 209 258 314 376
#
# _framework density 24.490860000000001
#
# number of rings (size 3 to 8) (size 9 to 14) (size 15 to 20)
#    0.000    1.667    3.333    0.500    2.333    3.333 
#    0.000    0.000    0.000    7.000    0.000    0.000 
#    0.000    0.000    0.000    0.000    0.000    0.000 
#
# Total GULP energy -133848.763730 kJ/mol
# GULP energy per Si atom -5577.031822 kJ/mol
# Density = 2.443512 g / cm^3
# Si number density = 24.490860 Si / 1000 Ang^3
#
#
#
# Elastic Constant Matrix: (Units=GPa)
#
#
# Indices 1 2 3 4 5 6 
#
# 1 81.7092 33.2004 28.7827 0.0000 0.4652 0.0000
# 2 33.2004 89.1593 -0.6715 0.0000 4.4243 0.0000
# 3 28.7827 -0.6715 85.0188 0.0000 5.3263 0.0000
# 4 0.0000 0.0000 0.0000 26.1868 0.0000 0.7303
# 5 0.4652 4.4243 5.3263 0.0000 41.6148 0.0000
# 6 0.0000 0.0000 0.0000 0.7303 0.0000 25.0085
#
#
#
# Elastic Compliance Matrix: (Units=1/GPa)
#
#
# Indices 1 2 3 4 5 6 
#
# 1 0.016889 -0.006394 -0.005846 0.000000 0.001239 0.000000
# 2 -0.006394 0.013699 0.002379 0.000000 -0.001689 0.000000
# 3 -0.005846 0.002379 0.013883 0.000000 -0.001964 0.000000
# 4 0.000000 0.000000 0.000000 0.038218 0.000000 -0.001116
# 5 0.001239 -0.001689 -0.001964 0.000000 0.024447 0.000000
# 6 0.000000 0.000000 0.000000 -0.001116 0.000000 0.040019
#
#
# Mechanical properties :
#
#
# Convention : Reuss Voigt Hill
#
# Bulk Modulus (GPa) = 40.40754 42.05671 41.23213
# Shear Modulus (GPa) = 28.55068 31.53374 30.04221
#
# Velocity S-wave (km/s) = 3.41804 3.59217 3.50618
# Velocity P-wave (km/s) = 5.66676 5.86639 5.76744
#
# Compressibility (1/GPa) = 0.02474785
#
# Stress axis : x y z
#
# Youngs Moduli (GPa) = 59.21038 72.99934 72.03034
#
# Poissons Ratio (x) = 0.46679 0.42108
# Poissons Ratio (y) = 0.37862 -0.17135
# Poissons Ratio (z) = 0.34613 -0.17366
#
# Static dielectric constant tensor:
#      x y z
#    x 2.003200 0.000000 -0.009400 
#    y 0.000000 2.115470 0.000000 
#    z -0.009400 0.000000 1.983320 
# 
# From -- ./inp_files/5426.got.cif
#   From: 2010.05.17/outbox.cif.g08.bks.cpg/sg11_3_cif.got.tgz:5426.got - 2010.06.03 12:22:45.
