data_PCOD9165526
_publ_section_title
;
Structure prediction by ZEFSAII (Michael W. Deem and Ramdas Pophale) SiO2 
 PCOD9165526
Probable space group: P 21/M
;
_chemical_formula_sum "Si O2"
_cell_formula_units_Z 28
_cell_length_a 8.571364
_cell_length_b 18.051461
_cell_length_c 15.166834
_cell_angle_alpha 90.000000
_cell_angle_beta 35.534297
_cell_angle_gamma 90.000000
_cell_volume 1363.877910
_symmetry_space_group_name_H-M "P 21/M"
_symmetry_group_IT_number 11
_symmetry_cell_setting 'monoclinic'
loop_
_space_group_symop_operation_xyz
x,y,z
-x,1/2+y,-z
-x,-y,-z
x,1/2-y,z
loop_
_atom_site_type_symbol
_atom_site_label
_atom_site_fract_x
_atom_site_fract_y
_atom_site_fract_z
Si Si1 0.012829 0.093900 0.388933
Si Si2 0.392565 0.880078 0.919377
Si Si3 0.803973 0.426838 0.666200
Si Si4 0.555649 0.338219 0.479886
Si Si5 0.946689 0.166015 0.764314
Si Si6 0.161350 0.663150 0.833770
Si Si7 0.227300 0.036190 0.956503
O O1 0.955280 0.113991 0.517296
O O2 0.766523 0.117645 0.442043
O O3 0.288032 0.128648 0.226415
O O4 0.057399 0.005318 0.375203
O O5 0.294296 0.858105 0.866418
O O6 0.224522 0.836305 0.068289
O O7 0.325599 0.966908 0.969493
O O8 0.803178 0.380588 0.755315
O O9 0.495575 0.441474 0.780539
O O10 0.579402 0.250000 0.488481
O O11 0.634493 0.348549 0.341095
O O12 0.250522 0.362223 0.638224
O O13 0.974909 0.250000 0.719865
O O14 0.084948 0.750000 0.869971
O O15 0.909455 0.607651 0.937181
O O16 0.000000 0.000000 0.000000
#
# Coordination Sequence:
#
# PCOD9165526 Si02
#       7
#     4   4   4   4   4   4   4
#     4  10  23  42  66  92 122 164 218 257 316 378
#     4  10  22  41  64  89 127 167 208 260 310 376
#     4  10  23  42  65  92 127 168 208 264 317 378
#     4  10  24  41  61  92 127 162 209 262 313 374
#     4  11  25  42  62  95 131 167 210 259 319 377
#     4  10  21  39  62  88 124 167 208 254 317 378
#     4   9  21  38  63  94 126 157 211 261 310 366
#
# _framework density 20.529696999999999
#
# number of rings (size 3 to 8) (size 9 to 14) (size 15 to 20)
#    0.000    2.000    0.000    1.286    8.000    5.143 
#    0.000    0.000    0.000    0.000    0.000    0.000 
#    0.000    0.000    0.000    0.000    0.000    0.000 
#
# Total GULP energy -156321.727175 kJ/mol
# GULP energy per Si atom -5582.918828 kJ/mol
# Density = 2.048297 g / cm^3
# Si number density = 20.529697 Si / 1000 Ang^3
#
#
#
# Elastic Constant Matrix: (Units=GPa)
#
#
# Indices 1 2 3 4 5 6 
#
# 1 94.5374 20.3395 56.7551 0.0000 0.8441 0.0000
# 2 20.3395 53.0688 38.6182 0.0000 -6.7242 0.0000
# 3 56.7551 38.6182 130.1799 0.0000 -6.9512 0.0000
# 4 0.0000 0.0000 0.0000 26.8753 0.0000 4.0341
# 5 0.8441 -6.7242 -6.9512 0.0000 34.4525 0.0000
# 6 0.0000 0.0000 0.0000 4.0341 0.0000 9.8650
#
#
#
# Elastic Compliance Matrix: (Units=1/GPa)
#
#
# Indices 1 2 3 4 5 6 
#
# 1 0.014502 -0.001427 -0.005998 0.000000 -0.001844 0.000000
# 2 -0.001427 0.024546 -0.006471 0.000000 0.003520 0.000000
# 3 -0.005998 -0.006471 0.012289 0.000000 0.001363 0.000000
# 4 0.000000 0.000000 0.000000 0.039642 0.000000 -0.016211
# 5 -0.001844 0.003520 0.001363 0.000000 0.030033 0.000000
# 6 0.000000 0.000000 0.000000 -0.016211 0.000000 0.107998
#
#
# Mechanical properties :
#
#
# Convention : Reuss Voigt Hill
#
# Bulk Modulus (GPa) = 42.47314 56.57905 49.52609
# Shear Modulus (GPa) = 18.89291 25.04343 21.96817
#
# Velocity S-wave (km/s) = 3.03689 3.49644 3.27474
# Velocity P-wave (km/s) = 5.74721 6.62719 6.20283
#
# Compressibility (1/GPa) = 0.02354429
#
# Stress axis : x y z
#
# Youngs Moduli (GPa) = 68.95621 40.74034 81.37386
#
# Poissons Ratio (x) = 0.05815 0.48804
# Poissons Ratio (y) = 0.09843 0.52659
# Poissons Ratio (z) = 0.41357 0.26364
#
# Static dielectric constant tensor:
#      x y z
#    x 1.718780 0.000000 -0.007890 
#    y 0.000000 1.744610 0.000000 
#    z -0.007890 0.000000 1.733010 
# 
# From -- ./inp_files/48310.got.cif
#   From: 2010.05.17/outbox.cif.g08.bks.cpg/sg11_25_cif.got.tgz:48310.got - 2010.06.03 12:22:45.
