data_PCOD9165152
_publ_section_title
;
Structure prediction by ZEFSAII (Michael W. Deem and Ramdas Pophale) SiO2 
 PCOD9165152
Probable space group: P 21/M
;
_chemical_formula_sum "Si O2"
_cell_formula_units_Z 26
_cell_length_a 11.642851
_cell_length_b 17.067282
_cell_length_c 11.641778
_cell_angle_alpha 90.000000
_cell_angle_beta 39.912700
_cell_angle_gamma 90.000000
_cell_volume 1484.296564
_symmetry_space_group_name_H-M "P 21/M"
_symmetry_group_IT_number 11
_symmetry_cell_setting 'monoclinic'
loop_
_space_group_symop_operation_xyz
x,y,z
-x,1/2+y,-z
-x,-y,-z
x,1/2-y,z
loop_
_atom_site_type_symbol
_atom_site_label
_atom_site_fract_x
_atom_site_fract_y
_atom_site_fract_z
Si Si1 0.145433 0.406713 0.749859
Si Si2 0.805209 0.750000 0.423256
Si Si3 0.267839 0.250000 0.266285
Si Si4 0.750525 0.406732 0.145344
Si Si5 0.148187 0.161038 0.148056
Si Si6 0.577210 0.250000 0.194827
Si Si7 0.394225 0.075969 0.776029
Si Si8 0.776381 0.075956 0.394540
O O1 0.130974 0.328160 0.687570
O O2 0.293231 0.398373 0.736269
O O3 0.196561 0.482179 0.635163
O O4 0.956231 0.423154 0.955765
O O5 0.844408 0.750000 0.529576
O O6 0.588227 0.750000 0.588173
O O7 0.221695 0.176758 0.219996
O O8 0.471657 0.250000 0.154758
O O9 0.687915 0.328163 0.131308
O O10 0.635639 0.482198 0.196860
O O11 0.737534 0.398416 0.292713
O O12 0.121285 0.250000 0.121705
O O13 0.959872 0.116535 0.291837
O O14 0.291009 0.116525 0.959753
O O15 0.603377 0.094493 0.603606
#
# Coordination Sequence:
#
# PCOD9165152 Si02
#       8
#     4   2   2   4   4   2   4   4
#     4  11  20  36  60  94 132 153 193 247 310 366
#     4  10  21  38  59  83 118 165 203 237 301 354
#     4   8  24  44  60  76 128 160 206 266 282 340
#     4  11  20  36  60  94 132 153 193 247 310 366
#     4  10  22  43  63  83 125 156 203 255 299 351
#     4  10  21  38  59  83 118 165 203 237 301 354
#     4  11  21  37  62  97 125 155 193 250 310 363
#     4  11  21  37  62  97 125 155 193 250 310 363
#
# _framework density 17.516714
#
# number of rings (size 3 to 8) (size 9 to 14) (size 15 to 20)
#    0.923    0.615    3.077    5.077    2.154    0.615 
#    0.000    4.615    0.000    0.000    0.000    0.000 
#    0.000    0.000    0.000    0.000    0.000    0.000 
#
# Total GULP energy -144967.207042 kJ/mol
# GULP energy per Si atom -5575.661809 kJ/mol
# Density = 1.747685 g / cm^3
# Si number density = 17.516714 Si / 1000 Ang^3
#
#
#
# Elastic Constant Matrix: (Units=GPa)
#
#
# Indices 1 2 3 4 5 6 
#
# 1 84.3369 70.4166 41.5764 0.0000 2.8677 0.0000
# 2 70.4166 103.1118 42.3242 0.0000 11.2603 0.0000
# 3 41.5764 42.3242 125.9201 0.0000 -21.8894 0.0000
# 4 0.0000 0.0000 0.0000 13.7833 0.0000 -27.1550
# 5 2.8677 11.2603 -21.8894 0.0000 27.6057 0.0000
# 6 0.0000 0.0000 0.0000 -27.1550 0.0000 -51.5010
#
#
#
# Elastic Compliance Matrix: (Units=1/GPa)
#
#
# Indices 1 2 3 4 5 6 
#
# 1 0.028886 -0.018867 -0.002760 0.000000 0.002507 0.000000
# 2 -0.018867 0.025779 -0.004549 0.000000 -0.012162 0.000000
# 3 -0.002760 -0.004549 0.012474 0.000000 0.012033 0.000000
# 4 0.000000 0.000000 0.000000 0.035586 0.000000 -0.018763
# 5 0.002507 -0.012162 0.012033 0.000000 0.050467 0.000000
# 6 0.000000 0.000000 0.000000 -0.018763 0.000000 -0.009524
#
#
# Mechanical properties :
#
#
# Convention : Reuss Voigt Hill
#
# Bulk Modulus (GPa) = 67.63767 69.11148 68.37458
# Shear Modulus (GPa) = 24.88199 8.58104 16.73152
#
# Velocity S-wave (km/s) = 3.77300 2.21572 3.09394
# Velocity P-wave (km/s) = 7.59459 6.78868 7.20291
#
# Compressibility (1/GPa) = 0.01478466
#
# Stress axis : x y z
#
# Youngs Moduli (GPa) = 34.61891 38.79181 80.16817
#
# Poissons Ratio (x) = 0.73190 0.22127
# Poissons Ratio (y) = 0.65317 0.36471
# Poissons Ratio (z) = 0.09555 0.17647
#
# Static dielectric constant tensor:
#      x y z
#    x 1.576870 0.000000 -0.008460 
#    y 0.000000 1.599590 0.000000 
#    z -0.008460 0.000000 1.596750 
# 
# From -- ./inp_files/35999.got.cif
#   From: 2010.05.17/outbox.cif.g08.bks.cpg/sg11_18_cif.got.tgz:35999.got - 2010.06.03 12:22:45.
