data_PCOD9165587
_publ_section_title
;
Structure prediction by ZEFSAII (Michael W. Deem and Ramdas Pophale) SiO2 
 PCOD9165587
Probable space group: P 21/M
;
_chemical_formula_sum "Si O2"
_cell_formula_units_Z 20
_cell_length_a 9.789821
_cell_length_b 8.543513
_cell_length_c 12.149119
_cell_angle_alpha 90.000000
_cell_angle_beta 75.334522
_cell_angle_gamma 90.000000
_cell_volume 983.040239
_symmetry_space_group_name_H-M "P 21/M"
_symmetry_group_IT_number 11
_symmetry_cell_setting 'monoclinic'
loop_
_space_group_symop_operation_xyz
x,y,z
-x,1/2+y,-z
-x,-y,-z
x,1/2-y,z
loop_
_atom_site_type_symbol
_atom_site_label
_atom_site_fract_x
_atom_site_fract_y
_atom_site_fract_z
Si Si1 0.157018 0.061593 0.971367
Si Si2 0.861205 0.436478 0.466373
Si Si3 0.281262 0.062176 0.712125
Si Si4 0.374979 0.438589 0.101628
Si Si5 0.409577 0.061488 0.347393
O O1 0.155665 0.250000 0.970261
O O2 0.242309 0.011754 0.844497
O O3 0.233934 0.009908 0.067374
O O4 0.000000 0.000000 0.000000
O O5 0.869251 0.250000 0.460379
O O6 0.837210 0.502980 0.348491
O O7 0.720022 0.490335 0.558948
O O8 0.000000 0.500000 0.500000
O O9 0.288057 0.250000 0.706378
O O10 0.434833 0.994813 0.649560
O O11 0.379161 0.250000 0.101157
O O12 0.389860 0.489242 0.224130
O O13 0.500000 0.500000 0.000000
O O14 0.403317 0.250000 0.356609
#
# Coordination Sequence:
#
# PCOD9165587 Si02
#       5
#     4   4   4   4   4
#     4  10  23  40  61  93 130 168 208 256 312 372
#     4  12  27  46  67  93 126 164 210 265 320 377
#     4  11  23  43  67  94 128 168 214 261 313 375
#     4  10  21  39  63  94 128 164 207 255 308 370
#     4  11  23  41  67  97 128 168 213 260 313 374
#
# _framework density 20.345047000000001
#
# number of rings (size 3 to 8) (size 9 to 14) (size 15 to 20)
#    0.000    1.200    2.000    3.600    2.800    3.200 
#    0.000    0.000    0.000    0.000    0.000    0.000 
#    0.000    0.000    0.000    0.000    0.000    0.000 
#
# Total GULP energy -111848.901920 kJ/mol
# GULP energy per Si atom -5592.445096 kJ/mol
# Density = 2.029874 g / cm^3
# Si number density = 20.345047 Si / 1000 Ang^3
#
#
#
# Elastic Constant Matrix: (Units=GPa)
#
#
# Indices 1 2 3 4 5 6 
#
# 1 131.6860 16.1250 16.9227 0.0000 20.2349 0.0000
# 2 16.1250 53.2327 15.3959 0.0000 6.0008 0.0000
# 3 16.9227 15.3959 69.7477 0.0000 18.5856 0.0000
# 4 0.0000 0.0000 0.0000 28.3310 0.0000 -2.5079
# 5 20.2349 6.0008 18.5856 0.0000 43.2556 0.0000
# 6 0.0000 0.0000 0.0000 -2.5079 0.0000 41.3542
#
#
#
# Elastic Compliance Matrix: (Units=1/GPa)
#
#
# Indices 1 2 3 4 5 6 
#
# 1 0.008445 -0.001971 -0.000716 0.000000 -0.003369 0.000000
# 2 -0.001971 0.020565 -0.004005 0.000000 -0.000210 0.000000
# 3 -0.000716 -0.004005 0.017118 0.000000 -0.006464 0.000000
# 4 0.000000 0.000000 0.000000 0.035488 0.000000 0.002152
# 5 -0.003369 -0.000210 -0.006464 0.000000 0.027501 0.000000
# 6 0.000000 0.000000 0.000000 0.002152 0.000000 0.024312
#
#
# Mechanical properties :
#
#
# Convention : Reuss Voigt Hill
#
# Bulk Modulus (GPa) = 30.54132 39.06151 34.80142
# Shear Modulus (GPa) = 31.70036 36.33634 34.01835
#
# Velocity S-wave (km/s) = 3.95161 4.23070 4.09353
# Velocity P-wave (km/s) = 5.98870 6.56554 6.28374
#
# Compressibility (1/GPa) = 0.03274253
#
# Stress axis : x y z
#
# Youngs Moduli (GPa) = 118.41391 48.62730 58.41887
#
# Poissons Ratio (x) = 0.09585 0.04183
# Poissons Ratio (y) = 0.23342 0.23398
# Poissons Ratio (z) = 0.08479 0.19476
#
# Static dielectric constant tensor:
#      x y z
#    x 1.738240 0.000000 0.076600 
#    y 0.000000 1.689460 0.000000 
#    z 0.076600 0.000000 1.793790 
# 
# From -- ./inp_files/15965.got.cif
#   From: 2010.05.17/outbox.cif.g08.bks.cpg/sg11_8_cif.got.tgz:15965.got - 2010.06.03 12:22:45.
