data_PCOD9165362
_publ_section_title
;
Structure prediction by ZEFSAII (Michael W. Deem and Ramdas Pophale) SiO2 
 PCOD9165362
Probable space group: P 21/M
;
_chemical_formula_sum "Si O2"
_cell_formula_units_Z 28
_cell_length_a 15.876910
_cell_length_b 9.112451
_cell_length_c 11.949515
_cell_angle_alpha 90.000000
_cell_angle_beta 122.001923
_cell_angle_gamma 90.000000
_cell_volume 1466.097465
_symmetry_space_group_name_H-M "P 21/M"
_symmetry_group_IT_number 11
_symmetry_cell_setting 'monoclinic'
loop_
_space_group_symop_operation_xyz
x,y,z
-x,1/2+y,-z
-x,-y,-z
x,1/2-y,z
loop_
_atom_site_type_symbol
_atom_site_label
_atom_site_fract_x
_atom_site_fract_y
_atom_site_fract_z
Si Si1 0.663080 0.922573 0.606577
Si Si2 0.843759 0.424527 0.619226
Si Si3 0.967605 0.574401 0.092852
Si Si4 0.214889 0.426123 0.885436
Si Si5 0.428071 0.921574 0.036070
Si Si6 0.470863 0.919489 0.321304
Si Si7 0.892184 0.574462 0.426838
O O1 0.686366 0.750000 0.626039
O O2 0.576385 0.949079 0.453735
O O3 0.758263 0.015562 0.639871
O O4 0.612570 0.976165 0.685329
O O5 0.835300 0.250000 0.596364
O O6 0.838120 0.507996 0.497207
O O7 0.949054 0.454029 0.753710
O O8 0.964109 0.750000 0.073355
O O9 0.861802 0.527840 0.070541
O O10 0.000000 0.500000 0.000000
O O11 0.228197 0.250000 0.903361
O O12 0.164080 0.455441 0.729176
O O13 0.319880 0.505544 0.964246
O O14 0.418552 0.750000 0.001750
O O15 0.475292 0.934458 0.192361
O O16 0.500000 0.000000 0.000000
O O17 0.444896 0.750000 0.330604
O O18 0.901880 0.750000 0.444562
O O19 0.000000 0.500000 0.500000
#
# Coordination Sequence:
#
# PCOD9165362 Si02
#       7
#     4   4   4   4   4   4   4
#     4  10  21  38  63  92 119 156 201 249 306 363
#     4  11  23  40  61  91 126 159 199 249 305 362
#     4  10  23  42  62  89 127 166 203 249 303 361
#     4  10  23  44  64  88 125 164 204 257 310 359
#     4  11  25  43  64  91 123 163 209 256 310 368
#     4   9  21  42  62  85 121 158 198 253 309 360
#     4  11  22  40  64  89 121 158 200 249 302 359
#
# _framework density 19.098320999999999
#
# number of rings (size 3 to 8) (size 9 to 14) (size 15 to 20)
#    0.000    1.714    1.429    1.714    4.000    4.571 
#    0.000    0.000    0.000    0.000    0.000    0.000 
#    0.000    0.000    0.000    0.000    0.000    0.000 
#
# Total GULP energy -156480.579915 kJ/mol
# GULP energy per Si atom -5588.592140 kJ/mol
# Density = 1.905485 g / cm^3
# Si number density = 19.098321 Si / 1000 Ang^3
#
#
#
# Elastic Constant Matrix: (Units=GPa)
#
#
# Indices 1 2 3 4 5 6 
#
# 1 134.5331 52.9246 37.5818 0.0000 -3.4373 0.0000
# 2 52.9246 59.8728 40.4406 0.0000 -4.2874 0.0000
# 3 37.5818 40.4406 52.2941 0.0000 -12.5255 0.0000
# 4 0.0000 0.0000 0.0000 31.8921 0.0000 -2.9467
# 5 -3.4373 -4.2874 -12.5255 0.0000 23.3222 0.0000
# 6 0.0000 0.0000 0.0000 -2.9467 0.0000 41.3579
#
#
#
# Elastic Compliance Matrix: (Units=1/GPa)
#
#
# Indices 1 2 3 4 5 6 
#
# 1 0.011421 -0.009411 -0.001080 0.000000 -0.000627 0.000000
# 2 -0.009411 0.044567 -0.029921 0.000000 -0.009263 0.000000
# 3 -0.001080 -0.029921 0.047835 0.000000 0.020031 0.000000
# 4 0.000000 0.000000 0.000000 0.031564 0.000000 0.002249
# 5 -0.000627 -0.009263 0.020031 0.000000 0.051840 0.000000
# 6 0.000000 0.000000 0.000000 0.002249 0.000000 0.024339
#
#
# Mechanical properties :
#
#
# Convention : Reuss Voigt Hill
#
# Bulk Modulus (GPa) = 43.47846 56.51043 49.99444
# Shear Modulus (GPa) = 16.66351 27.03130 21.84740
#
# Velocity S-wave (km/s) = 2.95704 3.76623 3.38589
# Velocity P-wave (km/s) = 5.87144 6.96894 6.44360
#
# Compressibility (1/GPa) = 0.02299990
#
# Stress axis : x y z
#
# Youngs Moduli (GPa) = 87.55743 22.43811 20.90502
#
# Poissons Ratio (x) = 0.21116 0.02259
# Poissons Ratio (y) = 0.82399 0.62549
# Poissons Ratio (z) = 0.09460 0.67136
#
# Static dielectric constant tensor:
#      x y z
#    x 1.645380 0.000000 -0.004040 
#    y 0.000000 1.639310 0.000000 
#    z -0.004040 0.000000 1.656160 
# 
# From -- ./inp_files/37933.got.cif
#   From: 2010.05.17/outbox.cif.g08.bks.cpg/sg11_19_cif.got.tgz:37933.got - 2010.06.03 12:22:45.
