data_PCOD9165531
_publ_section_title
;
Structure prediction by ZEFSAII (Michael W. Deem and Ramdas Pophale) SiO2 
 PCOD9165531
Probable space group: P 21/M
;
_chemical_formula_sum "Si O2"
_cell_formula_units_Z 28
_cell_length_a 14.484322
_cell_length_b 8.724216
_cell_length_c 15.242503
_cell_angle_alpha 90.000000
_cell_angle_beta 136.383404
_cell_angle_gamma 90.000000
_cell_volume 1328.686403
_symmetry_space_group_name_H-M "P 21/M"
_symmetry_group_IT_number 11
_symmetry_cell_setting 'monoclinic'
loop_
_space_group_symop_operation_xyz
x,y,z
-x,1/2+y,-z
-x,-y,-z
x,1/2-y,z
loop_
_atom_site_type_symbol
_atom_site_label
_atom_site_fract_x
_atom_site_fract_y
_atom_site_fract_z
Si Si1 0.871279 0.426874 0.774652
Si Si2 0.848642 0.425948 0.548586
Si Si3 0.425316 0.070457 0.683695
Si Si4 0.333492 0.432226 0.234522
Si Si5 0.155181 0.932561 0.956518
Si Si6 0.847935 0.934331 0.241873
Si Si7 0.586038 0.432315 0.138604
O O1 0.893689 0.250000 0.817163
O O2 0.850105 0.428335 0.655561
O O3 0.745056 0.494979 0.738134
O O4 0.004994 0.524336 0.884122
O O5 0.821340 0.250000 0.501599
O O6 0.730822 0.534150 0.436107
O O7 0.999439 0.468987 0.625436
O O8 0.451565 0.250000 0.699789
O O9 0.514379 0.987990 0.671379
O O10 0.463516 0.001244 0.804147
O O11 0.327245 0.250000 0.233925
O O12 0.256286 0.494257 0.095383
O O13 0.172448 0.750000 0.964020
O O14 0.171429 0.005157 0.870935
O O15 0.831806 0.750000 0.231238
O O16 0.737906 0.013604 0.226314
O O17 0.576403 0.250000 0.133133
O O18 0.500000 0.500000 0.000000
#
# Coordination Sequence:
#
# PCOD9165531 Si02
#       7
#     4   4   4   4   4   4   4
#     4  10  21  39  62  89 121 158 202 249 299 356
#     4   9  21  42  65  89 120 157 199 247 296 350
#     4  12  26  43  63  88 120 158 202 249 297 354
#     4  12  24  39  59  85 120 161 204 250 304 358
#     4  11  21  36  59  90 125 159 200 247 301 359
#     4  10  21  40  65  92 123 159 200 246 298 354
#     4  12  25  43  66  93 125 158 197 243 298 358
#
# _framework density 21.073443999999999
#
# number of rings (size 3 to 8) (size 9 to 14) (size 15 to 20)
#    0.000    1.143    0.000    8.143    0.000    4.571 
#    0.000    0.000    0.000    0.000    0.000    0.000 
#    0.000    0.000    0.000    0.000    0.000    0.000 
#
# Total GULP energy -156767.858878 kJ/mol
# GULP energy per Si atom -5598.852103 kJ/mol
# Density = 2.102548 g / cm^3
# Si number density = 21.073444 Si / 1000 Ang^3
#
#
#
# Elastic Constant Matrix: (Units=GPa)
#
#
# Indices 1 2 3 4 5 6 
#
# 1 95.4428 8.1259 -1.4068 0.0000 4.1402 0.0000
# 2 8.1259 109.7351 11.1712 0.0000 1.5838 0.0000
# 3 -1.4068 11.1712 33.7153 0.0000 11.6465 0.0000
# 4 0.0000 0.0000 0.0000 32.6127 0.0000 3.2112
# 5 4.1402 1.5838 11.6465 0.0000 15.8240 0.0000
# 6 0.0000 0.0000 0.0000 3.2112 0.0000 38.4622
#
#
#
# Elastic Compliance Matrix: (Units=1/GPa)
#
#
# Indices 1 2 3 4 5 6 
#
# 1 0.010785 -0.000969 0.002296 0.000000 -0.004415 0.000000
# 2 -0.000969 0.009557 -0.003975 0.000000 0.002222 0.000000
# 3 0.002296 -0.003975 0.041760 0.000000 -0.030938 0.000000
# 4 0.000000 0.000000 0.000000 0.030917 0.000000 -0.002581
# 5 -0.004415 0.002222 -0.030938 0.000000 0.086898 0.000000
# 6 0.000000 0.000000 0.000000 -0.002581 0.000000 0.026215
#
#
# Mechanical properties :
#
#
# Convention : Reuss Voigt Hill
#
# Bulk Modulus (GPa) = 17.60320 30.51933 24.06127
# Shear Modulus (GPa) = 21.70477 32.11330 26.90903
#
# Velocity S-wave (km/s) = 3.21278 3.90792 3.57727
# Velocity P-wave (km/s) = 4.70468 5.90561 5.33902
#
# Compressibility (1/GPa) = 0.05680786
#
# Stress axis : x y z
#
# Youngs Moduli (GPa) = 92.71877 104.63374 23.94622
#
# Poissons Ratio (x) = 0.10136 -0.05498
# Poissons Ratio (y) = 0.08981 0.09518
# Poissons Ratio (z) = -0.21288 0.41589
#
# Static dielectric constant tensor:
#      x y z
#    x 1.761320 0.000000 0.022180 
#    y 0.000000 1.687560 0.000000 
#    z 0.022180 0.000000 1.743790 
# 
# From -- ./inp_files/37832.got.cif
#   From: 2010.05.17/outbox.cif.g08.bks.cpg/sg11_19_cif.got.tgz:37832.got - 2010.06.03 12:22:45.
