data_PCOD9165934
_publ_section_title
;
Structure prediction by ZEFSAII (Michael W. Deem and Ramdas Pophale) SiO2 
 PCOD9165934
Probable space group: P 21/M
;
_chemical_formula_sum "Si O2"
_cell_formula_units_Z 26
_cell_length_a 7.339589
_cell_length_b 15.760055
_cell_length_c 15.648698
_cell_angle_alpha 90.000000
_cell_angle_beta 42.253973
_cell_angle_gamma 90.000000
_cell_volume 1217.158388
_symmetry_space_group_name_H-M "P 21/M"
_symmetry_group_IT_number 11
_symmetry_cell_setting 'monoclinic'
loop_
_space_group_symop_operation_xyz
x,y,z
-x,1/2+y,-z
-x,-y,-z
x,1/2-y,z
loop_
_atom_site_type_symbol
_atom_site_label
_atom_site_fract_x
_atom_site_fract_y
_atom_site_fract_z
Si Si1 0.682486 0.088624 0.535904
Si Si2 0.052869 0.250000 0.365343
Si Si3 0.059203 0.750000 0.780806
Si Si4 0.160647 0.414761 0.591841
Si Si5 0.765403 0.900700 0.966290
Si Si6 0.324435 0.151022 0.809609
Si Si7 0.829555 0.089713 0.875192
Si Si8 0.315239 0.250000 0.441883
O O1 0.876049 0.166800 0.447259
O O2 0.432954 0.089857 0.555287
O O3 0.548756 0.102686 0.674940
O O4 0.827085 0.999273 0.468943
O O5 0.118465 0.250000 0.243315
O O6 0.299209 0.250000 0.345401
O O7 0.369872 0.750000 0.643425
O O8 0.988243 0.833612 0.858532
O O9 0.168033 0.332000 0.531010
O O10 0.924068 0.415632 0.743784
O O11 0.840141 0.995659 0.912326
O O12 0.721764 0.890543 0.082400
O O13 0.479634 0.880066 0.019191
O O14 0.400402 0.250000 0.793058
O O15 0.045567 0.144927 0.852170
#
# Coordination Sequence:
#
# PCOD9165934 Si02
#       8
#     4   2   2   4   4   4   4   2
#     4  10  21  41  69  99 140 175 217 278 343 393
#     4  12  24  43  65 101 137 174 224 277 338 406
#     4  12  26  46  66  92 144 176 218 278 340 402
#     4  10  22  44  71 100 136 178 222 280 343 396
#     4  11  25  47  67  94 137 180 222 274 332 397
#     4  11  23  40  69 102 133 176 224 272 330 401
#     4  10  25  43  69 100 130 176 229 274 327 401
#     4  12  28  41  69 105 133 174 230 279 346 408
#
# _framework density 21.361228000000001
#
# number of rings (size 3 to 8) (size 9 to 14) (size 15 to 20)
#    0.000    1.231    3.077    1.385   10.769    1.846 
#    5.538    0.000    0.000    0.000    0.000    0.000 
#    0.000    0.000    0.000    0.000    0.000    0.000 
#
# Total GULP energy -145479.577166 kJ/mol
# GULP energy per Si atom -5595.368353 kJ/mol
# Density = 2.131261 g / cm^3
# Si number density = 21.361228 Si / 1000 Ang^3
#
#
#
# Elastic Constant Matrix: (Units=GPa)
#
#
# Indices 1 2 3 4 5 6 
#
# 1 47.8841 10.1817 15.2635 0.0000 12.7415 0.0000
# 2 10.1817 125.7259 48.2436 0.0000 -0.1181 0.0000
# 3 15.2635 48.2436 91.8765 0.0000 19.7627 0.0000
# 4 0.0000 0.0000 0.0000 21.3083 0.0000 25.0317
# 5 12.7415 -0.1181 19.7627 0.0000 36.4736 0.0000
# 6 0.0000 0.0000 0.0000 25.0317 0.0000 -41.9976
#
#
#
# Elastic Compliance Matrix: (Units=1/GPa)
#
#
# Indices 1 2 3 4 5 6 
#
# 1 0.023647 -0.001280 -0.001674 0.000000 -0.007358 0.000000
# 2 -0.001280 0.010381 -0.006047 0.000000 0.003757 0.000000
# 3 -0.001674 -0.006047 0.016091 0.000000 -0.008154 0.000000
# 4 0.000000 0.000000 0.000000 0.027603 0.000000 0.016452
# 5 -0.007358 0.003757 -0.008154 0.000000 0.034418 0.000000
# 6 0.000000 0.000000 0.000000 0.016452 0.000000 -0.014005
#
#
# Mechanical properties :
#
#
# Convention : Reuss Voigt Hill
#
# Bulk Modulus (GPa) = 31.13395 45.87379 38.50387
# Shear Modulus (GPa) = 39.41915 15.94337 27.68126
#
# Velocity S-wave (km/s) = 4.30043 2.73494 3.60372
# Velocity P-wave (km/s) = 6.26617 5.61205 5.94811
#
# Compressibility (1/GPa) = 0.03211928
#
# Stress axis : x y z
#
# Youngs Moduli (GPa) = 42.28817 96.32826 62.14608
#
# Poissons Ratio (x) = 0.12326 0.10403
# Poissons Ratio (y) = 0.05411 0.37577
# Poissons Ratio (z) = 0.07079 0.58246
#
# Static dielectric constant tensor:
#      x y z
#    x 1.781940 0.000000 -0.000800 
#    y 0.000000 1.731020 0.000000 
#    z -0.000800 0.000000 1.720580 
# 
# From -- ./inp_files/47764.got.cif
#   From: 2010.05.17/outbox.cif.g08.bks.cpg/sg11_24_cif.got.tgz:47764.got - 2010.06.03 12:22:45.
