data_PCOD9165978
_publ_section_title
;
Structure prediction by ZEFSAII (Michael W. Deem and Ramdas Pophale) SiO2 
 PCOD9165978
Probable space group: P 21/M
;
_chemical_formula_sum "Si O2"
_cell_formula_units_Z 30
_cell_length_a 28.958276
_cell_length_b 7.770242
_cell_length_c 9.826058
_cell_angle_alpha 90.000000
_cell_angle_beta 32.373905
_cell_angle_gamma 90.000000
_cell_volume 1183.856776
_symmetry_space_group_name_H-M "P 21/M"
_symmetry_group_IT_number 11
_symmetry_cell_setting 'monoclinic'
loop_
_space_group_symop_operation_xyz
x,y,z
-x,1/2+y,-z
-x,-y,-z
x,1/2-y,z
loop_
_atom_site_type_symbol
_atom_site_label
_atom_site_fract_x
_atom_site_fract_y
_atom_site_fract_z
Si Si1 0.338487 0.449550 0.402950
Si Si2 0.543763 0.947954 0.121060
Si Si3 0.841520 0.441920 0.235867
Si Si4 0.357110 0.052424 0.649779
Si Si5 0.304958 0.945341 0.071461
Si Si6 0.853382 0.250000 0.928618
Si Si7 0.082001 0.053235 0.387421
Si Si8 0.895967 0.045532 0.375616
O O1 0.360528 0.250000 0.370962
O O2 0.247867 0.457637 0.551713
O O3 0.327522 0.529433 0.579494
O O4 0.414260 0.523080 0.121428
O O5 0.516973 0.750000 0.165372
O O6 0.460911 0.046341 0.381288
O O7 0.622711 0.947961 0.029814
O O8 0.818132 0.250000 0.346744
O O9 0.906417 0.509529 0.190370
O O10 0.866089 0.398921 0.019721
O O11 0.327044 0.250000 0.734987
O O12 0.326368 0.958612 0.859704
O O13 0.317813 0.750000 0.085197
O O14 0.206296 0.993173 0.345551
O O15 0.851767 0.403430 0.816815
O O16 0.106189 0.250000 0.295091
O O17 0.061172 0.043096 0.600450
O O18 0.000000 0.000000 0.500000
O O19 0.913421 0.250000 0.345871
#
# Coordination Sequence:
#
# PCOD9165978 Si02
#       8
#     4   4   4   4   4   2   4   4
#     4  10  22  38  60  88 124 164 219 276 336 402
#     4  11  22  39  58  83 118 164 215 276 337 403
#     4   9  21  40  66  96 136 173 216 276 334 390
#     4  11  24  38  54  82 120 162 219 278 332 404
#     4  11  23  38  62  87 118 163 210 269 335 390
#     4  10  24  44  74 110 146 182 226 282 332 410
#     4  12  25  46  78 107 147 188 226 276 337 403
#     4  10  21  42  69  99 135 179 224 274 335 413
#
# _framework density 25.340902
#
# number of rings (size 3 to 8) (size 9 to 14) (size 15 to 20)
#    0.400    1.067    2.667    2.000    1.867    3.733 
#    0.000    0.667    0.000    0.000    0.000    0.000 
#    0.000    0.000    0.000    0.000    0.000    0.000 
#
# Total GULP energy -167192.056114 kJ/mol
# GULP energy per Si atom -5573.068537 kJ/mol
# Density = 2.528322 g / cm^3
# Si number density = 25.340902 Si / 1000 Ang^3
#
#
#
# Elastic Constant Matrix: (Units=GPa)
#
#
# Indices 1 2 3 4 5 6 
#
# 1 125.5233 9.3788 16.5979 0.0000 12.1246 0.0000
# 2 9.3788 103.8716 10.1758 0.0000 8.2328 0.0000
# 3 16.5979 10.1758 91.8948 0.0000 27.4947 0.0000
# 4 0.0000 0.0000 0.0000 -16.0495 0.0000 13.0069
# 5 12.1246 8.2328 27.4947 0.0000 51.1827 0.0000
# 6 0.0000 0.0000 0.0000 13.0069 0.0000 21.4159
#
#
#
# Elastic Compliance Matrix: (Units=1/GPa)
#
#
# Indices 1 2 3 4 5 6 
#
# 1 0.008272 -0.000541 -0.001041 0.000000 -0.001313 0.000000
# 2 -0.000541 0.009828 -0.000662 0.000000 -0.001097 0.000000
# 3 -0.001041 -0.000662 0.013152 0.000000 -0.006712 0.000000
# 4 0.000000 0.000000 0.000000 -0.041755 0.000000 0.025360
# 5 -0.001313 -0.001097 -0.006712 0.000000 0.023631 0.000000
# 6 0.000000 0.000000 0.000000 0.025360 0.000000 0.031292
#
#
# Mechanical properties :
#
#
# Convention : Reuss Voigt Hill
#
# Bulk Modulus (GPa) = 37.36619 43.73276 40.54947
# Shear Modulus (GPa) = 86.46269 30.31897 58.39083
#
# Velocity S-wave (km/s) = 5.84755 3.46272 4.80543
# Velocity P-wave (km/s) = 7.76977 5.76910 6.84294
#
# Compressibility (1/GPa) = 0.02676216
#
# Stress axis : x y z
#
# Youngs Moduli (GPa) = 120.89597 101.75087 76.03679
#
# Poissons Ratio (x) = 0.05502 0.07917
# Poissons Ratio (y) = 0.06538 0.05037
# Poissons Ratio (z) = 0.12588 0.06740
#
# Static dielectric constant tensor:
#      x y z
#    x 2.077020 0.000000 -0.015530 
#    y 0.000000 2.566150 0.000000 
#    z -0.015530 0.000000 2.069940 
# 
# From -- ./inp_files/28059.got.cif
#   From: 2010.05.17/outbox.cif.g08.bks.cpg/sg11_15_cif.got.tgz:28059.got - 2010.06.03 12:22:45.
