data_PCOD9165527
_publ_section_title
;
Structure prediction by ZEFSAII (Michael W. Deem and Ramdas Pophale) SiO2 
 PCOD9165527
Probable space group: P 21/M
;
_chemical_formula_sum "Si O2"
_cell_formula_units_Z 32
_cell_length_a 12.364906
_cell_length_b 18.931096
_cell_length_c 8.762173
_cell_angle_alpha 90.000000
_cell_angle_beta 128.511002
_cell_angle_gamma 90.000000
_cell_volume 1604.931212
_symmetry_space_group_name_H-M "P 21/M"
_symmetry_group_IT_number 11
_symmetry_cell_setting 'monoclinic'
loop_
_space_group_symop_operation_xyz
x,y,z
-x,1/2+y,-z
-x,-y,-z
x,1/2-y,z
loop_
_atom_site_type_symbol
_atom_site_label
_atom_site_fract_x
_atom_site_fract_y
_atom_site_fract_z
Si Si1 0.270248 0.331874 0.650186
Si Si2 0.229240 0.833198 0.937838
Si Si3 0.158605 0.585095 0.576025
Si Si4 0.370303 0.550558 0.510311
Si Si5 0.487366 0.591447 0.312032
Si Si6 0.932050 0.669298 0.799132
Si Si7 0.848320 0.966928 0.891740
Si Si8 0.155479 0.440999 0.765322
O O1 0.291650 0.250000 0.704796
O O2 0.389696 0.361286 0.645938
O O3 0.131757 0.339492 0.426289
O O4 0.252218 0.380160 0.782416
O O5 0.265088 0.750000 0.971581
O O6 0.185386 0.858035 0.730989
O O7 0.095328 0.843548 0.927595
O O8 0.352534 0.881734 0.105853
O O9 0.276964 0.589486 0.552292
O O10 0.166800 0.507544 0.661457
O O11 0.003131 0.587172 0.373572
O O12 0.457530 0.596947 0.467400
O O13 0.467177 0.490271 0.669891
O O14 0.261542 0.507859 0.308092
O O15 0.907515 0.750000 0.824185
O O16 0.860963 0.613078 0.844645
O O17 0.811417 0.966736 0.036474
O O18 0.000000 0.000000 0.000000
#
# Coordination Sequence:
#
# PCOD9165527 Si02
#       8
#     4   4   4   4   4   4   4   4
#     4  11  22  43  67  90 128 176 217 264 329 392
#     4  11  24  42  64  91 128 177 223 266 325 393
#     4  11  21  40  63  97 130 162 214 275 324 382
#     4  11  23  40  65  97 132 168 216 266 332 388
#     4  11  23  43  64  92 129 172 214 264 321 397
#     4  10  21  39  62  88 124 168 216 265 321 383
#     4  12  21  37  64  98 128 167 213 271 324 387
#     4  11  22  35  66  97 129 164 212 274 333 378
#
# _framework density 19.938548999999998
#
# number of rings (size 3 to 8) (size 9 to 14) (size 15 to 20)
#    0.000    1.000    5.000    2.625    0.000    1.000 
#    4.500    1.250    0.000    0.000    0.000    0.000 
#    0.000    0.000    0.000    0.000    0.000    0.000 
#
# Total GULP energy -178899.414552 kJ/mol
# GULP energy per Si atom -5590.606705 kJ/mol
# Density = 1.989317 g / cm^3
# Si number density = 19.938549 Si / 1000 Ang^3
#
#
#
# Elastic Constant Matrix: (Units=GPa)
#
#
# Indices 1 2 3 4 5 6 
#
# 1 109.8494 37.1288 5.9388 0.0000 -8.0285 0.0000
# 2 37.1288 72.0716 26.2076 0.0000 -1.7732 0.0000
# 3 5.9388 26.2076 57.6551 0.0000 9.2661 0.0000
# 4 0.0000 0.0000 0.0000 23.7736 0.0000 -5.8310
# 5 -8.0285 -1.7732 9.2661 0.0000 27.9045 0.0000
# 6 0.0000 0.0000 0.0000 -5.8310 0.0000 20.2347
#
#
#
# Elastic Compliance Matrix: (Units=1/GPa)
#
#
# Indices 1 2 3 4 5 6 
#
# 1 0.011320 -0.006236 0.001277 0.000000 0.002437 0.000000
# 2 -0.006236 0.020442 -0.009053 0.000000 0.002511 0.000000
# 3 0.001277 -0.009053 0.022566 0.000000 -0.007701 0.000000
# 4 0.000000 0.000000 0.000000 0.045263 0.000000 0.013043
# 5 0.002437 0.002511 -0.007701 0.000000 0.039254 0.000000
# 6 0.000000 0.000000 0.000000 0.013043 0.000000 0.053179
#
#
# Mechanical properties :
#
#
# Convention : Reuss Voigt Hill
#
# Bulk Modulus (GPa) = 38.01822 42.01405 40.01613
# Shear Modulus (GPa) = 21.85169 25.73595 23.79382
#
# Velocity S-wave (km/s) = 3.31411 3.59662 3.45825
# Velocity P-wave (km/s) = 5.80978 6.19395 6.00494
#
# Compressibility (1/GPa) = 0.02630318
#
# Stress axis : x y z
#
# Youngs Moduli (GPa) = 88.33726 48.91996 44.31490
#
# Poissons Ratio (x) = 0.30508 -0.05659
# Poissons Ratio (y) = 0.55089 0.40118
# Poissons Ratio (z) = -0.11281 0.44287
#
# Static dielectric constant tensor:
#      x y z
#    x 1.705670 0.000000 0.020930 
#    y 0.000000 1.685860 0.000000 
#    z 0.020930 0.000000 1.711370 
# 
# From -- ./inp_files/19399.got.cif
#   From: 2010.05.17/outbox.cif.g08.bks.cpg/sg11_10_cif.got.tgz:19399.got - 2010.06.03 12:22:45.
