data_PCOD9165540
_publ_section_title
;
Structure prediction by ZEFSAII (Michael W. Deem and Ramdas Pophale) SiO2 
 PCOD9165540
Probable space group: P 21/M
;
_chemical_formula_sum "Si O2"
_cell_formula_units_Z 32
_cell_length_a 11.804453
_cell_length_b 18.222315
_cell_length_c 13.772860
_cell_angle_alpha 90.000000
_cell_angle_beta 146.020000
_cell_angle_gamma 90.000000
_cell_volume 1655.809479
_symmetry_space_group_name_H-M "P 21/M"
_symmetry_group_IT_number 11
_symmetry_cell_setting 'monoclinic'
loop_
_space_group_symop_operation_xyz
x,y,z
-x,1/2+y,-z
-x,-y,-z
x,1/2-y,z
loop_
_atom_site_type_symbol
_atom_site_label
_atom_site_fract_x
_atom_site_fract_y
_atom_site_fract_z
Si Si1 0.038643 0.665991 0.303909
Si Si2 0.411184 0.833580 0.868181
Si Si3 0.437323 0.621549 0.664820
Si Si4 0.078266 0.910125 0.746381
Si Si5 0.191764 0.577358 0.043340
Si Si6 0.889911 0.597514 0.997185
Si Si7 0.650671 0.549136 0.360429
Si Si8 0.755690 0.565748 0.208769
O O1 0.979201 0.750000 0.270787
O O2 0.279914 0.657570 0.479718
O O3 0.949259 0.632852 0.141717
O O4 0.946666 0.618894 0.327076
O O5 0.469669 0.750000 0.933104
O O6 0.407711 0.844267 0.750408
O O7 0.195124 0.852732 0.761602
O O8 0.570870 0.892303 0.025066
O O9 0.380592 0.535544 0.632098
O O10 0.673645 0.627766 0.808113
O O11 0.117907 0.893664 0.886989
O O12 0.842280 0.918237 0.553312
O O13 0.184671 0.988768 0.797865
O O14 0.144119 0.489647 0.010278
O O15 0.433431 0.586796 0.223641
O O16 0.064593 0.608871 0.042382
O O17 0.703039 0.552677 0.283249
#
# Coordination Sequence:
#
# PCOD9165540 Si02
#       8
#     4   4   4   4   4   4   4   4
#     4  12  24  38  60  92 126 161 202 252 315 371
#     4  12  24  37  60  93 126 160 199 248 310 374
#     4  11  21  38  60  91 125 157 197 252 309 362
#     4  12  21  39  65  91 125 160 201 251 302 363
#     4  10  21  39  62  92 114 156 207 254 296 350
#     4  10  22  39  62  86 120 154 205 256 299 349
#     4  11  21  36  65  95 122 156 203 251 300 359
#     4  12  20  38  62  92 123 164 201 247 303 367
#
# _framework density 19.325894000000002
#
# number of rings (size 3 to 8) (size 9 to 14) (size 15 to 20)
#    0.000    0.750    6.250    3.000    0.000    1.500 
#    0.000    5.000    0.000    1.500    0.000    0.000 
#    0.000    0.000    0.000    0.000    0.000    0.000 
#
# Total GULP energy -178905.651785 kJ/mol
# GULP energy per Si atom -5590.801618 kJ/mol
# Density = 1.928191 g / cm^3
# Si number density = 19.325894 Si / 1000 Ang^3
#
#
#
# Elastic Constant Matrix: (Units=GPa)
#
#
# Indices 1 2 3 4 5 6 
#
# 1 86.3396 1.8962 27.1972 0.0000 31.3361 0.0000
# 2 1.8962 34.1104 10.1059 0.0000 3.6812 0.0000
# 3 27.1972 10.1059 132.7339 0.0000 23.9726 0.0000
# 4 0.0000 0.0000 0.0000 -3.6486 0.0000 -10.8761
# 5 31.3361 3.6812 23.9726 0.0000 20.0196 0.0000
# 6 0.0000 0.0000 0.0000 -10.8761 0.0000 1.2892
#
#
#
# Elastic Compliance Matrix: (Units=1/GPa)
#
#
# Indices 1 2 3 4 5 6 
#
# 1 0.027827 0.002773 0.002610 0.000000 -0.047193 0.000000
# 2 0.002773 0.030468 -0.001394 0.000000 -0.008274 0.000000
# 3 0.002610 -0.001394 0.009948 0.000000 -0.015742 0.000000
# 4 0.000000 0.000000 0.000000 -0.010482 0.000000 -0.088428
# 5 -0.047193 -0.008274 -0.015742 0.000000 0.144193 0.000000
# 6 0.000000 0.000000 0.000000 -0.088428 0.000000 0.029665
#
#
# Mechanical properties :
#
#
# Convention : Reuss Voigt Hill
#
# Bulk Modulus (GPa) = 13.11938 36.84247 24.98093
# Shear Modulus (GPa) = 20.07643 17.79768 18.93705
#
# Velocity S-wave (km/s) = 3.22659 3.03797 3.13370
# Velocity P-wave (km/s) = 4.54802 5.60454 5.10369
#
# Compressibility (1/GPa) = 0.07622309
#
# Stress axis : x y z
#
# Youngs Moduli (GPa) = 35.93607 32.82106 100.51991
#
# Poissons Ratio (x) = -0.09101 -0.26240
# Poissons Ratio (y) = -0.09964 0.14008
# Poissons Ratio (z) = -0.09381 0.04574
#
# Static dielectric constant tensor:
#      x y z
#    x 1.652670 0.000000 0.030980 
#    y 0.000000 1.668900 0.000000 
#    z 0.030980 0.000000 1.695100 
# 
# From -- ./inp_files/50704.got.cif
#   From: 2010.05.17/outbox.cif.g08.bks.cpg/sg11_26_cif.got.tgz:50704.got - 2010.06.03 12:22:45.
