data_PCOD9165791
_publ_section_title
;
Structure prediction by ZEFSAII (Michael W. Deem and Ramdas Pophale) SiO2 
 PCOD9165791
Probable space group: P 21/M
;
_chemical_formula_sum "Si O2"
_cell_formula_units_Z 32
_cell_length_a 15.204573
_cell_length_b 18.862336
_cell_length_c 9.391830
_cell_angle_alpha 90.000000
_cell_angle_beta 39.977300
_cell_angle_gamma 90.000000
_cell_volume 1730.542563
_symmetry_space_group_name_H-M "P 21/M"
_symmetry_group_IT_number 11
_symmetry_cell_setting 'monoclinic'
loop_
_space_group_symop_operation_xyz
x,y,z
-x,1/2+y,-z
-x,-y,-z
x,1/2-y,z
loop_
_atom_site_type_symbol
_atom_site_label
_atom_site_fract_x
_atom_site_fract_y
_atom_site_fract_z
Si Si1 0.385744 0.954946 0.559372
Si Si2 0.239941 0.168780 0.231879
Si Si3 0.918106 0.963652 0.475289
Si Si4 0.497142 0.332994 0.415621
Si Si5 0.902554 0.981974 0.992580
Si Si6 0.212750 0.332624 0.932320
Si Si7 0.523649 0.166501 0.051270
Si Si8 0.628663 0.039368 0.763773
O O1 0.406332 0.877082 0.599364
O O2 0.396602 0.956989 0.374747
O O3 0.500000 0.000000 0.500000
O O4 0.245266 0.989606 0.782833
O O5 0.197953 0.250000 0.304334
O O6 0.126344 0.114992 0.427324
O O7 0.378915 0.157755 0.148715
O O8 0.262159 0.157896 0.034965
O O9 0.774041 0.001909 0.614210
O O10 0.000000 0.000000 0.500000
O O11 0.028061 0.972337 0.216059
O O12 0.529712 0.250000 0.381245
O O13 0.342110 0.341023 0.666351
O O14 0.508379 0.355555 0.236034
O O15 0.889462 0.897986 0.972303
O O16 0.000000 0.000000 0.000000
O O17 0.164139 0.250000 0.979362
O O18 0.557992 0.250000 0.004302
O O19 0.628128 0.116713 0.837427
O O20 0.500000 0.000000 0.000000
#
# Coordination Sequence:
#
# PCOD9165791 Si02
#       8
#     4   4   4   4   4   4   4   4
#     4  12  25  41  67  94 127 171 218 266 317 381
#     4  10  21  40  65  95 127 169 218 265 322 391
#     4  12  26  43  65  96 133 173 212 269 326 384
#     4  10  22  39  64  97 129 166 215 270 325 382
#     4  12  26  45  63  95 135 172 217 264 323 389
#     4  10  21  40  66  94 126 170 218 264 321 392
#     4  10  22  39  64  97 130 164 212 273 326 380
#     4  12  25  41  66  97 127 167 220 266 320 382
#
# _framework density 18.491311
#
# number of rings (size 3 to 8) (size 9 to 14) (size 15 to 20)
#    0.000    1.000    5.000    1.500    5.250    1.500 
#    0.000    2.500    0.000    0.000    0.000    0.000 
#    0.000    0.000    0.000    0.000    0.000    0.000 
#
# Total GULP energy -178596.494767 kJ/mol
# GULP energy per Si atom -5581.140461 kJ/mol
# Density = 1.844922 g / cm^3
# Si number density = 18.491311 Si / 1000 Ang^3
#
#
#
# Elastic Constant Matrix: (Units=GPa)
#
#
# Indices 1 2 3 4 5 6 
#
# 1 130.6579 43.3681 52.6468 0.0000 17.6208 0.0000
# 2 43.3681 104.6520 44.7570 0.0000 5.8776 0.0000
# 3 52.6468 44.7570 124.7861 0.0000 20.1392 0.0000
# 4 0.0000 0.0000 0.0000 34.7747 0.0000 -2.2197
# 5 17.6208 5.8776 20.1392 0.0000 40.2451 0.0000
# 6 0.0000 0.0000 0.0000 -2.2197 0.0000 28.7762
#
#
#
# Elastic Compliance Matrix: (Units=1/GPa)
#
#
# Indices 1 2 3 4 5 6 
#
# 1 0.010076 -0.002824 -0.002821 0.000000 -0.002588 0.000000
# 2 -0.002824 0.012085 -0.003326 0.000000 0.001136 0.000000
# 3 -0.002821 -0.003326 0.011008 0.000000 -0.003788 0.000000
# 4 0.000000 0.000000 0.000000 0.028899 0.000000 0.002229
# 5 -0.002588 0.001136 -0.003788 0.000000 0.027710 0.000000
# 6 0.000000 0.000000 0.000000 0.002229 0.000000 0.034923
#
#
# Mechanical properties :
#
#
# Convention : Reuss Voigt Hill
#
# Bulk Modulus (GPa) = 65.67214 71.29333 68.48274
# Shear Modulus (GPa) = 33.84809 35.38082 34.61445
#
# Velocity S-wave (km/s) = 4.28306 4.37896 4.33128
# Velocity P-wave (km/s) = 7.74930 8.01285 7.88218
#
# Compressibility (1/GPa) = 0.01522716
#
# Stress axis : x y z
#
# Youngs Moduli (GPa) = 99.24083 82.75049 90.84232
#
# Poissons Ratio (x) = 0.23369 0.25624
# Poissons Ratio (y) = 0.28026 0.30216
# Poissons Ratio (z) = 0.27993 0.27525
#
# Static dielectric constant tensor:
#      x y z
#    x 1.599480 0.000000 -0.003620 
#    y 0.000000 1.681210 0.000000 
#    z -0.003620 0.000000 1.606140 
# 
# From -- ./inp_files/23076.got.cif
#   From: 2010.05.17/outbox.cif.g08.bks.cpg/sg11_12_cif.got.tgz:23076.got - 2010.06.03 12:22:45.
