data_PCOD9165966
_publ_section_title
;
Structure prediction by ZEFSAII (Michael W. Deem and Ramdas Pophale) SiO2 
 PCOD9165966
Probable space group: P 21/M
;
_chemical_formula_sum "Si O2"
_cell_formula_units_Z 32
_cell_length_a 12.136925
_cell_length_b 26.950944
_cell_length_c 9.154331
_cell_angle_alpha 90.000000
_cell_angle_beta 148.699378
_cell_angle_gamma 90.000000
_cell_volume 1555.673825
_symmetry_space_group_name_H-M "P 21/M"
_symmetry_group_IT_number 11
_symmetry_cell_setting 'monoclinic'
loop_
_space_group_symop_operation_xyz
x,y,z
-x,1/2+y,-z
-x,-y,-z
x,1/2-y,z
loop_
_atom_site_type_symbol
_atom_site_label
_atom_site_fract_x
_atom_site_fract_y
_atom_site_fract_z
Si Si1 0.876109 0.452729 0.796507
Si Si2 0.953430 0.134329 0.286017
Si Si3 0.665141 0.879341 0.076724
Si Si4 0.833092 0.637244 0.777408
Si Si5 0.582440 0.428242 0.729779
Si Si6 0.889323 0.694402 0.114148
Si Si7 0.703581 0.307481 0.240574
Si Si8 0.552625 0.019385 0.221562
O O1 0.677492 0.442492 0.679727
O O2 0.790980 0.464514 0.538040
O O3 0.000000 0.500000 0.000000
O O4 0.025108 0.405015 0.981560
O O5 0.843995 0.176992 0.259037
O O6 0.141440 0.110819 0.594318
O O7 0.060775 0.150296 0.256366
O O8 0.774253 0.095141 0.039437
O O9 0.753350 0.844544 0.050198
O O10 0.482930 0.847371 0.951288
O O11 0.579516 0.930217 0.915294
O O12 0.604637 0.612010 0.496046
O O13 0.841246 0.684068 0.892001
O O14 0.502693 0.476140 0.726953
O O15 0.830418 0.750000 0.091363
O O16 0.135037 0.687949 0.439190
O O17 0.633128 0.250000 0.150835
O O18 0.500000 0.000000 0.000000
#
# Coordination Sequence:
#
# PCOD9165966 Si02
#       8
#     4   4   4   4   4   4   4   4
#     4  11  24  40  63  89 129 177 215 256 323 392
#     4  10  23  41  62  93 126 166 213 261 322 388
#     4  11  23  41  64  91 130 166 209 266 320 380
#     4  11  22  41  66  90 134 169 212 269 323 384
#     4  11  24  42  61  91 132 174 212 260 324 392
#     4  10  23  41  65  94 121 161 214 263 322 386
#     4  10  21  42  67  91 124 163 209 267 328 385
#     4  12  24  39  64  96 128 168 222 264 317 383
#
# _framework density 20.569863999999999
#
# number of rings (size 3 to 8) (size 9 to 14) (size 15 to 20)
#    0.000    1.250    1.250    4.500    3.500    3.500 
#    0.000    1.875    0.000    0.000    0.000    0.000 
#    0.000    0.000    0.000    0.000    0.000    0.000 
#
# Total GULP energy -178885.673610 kJ/mol
# GULP energy per Si atom -5590.177300 kJ/mol
# Density = 2.052305 g / cm^3
# Si number density = 20.569864 Si / 1000 Ang^3
#
#
#
# Elastic Constant Matrix: (Units=GPa)
#
#
# Indices 1 2 3 4 5 6 
#
# 1 44.2065 -9.5175 25.0228 0.0000 2.8139 0.0000
# 2 -9.5175 46.5263 25.4727 0.0000 -5.4370 0.0000
# 3 25.0228 25.4727 117.6711 0.0000 -11.1153 0.0000
# 4 0.0000 0.0000 0.0000 19.8381 0.0000 -0.5356
# 5 2.8139 -5.4370 -11.1153 0.0000 29.0520 0.0000
# 6 0.0000 0.0000 0.0000 -0.5356 0.0000 20.2566
#
#
#
# Elastic Compliance Matrix: (Units=1/GPa)
#
#
# Indices 1 2 3 4 5 6 
#
# 1 0.030442 0.010755 -0.009223 0.000000 -0.004465 0.000000
# 2 0.010755 0.028379 -0.008328 0.000000 0.001083 0.000000
# 3 -0.009223 -0.008328 0.012657 0.000000 0.004177 0.000000
# 4 0.000000 0.000000 0.000000 0.050444 0.000000 0.001334
# 5 -0.004465 0.001083 0.004177 0.000000 0.036654 0.000000
# 6 0.000000 0.000000 0.000000 0.001334 0.000000 0.049402
#
#
# Mechanical properties :
#
#
# Convention : Reuss Voigt Hill
#
# Bulk Modulus (GPa) = 17.27553 32.26222 24.76887
# Shear Modulus (GPa) = 20.75839 24.99107 22.87473
#
# Velocity S-wave (km/s) = 3.18018 3.48937 3.33836
# Velocity P-wave (km/s) = 4.67990 5.65266 5.18912
#
# Compressibility (1/GPa) = 0.05788536
#
# Stress axis : x y z
#
# Youngs Moduli (GPa) = 32.84973 35.23678 79.00745
#
# Poissons Ratio (x) = -0.37898 0.72871
# Poissons Ratio (y) = -0.35330 0.65799
# Poissons Ratio (z) = 0.30298 0.29346
#
# Static dielectric constant tensor:
#      x y z
#    x 1.774230 0.000000 -0.013920 
#    y 0.000000 1.674930 0.000000 
#    z -0.013920 0.000000 1.743180 
# 
# From -- ./inp_files/19896.got.cif
#   From: 2010.05.17/outbox.cif.g08.bks.cpg/sg11_10_cif.got.tgz:19896.got - 2010.06.03 12:22:45.
