data_PCOD9165155
_publ_section_title
;
Structure prediction by ZEFSAII (Michael W. Deem and Ramdas Pophale) SiO2 
 PCOD9165155
Probable space group: P 21/M
;
_chemical_formula_sum "Si O2"
_cell_formula_units_Z 28
_cell_length_a 22.521241
_cell_length_b 7.977159
_cell_length_c 15.453546
_cell_angle_alpha 90.000000
_cell_angle_beta 151.770095
_cell_angle_gamma 90.000000
_cell_volume 1313.226598
_symmetry_space_group_name_H-M "P 21/M"
_symmetry_group_IT_number 11
_symmetry_cell_setting 'monoclinic'
loop_
_space_group_symop_operation_xyz
x,y,z
-x,1/2+y,-z
-x,-y,-z
x,1/2-y,z
loop_
_atom_site_type_symbol
_atom_site_label
_atom_site_fract_x
_atom_site_fract_y
_atom_site_fract_z
Si Si1 0.646765 0.950222 0.699230
Si Si2 0.906800 0.450050 0.958983
Si Si3 0.940539 0.555155 0.681753
Si Si4 0.334548 0.057861 0.084639
Si Si5 0.694919 0.949788 0.285620
Si Si6 0.087628 0.558868 0.690254
Si Si7 0.440526 0.045146 0.052726
O O1 0.651127 0.750000 0.703190
O O2 0.681364 0.017228 0.840598
O O3 0.500000 0.000000 0.500000
O O4 0.758433 0.002514 0.776406
O O5 0.905267 0.250000 0.958276
O O6 0.000000 0.500000 0.000000
O O7 0.974837 0.518943 0.133493
O O8 0.918677 0.750000 0.679688
O O9 0.807514 0.475104 0.486282
O O10 0.010853 0.556520 0.680882
O O11 0.373010 0.250000 0.148531
O O12 0.429397 0.981631 0.136540
O O13 0.206933 0.053175 0.865779
O O14 0.718016 0.750000 0.307874
O O15 0.567082 0.981934 0.172017
O O16 0.670502 0.009826 0.155973
O O17 0.128881 0.750000 0.727522
O O18 0.000000 0.500000 0.500000
O O19 0.440931 0.250000 0.053916
#
# Coordination Sequence:
#
# PCOD9165155 Si02
#       7
#     4   4   4   4   4   4   4
#     4  11  24  43  67  94 126 165 214 273 337 399
#     4  11  23  43  67  93 125 164 214 271 335 398
#     4   9  19  36  58  82 114 153 195 246 305 366
#     4  10  21  38  59  84 116 153 199 252 307 368
#     4   9  17  32  53  77 109 151 195 235 285 357
#     4  11  21  35  57  87 121 158 196 240 298 364
#     4   9  18  33  52  77 114 152 189 239 295 351
#
# _framework density 21.321527
#
# number of rings (size 3 to 8) (size 9 to 14) (size 15 to 20)
#    0.000    2.000    1.429    2.143    0.000    4.571 
#    0.000    8.571    0.000    0.000    0.000    0.000 
#    0.000    0.000    0.000    0.000    0.000    0.000 
#
# Total GULP energy -156000.458856 kJ/mol
# GULP energy per Si atom -5571.444959 kJ/mol
# Density = 2.127300 g / cm^3
# Si number density = 21.321527 Si / 1000 Ang^3
#
#
#
# Elastic Constant Matrix: (Units=GPa)
#
#
# Indices 1 2 3 4 5 6 
#
# 1 122.9480 18.0481 48.0361 0.0000 1.3478 0.0000
# 2 18.0481 44.8787 6.8238 0.0000 0.2126 0.0000
# 3 48.0361 6.8238 100.9605 0.0000 8.0268 0.0000
# 4 0.0000 0.0000 0.0000 20.2762 0.0000 11.7525
# 5 1.3478 0.2126 8.0268 0.0000 28.0210 0.0000
# 6 0.0000 0.0000 0.0000 11.7525 0.0000 12.3150
#
#
#
# Elastic Compliance Matrix: (Units=1/GPa)
#
#
# Indices 1 2 3 4 5 6 
#
# 1 0.010531 -0.003503 -0.004846 0.000000 0.000908 0.000000
# 2 -0.003503 0.023681 0.000068 0.000000 -0.000031 0.000000
# 3 -0.004846 0.000068 0.012471 0.000000 -0.003340 0.000000
# 4 0.000000 0.000000 0.000000 0.110369 0.000000 -0.105329
# 5 0.000908 -0.000031 -0.003340 0.000000 0.036601 0.000000
# 6 0.000000 0.000000 0.000000 -0.105329 0.000000 0.181720
#
#
# Mechanical properties :
#
#
# Convention : Reuss Voigt Hill
#
# Bulk Modulus (GPa) = 33.19754 46.06701 39.63228
# Shear Modulus (GPa) = 12.43858 25.18107 18.80982
#
# Velocity S-wave (km/s) = 2.41795 3.44032 2.97341
# Velocity P-wave (km/s) = 4.83726 6.11832 5.51511
#
# Compressibility (1/GPa) = 0.03012271
#
# Stress axis : x y z
#
# Youngs Moduli (GPa) = 94.95694 42.22864 80.18288
#
# Poissons Ratio (x) = 0.14791 0.38857
# Poissons Ratio (y) = 0.33259 -0.00548
# Poissons Ratio (z) = 0.46017 -0.00289
#
# Static dielectric constant tensor:
#      x y z
#    x 1.833560 0.000000 0.002210 
#    y 0.000000 1.788780 0.000000 
#    z 0.002210 0.000000 1.830940 
# 
# From -- ./inp_files/54601.got.cif
#   From: 2010.05.17/outbox.cif.g08.bks.cpg/sg11_28_cif.got.tgz:54601.got - 2010.06.03 12:22:45.
