data_PCOD9165976
_publ_section_title
;
Structure prediction by ZEFSAII (Michael W. Deem and Ramdas Pophale) SiO2 
 PCOD9165976
Probable space group: P 21/M
;
_chemical_formula_sum "Si O2"
_cell_formula_units_Z 18
_cell_length_a 7.492287
_cell_length_b 14.823105
_cell_length_c 7.971434
_cell_angle_alpha 90.000000
_cell_angle_beta 84.990902
_cell_angle_gamma 90.000000
_cell_volume 881.918051
_symmetry_space_group_name_H-M "P 21/M"
_symmetry_group_IT_number 11
_symmetry_cell_setting 'monoclinic'
loop_
_space_group_symop_operation_xyz
x,y,z
-x,1/2+y,-z
-x,-y,-z
x,1/2-y,z
loop_
_atom_site_type_symbol
_atom_site_label
_atom_site_fract_x
_atom_site_fract_y
_atom_site_fract_z
Si Si1 0.414760 0.443614 0.858347
Si Si2 0.967871 0.250000 0.663803
Si Si3 0.006372 0.250000 0.260289
Si Si4 0.731928 0.750000 0.066183
Si Si5 0.903872 0.448610 0.264945
Si Si6 0.776279 0.059755 0.655595
O O1 0.381901 0.340201 0.905257
O O2 0.226375 0.489663 0.831385
O O3 0.565811 0.447849 0.702036
O O4 0.500000 0.500000 0.000000
O O5 0.036987 0.250000 0.461523
O O6 0.850497 0.159484 0.693169
O O7 0.121912 0.250000 0.792943
O O8 0.904393 0.342680 0.224724
O O9 0.176507 0.250000 0.124276
O O10 0.827665 0.456891 0.459282
O O11 0.105290 0.487756 0.249815
#
# Coordination Sequence:
#
# PCOD9165976 Si02
#       6
#     4   2   2   2   4   4
#     4  12  26  40  64 102 130 171 216 266 332 388
#     4  10  21  43  71  94 125 180 216 264 334 380
#     4  10  24  41  68  95 129 176 218 269 329 384
#     4  12  25  44  67  97 134 170 218 273 321 392
#     4  10  22  43  66  95 126 175 214 269 324 379
#     4  10  21  42  69  91 131 166 221 267 320 391
#
# _framework density 20.410060000000001
#
# number of rings (size 3 to 8) (size 9 to 14) (size 15 to 20)
#    0.000    1.333    2.222    2.667    3.111    2.667 
#    4.000    1.111    0.000    0.000    0.000    0.000 
#    0.000    0.000    0.000    0.000    0.000    0.000 
#
# Total GULP energy -100577.967913 kJ/mol
# GULP energy per Si atom -5587.664884 kJ/mol
# Density = 2.036361 g / cm^3
# Si number density = 20.410060 Si / 1000 Ang^3
#
#
#
# Elastic Constant Matrix: (Units=GPa)
#
#
# Indices 1 2 3 4 5 6 
#
# 1 65.3719 25.1407 11.5633 0.0000 -14.4594 0.0000
# 2 25.1407 160.0196 28.3821 0.0000 12.6904 0.0000
# 3 11.5633 28.3821 28.9558 0.0000 -8.5014 0.0000
# 4 0.0000 0.0000 0.0000 16.5522 0.0000 0.1111
# 5 -14.4594 12.6904 -8.5014 0.0000 35.5241 0.0000
# 6 0.0000 0.0000 0.0000 0.1111 0.0000 30.0701
#
#
#
# Elastic Compliance Matrix: (Units=1/GPa)
#
#
# Indices 1 2 3 4 5 6 
#
# 1 0.018730 -0.003287 -0.001802 0.000000 0.008367 0.000000
# 2 -0.003287 0.008993 -0.009506 0.000000 -0.006825 0.000000
# 3 -0.001802 -0.009506 0.048782 0.000000 0.014337 0.000000
# 4 0.000000 0.000000 0.000000 0.060416 0.000000 -0.000223
# 5 0.008367 -0.006825 0.014337 0.000000 0.037425 0.000000
# 6 0.000000 0.000000 0.000000 -0.000223 0.000000 0.033256
#
#
# Mechanical properties :
#
#
# Convention : Reuss Voigt Hill
#
# Bulk Modulus (GPa) = 21.13450 42.72439 31.92945
# Shear Modulus (GPa) = 19.79694 29.04670 24.42182
#
# Velocity S-wave (km/s) = 3.11780 3.77657 3.46288
# Velocity P-wave (km/s) = 4.83097 6.32416 5.62732
#
# Compressibility (1/GPa) = 0.04731600
#
# Stress axis : x y z
#
# Youngs Moduli (GPa) = 53.38907 111.19807 20.49935
#
# Poissons Ratio (x) = 0.36547 0.03694
# Poissons Ratio (y) = 0.17547 0.19487
# Poissons Ratio (z) = 0.09620 1.05707
#
# Static dielectric constant tensor:
#      x y z
#    x 1.707310 0.000000 -0.020610 
#    y 0.000000 1.708270 0.000000 
#    z -0.020610 0.000000 1.753570 
# 
# From -- ./inp_files/10010.got.cif
#   From: 2010.05.17/outbox.cif.g08.bks.cpg/sg11_6_cif.got.tgz:10010.got - 2010.06.03 12:22:45.
