data_PCOD9165679
_publ_section_title
;
Structure prediction by ZEFSAII (Michael W. Deem and Ramdas Pophale) SiO2 
 PCOD9165679
Probable space group: P 21/M
;
_chemical_formula_sum "Si O2"
_cell_formula_units_Z 20
_cell_length_a 5.164619
_cell_length_b 29.285640
_cell_length_c 5.267622
_cell_angle_alpha 90.000000
_cell_angle_beta 90.224187
_cell_angle_gamma 90.000000
_cell_volume 796.717371
_symmetry_space_group_name_H-M "P 21/M"
_symmetry_group_IT_number 11
_symmetry_cell_setting 'monoclinic'
loop_
_space_group_symop_operation_xyz
x,y,z
-x,1/2+y,-z
-x,-y,-z
x,1/2-y,z
loop_
_atom_site_type_symbol
_atom_site_label
_atom_site_fract_x
_atom_site_fract_y
_atom_site_fract_z
Si Si1 0.444108 0.946185 0.999762
Si Si2 0.247652 0.532731 0.498640
Si Si3 0.648222 0.669838 0.621450
Si Si4 0.863648 0.299662 0.651196
Si Si5 0.807101 0.627769 0.131985
O O1 0.284057 0.936012 0.745465
O O2 0.718557 0.921306 0.027726
O O3 0.264139 0.938293 0.242973
O O4 0.500000 0.000000 0.000000
O O5 0.500000 0.500000 0.500000
O O6 0.000000 0.500000 0.500000
O O7 0.892405 0.700079 0.539228
O O8 0.655857 0.658039 0.917181
O O9 0.387460 0.691362 0.516838
O O10 0.701496 0.627782 0.423063
O O11 0.846145 0.250000 0.778907
O O12 0.930485 0.342607 0.835382
#
# Coordination Sequence:
#
# PCOD9165679 Si02
#       5
#     4   4   4   4   4
#     4  10  21  43  66  97 130 177 216 271 324 392
#     4  10  21  40  60  91 121 168 214 261 313 376
#     4  10  24  43  66 100 134 173 217 276 331 399
#     4  10  24  45  70  98 133 175 220 276 337 400
#     4  10  24  45  66 103 135 174 224 274 334 393
#
# _framework density 25.103000999999999
#
# number of rings (size 3 to 8) (size 9 to 14) (size 15 to 20)
#    1.200    0.800    0.000    2.400    2.800    1.600 
#   21.600    0.000    0.000    0.000    0.000    0.000 
#    0.000    0.000    0.000    0.000    0.000    0.000 
#
# Total GULP energy -111487.522901 kJ/mol
# GULP energy per Si atom -5574.376145 kJ/mol
# Density = 2.504587 g / cm^3
# Si number density = 25.103001 Si / 1000 Ang^3
#
#
#
# Elastic Constant Matrix: (Units=GPa)
#
#
# Indices 1 2 3 4 5 6 
#
# 1 126.2460 -15.1934 1.6946 0.0000 24.2773 0.0000
# 2 -15.1934 76.7499 -24.9206 0.0000 7.3670 0.0000
# 3 1.6946 -24.9206 163.2366 0.0000 4.1304 0.0000
# 4 0.0000 0.0000 0.0000 22.5778 0.0000 14.8581
# 5 24.2773 7.3670 4.1304 0.0000 24.0085 0.0000
# 6 0.0000 0.0000 0.0000 14.8581 0.0000 44.1397
#
#
#
# Elastic Compliance Matrix: (Units=1/GPa)
#
#
# Indices 1 2 3 4 5 6 
#
# 1 0.010627 0.003485 0.000724 0.000000 -0.011939 0.000000
# 2 0.003485 0.015374 0.002530 0.000000 -0.008676 0.000000
# 3 0.000724 0.002530 0.006572 0.000000 -0.002639 0.000000
# 4 0.000000 0.000000 0.000000 0.056895 0.000000 -0.019152
# 5 -0.011939 -0.008676 -0.002639 0.000000 0.056841 0.000000
# 6 0.000000 0.000000 0.000000 -0.019152 0.000000 0.029102
#
#
# Mechanical properties :
#
#
# Convention : Reuss Voigt Hill
#
# Bulk Modulus (GPa) = 21.71572 32.15486 26.93529
# Shear Modulus (GPa) = 28.20360 45.12198 36.66279
#
# Velocity S-wave (km/s) = 3.35552 4.24426 3.82579
# Velocity P-wave (km/s) = 4.86643 6.07086 5.50170
#
# Compressibility (1/GPa) = 0.04604960
#
# Stress axis : x y z
#
# Youngs Moduli (GPa) = 94.10279 65.04662 152.16906
#
# Poissons Ratio (x) = -0.22667 -0.11014
# Poissons Ratio (y) = -0.32792 -0.38505
# Poissons Ratio (z) = -0.06811 -0.16459
#
# Static dielectric constant tensor:
#      x y z
#    x 1.921220 0.000000 -0.054980 
#    y 0.000000 1.973360 0.000000 
#    z -0.054980 0.000000 2.136630 
# 
# From -- ./inp_files/934.got.cif
#   From: 2010.05.17/outbox.cif.g08.bks.cpg/sg11_1_cif.got.tgz:934.got - 2010.06.03 12:22:45.
