data_PCOD9165179
_publ_section_title
;
Structure prediction by ZEFSAII (Michael W. Deem and Ramdas Pophale) SiO2 
 PCOD9165179
Probable space group: P 21/M
;
_chemical_formula_sum "Si O2"
_cell_formula_units_Z 32
_cell_length_a 16.361121
_cell_length_b 19.438608
_cell_length_c 5.869913
_cell_angle_alpha 90.000000
_cell_angle_beta 123.621739
_cell_angle_gamma 90.000000
_cell_volume 1554.548573
_symmetry_space_group_name_H-M "P 21/M"
_symmetry_group_IT_number 11
_symmetry_cell_setting 'monoclinic'
loop_
_space_group_symop_operation_xyz
x,y,z
-x,1/2+y,-z
-x,-y,-z
x,1/2-y,z
loop_
_atom_site_type_symbol
_atom_site_label
_atom_site_fract_x
_atom_site_fract_y
_atom_site_fract_z
Si Si1 0.213067 0.136167 0.902026
Si Si2 0.339871 0.966964 0.710578
Si Si3 0.780833 0.496079 0.860439
Si Si4 0.991455 0.830956 0.163263
Si Si5 0.126000 0.944458 0.601555
Si Si6 0.459729 0.393838 0.895492
Si Si7 0.423577 0.174274 0.338089
Si Si8 0.104191 0.082843 0.340801
O O1 0.114801 0.160306 0.878965
O O2 0.180655 0.131982 0.589702
O O3 0.244793 0.057620 0.008670
O O4 0.306093 0.177672 0.124468
O O5 0.236887 0.947185 0.668876
O O6 0.312051 0.961378 0.399749
O O7 0.380002 0.044744 0.792765
O O8 0.429552 0.922478 0.937323
O O9 0.842315 0.539195 0.771665
O O10 0.851764 0.443941 0.096892
O O11 0.016399 0.750000 0.190523
O O12 0.066214 0.880173 0.415213
O O13 0.975868 0.868345 0.895938
O O14 0.076634 0.018889 0.462792
O O15 0.441769 0.360394 0.616103
O O16 0.453898 0.356264 0.135017
O O17 0.467760 0.250000 0.422047
#
# Coordination Sequence:
#
# PCOD9165179 Si02
#       8
#     4   4   4   4   4   4   4   4
#     4  10  21  38  59  89 125 162 211 264 332 392
#     4  10  22  39  68  95 128 160 215 285 335 379
#     4   9  17  35  62  90 120 150 203 266 327 379
#     4  11  24  39  57  87 127 173 218 263 325 403
#     4  10  21  38  63  93 124 165 214 275 331 389
#     4  11  25  42  69 102 130 171 224 276 336 395
#     4  12  25  43  64  95 138 178 215 264 333 413
#     4   9  20  37  60  89 119 158 209 270 324 379
#
# _framework density 20.584752999999999
#
# number of rings (size 3 to 8) (size 9 to 14) (size 15 to 20)
#    0.000    1.750    1.250    3.375    3.500    8.500 
#    0.000    1.250    0.000    0.000    0.000    0.000 
#    0.000    0.000    0.000    0.000    0.000    0.000 
#
# Total GULP energy -178186.980523 kJ/mol
# GULP energy per Si atom -5568.343141 kJ/mol
# Density = 2.053790 g / cm^3
# Si number density = 20.584753 Si / 1000 Ang^3
#
#
#
# Elastic Constant Matrix: (Units=GPa)
#
#
# Indices 1 2 3 4 5 6 
#
# 1 51.9024 30.0925 36.5200 0.0000 -7.8114 0.0000
# 2 30.0925 119.6075 84.7760 0.0000 3.1341 0.0000
# 3 36.5200 84.7760 177.7775 0.0000 -9.5534 0.0000
# 4 0.0000 0.0000 0.0000 5.7271 0.0000 -0.9495
# 5 -7.8114 3.1341 -9.5534 0.0000 28.9844 0.0000
# 6 0.0000 0.0000 0.0000 -0.9495 0.0000 11.1830
#
#
#
# Elastic Compliance Matrix: (Units=1/GPa)
#
#
# Indices 1 2 3 4 5 6 
#
# 1 0.024653 -0.004559 -0.002552 0.000000 0.006296 0.000000
# 2 -0.004559 0.013812 -0.005901 0.000000 -0.004667 0.000000
# 3 -0.002552 -0.005901 0.009122 0.000000 0.002957 0.000000
# 4 0.000000 0.000000 0.000000 0.177101 0.000000 0.015037
# 5 0.006296 -0.004667 0.002957 0.000000 0.037677 0.000000
# 6 0.000000 0.000000 0.000000 0.015037 0.000000 0.090698
#
#
# Mechanical properties :
#
#
# Convention : Reuss Voigt Hill
#
# Bulk Modulus (GPa) = 46.37311 72.45161 59.41236
# Shear Modulus (GPa) = 12.94411 22.37216 17.65813
#
# Velocity S-wave (km/s) = 2.51035 3.30029 2.93204
# Velocity P-wave (km/s) = 5.56590 7.05661 6.35511
#
# Compressibility (1/GPa) = 0.02156422
#
# Stress axis : x y z
#
# Youngs Moduli (GPa) = 40.56247 72.39842 109.62254
#
# Poissons Ratio (x) = 0.33004 0.27978
# Poissons Ratio (y) = 0.18491 0.64689
# Poissons Ratio (z) = 0.10353 0.42723
#
# Static dielectric constant tensor:
#      x y z
#    x 1.839900 0.000000 -0.080530 
#    y 0.000000 1.750710 0.000000 
#    z -0.080530 0.000000 1.823220 
# 
# From -- ./inp_files/6855.got.cif
#   From: 2010.05.17/outbox.cif.g08.bks.cpg/sg11_4_cif.got.tgz:6855.got - 2010.06.03 12:22:45.
