data_PCOD9165650
_publ_section_title
;
Structure prediction by ZEFSAII (Michael W. Deem and Ramdas Pophale) SiO2 
 PCOD9165650
Probable space group: P 21/M
;
_chemical_formula_sum "Si O2"
_cell_formula_units_Z 32
_cell_length_a 24.847896
_cell_length_b 14.000369
_cell_length_c 9.563530
_cell_angle_alpha 90.000000
_cell_angle_beta 151.406834
_cell_angle_gamma 90.000000
_cell_volume 1592.239323
_symmetry_space_group_name_H-M "P 21/M"
_symmetry_group_IT_number 11
_symmetry_cell_setting 'monoclinic'
loop_
_space_group_symop_operation_xyz
x,y,z
-x,1/2+y,-z
-x,-y,-z
x,1/2-y,z
loop_
_atom_site_type_symbol
_atom_site_label
_atom_site_fract_x
_atom_site_fract_y
_atom_site_fract_z
Si Si1 0.182777 0.638501 0.636774
Si Si2 0.807407 0.135880 0.030116
Si Si3 0.971814 0.526721 0.092299
Si Si4 0.438187 0.137177 0.564655
Si Si5 0.299495 0.362739 0.976424
Si Si6 0.723189 0.979131 0.616818
Si Si7 0.348308 0.984096 0.851792
Si Si8 0.045628 0.362014 0.461493
O O1 0.197730 0.750000 0.657776
O O2 0.230238 0.610643 0.898345
O O3 0.245668 0.585235 0.656643
O O4 0.053652 0.609240 0.331648
O O5 0.787939 0.250000 0.961524
O O6 0.944370 0.121741 0.341534
O O7 0.748675 0.069145 0.779602
O O8 0.003946 0.430194 0.245329
O O9 0.843994 0.551118 0.832580
O O10 0.000000 0.500000 0.000000
O O11 0.463328 0.250000 0.638930
O O12 0.396852 0.120832 0.311951
O O13 0.336321 0.103448 0.431153
O O14 0.541333 0.069745 0.841560
O O15 0.297015 0.250000 0.937444
O O16 0.322121 0.423349 0.888302
O O17 0.178647 0.384582 0.777008
O O18 0.650815 0.001320 0.312643
O O19 0.039778 0.250000 0.414760
#
# Coordination Sequence:
#
# PCOD9165650 Si02
#       8
#     4   4   4   4   4   4   4   4
#     4  11  23  38  62  91 127 169 210 259 313 373
#     4   9  21  38  60  95 129 168 211 251 313 378
#     4  11  21  38  58  95 128 158 199 252 316 383
#     4  11  26  44  64  91 122 169 218 263 313 366
#     4  10  21  39  66  95 125 164 212 262 316 370
#     4  11  24  40  67  90 127 165 208 259 315 373
#     4  12  23  45  64  91 129 166 214 261 316 369
#     4   9  18  34  58  86 124 162 198 249 306 375
#
# _framework density 20.097481999999999
#
# number of rings (size 3 to 8) (size 9 to 14) (size 15 to 20)
#    0.000    1.500    2.500    1.875    1.750    3.500 
#    0.000    1.875    0.000    0.000    0.000    0.000 
#    0.000    0.000    0.000    0.000    0.000    0.000 
#
# Total GULP energy -178563.370159 kJ/mol
# GULP energy per Si atom -5580.105317 kJ/mol
# Density = 2.005174 g / cm^3
# Si number density = 20.097482 Si / 1000 Ang^3
#
#
#
# Elastic Constant Matrix: (Units=GPa)
#
#
# Indices 1 2 3 4 5 6 
#
# 1 56.0733 6.3797 -1.5361 0.0000 -21.6495 0.0000
# 2 6.3797 71.1375 18.1425 0.0000 -7.9464 0.0000
# 3 -1.5361 18.1425 73.8577 0.0000 0.2821 0.0000
# 4 0.0000 0.0000 0.0000 -29.1453 0.0000 21.6030
# 5 -21.6495 -7.9464 0.2821 0.0000 39.2170 0.0000
# 6 0.0000 0.0000 0.0000 21.6030 0.0000 16.0723
#
#
#
# Elastic Compliance Matrix: (Units=1/GPa)
#
#
# Indices 1 2 3 4 5 6 
#
# 1 0.022721 -0.000815 0.000625 0.000000 0.012373 0.000000
# 2 -0.000815 0.015404 -0.003811 0.000000 0.002699 0.000000
# 3 0.000625 -0.003811 0.014491 0.000000 -0.000531 0.000000
# 4 0.000000 0.000000 0.000000 -0.017187 0.000000 0.023102
# 5 0.012373 0.002699 -0.000531 0.000000 0.032880 0.000000
# 6 0.000000 0.000000 0.000000 0.023102 0.000000 0.031167
#
#
# Mechanical properties :
#
#
# Convention : Reuss Voigt Hill
#
# Bulk Modulus (GPa) = 22.41435 27.44895 24.93165
# Shear Modulus (GPa) = 40.86693 17.10098 28.98395
#
# Velocity S-wave (km/s) = 4.51425 2.92019 3.80171
# Velocity P-wave (km/s) = 6.19260 5.00575 5.63054
#
# Compressibility (1/GPa) = 0.04461428
#
# Stress axis : x y z
#
# Youngs Moduli (GPa) = 44.01232 64.91914 69.00954
#
# Poissons Ratio (x) = 0.05291 -0.04316
# Poissons Ratio (y) = 0.03587 0.26300
# Poissons Ratio (z) = -0.02753 0.24741
#
# Static dielectric constant tensor:
#      x y z
#    x 1.740230 0.000000 0.036660 
#    y 0.000000 1.685750 0.000000 
#    z 0.036660 0.000000 1.741950 
# 
# From -- ./inp_files/22193.got.cif
#   From: 2010.05.17/outbox.cif.g08.bks.cpg/sg11_12_cif.got.tgz:22193.got - 2010.06.03 12:22:45.
