data_PCOD9165024
_publ_section_title
;
Structure prediction by ZEFSAII (Michael W. Deem and Ramdas Pophale) SiO2 
 PCOD9165024
Probable space group: P 21/M
;
_chemical_formula_sum "Si O2"
_cell_formula_units_Z 32
_cell_length_a 21.002695
_cell_length_b 14.997864
_cell_length_c 7.879709
_cell_angle_alpha 90.000000
_cell_angle_beta 147.033711
_cell_angle_gamma 90.000000
_cell_volume 1350.609042
_symmetry_space_group_name_H-M "P 21/M"
_symmetry_group_IT_number 11
_symmetry_cell_setting 'monoclinic'
loop_
_space_group_symop_operation_xyz
x,y,z
-x,1/2+y,-z
-x,-y,-z
x,1/2-y,z
loop_
_atom_site_type_symbol
_atom_site_label
_atom_site_fract_x
_atom_site_fract_y
_atom_site_fract_z
Si Si1 0.610782 0.643199 0.144489
Si Si2 0.898702 0.350873 0.960453
Si Si3 0.183430 0.656433 0.602955
Si Si4 0.592766 0.114359 0.759474
Si Si5 0.205447 0.142357 0.153656
Si Si6 0.659362 0.592542 0.872266
Si Si7 0.646378 0.149052 0.496733
Si Si8 0.013172 0.519399 0.334118
O O1 0.599169 0.750000 0.128018
O O2 0.692542 0.615519 0.484000
O O3 0.667991 0.623774 0.087223
O O4 0.476025 0.607301 0.842636
O O5 0.921841 0.250000 0.079580
O O6 0.874581 0.342868 0.708565
O O7 0.775280 0.390153 0.755156
O O8 0.997044 0.424713 0.208040
O O9 0.153633 0.750000 0.625784
O O10 0.134829 0.569200 0.582246
O O11 0.323039 0.649685 0.906396
O O12 0.457177 0.135489 0.473099
O O13 0.630352 0.153469 0.662676
O O14 0.621868 0.010211 0.804698
O O15 0.190557 0.250000 0.127524
O O16 0.240578 0.114000 0.039806
O O17 0.087997 0.089842 0.942146
O O18 0.656437 0.250000 0.450220
O O19 0.000000 0.500000 0.500000
#
# Coordination Sequence:
#
# PCOD9165024 Si02
#       8
#     4   4   4   4   4   4   4   4
#     4   9  20  37  60  91 130 172 211 260 319 384
#     4  10  23  41  66  98 125 163 216 268 329 392
#     4  11  24  42  66  95 126 168 220 270 322 382
#     4  10  21  37  61  94 129 169 215 260 325 387
#     4  11  24  41  66  97 130 175 221 263 326 395
#     4  10  21  39  60  97 136 171 213 266 326 394
#     4   9  17  35  59  89 128 163 206 259 314 382
#     4  12  26  46  67  89 128 169 217 273 329 385
#
# _framework density 23.693013000000001
#
# number of rings (size 3 to 8) (size 9 to 14) (size 15 to 20)
#    0.000    1.750    0.000    3.750    3.500    3.500 
#    2.250    2.500    0.000    0.000    0.000    0.000 
#    0.000    0.000    0.000    0.000    0.000    0.000 
#
# Total GULP energy -178783.585923 kJ/mol
# GULP energy per Si atom -5586.987060 kJ/mol
# Density = 2.363909 g / cm^3
# Si number density = 23.693013 Si / 1000 Ang^3
#
#
#
# Elastic Constant Matrix: (Units=GPa)
#
#
# Indices 1 2 3 4 5 6 
#
# 1 43.7406 -3.5711 2.2434 0.0000 7.1776 0.0000
# 2 -3.5711 90.1008 26.9009 0.0000 -2.5412 0.0000
# 3 2.2434 26.9009 76.9230 0.0000 -4.5856 0.0000
# 4 0.0000 0.0000 0.0000 20.8076 0.0000 -5.5120
# 5 7.1776 -2.5412 -4.5856 0.0000 33.0454 0.0000
# 6 0.0000 0.0000 0.0000 -5.5120 0.0000 16.8281
#
#
#
# Elastic Compliance Matrix: (Units=1/GPa)
#
#
# Indices 1 2 3 4 5 6 
#
# 1 0.023906 0.001229 -0.001443 0.000000 -0.005298 0.000000
# 2 0.001229 0.012460 -0.004388 0.000000 0.000082 0.000000
# 3 -0.001443 -0.004388 0.014697 0.000000 0.002015 0.000000
# 4 0.000000 0.000000 0.000000 0.052626 0.000000 0.017238
# 5 -0.005298 0.000082 0.002015 0.000000 0.031698 0.000000
# 6 0.000000 0.000000 0.000000 0.017238 0.000000 0.065071
#
#
# Mechanical properties :
#
#
# Convention : Reuss Voigt Hill
#
# Bulk Modulus (GPa) = 23.89028 29.10120 26.49574
# Shear Modulus (GPa) = 22.35992 26.48228 24.42110
#
# Velocity S-wave (km/s) = 3.07536 3.34687 3.21398
# Velocity P-wave (km/s) = 4.76609 5.21964 4.99801
#
# Compressibility (1/GPa) = 0.04185802
#
# Stress axis : x y z
#
# Youngs Moduli (GPa) = 41.83094 80.25748 68.04168
#
# Poissons Ratio (x) = -0.09862 0.09817
# Poissons Ratio (y) = -0.05140 0.29859
# Poissons Ratio (z) = 0.06035 0.35219
#
# Static dielectric constant tensor:
#      x y z
#    x 1.869950 0.000000 0.037890 
#    y 0.000000 1.790020 0.000000 
#    z 0.037890 0.000000 1.937110 
# 
# From -- ./inp_files/27802.got.cif
#   From: 2010.05.17/outbox.cif.g08.bks.cpg/sg11_14_cif.got.tgz:27802.got - 2010.06.03 12:22:45.
