data_PCOD9165316
_publ_section_title
;
Structure prediction by ZEFSAII (Michael W. Deem and Ramdas Pophale) SiO2 
 PCOD9165316
Probable space group: P 21/M
;
_chemical_formula_sum "Si O2"
_cell_formula_units_Z 24
_cell_length_a 5.145624
_cell_length_b 15.809863
_cell_length_c 14.074027
_cell_angle_alpha 90.000000
_cell_angle_beta 101.395821
_cell_angle_gamma 90.000000
_cell_volume 1122.372850
_symmetry_space_group_name_H-M "P 21/M"
_symmetry_group_IT_number 11
_symmetry_cell_setting 'monoclinic'
loop_
_space_group_symop_operation_xyz
x,y,z
-x,1/2+y,-z
-x,-y,-z
x,1/2-y,z
loop_
_atom_site_type_symbol
_atom_site_label
_atom_site_fract_x
_atom_site_fract_y
_atom_site_fract_z
Si Si1 0.104748 0.652684 0.682642
Si Si2 0.497576 0.657679 0.198541
Si Si3 0.473419 0.010476 0.277571
Si Si4 0.950852 0.919982 0.874898
Si Si5 0.081851 0.390237 0.915493
Si Si6 0.216368 0.030585 0.440653
O O1 0.179816 0.750000 0.677035
O O2 0.332809 0.584458 0.674550
O O3 0.036933 0.633301 0.788765
O O4 0.862615 0.626571 0.594797
O O5 0.530013 0.750000 0.244212
O O6 0.602517 0.579901 0.269229
O O7 0.188887 0.640161 0.154270
O O8 0.665652 0.652141 0.114152
O O9 0.342481 0.046260 0.172520
O O10 0.234270 0.994025 0.334540
O O11 0.108721 0.008035 0.901867
O O12 0.946338 0.873411 0.974657
O O13 0.500000 0.000000 0.500000
O O14 0.000000 0.000000 0.500000
#
# Coordination Sequence:
#
# PCOD9165316 Si02
#       6
#     4   4   4   4   4   4
#     4  11  23  41  68 102 134 170 212 267 331 395
#     4  11  23  39  60  90 128 176 227 267 312 367
#     4  10  22  41  68  94 133 171 206 270 331 385
#     4   9  21  37  61  91 132 175 222 264 329 374
#     4  10  21  38  62  88 127 180 228 271 313 368
#     4  11  23  46  72  92 124 166 207 261 330 401
#
# _framework density 21.383267
#
# number of rings (size 3 to 8) (size 9 to 14) (size 15 to 20)
#    0.000    1.667    3.333    0.500    2.333    6.000 
#    0.000    1.667    0.000    1.000    0.000    0.000 
#    0.000    0.000    0.000    0.000    0.000    0.000 
#
# Total GULP energy -133739.327324 kJ/mol
# GULP energy per Si atom -5572.471972 kJ/mol
# Density = 2.133460 g / cm^3
# Si number density = 21.383267 Si / 1000 Ang^3
#
#
#
# Elastic Constant Matrix: (Units=GPa)
#
#
# Indices 1 2 3 4 5 6 
#
# 1 95.5977 35.4372 25.3080 0.0000 -17.4516 0.0000
# 2 35.4372 153.8209 43.2791 0.0000 -11.4762 0.0000
# 3 25.3080 43.2791 72.5663 0.0000 -5.6951 0.0000
# 4 0.0000 0.0000 0.0000 13.9602 0.0000 7.2019
# 5 -17.4516 -11.4762 -5.6951 0.0000 35.6356 0.0000
# 6 0.0000 0.0000 0.0000 7.2019 0.0000 16.0568
#
#
#
# Elastic Compliance Matrix: (Units=1/GPa)
#
#
# Indices 1 2 3 4 5 6 
#
# 1 0.012864 -0.001712 -0.003052 0.000000 0.005260 0.000000
# 2 -0.001712 0.008155 -0.004179 0.000000 0.001120 0.000000
# 3 -0.003052 -0.004179 0.017332 0.000000 -0.000071 0.000000
# 4 0.000000 0.000000 0.000000 0.093197 0.000000 -0.041802
# 5 0.005260 0.001120 -0.000071 0.000000 0.030987 0.000000
# 6 0.000000 0.000000 0.000000 -0.041802 0.000000 0.081028
#
#
# Mechanical properties :
#
#
# Convention : Reuss Voigt Hill
#
# Bulk Modulus (GPa) = 48.86655 58.89261 53.87958
# Shear Modulus (GPa) = 18.63793 27.66122 23.14958
#
# Velocity S-wave (km/s) = 2.95551 3.60056 3.29386
# Velocity P-wave (km/s) = 5.87784 6.69974 6.30221
#
# Compressibility (1/GPa) = 0.02046389
#
# Stress axis : x y z
#
# Youngs Moduli (GPa) = 77.73907 122.62784 57.69824
#
# Poissons Ratio (x) = 0.20997 0.17611
# Poissons Ratio (y) = 0.13311 0.24109
# Poissons Ratio (z) = 0.23727 0.51240
#
# Static dielectric constant tensor:
#      x y z
#    x 1.857350 0.000000 0.009620 
#    y 0.000000 1.808810 0.000000 
#    z 0.009620 0.000000 1.850190 
# 
# From -- ./inp_files/45752.got.cif
#   From: 2010.05.17/outbox.cif.g08.bks.cpg/sg11_23_cif.got.tgz:45752.got - 2010.06.03 12:22:45.
