data_PCOD9165201
_publ_section_title
;
Structure prediction by ZEFSAII (Michael W. Deem and Ramdas Pophale) SiO2 
 PCOD9165201
Probable space group: P 21/M
;
_chemical_formula_sum "Si O2"
_cell_formula_units_Z 32
_cell_length_a 22.872971
_cell_length_b 8.075705
_cell_length_c 14.309474
_cell_angle_alpha 90.000000
_cell_angle_beta 36.905459
_cell_angle_gamma 90.000000
_cell_volume 1587.219952
_symmetry_space_group_name_H-M "P 21/M"
_symmetry_group_IT_number 11
_symmetry_cell_setting 'monoclinic'
loop_
_space_group_symop_operation_xyz
x,y,z
-x,1/2+y,-z
-x,-y,-z
x,1/2-y,z
loop_
_atom_site_type_symbol
_atom_site_label
_atom_site_fract_x
_atom_site_fract_y
_atom_site_fract_z
Si Si1 0.321550 0.551479 0.818856
Si Si2 0.207197 0.050585 0.297799
Si Si3 0.910179 0.950512 0.179853
Si Si4 0.064533 0.448091 0.640822
Si Si5 0.141434 0.447749 0.178317
Si Si6 0.295773 0.050746 0.637933
Si Si7 0.495624 0.047406 0.292497
Si Si8 0.430477 0.947925 0.004618
O O1 0.320884 0.750000 0.820363
O O2 0.310213 0.492313 0.727658
O O3 0.422284 0.495096 0.738011
O O4 0.231932 0.491229 0.996414
O O5 0.198699 0.250000 0.307588
O O6 0.144720 0.986905 0.465225
O O7 0.164286 0.989217 0.253739
O O8 0.320618 0.008797 0.159070
O O9 0.907575 0.750000 0.185117
O O10 0.924412 0.011906 0.267750
O O11 0.807668 0.010499 0.268475
O O12 0.000000 0.000000 0.000000
O O13 0.077624 0.250000 0.629300
O O14 0.957908 0.481986 0.736456
O O15 0.131867 0.250000 0.194326
O O16 0.294426 0.250000 0.631789
O O17 0.388959 0.990550 0.460129
O O18 0.494706 0.250000 0.293133
O O19 0.527768 0.991688 0.148433
O O20 0.427952 0.750000 0.003648
O O21 0.500000 0.000000 0.000000
#
# Coordination Sequence:
#
# PCOD9165201 Si02
#       8
#     4   4   4   4   4   4   4   4
#     4  11  21  37  59  87 119 155 195 240 296 356
#     4  10  22  40  62  89 120 155 199 246 296 354
#     4  10  22  39  60  83 113 151 193 237 287 349
#     4  10  22  39  61  87 116 156 200 245 297 355
#     4  11  22  37  59  89 121 155 195 246 297 351
#     4  10  21  38  60  86 113 151 198 245 297 350
#     4   9  20  38  61  86 116 154 196 241 295 353
#     4  11  23  40  63  90 123 162 198 242 295 352
#
# _framework density 20.161037
#
# number of rings (size 3 to 8) (size 9 to 14) (size 15 to 20)
#    0.000    1.750    1.250    2.625    1.750    4.000 
#    0.000    1.875    0.000    0.000    0.000    0.000 
#    0.000    0.000    0.000    0.000    0.000    0.000 
#
# Total GULP energy -178860.270321 kJ/mol
# GULP energy per Si atom -5589.383448 kJ/mol
# Density = 2.011515 g / cm^3
# Si number density = 20.161037 Si / 1000 Ang^3
#
#
#
# Elastic Constant Matrix: (Units=GPa)
#
#
# Indices 1 2 3 4 5 6 
#
# 1 203.8131 0.2956 116.6943 0.0000 -2.9167 0.0000
# 2 0.2956 9.4256 5.4923 0.0000 -1.1265 0.0000
# 3 116.6943 5.4923 219.1805 0.0000 -19.2800 0.0000
# 4 0.0000 0.0000 0.0000 24.0176 0.0000 -6.8252
# 5 -2.9167 -1.1265 -19.2800 0.0000 61.1369 0.0000
# 6 0.0000 0.0000 0.0000 -6.8252 0.0000 15.2024
#
#
#
# Elastic Compliance Matrix: (Units=1/GPa)
#
#
# Indices 1 2 3 4 5 6 
#
# 1 0.007139 0.001961 -0.003926 0.000000 -0.000861 0.000000
# 2 0.001961 0.108285 -0.003676 0.000000 0.000930 0.000000
# 3 -0.003926 -0.003676 0.006914 0.000000 0.001925 0.000000
# 4 0.000000 0.000000 0.000000 0.047725 0.000000 0.021426
# 5 -0.000861 0.000930 0.001925 0.000000 0.016940 0.000000
# 6 0.000000 0.000000 0.000000 0.021426 0.000000 0.075399
#
#
# Mechanical properties :
#
#
# Convention : Reuss Voigt Hill
#
# Bulk Modulus (GPa) = 9.00440 75.26484 42.13462
# Shear Modulus (GPa) = 16.09260 40.73385 28.41322
#
# Velocity S-wave (km/s) = 2.82831 4.49979 3.75816
# Velocity P-wave (km/s) = 3.89124 8.02561 6.30683
#
# Compressibility (1/GPa) = 0.11105683
#
# Stress axis : x y z
#
# Youngs Moduli (GPa) = 140.07525 9.23489 144.63291
#
# Poissons Ratio (x) = -0.01811 0.56780
# Poissons Ratio (y) = -0.27465 0.53161
# Poissons Ratio (z) = 0.54991 0.03394
#
# Static dielectric constant tensor:
#      x y z
#    x 1.707910 0.000000 -0.011230 
#    y 0.000000 1.766800 0.000000 
#    z -0.011230 0.000000 1.705950 
# 
# From -- ./inp_files/55606.got.cif
#   From: 2010.05.17/outbox.cif.g08.bks.cpg/sg11_28_cif.got.tgz:55606.got - 2010.06.03 12:22:45.
