data_PCOD9165327
_publ_section_title
;
Structure prediction by ZEFSAII (Michael W. Deem and Ramdas Pophale) SiO2 
 PCOD9165327
Probable space group: P 21/M
;
_chemical_formula_sum "Si O2"
_cell_formula_units_Z 24
_cell_length_a 11.121006
_cell_length_b 9.111145
_cell_length_c 11.809658
_cell_angle_alpha 90.000000
_cell_angle_beta 98.009695
_cell_angle_gamma 90.000000
_cell_volume 1184.941188
_symmetry_space_group_name_H-M "P 21/M"
_symmetry_group_IT_number 11
_symmetry_cell_setting 'monoclinic'
loop_
_space_group_symop_operation_xyz
x,y,z
-x,1/2+y,-z
-x,-y,-z
x,1/2-y,z
loop_
_atom_site_type_symbol
_atom_site_label
_atom_site_fract_x
_atom_site_fract_y
_atom_site_fract_z
Si Si1 0.880171 0.923391 0.037363
Si Si2 0.445229 0.596840 0.349536
Si Si3 0.692144 0.018177 0.442386
Si Si4 0.745277 0.919812 0.793758
Si Si5 0.135693 0.583494 0.729519
Si Si6 0.102805 0.573851 0.370079
O O1 0.904403 0.750000 0.061042
O O2 0.844818 0.004583 0.148234
O O3 0.773923 0.933870 0.929722
O O4 0.000000 0.000000 0.000000
O O5 0.409575 0.750000 0.288799
O O6 0.385028 0.595750 0.467077
O O7 0.589040 0.589694 0.383833
O O8 0.386795 0.465622 0.270170
O O9 0.747997 0.088727 0.337220
O O10 0.813345 0.984838 0.530188
O O11 0.770111 0.750000 0.765848
O O12 0.835820 0.030846 0.741138
O O13 0.091981 0.750000 0.742075
O O14 0.031488 0.488948 0.654071
O O15 0.107943 0.750000 0.393020
#
# Coordination Sequence:
#
# PCOD9165327 Si02
#       6
#     4   4   4   4   4   4
#     4  11  23  40  62  89 122 160 202 249 301 360
#     4  10  22  41  66  90 118 159 204 251 301 360
#     4  10  23  39  59  90 124 159 200 247 303 361
#     4  10  21  38  62  90 119 155 201 250 303 360
#     4  12  24  38  60  90 126 162 200 249 305 363
#     4  11  22  37  60  88 123 161 201 249 300 362
#
# _framework density 20.254168
#
# number of rings (size 3 to 8) (size 9 to 14) (size 15 to 20)
#    0.000    1.333    1.667    5.000    0.000   11.333 
#    0.000    0.833    0.000    0.000    0.000    0.000 
#    0.000    0.000    0.000    0.000    0.000    0.000 
#
# Total GULP energy -133693.343295 kJ/mol
# GULP energy per Si atom -5570.555971 kJ/mol
# Density = 2.020807 g / cm^3
# Si number density = 20.254168 Si / 1000 Ang^3
#
#
#
# Elastic Constant Matrix: (Units=GPa)
#
#
# Indices 1 2 3 4 5 6 
#
# 1 86.2649 54.7328 55.4327 0.0000 7.9416 0.0000
# 2 54.7328 96.4119 39.0703 0.0000 10.6705 0.0000
# 3 55.4327 39.0703 115.6079 0.0000 0.0060 0.0000
# 4 0.0000 0.0000 0.0000 -23.3926 0.0000 4.8717
# 5 7.9416 10.6705 0.0060 0.0000 20.1025 0.0000
# 6 0.0000 0.0000 0.0000 4.8717 0.0000 11.1464
#
#
#
# Elastic Compliance Matrix: (Units=1/GPa)
#
#
# Indices 1 2 3 4 5 6 
#
# 1 0.022977 -0.009418 -0.007834 0.000000 -0.004076 0.000000
# 2 -0.009418 0.016756 -0.001147 0.000000 -0.005173 0.000000
# 3 -0.007834 -0.001147 0.012794 0.000000 0.003700 0.000000
# 4 0.000000 0.000000 0.000000 -0.039182 0.000000 0.017125
# 5 -0.004076 -0.005173 0.003700 0.000000 0.054100 0.000000
# 6 0.000000 0.000000 0.000000 0.017125 0.000000 0.082230
#
#
# Mechanical properties :
#
#
# Convention : Reuss Voigt Hill
#
# Bulk Modulus (GPa) = 63.57730 66.30624 64.94177
# Shear Modulus (GPa) = 26.08030 11.50787 18.79409
#
# Velocity S-wave (km/s) = 3.59228 2.38622 3.04947
# Velocity P-wave (km/s) = 6.97595 6.35612 6.67323
#
# Compressibility (1/GPa) = 0.01572889
#
# Stress axis : x y z
#
# Youngs Moduli (GPa) = 43.52149 59.67994 78.16399
#
# Poissons Ratio (x) = 0.56208 0.61235
# Poissons Ratio (y) = 0.40990 0.08962
# Poissons Ratio (z) = 0.34095 0.06843
#
# Static dielectric constant tensor:
#      x y z
#    x 1.733400 0.000000 0.008940 
#    y 0.000000 1.774290 0.000000 
#    z 0.008940 0.000000 1.725740 
# 
# From -- ./inp_files/33828.got.cif
#   From: 2010.05.17/outbox.cif.g08.bks.cpg/sg11_17_cif.got.tgz:33828.got - 2010.06.03 12:22:45.
