data_PCOD9165660
_publ_section_title
;
Structure prediction by ZEFSAII (Michael W. Deem and Ramdas Pophale) SiO2 
 PCOD9165660
Probable space group: P 21/M
;
_chemical_formula_sum "Si O2"
_cell_formula_units_Z 20
_cell_length_a 5.797412
_cell_length_b 14.470928
_cell_length_c 10.707355
_cell_angle_alpha 90.000000
_cell_angle_beta 78.965177
_cell_angle_gamma 90.000000
_cell_volume 881.673800
_symmetry_space_group_name_H-M "P 21/M"
_symmetry_group_IT_number 11
_symmetry_cell_setting 'monoclinic'
loop_
_space_group_symop_operation_xyz
x,y,z
-x,1/2+y,-z
-x,-y,-z
x,1/2-y,z
loop_
_atom_site_type_symbol
_atom_site_label
_atom_site_fract_x
_atom_site_fract_y
_atom_site_fract_z
Si Si1 0.501325 0.855501 0.265239
Si Si2 0.725368 0.493558 0.070720
Si Si3 0.885525 0.147157 0.237649
Si Si4 0.158117 0.496827 0.359015
Si Si5 0.537694 0.651520 0.552921
O O1 0.490819 0.750000 0.221628
O O2 0.578270 0.854383 0.402155
O O3 0.671622 0.921172 0.169360
O O4 0.246744 0.905630 0.298178
O O5 0.724672 0.395743 0.145043
O O6 0.500000 0.500000 0.000000
O O7 0.000000 0.500000 0.000000
O O8 0.973106 0.250000 0.196600
O O9 0.733024 0.156011 0.380130
O O10 0.064082 0.066990 0.257354
O O11 0.376408 0.439288 0.388789
O O12 0.000000 0.500000 0.500000
O O13 0.644854 0.750000 0.586724
#
# Coordination Sequence:
#
# PCOD9165660 Si02
#       5
#     4   4   4   4   4
#     4  11  24  45  71 108 153 197 251 318 390 462
#     4  12  28  51  74 103 143 200 261 312 368 439
#     4  11  24  44  72 106 143 190 249 315 384 455
#     4  12  21  37  69 106 153 192 237 305 385 468
#     4  10  21  39  67 106 143 183 236 302 390 465
#
# _framework density 22.684127
#
# number of rings (size 3 to 8) (size 9 to 14) (size 15 to 20)
#    0.000    0.800    4.000    3.600    0.000    2.400 
#    0.000    5.000    0.000    0.000    0.000    0.000 
#    0.000    0.000    0.000    0.000    0.000    0.000 
#
# Total GULP energy -111552.643506 kJ/mol
# GULP energy per Si atom -5577.632175 kJ/mol
# Density = 2.263250 g / cm^3
# Si number density = 22.684127 Si / 1000 Ang^3
#
#
#
# Elastic Constant Matrix: (Units=GPa)
#
#
# Indices 1 2 3 4 5 6 
#
# 1 79.1140 35.9887 39.0926 0.0000 -3.6630 0.0000
# 2 35.9887 169.4275 40.4054 0.0000 4.2343 0.0000
# 3 39.0926 40.4054 90.5983 0.0000 -10.9594 0.0000
# 4 0.0000 0.0000 0.0000 21.1766 0.0000 -3.8249
# 5 -3.6630 4.2343 -10.9594 0.0000 50.4207 0.0000
# 6 0.0000 0.0000 0.0000 -3.8249 0.0000 28.7575
#
#
#
# Elastic Compliance Matrix: (Units=1/GPa)
#
#
# Indices 1 2 3 4 5 6 
#
# 1 0.016674 -0.002044 -0.006281 0.000000 0.000018 0.000000
# 2 -0.002044 0.006930 -0.002359 0.000000 -0.001243 0.000000
# 3 -0.006281 -0.002359 0.015168 0.000000 0.003039 0.000000
# 4 0.000000 0.000000 0.000000 0.048384 0.000000 0.006435
# 5 0.000018 -0.001243 0.003039 0.000000 0.020599 0.000000
# 6 0.000000 0.000000 0.000000 0.006435 0.000000 0.035629
#
#
# Mechanical properties :
#
#
# Convention : Reuss Voigt Hill
#
# Bulk Modulus (GPa) = 57.46004 63.34593 60.40299
# Shear Modulus (GPa) = 29.31607 34.98118 32.14863
#
# Velocity S-wave (km/s) = 3.59884 3.93122 3.76870
# Velocity P-wave (km/s) = 6.53103 6.97078 6.75449
#
# Compressibility (1/GPa) = 0.01740340
#
# Stress axis : x y z
#
# Youngs Moduli (GPa) = 59.97205 144.29731 65.93008
#
# Poissons Ratio (x) = 0.29500 0.41411
# Poissons Ratio (y) = 0.12261 0.15553
# Poissons Ratio (z) = 0.37668 0.34039
#
# Static dielectric constant tensor:
#      x y z
#    x 1.935450 0.000000 -0.011130 
#    y 0.000000 2.114330 0.000000 
#    z -0.011130 0.000000 1.913380 
# 
# From -- ./inp_files/4248.got.cif
#   From: 2010.05.17/outbox.cif.g08.bks.cpg/sg11_3_cif.got.tgz:4248.got - 2010.06.03 12:22:45.
