data_PCOD9165847
_publ_section_title
;
Structure prediction by ZEFSAII (Michael W. Deem and Ramdas Pophale) SiO2 
 PCOD9165847
Probable space group: P 21/M
;
_chemical_formula_sum "Si O2"
_cell_formula_units_Z 30
_cell_length_a 12.341563
_cell_length_b 9.537984
_cell_length_c 13.478206
_cell_angle_alpha 90.000000
_cell_angle_beta 101.673873
_cell_angle_gamma 90.000000
_cell_volume 1553.750675
_symmetry_space_group_name_H-M "P 21/M"
_symmetry_group_IT_number 11
_symmetry_cell_setting 'monoclinic'
loop_
_space_group_symop_operation_xyz
x,y,z
-x,1/2+y,-z
-x,-y,-z
x,1/2-y,z
loop_
_atom_site_type_symbol
_atom_site_label
_atom_site_fract_x
_atom_site_fract_y
_atom_site_fract_z
Si Si1 0.392565 0.584706 0.449956
Si Si2 0.558973 0.582379 0.100909
Si Si3 0.846155 0.415833 0.531249
Si Si4 0.639306 0.413759 0.789299
Si Si5 0.990459 0.750000 0.038145
Si Si6 0.963350 0.084624 0.340645
Si Si7 0.851202 0.487313 0.935193
Si Si8 0.216308 0.587273 0.855289
O O1 0.500000 0.500000 0.500000
O O2 0.409672 0.750000 0.472751
O O3 0.280821 0.538594 0.484817
O O4 0.370379 0.566960 0.329140
O O5 0.567499 0.750000 0.082949
O O6 0.477879 0.561103 0.179219
O O7 0.678811 0.513462 0.138876
O O8 0.500000 0.500000 0.000000
O O9 0.850457 0.250000 0.554601
O O10 0.892895 0.435661 0.428898
O O11 0.925420 0.497709 0.621596
O O12 0.666975 0.250000 0.815061
O O13 0.737134 0.503585 0.855294
O O14 0.069181 0.874193 0.100433
O O15 0.915454 0.628487 0.969498
O O16 0.988735 0.250000 0.335950
O O17 0.885478 0.044783 0.234157
O O18 0.820675 0.421039 0.037279
O O19 0.244474 0.750000 0.837467
#
# Coordination Sequence:
#
# PCOD9165847 Si02
#       8
#     4   4   4   4   2   4   4   4
#     4  10  23  42  63  88 118 157 201 250 303 360
#     4  11  23  38  62  87 118 156 199 243 295 359
#     4   9  19  39  61  86 116 151 196 248 299 358
#     4  10  21  41  62  85 121 158 193 247 311 355
#     4  10  24  36  62  86 120 164 202 240 284 360
#     4   9  20  37  60  87 118 153 193 244 303 352
#     4  11  21  42  58  88 123 160 198 245 298 354
#     4  11  22  38  59  88 123 155 191 248 299 355
#
# _framework density 19.308116999999999
#
# number of rings (size 3 to 8) (size 9 to 14) (size 15 to 20)
#    0.000    1.867    2.667    0.400    2.800    3.200 
#    4.800    0.000    0.000    0.000    0.000    0.000 
#    0.000    0.000    0.000    0.000    0.000    0.000 
#
# Total GULP energy -167014.523800 kJ/mol
# GULP energy per Si atom -5567.150793 kJ/mol
# Density = 1.926417 g / cm^3
# Si number density = 19.308117 Si / 1000 Ang^3
#
#
#
# Elastic Constant Matrix: (Units=GPa)
#
#
# Indices 1 2 3 4 5 6 
#
# 1 100.4910 46.8213 24.4169 0.0000 30.0671 0.0000
# 2 46.8213 78.0858 18.4584 0.0000 17.5101 0.0000
# 3 24.4169 18.4584 45.6427 0.0000 28.6088 0.0000
# 4 0.0000 0.0000 0.0000 22.8039 0.0000 13.9201
# 5 30.0671 17.5101 28.6088 0.0000 31.0072 0.0000
# 6 0.0000 0.0000 0.0000 13.9201 0.0000 28.1003
#
#
#
# Elastic Compliance Matrix: (Units=1/GPa)
#
#
# Indices 1 2 3 4 5 6 
#
# 1 0.017453 -0.007770 0.003944 0.000000 -0.016175 0.000000
# 2 -0.007770 0.018182 -0.003517 0.000000 0.000512 0.000000
# 3 0.003944 -0.003517 0.053059 0.000000 -0.050793 0.000000
# 4 0.000000 0.000000 0.000000 0.062860 0.000000 -0.031139
# 5 -0.016175 0.000512 -0.050793 0.000000 0.094510 0.000000
# 6 0.000000 0.000000 0.000000 -0.031139 0.000000 0.051012
#
#
# Mechanical properties :
#
#
# Convention : Reuss Voigt Hill
#
# Bulk Modulus (GPa) = 13.51230 44.84584 29.17907
# Shear Modulus (GPa) = 14.86190 25.35049 20.10620
#
# Velocity S-wave (km/s) = 2.77740 3.62739 3.23047
# Velocity P-wave (km/s) = 4.15917 6.38911 5.39071
#
# Compressibility (1/GPa) = 0.07400665
#
# Stress axis : x y z
#
# Youngs Moduli (GPa) = 57.29805 54.99919 18.84707
#
# Poissons Ratio (x) = 0.42735 -0.07434
# Poissons Ratio (y) = 0.44521 0.06629
# Poissons Ratio (z) = -0.22600 0.19346
#
# Static dielectric constant tensor:
#      x y z
#    x 1.703130 0.000000 -0.028260 
#    y 0.000000 1.647390 0.000000 
#    z -0.028260 0.000000 1.654680 
# 
# From -- ./inp_files/49429.got.cif
#   From: 2010.05.17/outbox.cif.g08.bks.cpg/sg11_25_cif.got.tgz:49429.got - 2010.06.03 12:22:45.
