data_PCOD9165907
_publ_section_title
;
Structure prediction by ZEFSAII (Michael W. Deem and Ramdas Pophale) SiO2 
 PCOD9165907
Probable space group: P 21/M
;
_chemical_formula_sum "Si O2"
_cell_formula_units_Z 28
_cell_length_a 8.848159
_cell_length_b 14.287582
_cell_length_c 11.650413
_cell_angle_alpha 90.000000
_cell_angle_beta 115.656040
_cell_angle_gamma 90.000000
_cell_volume 1327.624005
_symmetry_space_group_name_H-M "P 21/M"
_symmetry_group_IT_number 11
_symmetry_cell_setting 'monoclinic'
loop_
_space_group_symop_operation_xyz
x,y,z
-x,1/2+y,-z
-x,-y,-z
x,1/2-y,z
loop_
_atom_site_type_symbol
_atom_site_label
_atom_site_fract_x
_atom_site_fract_y
_atom_site_fract_z
Si Si1 0.102002 0.147926 0.213221
Si Si2 0.737678 0.139765 0.208082
Si Si3 0.408684 0.138155 0.954464
Si Si4 0.928424 0.910471 0.043734
Si Si5 0.804038 0.018739 0.451279
Si Si6 0.436207 0.360690 0.690969
Si Si7 0.225202 0.942760 0.301287
O O1 0.159330 0.250000 0.276808
O O2 0.916144 0.128401 0.202656
O O3 0.209642 0.055485 0.276364
O O4 0.089620 0.155629 0.071684
O O5 0.722243 0.250000 0.230330
O O6 0.738953 0.079280 0.323251
O O7 0.581431 0.114861 0.075514
O O8 0.376959 0.250000 0.960875
O O9 0.251871 0.083380 0.956231
O O10 0.424268 0.123275 0.823938
O O11 0.065303 0.894109 0.187648
O O12 0.000000 0.000000 0.000000
O O13 0.774693 0.069446 0.562389
O O14 0.709442 0.919748 0.416971
O O15 0.000000 0.000000 0.500000
O O16 0.425014 0.250000 0.666406
O O17 0.610364 0.401668 0.702502
#
# Coordination Sequence:
#
# PCOD9165907 Si02
#       7
#     4   4   4   4   4   4   4
#     4  10  21  41  67 100 137 175 226 283 341 400
#     4  10  23  42  69 102 134 177 228 285 346 408
#     4  10  22  43  69 100 134 175 229 285 344 408
#     4  10  22  38  67 103 132 172 224 279 350 403
#     4  12  25  45  71  99 140 180 236 281 338 414
#     4  11  27  47  71 100 138 186 232 286 343 405
#     4  11  24  45  67 102 139 184 227 279 342 410
#
# _framework density 21.090306999999999
#
# number of rings (size 3 to 8) (size 9 to 14) (size 15 to 20)
#    0.000    1.429    1.429    2.571    6.000    4.571 
#    0.000    0.000    0.000    0.000    0.000    0.000 
#    0.000    0.000    0.000    0.000    0.000    0.000 
#
# Total GULP energy -156537.750331 kJ/mol
# GULP energy per Si atom -5590.633940 kJ/mol
# Density = 2.104230 g / cm^3
# Si number density = 21.090307 Si / 1000 Ang^3
#
#
#
# Elastic Constant Matrix: (Units=GPa)
#
#
# Indices 1 2 3 4 5 6 
#
# 1 138.8525 49.2430 39.4573 0.0000 -14.3268 0.0000
# 2 49.2430 61.3726 11.7629 0.0000 -0.7176 0.0000
# 3 39.4573 11.7629 99.3711 0.0000 -14.5327 0.0000
# 4 0.0000 0.0000 0.0000 -15.5252 0.0000 -32.5128
# 5 -14.3268 -0.7176 -14.5327 0.0000 38.0809 0.0000
# 6 0.0000 0.0000 0.0000 -32.5128 0.0000 8.6463
#
#
#
# Elastic Compliance Matrix: (Units=1/GPa)
#
#
# Indices 1 2 3 4 5 6 
#
# 1 0.011408 -0.008527 -0.003089 0.000000 0.002953 0.000000
# 2 -0.008527 0.023053 0.000266 0.000000 -0.002672 0.000000
# 3 -0.003089 0.000266 0.011744 0.000000 0.003325 0.000000
# 4 0.000000 0.000000 0.000000 -0.007258 0.000000 -0.027291
# 5 0.002953 -0.002672 0.003325 0.000000 0.028589 0.000000
# 6 0.000000 0.000000 0.000000 -0.027291 0.000000 0.013032
#
#
# Mechanical properties :
#
#
# Convention : Reuss Voigt Hill
#
# Bulk Modulus (GPa) = 42.54056 55.61362 49.07709
# Shear Modulus (GPa) = 45.00263 19.51594 32.25928
#
# Velocity S-wave (km/s) = 4.62433 3.04526 3.91523
# Velocity P-wave (km/s) = 6.98047 6.22827 6.61507
#
# Compressibility (1/GPa) = 0.02350698
#
# Stress axis : x y z
#
# Youngs Moduli (GPa) = 87.65537 43.37744 85.14635
#
# Poissons Ratio (x) = 0.36988 0.26299
# Poissons Ratio (y) = 0.74744 -0.02266
# Poissons Ratio (z) = 0.27074 -0.01154
#
# Static dielectric constant tensor:
#      x y z
#    x 1.718540 0.000000 -0.001400 
#    y 0.000000 1.809360 0.000000 
#    z -0.001400 0.000000 1.754490 
# 
# From -- ./inp_files/31952.got.cif
#   From: 2010.05.17/outbox.cif.g08.bks.cpg/sg11_16_cif.got.tgz:31952.got - 2010.06.03 12:22:45.
