data_PCOD9165612
_publ_section_title
;
Structure prediction by ZEFSAII (Michael W. Deem and Ramdas Pophale) SiO2 
 PCOD9165612
Probable space group: P 21/M
;
_chemical_formula_sum "Si O2"
_cell_formula_units_Z 32
_cell_length_a 19.511124
_cell_length_b 13.624307
_cell_length_c 12.489337
_cell_angle_alpha 90.000000
_cell_angle_beta 153.279485
_cell_angle_gamma 90.000000
_cell_volume 1492.794129
_symmetry_space_group_name_H-M "P 21/M"
_symmetry_group_IT_number 11
_symmetry_cell_setting 'monoclinic'
loop_
_space_group_symop_operation_xyz
x,y,z
-x,1/2+y,-z
-x,-y,-z
x,1/2-y,z
loop_
_atom_site_type_symbol
_atom_site_label
_atom_site_fract_x
_atom_site_fract_y
_atom_site_fract_z
Si Si1 0.955034 0.934545 0.783806
Si Si2 0.532841 0.023006 0.668755
Si Si3 0.950029 0.365406 0.526968
Si Si4 0.373958 0.134198 0.619901
Si Si5 0.081245 0.858288 0.180032
Si Si6 0.553047 0.362064 0.283382
Si Si7 0.124652 0.561102 0.810199
Si Si8 0.619098 0.131860 0.142464
O O1 0.775554 0.916567 0.542441
O O2 0.022191 0.902746 0.765177
O O3 0.985291 0.050185 0.847275
O O4 0.031177 0.876548 0.988286
O O5 0.409847 0.094875 0.551856
O O6 0.500000 0.000000 0.500000
O O7 0.522825 0.928232 0.732287
O O8 0.699629 0.068531 0.913554
O O9 0.981778 0.250000 0.592939
O O10 0.909661 0.380122 0.345631
O O11 0.794732 0.398453 0.372286
O O12 0.079425 0.446106 0.730181
O O13 0.349586 0.250000 0.585416
O O14 0.518109 0.112223 0.897308
O O15 0.032326 0.750000 0.148474
O O16 0.264480 0.861900 0.442179
O O17 0.497755 0.250000 0.211638
O O18 0.539424 0.399845 0.141837
O O19 0.628026 0.250000 0.164556
#
# Coordination Sequence:
#
# PCOD9165612 Si02
#       8
#     4   4   4   4   4   4   4   4
#     4  11  23  41  65  96 129 170 224 273 317 393
#     4  12  26  44  64  96 138 180 219 271 330 401
#     4  10  22  42  65  95 134 173 216 273 341 402
#     4  11  24  44  68  97 131 173 223 272 327 393
#     4  10  21  39  64  93 127 168 218 276 328 379
#     4  10  21  40  66  96 127 168 219 271 328 387
#     4  11  25  41  65  98 133 175 219 269 339 396
#     4   9  19  39  68  95 123 167 218 270 329 390
#
# _framework density 21.436312000000001
#
# number of rings (size 3 to 8) (size 9 to 14) (size 15 to 20)
#    0.000    1.500    2.500    1.875    1.750    6.000 
#    0.000    1.250    0.000    0.000    0.000    0.000 
#    0.000    0.000    0.000    0.000    0.000    0.000 
#
# Total GULP energy -178938.601867 kJ/mol
# GULP energy per Si atom -5591.831308 kJ/mol
# Density = 2.138752 g / cm^3
# Si number density = 21.436312 Si / 1000 Ang^3
#
#
#
# Elastic Constant Matrix: (Units=GPa)
#
#
# Indices 1 2 3 4 5 6 
#
# 1 132.8118 12.2174 20.4405 0.0000 -4.8945 0.0000
# 2 12.2174 101.0413 -19.7847 0.0000 4.4862 0.0000
# 3 20.4405 -19.7847 34.1210 0.0000 -5.9814 0.0000
# 4 0.0000 0.0000 0.0000 9.5360 0.0000 -14.2620
# 5 -4.8945 4.4862 -5.9814 0.0000 30.7068 0.0000
# 6 0.0000 0.0000 0.0000 -14.2620 0.0000 2.0577
#
#
#
# Elastic Compliance Matrix: (Units=1/GPa)
#
#
# Indices 1 2 3 4 5 6 
#
# 1 0.008771 -0.002362 -0.006542 0.000000 0.000469 0.000000
# 2 -0.002362 0.011805 0.008171 0.000000 -0.000510 0.000000
# 3 -0.006542 0.008171 0.038900 0.000000 0.005341 0.000000
# 4 0.000000 0.000000 0.000000 -0.011196 0.000000 -0.077603
# 5 0.000469 -0.000510 0.005341 0.000000 0.033756 0.000000
# 6 0.000000 0.000000 0.000000 -0.077603 0.000000 -0.051888
#
#
# Mechanical properties :
#
#
# Convention : Reuss Voigt Hill
#
# Bulk Modulus (GPa) = 17.23839 32.63560 24.93699
# Shear Modulus (GPa) = 98.13337 25.46682 61.80010
#
# Velocity S-wave (km/s) = 6.77336 3.45051 5.37515
# Velocity P-wave (km/s) = 8.32048 5.57962 7.08387
#
# Compressibility (1/GPa) = 0.05801006
#
# Stress axis : x y z
#
# Youngs Moduli (GPa) = 114.01390 84.70893 25.70662
#
# Poissons Ratio (x) = 0.20011 0.16817
# Poissons Ratio (y) = 0.26933 -0.21005
# Poissons Ratio (z) = 0.74586 -0.69215
#
# Static dielectric constant tensor:
#      x y z
#    x 1.763450 0.000000 -0.009330 
#    y 0.000000 1.801790 0.000000 
#    z -0.009330 0.000000 1.771470 
# 
# From -- ./inp_files/41695.got.cif
#   From: 2010.05.17/outbox.cif.g08.bks.cpg/sg11_21_cif.got.tgz:41695.got - 2010.06.03 12:22:45.
