data_PCOD9165519
_publ_section_title
;
Structure prediction by ZEFSAII (Michael W. Deem and Ramdas Pophale) SiO2 
 PCOD9165519
Probable space group: P 21/M
;
_chemical_formula_sum "Si O2"
_cell_formula_units_Z 32
_cell_length_a 8.457718
_cell_length_b 24.829358
_cell_length_c 13.830006
_cell_angle_alpha 90.000000
_cell_angle_beta 34.750336
_cell_angle_gamma 90.000000
_cell_volume 1655.454009
_symmetry_space_group_name_H-M "P 21/M"
_symmetry_group_IT_number 11
_symmetry_cell_setting 'monoclinic'
loop_
_space_group_symop_operation_xyz
x,y,z
-x,1/2+y,-z
-x,-y,-z
x,1/2-y,z
loop_
_atom_site_type_symbol
_atom_site_label
_atom_site_fract_x
_atom_site_fract_y
_atom_site_fract_z
Si Si1 0.239843 0.534654 0.428156
Si Si2 0.030143 0.935437 0.177129
Si Si3 0.631535 0.571761 0.542337
Si Si4 0.257887 0.404628 0.871524
Si Si5 0.963574 0.063404 0.197547
Si Si6 0.881373 0.864877 0.590867
Si Si7 0.563554 0.631951 0.934458
Si Si8 0.615654 0.186538 0.778751
O O1 0.370909 0.492590 0.436315
O O2 0.486258 0.554613 0.235687
O O3 0.000000 0.500000 0.500000
O O4 0.082726 0.589054 0.536596
O O5 0.901081 0.917104 0.343402
O O6 0.832268 0.912569 0.192747
O O7 0.333149 0.910417 0.013996
O O8 0.020442 0.000223 0.182765
O O9 0.350101 0.581700 0.625446
O O10 0.675765 0.604647 0.619055
O O11 0.378469 0.346821 0.839936
O O12 0.004172 0.423409 0.063954
O O13 0.195453 0.098263 0.133710
O O14 0.704955 0.840951 0.768725
O O15 0.092040 0.829251 0.420207
O O16 0.423366 0.668115 0.089315
O O17 0.576541 0.250000 0.791815
#
# Coordination Sequence:
#
# PCOD9165519 Si02
#       8
#     4   4   4   4   4   4   4   4
#     4   9  19  31  54  84 124 166 202 239 290 356
#     4  12  22  35  57  91 133 170 203 241 298 367
#     4  11  21  35  55  88 130 172 201 241 288 362
#     4  10  22  37  57  87 122 164 208 253 304 364
#     4  11  23  34  55  91 131 172 204 240 296 365
#     4  10  21  39  62  87 122 160 204 252 307 361
#     4  11  24  39  62  93 123 162 206 252 303 373
#     4  10  23  46  66  88 116 151 206 270 319 360
#
# _framework density 19.330044999999998
#
# number of rings (size 3 to 8) (size 9 to 14) (size 15 to 20)
#    0.000    1.500    2.500    2.625    8.750    0.500 
#    0.000    0.625    0.000    6.000    0.000    0.000 
#    0.000    0.000    0.000    0.000    0.000    0.000 
#
# Total GULP energy -178435.479511 kJ/mol
# GULP energy per Si atom -5576.108735 kJ/mol
# Density = 1.928605 g / cm^3
# Si number density = 19.330045 Si / 1000 Ang^3
#
#
#
# Elastic Constant Matrix: (Units=GPa)
#
#
# Indices 1 2 3 4 5 6 
#
# 1 65.5012 27.3898 22.3575 0.0000 0.9412 0.0000
# 2 27.3898 81.7292 26.7119 0.0000 6.1116 0.0000
# 3 22.3575 26.7119 102.1771 0.0000 14.0009 0.0000
# 4 0.0000 0.0000 0.0000 13.9652 0.0000 0.2800
# 5 0.9412 6.1116 14.0009 0.0000 44.9645 0.0000
# 6 0.0000 0.0000 0.0000 0.2800 0.0000 9.2217
#
#
#
# Elastic Compliance Matrix: (Units=1/GPa)
#
#
# Indices 1 2 3 4 5 6 
#
# 1 0.018446 -0.005357 -0.002802 0.000000 0.001215 0.000000
# 2 -0.005357 0.014959 -0.002586 0.000000 -0.001116 0.000000
# 3 -0.002802 -0.002586 0.011511 0.000000 -0.003174 0.000000
# 4 0.000000 0.000000 0.000000 0.071650 0.000000 -0.002175
# 5 0.001215 -0.001116 -0.003174 0.000000 0.023354 0.000000
# 6 0.000000 0.000000 0.000000 -0.002175 0.000000 0.108506
#
#
# Mechanical properties :
#
#
# Convention : Reuss Voigt Hill
#
# Bulk Modulus (GPa) = 42.68604 44.70288 43.69446
# Shear Modulus (GPa) = 18.00344 25.16018 21.58181
#
# Velocity S-wave (km/s) = 3.05515 3.61170 3.34502
# Velocity P-wave (km/s) = 5.88013 6.36936 6.12963
#
# Compressibility (1/GPa) = 0.02342686
#
# Stress axis : x y z
#
# Youngs Moduli (GPa) = 54.21274 66.84811 86.87343
#
# Poissons Ratio (x) = 0.35809 0.24344
# Poissons Ratio (y) = 0.29040 0.22463
# Poissons Ratio (z) = 0.15191 0.17285
#
# Static dielectric constant tensor:
#      x y z
#    x 1.701810 0.000000 0.028610 
#    y 0.000000 1.633650 0.000000 
#    z 0.028610 0.000000 1.732260 
# 
# From -- ./inp_files/23389.got.cif
#   From: 2010.05.17/outbox.cif.g08.bks.cpg/sg11_12_cif.got.tgz:23389.got - 2010.06.03 12:22:45.
