data_PCOD9165858
_publ_section_title
;
Structure prediction by ZEFSAII (Michael W. Deem and Ramdas Pophale) SiO2 
 PCOD9165858
Probable space group: P 21/M
;
_chemical_formula_sum "Si O2"
_cell_formula_units_Z 32
_cell_length_a 7.086409
_cell_length_b 28.859827
_cell_length_c 9.843864
_cell_angle_alpha 90.000000
_cell_angle_beta 136.762258
_cell_angle_gamma 90.000000
_cell_volume 1379.092270
_symmetry_space_group_name_H-M "P 21/M"
_symmetry_group_IT_number 11
_symmetry_cell_setting 'monoclinic'
loop_
_space_group_symop_operation_xyz
x,y,z
-x,1/2+y,-z
-x,-y,-z
x,1/2-y,z
loop_
_atom_site_type_symbol
_atom_site_label
_atom_site_fract_x
_atom_site_fract_y
_atom_site_fract_z
Si Si1 0.823263 0.459357 0.838017
Si Si2 0.878610 0.176312 0.630910
Si Si3 0.539020 0.673010 0.045079
Si Si4 0.971807 0.196221 0.402913
Si Si5 0.328224 0.000835 0.692111
Si Si6 0.266888 0.301510 0.285106
Si Si7 0.174517 0.643100 0.096968
Si Si8 0.341952 0.434087 0.954716
O O1 0.514458 0.479688 0.665518
O O2 0.020210 0.445032 0.816997
O O3 0.000000 0.500000 0.000000
O O4 0.813914 0.411812 0.919188
O O5 0.172141 0.199034 0.818228
O O6 0.392690 0.119919 0.959341
O O7 0.593281 0.200493 0.444638
O O8 0.800925 0.150464 0.729034
O O9 0.034923 0.659787 0.476301
O O10 0.315530 0.693234 0.826790
O O11 0.397209 0.669857 0.119823
O O12 0.018008 0.250000 0.470835
O O13 0.189743 0.185319 0.399235
O O14 0.398008 0.036763 0.849430
O O15 0.000000 0.000000 0.500000
O O16 0.463128 0.953371 0.821376
O O17 0.150655 0.250000 0.199802
O O18 0.118160 0.337256 0.108145
#
# Coordination Sequence:
#
# PCOD9165858 Si02
#       8
#     4   4   4   4   4   4   4   4
#     4  10  21  42  66  93 138 174 221 280 331 397
#     4  12  23  39  65  99 133 169 223 271 331 399
#     4  11  23  42  68  95 135 179 220 277 332 402
#     4  10  24  44  65  96 133 174 218 272 340 403
#     4  10  22  41  66  95 129 172 218 272 334 396
#     4  10  24  45  67  97 134 172 222 279 338 402
#     4  11  23  44  67  99 133 183 223 274 342 401
#     4  10  21  41  63  93 131 171 218 270 325 392
#
# _framework density 23.203668
#
# number of rings (size 3 to 8) (size 9 to 14) (size 15 to 20)
#    0.000    1.500    2.500    1.875    0.000    3.500 
#    6.750    2.500    0.000    0.000    0.000    0.000 
#    0.000    0.000    0.000    0.000    0.000    0.000 
#
# Total GULP energy -178368.148241 kJ/mol
# GULP energy per Si atom -5574.004633 kJ/mol
# Density = 2.315086 g / cm^3
# Si number density = 23.203668 Si / 1000 Ang^3
#
#
#
# Elastic Constant Matrix: (Units=GPa)
#
#
# Indices 1 2 3 4 5 6 
#
# 1 106.1447 9.9593 27.1416 0.0000 9.8548 0.0000
# 2 9.9593 94.2920 21.1942 0.0000 -9.1053 0.0000
# 3 27.1416 21.1942 87.4971 0.0000 21.9333 0.0000
# 4 0.0000 0.0000 0.0000 4.9425 0.0000 9.4060
# 5 9.8548 -9.1053 21.9333 0.0000 56.2088 0.0000
# 6 0.0000 0.0000 0.0000 9.4060 0.0000 8.5773
#
#
#
# Elastic Compliance Matrix: (Units=1/GPa)
#
#
# Indices 1 2 3 4 5 6 
#
# 1 0.010274 -0.000514 -0.002871 0.000000 -0.000764 0.000000
# 2 -0.000514 0.011782 -0.003542 0.000000 0.003381 0.000000
# 3 -0.002871 -0.003542 0.014626 0.000000 -0.005778 0.000000
# 4 0.000000 0.000000 0.000000 -0.186143 0.000000 0.204127
# 5 -0.000764 0.003381 -0.005778 0.000000 0.020727 0.000000
# 6 0.000000 0.000000 0.000000 0.204127 0.000000 -0.107262
#
#
# Mechanical properties :
#
#
# Convention : Reuss Voigt Hill
#
# Bulk Modulus (GPa) = 43.80453 44.94710 44.37581
# Shear Modulus (GPa) = -23.30656 29.25497 2.97421
#
# Velocity S-wave (km/s) = -3.17272 3.55461 1.13339
# Velocity P-wave (km/s) = 2.34472 6.02161 4.56933
#
# Compressibility (1/GPa) = 0.02282869
#
# Stress axis : x y z
#
# Youngs Moduli (GPa) = 97.32927 84.87340 68.37196
#
# Poissons Ratio (x) = 0.04359 0.19631
# Poissons Ratio (y) = 0.04999 0.24218
# Poissons Ratio (z) = 0.27945 0.30063
#
# Static dielectric constant tensor:
#      x y z
#    x 1.951170 0.000000 -0.011790 
#    y 0.000000 1.766230 0.000000 
#    z -0.011790 0.000000 1.881480 
# 
# From -- ./inp_files/33216.got.cif
#   From: 2010.05.17/outbox.cif.g08.bks.cpg/sg11_17_cif.got.tgz:33216.got - 2010.06.03 12:22:45.
