data_PCOD9165462
_publ_section_title
;
Structure prediction by ZEFSAII (Michael W. Deem and Ramdas Pophale) SiO2 
 PCOD9165462
Probable space group: P 21/M
;
_chemical_formula_sum "Si O2"
_cell_formula_units_Z 20
_cell_length_a 12.433998
_cell_length_b 8.474551
_cell_length_c 18.782109
_cell_angle_alpha 90.000000
_cell_angle_beta 149.364355
_cell_angle_gamma 90.000000
_cell_volume 1008.512994
_symmetry_space_group_name_H-M "P 21/M"
_symmetry_group_IT_number 11
_symmetry_cell_setting 'monoclinic'
loop_
_space_group_symop_operation_xyz
x,y,z
-x,1/2+y,-z
-x,-y,-z
x,1/2-y,z
loop_
_atom_site_type_symbol
_atom_site_label
_atom_site_fract_x
_atom_site_fract_y
_atom_site_fract_z
Si Si1 0.894599 0.438154 0.367476
Si Si2 0.802625 0.558675 0.589412
Si Si3 0.597449 0.938569 0.716996
Si Si4 0.550226 0.061774 0.848189
Si Si5 0.985303 0.942268 0.846150
O O1 0.900176 0.250000 0.372778
O O2 0.653151 0.493024 0.228429
O O3 0.000000 0.500000 0.500000
O O4 0.031626 0.489354 0.377598
O O5 0.784066 0.750000 0.578030
O O6 0.578719 0.485504 0.440977
O O7 0.888685 0.509819 0.715382
O O8 0.598204 0.750000 0.726383
O O9 0.825373 0.991267 0.817513
O O10 0.540195 0.016670 0.759299
O O11 0.543104 0.250000 0.850467
O O12 0.775810 0.003404 0.005756
O O13 0.988796 0.750000 0.848702
#
# Coordination Sequence:
#
# PCOD9165462 Si02
#       5
#     4   4   4   4   4
#     4  11  22  37  60  86 115 148 192 239 283 340
#     4  10  21  39  61  84 114 152 190 235 291 342
#     4  11  21  36  60  87 116 150 194 239 280 340
#     4  11  22  38  60  84 116 155 192 235 286 338
#     4   9  21  39  58  85 118 151 189 237 290 340
#
# _framework density 19.831178000000001
#
# number of rings (size 3 to 8) (size 9 to 14) (size 15 to 20)
#    0.000    1.600    2.000    3.000    0.000    1.600 
#    0.000    6.000    0.000    0.000    0.000    0.000 
#    0.000    0.000    0.000    0.000    0.000    0.000 
#
# Total GULP energy -111797.302896 kJ/mol
# GULP energy per Si atom -5589.865145 kJ/mol
# Density = 1.978604 g / cm^3
# Si number density = 19.831178 Si / 1000 Ang^3
#
#
#
# Elastic Constant Matrix: (Units=GPa)
#
#
# Indices 1 2 3 4 5 6 
#
# 1 54.7599 5.8463 -2.4415 0.0000 22.5315 0.0000
# 2 5.8463 21.3547 0.0546 0.0000 7.9589 0.0000
# 3 -2.4415 0.0546 92.8102 0.0000 23.4731 0.0000
# 4 0.0000 0.0000 0.0000 24.9541 0.0000 11.0454
# 5 22.5315 7.9589 23.4731 0.0000 41.8904 0.0000
# 6 0.0000 0.0000 0.0000 11.0454 0.0000 8.0681
#
#
#
# Elastic Compliance Matrix: (Units=1/GPa)
#
#
# Indices 1 2 3 4 5 6 
#
# 1 0.025149 -0.000940 0.004705 0.000000 -0.015984 0.000000
# 2 -0.000940 0.051058 0.002646 0.000000 -0.010678 0.000000
# 3 0.004705 0.002646 0.013590 0.000000 -0.010648 0.000000
# 4 0.000000 0.000000 0.000000 0.101703 0.000000 -0.139234
# 5 -0.015984 -0.010678 -0.010648 0.000000 0.040465 0.000000
# 6 0.000000 0.000000 0.000000 -0.139234 0.000000 0.314559
#
#
# Mechanical properties :
#
#
# Convention : Reuss Voigt Hill
#
# Bulk Modulus (GPa) = 9.74479 19.53817 14.64148
# Shear Modulus (GPa) = 8.80426 26.01355 17.40890
#
# Velocity S-wave (km/s) = 2.10932 3.62574 2.96608
# Velocity P-wave (km/s) = 3.29498 5.23465 4.37370
#
# Compressibility (1/GPa) = 0.10261897
#
# Stress axis : x y z
#
# Youngs Moduli (GPa) = 39.76370 19.58551 73.58344
#
# Poissons Ratio (x) = 0.01840 -0.34620
# Poissons Ratio (y) = 0.03736 -0.19469
# Poissons Ratio (z) = -0.18708 -0.05182
#
# Static dielectric constant tensor:
#      x y z
#    x 1.683340 0.000000 0.011780 
#    y 0.000000 1.677530 0.000000 
#    z 0.011780 0.000000 1.689630 
# 
# From -- ./inp_files/15934.got.cif
#   From: 2010.05.17/outbox.cif.g08.bks.cpg/sg11_8_cif.got.tgz:15934.got - 2010.06.03 12:22:45.
