data_PCOD9165442
_publ_section_title
;
Structure prediction by ZEFSAII (Michael W. Deem and Ramdas Pophale) SiO2 
 PCOD9165442
Probable space group: P 21/M
;
_chemical_formula_sum "Si O2"
_cell_formula_units_Z 24
_cell_length_a 20.821347
_cell_length_b 9.183968
_cell_length_c 14.150852
_cell_angle_alpha 90.000000
_cell_angle_beta 23.938766
_cell_angle_gamma 90.000000
_cell_volume 1097.971539
_symmetry_space_group_name_H-M "P 21/M"
_symmetry_group_IT_number 11
_symmetry_cell_setting 'monoclinic'
loop_
_space_group_symop_operation_xyz
x,y,z
-x,1/2+y,-z
-x,-y,-z
x,1/2-y,z
loop_
_atom_site_type_symbol
_atom_site_label
_atom_site_fract_x
_atom_site_fract_y
_atom_site_fract_z
Si Si1 0.851970 0.417773 0.156035
Si Si2 0.489703 0.924389 0.412334
Si Si3 0.189044 0.077091 0.138146
Si Si4 0.648259 0.417920 0.922579
Si Si5 0.990234 0.581198 0.251397
Si Si6 0.675521 0.081918 0.658527
O O1 0.863131 0.250000 0.170727
O O2 0.675362 0.473229 0.413917
O O3 0.000000 0.500000 0.000000
O O4 0.877738 0.423778 0.008090
O O5 0.476296 0.750000 0.443959
O O6 0.500000 0.000000 0.500000
O O7 0.645691 0.949393 0.140620
O O8 0.163590 0.250000 0.180971
O O9 0.216493 0.001470 0.201775
O O10 0.054514 0.003642 0.255671
O O11 0.640093 0.250000 0.964428
O O12 0.673576 0.419640 0.775918
O O13 0.482713 0.501076 0.161163
O O14 0.955852 0.750000 0.319309
O O15 0.834657 0.503118 0.419707
O O16 0.675328 0.250000 0.627489
#
# Coordination Sequence:
#
# PCOD9165442 Si02
#       6
#     4   4   4   4   4   4
#     4  10  23  40  58  86 120 156 197 241 292 349
#     4  10  21  39  60  85 118 156 196 240 290 346
#     4  11  23  38  61  91 120 158 201 245 296 350
#     4  10  22  41  64  90 119 155 196 242 298 356
#     4  11  23  40  61  88 121 158 199 247 297 350
#     4  10  22  41  64  89 120 155 195 245 297 354
#
# _framework density 21.85849
#
# number of rings (size 3 to 8) (size 9 to 14) (size 15 to 20)
#    0.000    1.667    1.667    2.000    2.333    5.333 
#    0.000    0.000    0.000    0.000    0.000    0.000 
#    0.000    0.000    0.000    0.000    0.000    0.000 
#
# Total GULP energy -134280.831863 kJ/mol
# GULP energy per Si atom -5595.034661 kJ/mol
# Density = 2.180874 g / cm^3
# Si number density = 21.858490 Si / 1000 Ang^3
#
#
#
# Elastic Constant Matrix: (Units=GPa)
#
#
# Indices 1 2 3 4 5 6 
#
# 1 80.3711 30.3138 -1.1450 0.0000 -13.0720 0.0000
# 2 30.3138 111.7679 26.6571 0.0000 -8.3640 0.0000
# 3 -1.1450 26.6571 80.2916 0.0000 -12.4451 0.0000
# 4 0.0000 0.0000 0.0000 29.7399 0.0000 -9.3739
# 5 -13.0720 -8.3640 -12.4451 0.0000 39.0750 0.0000
# 6 0.0000 0.0000 0.0000 -9.3739 0.0000 36.4247
#
#
#
# Elastic Compliance Matrix: (Units=1/GPa)
#
#
# Indices 1 2 3 4 5 6 
#
# 1 0.014856 -0.004232 0.002364 0.000000 0.004817 0.000000
# 2 -0.004232 0.010968 -0.003742 0.000000 -0.000260 0.000000
# 3 0.002364 -0.003742 0.014442 0.000000 0.004589 0.000000
# 4 0.000000 0.000000 0.000000 0.036593 0.000000 0.009417
# 5 0.004817 -0.000260 0.004589 0.000000 0.028609 0.000000
# 6 0.000000 0.000000 0.000000 0.009417 0.000000 0.029877
#
#
# Mechanical properties :
#
#
# Convention : Reuss Voigt Hill
#
# Bulk Modulus (GPa) = 34.43059 42.67583 38.55321
# Shear Modulus (GPa) = 32.00022 35.48822 33.74422
#
# Velocity S-wave (km/s) = 3.83034 4.03369 3.93333
# Velocity P-wave (km/s) = 5.94540 6.42342 6.18903
#
# Compressibility (1/GPa) = 0.02904394
#
# Stress axis : x y z
#
# Youngs Moduli (GPa) = 67.31408 91.17346 69.24217
#
# Poissons Ratio (x) = 0.38589 -0.16366
# Poissons Ratio (y) = 0.28491 0.25911
# Poissons Ratio (z) = -0.15910 0.34118
#
# Static dielectric constant tensor:
#      x y z
#    x 1.813300 0.000000 0.037500 
#    y 0.000000 1.731760 0.000000 
#    z 0.037500 0.000000 1.813300 
# 
# From -- ./inp_files/61848.got.cif
#   From: 2010.05.17/outbox.cif.g08.bks.cpg/sg11_31_cif.got.tgz:61848.got - 2010.06.03 12:22:45.
