data_PCOD9165215
_publ_section_title
;
Structure prediction by ZEFSAII (Michael W. Deem and Ramdas Pophale) SiO2 
 PCOD9165215
Probable space group: P 21/M
;
_chemical_formula_sum "Si O2"
_cell_formula_units_Z 32
_cell_length_a 11.400184
_cell_length_b 15.359066
_cell_length_c 18.388980
_cell_angle_alpha 90.000000
_cell_angle_beta 153.814854
_cell_angle_gamma 90.000000
_cell_volume 1420.829228
_symmetry_space_group_name_H-M "P 21/M"
_symmetry_group_IT_number 11
_symmetry_cell_setting 'monoclinic'
loop_
_space_group_symop_operation_xyz
x,y,z
-x,1/2+y,-z
-x,-y,-z
x,1/2-y,z
loop_
_atom_site_type_symbol
_atom_site_label
_atom_site_fract_x
_atom_site_fract_y
_atom_site_fract_z
Si Si1 0.605771 0.604120 0.207578
Si Si2 0.696677 0.345003 0.095453
Si Si3 0.437783 0.024611 0.356372
Si Si4 0.977990 0.470631 0.337180
Si Si5 0.201738 0.349451 0.930864
Si Si6 0.898112 0.152312 0.424950
Si Si7 0.631908 0.956266 0.840199
Si Si8 0.609869 0.146483 0.574060
O O1 0.738604 0.530226 0.230781
O O2 0.439138 0.554375 0.176214
O O3 0.856511 0.650404 0.383215
O O4 0.422560 0.655721 0.050992
O O5 0.812974 0.250000 0.176457
O O6 0.900525 0.423653 0.219558
O O7 0.455016 0.360697 0.018729
O O8 0.400992 0.926844 0.368091
O O9 0.750702 0.021645 0.511801
O O10 0.277381 0.043742 0.193153
O O11 0.428292 0.101878 0.410681
O O12 0.997185 0.393916 0.407032
O O13 0.210162 0.250000 0.963134
O O14 0.927330 0.356481 0.733420
O O15 0.208822 0.412955 0.004329
O O16 0.811970 0.250000 0.363173
O O17 0.646862 0.097280 0.312167
O O18 0.548262 0.250000 0.553404
#
# Coordination Sequence:
#
# PCOD9165215 Si02
#       8
#     4   4   4   4   4   4   4   4
#     4  11  20  34  52  86 124 158 192 233 289 360
#     4  11  22  34  54  87 122 160 196 235 291 351
#     4  11  23  43  66  89 118 158 202 254 307 352
#     4  11  20  36  58  86 119 158 191 236 299 360
#     4  10  21  38  60  87 121 158 200 247 293 348
#     4  11  20  33  53  87 127 157 194 238 290 358
#     4  11  21  36  59  88 118 157 197 242 300 359
#     4  10  25  45  65  89 115 154 207 256 305 359
#
# _framework density 22.52206
#
# number of rings (size 3 to 8) (size 9 to 14) (size 15 to 20)
#    0.000    1.250    5.000    3.000    1.750    2.500 
#    0.000    0.000    0.000    0.000    0.000    0.000 
#    0.000    0.000    0.000    0.000    0.000    0.000 
#
# Total GULP energy -178690.313595 kJ/mol
# GULP energy per Si atom -5584.072300 kJ/mol
# Density = 2.247080 g / cm^3
# Si number density = 22.522060 Si / 1000 Ang^3
#
#
#
# Elastic Constant Matrix: (Units=GPa)
#
#
# Indices 1 2 3 4 5 6 
#
# 1 43.8035 20.4156 11.1127 0.0000 -14.5490 0.0000
# 2 20.4156 112.9144 20.4641 0.0000 -20.2487 0.0000
# 3 11.1127 20.4641 76.7121 0.0000 -24.5503 0.0000
# 4 0.0000 0.0000 0.0000 51.2351 0.0000 -193.6160
# 5 -14.5490 -20.2487 -24.5503 0.0000 28.7351 0.0000
# 6 0.0000 0.0000 0.0000 -193.6160 0.0000 1661.5990
#
#
#
# Elastic Compliance Matrix: (Units=1/GPa)
#
#
# Indices 1 2 3 4 5 6 
#
# 1 0.028295 -0.002942 0.000836 0.000000 0.012967 0.000000
# 2 -0.002942 0.010462 -0.000663 0.000000 0.005316 0.000000
# 3 0.000836 -0.000663 0.017999 0.000000 0.015333 0.000000
# 4 0.000000 0.000000 0.000000 0.034875 0.000000 0.004064
# 5 0.012967 0.005316 0.015333 0.000000 0.058212 0.000000
# 6 0.000000 0.000000 0.000000 0.004064 0.000000 0.001075
#
#
# Mechanical properties :
#
#
# Convention : Reuss Voigt Hill
#
# Bulk Modulus (GPa) = 19.52490 37.49052 28.50771
# Shear Modulus (GPa) = 28.81353 360.40968 194.61160
#
# Velocity S-wave (km/s) = 3.58068 12.66383 9.30575
# Velocity P-wave (km/s) = 5.07770 15.18263 11.32023
#
# Compressibility (1/GPa) = 0.05121664
#
# Stress axis : x y z
#
# Youngs Moduli (GPa) = 35.34139 95.58699 55.55924
#
# Poissons Ratio (x) = 0.28122 -0.04644
# Poissons Ratio (y) = 0.10398 0.03686
# Poissons Ratio (z) = -0.02954 0.06342
#
# Static dielectric constant tensor:
#      x y z
#    x 1.863640 0.000000 -0.022390 
#    y 0.000000 1.826600 0.000000 
#    z -0.022390 0.000000 1.875390 
# 
# From -- ./inp_files/41678.got.cif
#   From: 2010.05.17/outbox.cif.g08.bks.cpg/sg11_21_cif.got.tgz:41678.got - 2010.06.03 12:22:45.
