data_PCOD9165874
_publ_section_title
;
Structure prediction by ZEFSAII (Michael W. Deem and Ramdas Pophale) SiO2 
 PCOD9165874
Probable space group: P 21/M
;
_chemical_formula_sum "Si O2"
_cell_formula_units_Z 20
_cell_length_a 9.859971
_cell_length_b 8.665215
_cell_length_c 12.236248
_cell_angle_alpha 90.000000
_cell_angle_beta 75.725828
_cell_angle_gamma 90.000000
_cell_volume 1013.173760
_symmetry_space_group_name_H-M "P 21/M"
_symmetry_group_IT_number 11
_symmetry_cell_setting 'monoclinic'
loop_
_space_group_symop_operation_xyz
x,y,z
-x,1/2+y,-z
-x,-y,-z
x,1/2-y,z
loop_
_atom_site_type_symbol
_atom_site_label
_atom_site_fract_x
_atom_site_fract_y
_atom_site_fract_z
Si Si1 0.655156 0.935141 0.973373
Si Si2 0.359996 0.065514 0.472950
Si Si3 0.902328 0.063920 0.343010
Si Si4 0.129959 0.934141 0.906532
Si Si5 0.781354 0.562241 0.716532
O O1 0.654468 0.750000 0.974891
O O2 0.737220 0.986042 0.846971
O O3 0.500000 0.000000 0.000000
O O4 0.733227 0.997362 0.064292
O O5 0.371044 0.250000 0.470701
O O6 0.328776 0.013572 0.354325
O O7 0.500000 0.000000 0.500000
O O8 0.222113 0.014586 0.566358
O O9 0.892795 0.250000 0.358683
O O10 0.883776 0.028625 0.218272
O O11 0.059971 0.013413 0.342805
O O12 0.130352 0.750000 0.916105
O O13 0.000000 0.000000 0.000000
O O14 0.783563 0.750000 0.716872
#
# Coordination Sequence:
#
# PCOD9165874 Si02
#       5
#     4   4   4   4   4
#     4  11  23  41  62  91 127 165 205 249 306 368
#     4  11  24  41  62  90 121 158 203 251 303 361
#     4  10  21  41  65  88 119 160 200 248 307 362
#     4  11  22  39  64  93 125 162 202 251 307 365
#     4   9  20  41  64  85 119 162 199 244 305 361
#
# _framework density 19.73995
#
# number of rings (size 3 to 8) (size 9 to 14) (size 15 to 20)
#    0.000    1.600    2.000    2.400    2.800    1.600 
#    0.000    4.000    0.000    0.000    0.000    0.000 
#    0.000    0.000    0.000    0.000    0.000    0.000 
#
# Total GULP energy -111770.272103 kJ/mol
# GULP energy per Si atom -5588.513605 kJ/mol
# Density = 1.969502 g / cm^3
# Si number density = 19.739950 Si / 1000 Ang^3
#
#
#
# Elastic Constant Matrix: (Units=GPa)
#
#
# Indices 1 2 3 4 5 6 
#
# 1 138.2572 16.7325 19.0686 0.0000 22.4019 0.0000
# 2 16.7325 26.5140 24.2305 0.0000 12.2908 0.0000
# 3 19.0686 24.2305 54.4809 0.0000 14.9522 0.0000
# 4 0.0000 0.0000 0.0000 28.0260 0.0000 -3.4040
# 5 22.4019 12.2908 14.9522 0.0000 39.0516 0.0000
# 6 0.0000 0.0000 0.0000 -3.4040 0.0000 38.5194
#
#
#
# Elastic Compliance Matrix: (Units=1/GPa)
#
#
# Indices 1 2 3 4 5 6 
#
# 1 0.008256 -0.003052 -0.000554 0.000000 -0.003563 0.000000
# 2 -0.003052 0.068573 -0.026804 0.000000 -0.009569 0.000000
# 3 -0.000554 -0.026804 0.031363 0.000000 -0.003254 0.000000
# 4 0.000000 0.000000 0.000000 0.036068 0.000000 0.003187
# 5 -0.003563 -0.009569 -0.003254 0.000000 0.031909 0.000000
# 6 0.000000 0.000000 0.000000 0.003187 0.000000 0.026243
#
#
# Mechanical properties :
#
#
# Convention : Reuss Voigt Hill
#
# Bulk Modulus (GPa) = 21.10931 37.70172 29.40552
# Shear Modulus (GPa) = 17.91970 31.73409 24.82689
#
# Velocity S-wave (km/s) = 3.01622 4.01385 3.55025
# Velocity P-wave (km/s) = 4.77986 6.37354 5.63334
#
# Compressibility (1/GPa) = 0.04737245
#
# Stress axis : x y z
#
# Youngs Moduli (GPa) = 121.12309 14.58303 31.88440
#
# Poissons Ratio (x) = 0.04450 0.01768
# Poissons Ratio (y) = 0.36964 0.85462
# Poissons Ratio (z) = 0.06716 0.39088
#
# Static dielectric constant tensor:
#      x y z
#    x 1.683590 0.000000 0.017420 
#    y 0.000000 1.670220 0.000000 
#    z 0.017420 0.000000 1.689480 
# 
# From -- ./inp_files/15894.got.cif
#   From: 2010.05.17/outbox.cif.g08.bks.cpg/sg11_8_cif.got.tgz:15894.got - 2010.06.03 12:22:45.
