data_PCOD9165771
_publ_section_title
;
Structure prediction by ZEFSAII (Michael W. Deem and Ramdas Pophale) SiO2 
 PCOD9165771
Probable space group: P 21/M
;
_chemical_formula_sum "Si O2"
_cell_formula_units_Z 26
_cell_length_a 18.105399
_cell_length_b 12.676205
_cell_length_c 8.066291
_cell_angle_alpha 90.000000
_cell_angle_beta 136.289696
_cell_angle_gamma 90.000000
_cell_volume 1279.254906
_symmetry_space_group_name_H-M "P 21/M"
_symmetry_group_IT_number 11
_symmetry_cell_setting 'monoclinic'
loop_
_space_group_symop_operation_xyz
x,y,z
-x,1/2+y,-z
-x,-y,-z
x,1/2-y,z
loop_
_atom_site_type_symbol
_atom_site_label
_atom_site_fract_x
_atom_site_fract_y
_atom_site_fract_z
Si Si1 0.145324 0.133756 0.091639
Si Si2 0.644691 0.632589 0.795104
Si Si3 0.259521 0.971360 0.485914
Si Si4 0.046581 0.750000 0.334674
Si Si5 0.323724 0.932179 0.937562
Si Si6 0.554504 0.631018 0.298573
Si Si7 0.804258 0.250000 0.106074
Si Si8 0.209461 0.750000 0.290132
O O1 0.158916 0.250000 0.197917
O O2 0.240784 0.125965 0.112996
O O3 0.164198 0.037516 0.245893
O O4 0.032540 0.149427 0.817784
O O5 0.632850 0.750000 0.846742
O O6 0.560200 0.619930 0.508403
O O7 0.642627 0.540973 0.923766
O O8 0.244944 0.950089 0.656127
O O9 0.273122 0.859164 0.417586
O O10 0.363795 0.045217 0.637758
O O11 0.125555 0.750000 0.305712
O O12 0.105399 0.750000 0.605420
O O13 0.433227 0.882472 0.046508
O O14 0.268941 0.852327 0.976374
O O15 0.590920 0.750000 0.319765
O O16 0.840217 0.250000 0.974137
#
# Coordination Sequence:
#
# PCOD9165771 Si02
#       8
#     4   4   4   2   4   4   2   2
#     4   8  19  42  68  86 122 167 213 269 315 375
#     4   9  19  37  60  92 126 164 220 267 313 373
#     4  11  22  42  63  94 132 170 216 266 322 380
#     4  10  22  48  69  92 128 167 223 267 325 389
#     4  12  22  39  63  96 137 165 217 265 318 393
#     4  10  21  40  65  88 130 180 215 259 317 382
#     4  12  24  44  65  95 130 171 209 272 333 374
#     4  12  26  44  66  95 134 170 214 267 330 387
#
# _framework density 20.324331999999998
#
# number of rings (size 3 to 8) (size 9 to 14) (size 15 to 20)
#    0.462    1.231    2.308    4.154    0.000    1.846 
#    4.154    1.538    0.000    0.000    0.000    0.000 
#    0.000    0.000    0.000    0.000    0.000    0.000 
#
# Total GULP energy -145033.266410 kJ/mol
# GULP energy per Si atom -5578.202554 kJ/mol
# Density = 2.027807 g / cm^3
# Si number density = 20.324332 Si / 1000 Ang^3
#
#
#
# Elastic Constant Matrix: (Units=GPa)
#
#
# Indices 1 2 3 4 5 6 
#
# 1 21.6916 11.9169 18.5362 0.0000 -8.4506 0.0000
# 2 11.9169 135.2001 29.3478 0.0000 -15.2350 0.0000
# 3 18.5362 29.3478 70.0497 0.0000 -2.3551 0.0000
# 4 0.0000 0.0000 0.0000 32.5289 0.0000 4.8738
# 5 -8.4506 -15.2350 -2.3551 0.0000 32.5840 0.0000
# 6 0.0000 0.0000 0.0000 4.8738 0.0000 17.9073
#
#
#
# Elastic Compliance Matrix: (Units=1/GPa)
#
#
# Indices 1 2 3 4 5 6 
#
# 1 0.067126 -0.000414 -0.017052 0.000000 0.015983 0.000000
# 2 -0.000414 0.008575 -0.003360 0.000000 0.003659 0.000000
# 3 -0.017052 -0.003360 0.020042 0.000000 -0.004545 0.000000
# 4 0.000000 0.000000 0.000000 0.032049 0.000000 -0.008723
# 5 0.015983 0.003659 -0.004545 0.000000 0.036217 0.000000
# 6 0.000000 0.000000 0.000000 -0.008723 0.000000 0.058217
#
#
# Mechanical properties :
#
#
# Convention : Reuss Voigt Hill
#
# Bulk Modulus (GPa) = 18.48702 38.50480 28.49591
# Shear Modulus (GPa) = 17.73624 27.74673 22.74149
#
# Velocity S-wave (km/s) = 2.95729 3.69887 3.34867
# Velocity P-wave (km/s) = 4.55812 6.10151 5.38539
#
# Compressibility (1/GPa) = 0.05409201
#
# Stress axis : x y z
#
# Youngs Moduli (GPa) = 14.89729 116.62425 49.89406
#
# Poissons Ratio (x) = 0.04831 0.85078
# Poissons Ratio (y) = 0.00617 0.16763
# Poissons Ratio (z) = 0.25402 0.39183
#
# Static dielectric constant tensor:
#      x y z
#    x 1.698920 0.000000 0.006100 
#    y 0.000000 1.753180 0.000000 
#    z 0.006100 0.000000 1.743020 
# 
# From -- ./inp_files/26672.got.cif
#   From: 2010.05.17/outbox.cif.g08.bks.cpg/sg11_14_cif.got.tgz:26672.got - 2010.06.03 12:22:45.
