data_PCOD9165940
_publ_section_title
;
Structure prediction by ZEFSAII (Michael W. Deem and Ramdas Pophale) SiO2 
 PCOD9165940
Probable space group: P 21/M
;
_chemical_formula_sum "Si O2"
_cell_formula_units_Z 20
_cell_length_a 9.322298
_cell_length_b 17.676857
_cell_length_c 5.163044
_cell_angle_alpha 90.000000
_cell_angle_beta 85.090497
_cell_angle_gamma 90.000000
_cell_volume 847.690956
_symmetry_space_group_name_H-M "P 21/M"
_symmetry_group_IT_number 11
_symmetry_cell_setting 'monoclinic'
loop_
_space_group_symop_operation_xyz
x,y,z
-x,1/2+y,-z
-x,-y,-z
x,1/2-y,z
loop_
_atom_site_type_symbol
_atom_site_label
_atom_site_fract_x
_atom_site_fract_y
_atom_site_fract_z
Si Si1 0.129240 0.250000 0.807701
Si Si2 0.660110 0.750000 0.718300
Si Si3 0.398586 0.468269 0.733448
Si Si4 0.441625 0.867724 0.962125
Si Si5 0.867954 0.367909 0.852469
Si Si6 0.126208 0.535936 0.639855
O O1 0.240151 0.250000 0.550422
O O2 0.012121 0.318440 0.810750
O O3 0.226403 0.250000 0.055411
O O4 0.547887 0.820945 0.761153
O O5 0.500000 0.500000 0.500000
O O6 0.398013 0.543907 0.914671
O O7 0.238113 0.468013 0.657203
O O8 0.453443 0.387605 0.816187
O O9 0.285167 0.832191 0.030656
O O10 0.823772 0.400681 0.575948
O O11 0.904246 0.427588 0.077106
O O12 0.000000 0.500000 0.500000
#
# Coordination Sequence:
#
# PCOD9165940 Si02
#       6
#     2   2   4   4   4   4
#     4  12  29  48  67 104 144 189 239 294 355 429
#     4  12  29  46  73 104 140 189 241 304 357 419
#     4  10  21  41  71 104 142 178 239 292 354 425
#     4  10  24  45  71 105 139 187 238 294 355 428
#     4  11  24  47  69  98 142 189 234 282 358 425
#     4  11  24  40  70 106 140 185 228 291 355 421
#
# _framework density 23.593503999999999
#
# number of rings (size 3 to 8) (size 9 to 14) (size 15 to 20)
#    0.000    1.200    2.000    2.400    5.600    1.600 
#    0.000    3.000    0.000    0.000    0.000    0.000 
#    0.000    0.000    0.000    0.000    0.000    0.000 
#
# Total GULP energy -111380.735353 kJ/mol
# GULP energy per Si atom -5569.036768 kJ/mol
# Density = 2.353980 g / cm^3
# Si number density = 23.593504 Si / 1000 Ang^3
#
#
#
# Elastic Constant Matrix: (Units=GPa)
#
#
# Indices 1 2 3 4 5 6 
#
# 1 187.9418 55.1284 32.6503 0.0000 -20.3331 0.0000
# 2 55.1284 63.4664 27.3569 0.0000 -10.5072 0.0000
# 3 32.6503 27.3569 115.3414 0.0000 -14.5763 0.0000
# 4 0.0000 0.0000 0.0000 18.6881 0.0000 -12.0573
# 5 -20.3331 -10.5072 -14.5763 0.0000 43.2246 0.0000
# 6 0.0000 0.0000 0.0000 -12.0573 0.0000 41.7123
#
#
#
# Elastic Compliance Matrix: (Units=1/GPa)
#
#
# Indices 1 2 3 4 5 6 
#
# 1 0.007318 -0.005855 -0.000447 0.000000 0.001869 0.000000
# 2 -0.005855 0.022612 -0.003509 0.000000 0.001559 0.000000
# 3 -0.000447 -0.003509 0.009917 0.000000 0.002281 0.000000
# 4 0.000000 0.000000 0.000000 0.065777 0.000000 0.019013
# 5 0.001869 0.001559 0.002281 0.000000 0.025162 0.000000
# 6 0.000000 0.000000 0.000000 0.019013 0.000000 0.029470
#
#
# Mechanical properties :
#
#
# Convention : Reuss Voigt Hill
#
# Bulk Modulus (GPa) = 49.43948 66.33566 57.88757
# Shear Modulus (GPa) = 26.79253 37.49924 32.14589
#
# Velocity S-wave (km/s) = 3.37351 3.99104 3.69520
# Velocity P-wave (km/s) = 6.01450 7.02958 6.54176
#
# Compressibility (1/GPa) = 0.02022675
#
# Stress axis : x y z
#
# Youngs Moduli (GPa) = 136.65187 44.22343 100.83787
#
# Poissons Ratio (x) = 0.25891 0.04505
# Poissons Ratio (y) = 0.80003 0.35383
# Poissons Ratio (z) = 0.06105 0.15518
#
# Static dielectric constant tensor:
#      x y z
#    x 2.142100 0.000000 0.173170 
#    y 0.000000 1.737970 0.000000 
#    z 0.173170 0.000000 2.105470 
# 
# From -- ./inp_files/1911.got.cif
#   From: 2010.05.17/outbox.cif.g08.bks.cpg/sg11_1_cif.got.tgz:1911.got - 2010.06.03 12:22:45.
