data_PCOD9165509
_publ_section_title
;
Structure prediction by ZEFSAII (Michael W. Deem and Ramdas Pophale) SiO2 
 PCOD9165509
Probable space group: P 21/M
;
_chemical_formula_sum "Si O2"
_cell_formula_units_Z 28
_cell_length_a 10.123684
_cell_length_b 10.925643
_cell_length_c 12.781193
_cell_angle_alpha 90.000000
_cell_angle_beta 120.598278
_cell_angle_gamma 90.000000
_cell_volume 1216.851850
_symmetry_space_group_name_H-M "P 21/M"
_symmetry_group_IT_number 11
_symmetry_cell_setting 'monoclinic'
loop_
_space_group_symop_operation_xyz
x,y,z
-x,1/2+y,-z
-x,-y,-z
x,1/2-y,z
loop_
_atom_site_type_symbol
_atom_site_label
_atom_site_fract_x
_atom_site_fract_y
_atom_site_fract_z
Si Si1 0.378189 0.117721 0.844957
Si Si2 0.368164 0.887190 0.687985
Si Si3 0.218368 0.889962 0.418261
Si Si4 0.817655 0.887349 0.921415
Si Si5 0.925565 0.949719 0.166997
Si Si6 0.332561 0.113688 0.341662
Si Si7 0.284081 0.617791 0.005232
O O1 0.375425 0.250000 0.786777
O O2 0.365368 0.000917 0.764679
O O3 0.143904 0.913336 0.871627
O O4 0.456463 0.883655 0.030979
O O5 0.363509 0.750000 0.734009
O O6 0.230352 0.897595 0.548104
O O7 0.520279 0.891291 0.675495
O O8 0.264513 0.750000 0.408829
O O9 0.322596 0.997590 0.412262
O O10 0.052776 0.916004 0.301120
O O11 0.756710 0.750000 0.915477
O O12 0.816262 0.895280 0.795757
O O13 0.957966 0.903228 0.060606
O O14 0.720129 0.004840 0.916796
O O15 0.765907 0.884979 0.136316
O O16 0.332002 0.250000 0.390295
O O17 0.258453 0.750000 0.043598
#
# Coordination Sequence:
#
# PCOD9165509 Si02
#       7
#     4   4   4   4   4   4   4
#     4  11  21  37  63  89 117 155 198 242 288 344
#     4  10  22  41  61  87 117 151 197 247 297 342
#     4  11  24  40  61  84 116 161 201 238 287 351
#     4   9  18  35  60  83 114 152 185 232 296 351
#     4  10  22  39  57  84 125 160 189 231 292 353
#     4  10  21  39  62  87 115 150 193 247 301 341
#     4   9  20  34  56  88 115 146 192 240 281 339
#
# _framework density 23.010197000000002
#
# number of rings (size 3 to 8) (size 9 to 14) (size 15 to 20)
#    0.857    1.143    1.429    2.143    0.000    4.000 
#    0.000    0.000    0.000    0.000    0.000    0.000 
#    0.000    0.000    0.000    0.000    0.000    0.000 
#
# Total GULP energy -155933.277871 kJ/mol
# GULP energy per Si atom -5569.045638 kJ/mol
# Density = 2.295783 g / cm^3
# Si number density = 23.010197 Si / 1000 Ang^3
#
#
#
# Elastic Constant Matrix: (Units=GPa)
#
#
# Indices 1 2 3 4 5 6 
#
# 1 66.3399 23.8484 17.0175 0.0000 13.8308 0.0000
# 2 23.8484 224.2212 45.7195 0.0000 -19.7999 0.0000
# 3 17.0175 45.7195 108.6681 0.0000 22.6579 0.0000
# 4 0.0000 0.0000 0.0000 28.5261 0.0000 -2.6639
# 5 13.8308 -19.7999 22.6579 0.0000 31.0080 0.0000
# 6 0.0000 0.0000 0.0000 -2.6639 0.0000 16.4195
#
#
#
# Elastic Compliance Matrix: (Units=1/GPa)
#
#
# Indices 1 2 3 4 5 6 
#
# 1 0.018166 -0.002970 0.000578 0.000000 -0.010422 0.000000
# 2 -0.002970 0.006291 -0.003888 0.000000 0.008183 0.000000
# 3 0.000578 -0.003888 0.013353 0.000000 -0.012498 0.000000
# 4 0.000000 0.000000 0.000000 0.035595 0.000000 0.005775
# 5 -0.010422 0.008183 -0.012498 0.000000 0.051256 0.000000
# 6 0.000000 0.000000 0.000000 0.005775 0.000000 0.061840
#
#
# Mechanical properties :
#
#
# Convention : Reuss Voigt Hill
#
# Bulk Modulus (GPa) = 39.60384 63.60000 51.60192
# Shear Modulus (GPa) = 24.09886 36.03366 30.06626
#
# Velocity S-wave (km/s) = 3.23973 3.96155 3.61868
# Velocity P-wave (km/s) = 5.58957 6.97317 6.31935
#
# Compressibility (1/GPa) = 0.02525007
#
# Stress axis : x y z
#
# Youngs Moduli (GPa) = 55.04727 158.95332 74.88706
#
# Poissons Ratio (x) = 0.47214 -0.04327
# Poissons Ratio (y) = 0.16351 0.29115
# Poissons Ratio (z) = -0.03181 0.61799
#
# Static dielectric constant tensor:
#      x y z
#    x 1.935130 0.000000 0.046850 
#    y 0.000000 1.894980 0.000000 
#    z 0.046850 0.000000 1.899620 
# 
# From -- ./inp_files/51449.got.cif
#   From: 2010.05.17/outbox.cif.g08.bks.cpg/sg11_26_cif.got.tgz:51449.got - 2010.06.03 12:22:45.
