data_PCOD9165301
_publ_section_title
;
Structure prediction by ZEFSAII (Michael W. Deem and Ramdas Pophale) SiO2 
 PCOD9165301
Probable space group: P 21/M
;
_chemical_formula_sum "Si O2"
_cell_formula_units_Z 32
_cell_length_a 11.575316
_cell_length_b 14.176036
_cell_length_c 17.544883
_cell_angle_alpha 90.000000
_cell_angle_beta 32.098666
_cell_angle_gamma 90.000000
_cell_volume 1529.827309
_symmetry_space_group_name_H-M "P 21/M"
_symmetry_group_IT_number 11
_symmetry_cell_setting 'monoclinic'
loop_
_space_group_symop_operation_xyz
x,y,z
-x,1/2+y,-z
-x,-y,-z
x,1/2-y,z
loop_
_atom_site_type_symbol
_atom_site_label
_atom_site_fract_x
_atom_site_fract_y
_atom_site_fract_z
Si Si1 0.038388 0.545824 0.757160
Si Si2 0.640512 0.036879 0.553192
Si Si3 0.811015 0.036786 0.161503
Si Si4 0.791409 0.137350 0.888334
Si Si5 0.552714 0.138569 0.175019
Si Si6 0.690377 0.136794 0.685195
Si Si7 0.414137 0.137400 0.976305
Si Si8 0.159397 0.137872 0.485017
O O1 0.233306 0.573718 0.591474
O O2 0.088900 0.574465 0.816018
O O3 0.993755 0.433324 0.775141
O O4 0.803802 0.591025 0.870013
O O5 0.700692 0.092453 0.596374
O O6 0.378203 0.033854 0.701675
O O7 0.732306 0.930771 0.514495
O O8 0.680378 0.105754 0.178446
O O9 0.000000 0.000000 0.000000
O O10 0.843872 0.250000 0.860443
O O11 0.622352 0.121879 0.914116
O O12 0.661741 0.106323 0.036751
O O13 0.566305 0.250000 0.163459
O O14 0.300359 0.116168 0.329992
O O15 0.679621 0.250000 0.684378
O O16 0.486194 0.105294 0.851036
O O17 0.910555 0.115199 0.608009
O O18 0.380194 0.250000 0.992498
O O19 0.177680 0.250000 0.491987
#
# Coordination Sequence:
#
# PCOD9165301 Si02
#       8
#     4   4   4   4   4   4   4   4
#     4  12  24  39  63  91 121 163 200 251 307 354
#     4  11  24  38  60  90 120 156 205 251 302 354
#     4  11  22  42  62  81 119 158 206 251 296 352
#     4  10  21  38  61  93 126 156 199 248 300 362
#     4   9  19  36  61  90 114 154 204 251 299 353
#     4  10  21  39  60  87 123 163 198 240 300 366
#     4  10  23  40  62  90 125 161 198 245 303 366
#     4   9  19  35  60  88 121 158 196 244 302 360
#
# _framework density 20.917394000000002
#
# number of rings (size 3 to 8) (size 9 to 14) (size 15 to 20)
#    0.000    1.750    1.250    2.625    3.500    2.500 
#    0.000    1.250    0.000    3.000    0.000    0.000 
#    0.000    0.000    0.000    0.000    0.000    0.000 
#
# Total GULP energy -178526.679396 kJ/mol
# GULP energy per Si atom -5578.958731 kJ/mol
# Density = 2.086979 g / cm^3
# Si number density = 20.917394 Si / 1000 Ang^3
#
#
#
# Elastic Constant Matrix: (Units=GPa)
#
#
# Indices 1 2 3 4 5 6 
#
# 1 54.1621 3.2858 22.6214 0.0000 15.5584 0.0000
# 2 3.2858 38.8130 20.0146 0.0000 2.6412 0.0000
# 3 22.6214 20.0146 155.9726 0.0000 23.1241 0.0000
# 4 0.0000 0.0000 0.0000 19.5561 0.0000 -0.6769
# 5 15.5584 2.6412 23.1241 0.0000 39.2146 0.0000
# 6 0.0000 0.0000 0.0000 -0.6769 0.0000 15.2247
#
#
#
# Elastic Compliance Matrix: (Units=1/GPa)
#
#
# Indices 1 2 3 4 5 6 
#
# 1 0.021408 -0.000292 -0.001985 0.000000 -0.007304 0.000000
# 2 -0.000292 0.027596 -0.003551 0.000000 0.000351 0.000000
# 3 -0.001985 -0.003551 0.007674 0.000000 -0.003498 0.000000
# 4 0.000000 0.000000 0.000000 0.051214 0.000000 0.002277
# 5 -0.007304 0.000351 -0.003498 0.000000 0.030438 0.000000
# 6 0.000000 0.000000 0.000000 0.002277 0.000000 0.065784
#
#
# Mechanical properties :
#
#
# Convention : Reuss Voigt Hill
#
# Bulk Modulus (GPa) = 22.21091 37.86570 30.03830
# Shear Modulus (GPa) = 21.66610 28.33416 25.00013
#
# Velocity S-wave (km/s) = 3.22187 3.68445 3.46089
# Velocity P-wave (km/s) = 4.94793 6.02013 5.51017
#
# Compressibility (1/GPa) = 0.04502291
#
# Stress axis : x y z
#
# Youngs Moduli (GPa) = 46.71215 36.23651 130.31805
#
# Poissons Ratio (x) = 0.01058 0.25863
# Poissons Ratio (y) = 0.01364 0.46275
# Poissons Ratio (z) = 0.09270 0.12867
#
# Static dielectric constant tensor:
#      x y z
#    x 1.718520 0.000000 0.005990 
#    y 0.000000 1.769710 0.000000 
#    z 0.005990 0.000000 1.817570 
# 
# From -- ./inp_files/41739.got.cif
#   From: 2010.05.17/outbox.cif.g08.bks.cpg/sg11_21_cif.got.tgz:41739.got - 2010.06.03 12:22:45.
