data_PCOD9165535
_publ_section_title
;
Structure prediction by ZEFSAII (Michael W. Deem and Ramdas Pophale) SiO2 
 PCOD9165535
Probable space group: P 21/M
;
_chemical_formula_sum "Si O2"
_cell_formula_units_Z 28
_cell_length_a 14.364071
_cell_length_b 19.958372
_cell_length_c 8.761979
_cell_angle_alpha 90.000000
_cell_angle_beta 33.834266
_cell_angle_gamma 90.000000
_cell_volume 1398.615165
_symmetry_space_group_name_H-M "P 21/M"
_symmetry_group_IT_number 11
_symmetry_cell_setting 'monoclinic'
loop_
_space_group_symop_operation_xyz
x,y,z
-x,1/2+y,-z
-x,-y,-z
x,1/2-y,z
loop_
_atom_site_type_symbol
_atom_site_label
_atom_site_fract_x
_atom_site_fract_y
_atom_site_fract_z
Si Si1 0.121520 0.407418 0.940948
Si Si2 0.391209 0.173082 0.412686
Si Si3 0.652772 0.969085 0.886074
Si Si4 0.263828 0.599992 0.074450
Si Si5 0.000872 0.546976 0.219420
Si Si6 0.691584 0.824307 0.833597
Si Si7 0.981164 0.174661 0.397232
O O1 0.301230 0.380689 0.643432
O O2 0.034316 0.424291 0.899626
O O3 0.092313 0.475117 0.076726
O O4 0.048872 0.347845 0.141985
O O5 0.372769 0.250000 0.489797
O O6 0.314490 0.170747 0.343992
O O7 0.582806 0.150140 0.148320
O O8 0.606792 0.893814 0.999881
O O9 0.827492 0.962661 0.551377
O O10 0.679247 0.023700 0.980232
O O11 0.500000 0.000000 0.000000
O O12 0.127134 0.597827 0.128483
O O13 0.161282 0.622972 0.362070
O O14 0.620544 0.750000 0.965953
O O15 0.869318 0.826915 0.680230
O O16 0.915059 0.250000 0.485546
#
# Coordination Sequence:
#
# PCOD9165535 Si02
#       7
#     4   4   4   4   4   4   4
#     4  11  22  41  61  91 130 166 210 259 322 390
#     4  11  23  41  62  90 128 171 211 257 319 388
#     4  12  20  38  64  96 124 161 212 271 315 369
#     4  12  22  40  66  95 124 163 220 270 304 385
#     4  11  23  39  65  94 125 168 214 263 325 381
#     4  10  21  39  62  90 122 166 214 255 318 385
#     4  11  22  38  64  93 124 166 212 267 321 370
#
# _framework density 20.019801999999999
#
# number of rings (size 3 to 8) (size 9 to 14) (size 15 to 20)
#    0.000    0.857    5.714    2.143    0.000    0.571 
#    0.000    6.429    0.000    0.000    0.000    0.000 
#    0.000    0.000    0.000    0.000    0.000    0.000 
#
# Total GULP energy -156085.054197 kJ/mol
# GULP energy per Si atom -5574.466221 kJ/mol
# Density = 1.997424 g / cm^3
# Si number density = 20.019802 Si / 1000 Ang^3
#
#
#
# Elastic Constant Matrix: (Units=GPa)
#
#
# Indices 1 2 3 4 5 6 
#
# 1 29.8231 15.4897 18.0049 0.0000 -15.7029 0.0000
# 2 15.4897 119.6072 -0.5741 0.0000 -12.9586 0.0000
# 3 18.0049 -0.5741 53.4845 0.0000 -12.9686 0.0000
# 4 0.0000 0.0000 0.0000 25.4517 0.0000 -3.4594
# 5 -15.7029 -12.9586 -12.9686 0.0000 17.3199 0.0000
# 6 0.0000 0.0000 0.0000 -3.4594 0.0000 26.3024
#
#
#
# Elastic Compliance Matrix: (Units=1/GPa)
#
#
# Indices 1 2 3 4 5 6 
#
# 1 0.069241 -0.003354 -0.010669 0.000000 0.052278 0.000000
# 2 -0.003354 0.009465 0.002701 0.000000 0.006063 0.000000
# 3 -0.010669 0.002701 0.025001 0.000000 0.011068 0.000000
# 4 0.000000 0.000000 0.000000 0.040005 0.000000 0.005262
# 5 0.052278 0.006063 0.011068 0.000000 0.117958 0.000000
# 6 0.000000 0.000000 0.000000 0.005262 0.000000 0.038711
#
#
# Mechanical properties :
#
#
# Convention : Reuss Voigt Hill
#
# Bulk Modulus (GPa) = 12.33622 29.86176 21.09899
# Shear Modulus (GPa) = 14.28381 25.14775 19.71578
#
# Velocity S-wave (km/s) = 2.67401 3.54806 3.14158
# Velocity P-wave (km/s) = 3.96348 5.63324 4.87045
#
# Compressibility (1/GPa) = 0.08106210
#
# Stress axis : x y z
#
# Youngs Moduli (GPa) = 14.44240 105.65331 39.99804
#
# Poissons Ratio (x) = 0.35438 0.42674
# Poissons Ratio (y) = 0.04844 -0.10803
# Poissons Ratio (z) = 0.15408 -0.28535
#
# Static dielectric constant tensor:
#      x y z
#    x 1.730400 0.000000 -0.010670 
#    y 0.000000 1.746610 0.000000 
#    z -0.010670 0.000000 1.670490 
# 
# From -- ./inp_files/23182.got.cif
#   From: 2010.05.17/outbox.cif.g08.bks.cpg/sg11_12_cif.got.tgz:23182.got - 2010.06.03 12:22:45.
