data_PCOD9165332
_publ_section_title
;
Structure prediction by ZEFSAII (Michael W. Deem and Ramdas Pophale) SiO2 
 PCOD9165332
Probable space group: P 21/M
;
_chemical_formula_sum "Si O2"
_cell_formula_units_Z 32
_cell_length_a 15.416430
_cell_length_b 8.647127
_cell_length_c 26.539224
_cell_angle_alpha 90.000000
_cell_angle_beta 26.669870
_cell_angle_gamma 90.000000
_cell_volume 1587.977233
_symmetry_space_group_name_H-M "P 21/M"
_symmetry_group_IT_number 11
_symmetry_cell_setting 'monoclinic'
loop_
_space_group_symop_operation_xyz
x,y,z
-x,1/2+y,-z
-x,-y,-z
x,1/2-y,z
loop_
_atom_site_type_symbol
_atom_site_label
_atom_site_fract_x
_atom_site_fract_y
_atom_site_fract_z
Si Si1 0.631893 0.435552 0.475967
Si Si2 0.030868 0.934843 0.428502
Si Si3 0.083169 0.433270 0.237304
Si Si4 0.655910 0.066266 0.810519
Si Si5 0.943899 0.064872 0.955306
Si Si6 0.755524 0.432707 0.947982
Si Si7 0.688079 0.432705 0.180256
Si Si8 0.647919 0.065574 0.580393
O O1 0.500000 0.500000 0.500000
O O2 0.617612 0.250000 0.481574
O O3 0.577448 0.485067 0.561268
O O4 0.857394 0.476911 0.351883
O O5 0.026449 0.750000 0.432329
O O6 0.233594 0.981720 0.297889
O O7 0.000000 0.000000 0.500000
O O8 0.855059 0.993605 0.485322
O O9 0.095376 0.250000 0.242240
O O10 0.195589 0.527116 0.221682
O O11 0.182459 0.470918 0.132683
O O12 0.618065 0.250000 0.828823
O O13 0.459693 0.976314 0.923206
O O14 0.977005 0.250000 0.944382
O O15 0.763208 0.023812 0.085452
O O16 0.893643 0.034324 0.923764
O O17 0.130110 0.975451 0.878626
O O18 0.765986 0.250000 0.931015
O O19 0.651165 0.250000 0.200350
O O20 0.502942 0.518346 0.298304
O O21 0.668703 0.250000 0.568686
#
# Coordination Sequence:
#
# PCOD9165332 Si02
#       8
#     4   4   4   4   4   4   4   4
#     4  10  24  42  64  92 126 166 207 255 311 369
#     4  11  25  43  66  96 128 166 210 258 312 374
#     4  11  23  43  65  90 123 161 205 254 309 366
#     4  11  24  43  65  92 122 159 205 253 307 367
#     4   9  21  41  60  87 122 161 203 250 306 363
#     4  11  24  40  63  91 122 161 204 255 310 365
#     4  10  21  38  62  90 122 162 204 251 306 362
#     4  11  23  42  65  94 128 167 208 255 314 374
#
# _framework density 20.151423000000001
#
# number of rings (size 3 to 8) (size 9 to 14) (size 15 to 20)
#    0.000    1.500    1.250    2.625    3.500    5.000 
#    0.000    0.000    0.000    0.000    0.000    0.000 
#    0.000    0.000    0.000    0.000    0.000    0.000 
#
# Total GULP energy -178926.080909 kJ/mol
# GULP energy per Si atom -5591.440028 kJ/mol
# Density = 2.010556 g / cm^3
# Si number density = 20.151423 Si / 1000 Ang^3
#
#
#
# Elastic Constant Matrix: (Units=GPa)
#
#
# Indices 1 2 3 4 5 6 
#
# 1 39.4348 -5.6469 -22.5961 0.0000 14.1092 0.0000
# 2 -5.6469 18.3588 2.3475 0.0000 5.1684 0.0000
# 3 -22.5961 2.3475 63.3758 0.0000 14.6171 0.0000
# 4 0.0000 0.0000 0.0000 30.1907 0.0000 -3.2510
# 5 14.1092 5.1684 14.6171 0.0000 27.8634 0.0000
# 6 0.0000 0.0000 0.0000 -3.2510 0.0000 33.4933
#
#
#
# Elastic Compliance Matrix: (Units=1/GPa)
#
#
# Indices 1 2 3 4 5 6 
#
# 1 0.083172 0.040444 0.045051 0.000000 -0.073251 0.000000
# 2 0.040444 0.077145 0.022282 0.000000 -0.046478 0.000000
# 3 0.045051 0.022282 0.042355 0.000000 -0.049165 0.000000
# 4 0.000000 0.000000 0.000000 0.033473 0.000000 0.003249
# 5 -0.073251 -0.046478 -0.049165 0.000000 0.107394 0.000000
# 6 0.000000 0.000000 0.000000 0.003249 0.000000 0.030172
#
#
# Mechanical properties :
#
#
# Convention : Reuss Voigt Hill
#
# Bulk Modulus (GPa) = 2.39105 7.70871 5.04988
# Shear Modulus (GPa) = 16.80293 28.11381 22.45837
#
# Velocity S-wave (km/s) = 2.89075 3.73919 3.34201
# Velocity P-wave (km/s) = 3.51156 4.74086 4.17174
#
# Compressibility (1/GPa) = 0.41822645
#
# Stress axis : x y z
#
# Youngs Moduli (GPa) = 12.02329 12.96253 23.60972
#
# Poissons Ratio (x) = -0.52425 -1.06364
# Poissons Ratio (y) = -0.48627 -0.52608
# Poissons Ratio (z) = -0.54166 -0.28883
#
# Static dielectric constant tensor:
#      x y z
#    x 1.695060 0.000000 0.017540 
#    y 0.000000 1.677220 0.000000 
#    z 0.017540 0.000000 1.724320 
# 
# From -- ./inp_files/69055.got.cif
#   From: 2010.05.17/outbox.cif.g08.bks.cpg/sg11_35_cif.got.tgz:69055.got - 2010.06.03 12:22:45.
