data_PCOD9165113
_publ_section_title
;
Structure prediction by ZEFSAII (Michael W. Deem and Ramdas Pophale) SiO2 
 PCOD9165113
Probable space group: P 21/M
;
_chemical_formula_sum "Si O2"
_cell_formula_units_Z 24
_cell_length_a 22.546406
_cell_length_b 9.202587
_cell_length_c 5.614420
_cell_angle_alpha 90.000000
_cell_angle_beta 98.444390
_cell_angle_gamma 90.000000
_cell_volume 1152.280461
_symmetry_space_group_name_H-M "P 21/M"
_symmetry_group_IT_number 11
_symmetry_cell_setting 'monoclinic'
loop_
_space_group_symop_operation_xyz
x,y,z
-x,1/2+y,-z
-x,-y,-z
x,1/2-y,z
loop_
_atom_site_type_symbol
_atom_site_label
_atom_site_fract_x
_atom_site_fract_y
_atom_site_fract_z
Si Si1 0.372770 0.084909 0.385713
Si Si2 0.742129 0.081816 0.895755
Si Si3 0.064597 0.074976 0.542027
Si Si4 0.460159 0.912057 0.163958
Si Si5 0.868373 0.575014 0.918047
Si Si6 0.654784 0.094119 0.232287
O O1 0.374387 0.250000 0.309426
O O2 0.362306 0.055860 0.655829
O O3 0.312673 0.005296 0.256097
O O4 0.436313 0.008095 0.368402
O O5 0.744873 0.250000 0.820492
O O6 0.720407 0.085060 0.158132
O O7 0.804198 0.002521 0.889775
O O8 0.058249 0.250000 0.537477
O O9 0.098851 0.036523 0.313634
O O10 0.097155 0.036903 0.813404
O O11 0.000000 0.000000 0.500000
O O12 0.483566 0.750000 0.233966
O O13 0.395967 0.892600 0.996703
O O14 0.500000 0.000000 0.000000
O O15 0.860987 0.750000 0.913739
O O16 0.649474 0.250000 0.366457
#
# Coordination Sequence:
#
# PCOD9165113 Si02
#       6
#     4   4   4   4   4   4
#     4  11  22  36  58  84 113 151 191 240 301 360
#     4  10  22  39  59  85 117 153 197 248 299 360
#     4  10  22  40  62  89 125 163 207 257 307 366
#     4  10  21  38  58  81 112 148 192 243 294 356
#     4  10  22  39  60  91 125 162 207 257 311 368
#     4   9  20  38  57  80 112 149 191 242 296 352
#
# _framework density 20.828258999999999
#
# number of rings (size 3 to 8) (size 9 to 14) (size 15 to 20)
#    0.000    2.000    0.000    4.000    2.333    6.000 
#    0.000    0.000    0.000    0.000    0.000    0.000 
#    0.000    0.000    0.000    0.000    0.000    0.000 
#
# Total GULP energy -133671.996875 kJ/mol
# GULP energy per Si atom -5569.666536 kJ/mol
# Density = 2.078085 g / cm^3
# Si number density = 20.828259 Si / 1000 Ang^3
#
#
#
# Elastic Constant Matrix: (Units=GPa)
#
#
# Indices 1 2 3 4 5 6 
#
# 1 155.8181 55.1879 47.3004 0.0000 -21.6608 0.0000
# 2 55.1879 86.4875 22.8107 0.0000 -11.8501 0.0000
# 3 47.3004 22.8107 77.6345 0.0000 -11.9805 0.0000
# 4 0.0000 0.0000 0.0000 19.1572 0.0000 -2.3648
# 5 -21.6608 -11.8501 -11.9805 0.0000 35.0579 0.0000
# 6 0.0000 0.0000 0.0000 -2.3648 0.0000 32.3399
#
#
#
# Elastic Compliance Matrix: (Units=1/GPa)
#
#
# Indices 1 2 3 4 5 6 
#
# 1 0.009755 -0.004732 -0.004085 0.000000 0.003032 0.000000
# 2 -0.004732 0.015166 -0.001302 0.000000 0.001758 0.000000
# 3 -0.004085 -0.001302 0.016147 0.000000 0.002554 0.000000
# 4 0.000000 0.000000 0.000000 0.052675 0.000000 0.003852
# 5 0.003032 0.001758 0.002554 0.000000 0.031864 0.000000
# 6 0.000000 0.000000 0.000000 0.003852 0.000000 0.031203
#
#
# Mechanical properties :
#
#
# Convention : Reuss Voigt Hill
#
# Bulk Modulus (GPa) = 48.00869 63.39313 55.70091
# Shear Modulus (GPa) = 27.17506 30.28706 28.73106
#
# Velocity S-wave (km/s) = 3.61601 3.81745 3.71809
# Velocity P-wave (km/s) = 6.36662 7.06631 6.72557
#
# Compressibility (1/GPa) = 0.02082956
#
# Stress axis : x y z
#
# Youngs Moduli (GPa) = 102.50757 65.93666 61.93263
#
# Poissons Ratio (x) = 0.31201 0.25302
# Poissons Ratio (y) = 0.48507 0.08062
# Poissons Ratio (z) = 0.41879 0.08584
#
# Static dielectric constant tensor:
#      x y z
#    x 1.691740 0.000000 -0.003930 
#    y 0.000000 1.971180 0.000000 
#    z -0.003930 0.000000 1.915380 
# 
# From -- ./inp_files/9242.got.cif
#   From: 2010.05.17/outbox.cif.g08.bks.cpg/sg11_5_cif.got.tgz:9242.got - 2010.06.03 12:22:45.
