data_PCOD9165759
_publ_section_title
;
Structure prediction by ZEFSAII (Michael W. Deem and Ramdas Pophale) SiO2 
 PCOD9165759
Probable space group: P 21/M
;
_chemical_formula_sum "Si O2"
_cell_formula_units_Z 28
_cell_length_a 15.916225
_cell_length_b 8.909175
_cell_length_c 11.848422
_cell_angle_alpha 90.000000
_cell_angle_beta 123.030393
_cell_angle_gamma 90.000000
_cell_volume 1408.574369
_symmetry_space_group_name_H-M "P 21/M"
_symmetry_group_IT_number 11
_symmetry_cell_setting 'monoclinic'
loop_
_space_group_symop_operation_xyz
x,y,z
-x,1/2+y,-z
-x,-y,-z
x,1/2-y,z
loop_
_atom_site_type_symbol
_atom_site_label
_atom_site_fract_x
_atom_site_fract_y
_atom_site_fract_z
Si Si1 0.710106 0.930848 0.880015
Si Si2 0.472216 0.429974 0.100270
Si Si3 0.388483 0.930262 0.414916
Si Si4 0.058307 0.072959 0.940032
Si Si5 0.979539 0.079614 0.310061
Si Si6 0.158009 0.077475 0.622688
Si Si7 0.645461 0.569784 0.375976
O O1 0.705233 0.750000 0.858474
O O2 0.639812 0.963063 0.936659
O O3 0.665470 0.011843 0.737356
O O4 0.825330 0.975485 0.980436
O O5 0.483892 0.250000 0.103797
O O6 0.546705 0.499247 0.248019
O O7 0.500000 0.500000 0.000000
O O8 0.393254 0.750000 0.420675
O O9 0.500000 0.000000 0.500000
O O10 0.336170 0.994239 0.489485
O O11 0.057402 0.250000 0.953658
O O12 0.007158 0.027137 0.785899
O O13 0.000000 0.000000 0.000000
O O14 0.969722 0.250000 0.263242
O O15 0.073750 0.071033 0.463256
O O16 0.882078 0.028792 0.308744
O O17 0.161799 0.250000 0.667567
O O18 0.263447 0.040542 0.643389
O O19 0.635403 0.750000 0.381660
#
# Coordination Sequence:
#
# PCOD9165759 Si02
#       7
#     4   4   4   4   4   4   4
#     4  10  24  45  66  88 124 170 211 258 317 372
#     4  11  24  42  64  93 128 167 210 258 311 373
#     4  12  24  40  64  93 125 160 205 254 308 366
#     4  11  25  44  65  91 125 167 212 261 317 376
#     4  10  21  40  64  92 123 160 207 258 310 369
#     4   9  21  40  63  90 124 164 201 250 313 370
#     4  11  23  40  64  93 126 164 206 253 312 371
#
# _framework density 19.878254999999999
#
# number of rings (size 3 to 8) (size 9 to 14) (size 15 to 20)
#    0.000    1.429    1.429    3.000    4.000    3.429 
#    0.000    0.000    0.000    0.000    0.000    0.000 
#    0.000    0.000    0.000    0.000    0.000    0.000 
#
# Total GULP energy -156553.392792 kJ/mol
# GULP energy per Si atom -5591.192600 kJ/mol
# Density = 1.983301 g / cm^3
# Si number density = 19.878255 Si / 1000 Ang^3
#
#
#
# Elastic Constant Matrix: (Units=GPa)
#
#
# Indices 1 2 3 4 5 6 
#
# 1 114.2761 45.3481 10.7508 0.0000 -5.7164 0.0000
# 2 45.3481 63.8379 20.2005 0.0000 -3.8760 0.0000
# 3 10.7508 20.2005 33.4795 0.0000 -18.5843 0.0000
# 4 0.0000 0.0000 0.0000 35.5970 0.0000 -7.5189
# 5 -5.7164 -3.8760 -18.5843 0.0000 31.3760 0.0000
# 6 0.0000 0.0000 0.0000 -7.5189 0.0000 34.5063
#
#
#
# Elastic Compliance Matrix: (Units=1/GPa)
#
#
# Indices 1 2 3 4 5 6 
#
# 1 0.012469 -0.009848 0.003760 0.000000 0.003282 0.000000
# 2 -0.009848 0.028148 -0.019199 0.000000 -0.009689 0.000000
# 3 0.003760 -0.019199 0.058565 0.000000 0.033002 0.000000
# 4 0.000000 0.000000 0.000000 0.029448 0.000000 0.006417
# 5 0.003282 -0.009689 0.033002 0.000000 0.050820 0.000000
# 6 0.000000 0.000000 0.000000 0.006417 0.000000 0.030378
#
#
# Mechanical properties :
#
#
# Convention : Reuss Voigt Hill
#
# Bulk Modulus (GPa) = 20.57312 40.46580 30.51946
# Shear Modulus (GPa) = 18.07629 29.31546 23.69588
#
# Velocity S-wave (km/s) = 3.01881 3.84441 3.45635
# Velocity P-wave (km/s) = 4.74584 6.33301 5.59598
#
# Compressibility (1/GPa) = 0.04860710
#
# Stress axis : x y z
#
# Youngs Moduli (GPa) = 80.19720 35.52708 17.07497
#
# Poissons Ratio (x) = 0.34988 -0.06420
# Poissons Ratio (y) = 0.78980 0.32783
# Poissons Ratio (z) = -0.30154 0.68209
#
# Static dielectric constant tensor:
#      x y z
#    x 1.699330 0.000000 0.002950 
#    y 0.000000 1.671770 0.000000 
#    z 0.002950 0.000000 1.686380 
# 
# From -- ./inp_files/38475.got.cif
#   From: 2010.05.17/outbox.cif.g08.bks.cpg/sg11_20_cif.got.tgz:38475.got - 2010.06.03 12:22:45.
