data_PCOD9165891
_publ_section_title
;
Structure prediction by ZEFSAII (Michael W. Deem and Ramdas Pophale) SiO2 
 PCOD9165891
Probable space group: P 21/M
;
_chemical_formula_sum "Si O2"
_cell_formula_units_Z 20
_cell_length_a 12.518513
_cell_length_b 13.896607
_cell_length_c 4.803330
_cell_angle_alpha 90.000000
_cell_angle_beta 78.453655
_cell_angle_gamma 90.000000
_cell_volume 818.700458
_symmetry_space_group_name_H-M "P 21/M"
_symmetry_group_IT_number 11
_symmetry_cell_setting 'monoclinic'
loop_
_space_group_symop_operation_xyz
x,y,z
-x,1/2+y,-z
-x,-y,-z
x,1/2-y,z
loop_
_atom_site_type_symbol
_atom_site_label
_atom_site_fract_x
_atom_site_fract_y
_atom_site_fract_z
Si Si1 0.731115 0.076828 0.507895
Si Si2 0.575918 0.750000 0.573472
Si Si3 0.428305 0.589532 0.926999
Si Si4 0.286619 0.250000 0.007973
Si Si5 0.065570 0.923232 0.281912
Si Si6 0.846173 0.918915 0.190649
O O1 0.639179 0.116152 0.763478
O O2 0.842971 0.124637 0.569817
O O3 0.773191 0.964971 0.478060
O O4 0.668957 0.079092 0.246510
O O5 0.601240 0.750000 0.233821
O O6 0.510854 0.659365 0.726124
O O7 0.690065 0.750000 0.678441
O O8 0.500000 0.500000 0.000000
O O9 0.223837 0.344761 0.946683
O O10 0.960878 0.868845 0.212337
O O11 0.000000 0.000000 0.500000
O O12 0.121272 0.985918 0.007400
#
# Coordination Sequence:
#
# PCOD9165891 Si02
#       6
#     4   2   4   2   4   4
#     4  11  21  40  68  93 125 175 218 264 323 387
#     4  12  28  46  62 101 132 173 226 288 322 390
#     4  12  24  42  66  93 129 176 226 268 326 388
#     4  12  26  42  68  93 140 165 210 282 340 378
#     4   9  20  38  69  97 128 162 222 261 319 408
#     4  10  21  41  66 104 129 172 217 268 332 405
#
# _framework density 24.428958999999999
#
# number of rings (size 3 to 8) (size 9 to 14) (size 15 to 20)
#    0.000    1.200    2.000    4.200    5.600    0.000 
#    0.000    2.000    0.000    3.600    0.000    0.000 
#    0.000    0.000    0.000    0.000    0.000    0.000 
#
# Total GULP energy -111459.695045 kJ/mol
# GULP energy per Si atom -5572.984752 kJ/mol
# Density = 2.437336 g / cm^3
# Si number density = 24.428959 Si / 1000 Ang^3
#
#
#
# Elastic Constant Matrix: (Units=GPa)
#
#
# Indices 1 2 3 4 5 6 
#
# 1 105.2525 9.2954 16.6527 0.0000 23.5642 0.0000
# 2 9.2954 47.7326 -1.3274 0.0000 1.4924 0.0000
# 3 16.6527 -1.3274 101.8754 0.0000 15.4512 0.0000
# 4 0.0000 0.0000 0.0000 13.1586 0.0000 -4.0880
# 5 23.5642 1.4924 15.4512 0.0000 53.9787 0.0000
# 6 0.0000 0.0000 0.0000 -4.0880 0.0000 26.7087
#
#
#
# Elastic Compliance Matrix: (Units=1/GPa)
#
#
# Indices 1 2 3 4 5 6 
#
# 1 0.010831 -0.002005 -0.001137 0.000000 -0.004347 0.000000
# 2 -0.002005 0.021353 0.000588 0.000000 0.000117 0.000000
# 3 -0.001137 0.000588 0.010388 0.000000 -0.002493 0.000000
# 4 0.000000 0.000000 0.000000 0.079790 0.000000 0.012213
# 5 -0.004347 0.000117 -0.002493 0.000000 0.021134 0.000000
# 6 0.000000 0.000000 0.000000 0.012213 0.000000 0.039310
#
#
# Mechanical properties :
#
#
# Convention : Reuss Voigt Hill
#
# Bulk Modulus (GPa) = 26.69216 33.78911 30.24063
# Shear Modulus (GPa) = 24.94977 34.11851 29.53414
#
# Velocity S-wave (km/s) = 3.19928 3.74122 3.48081
# Velocity P-wave (km/s) = 4.95957 5.70297 5.34421
#
# Compressibility (1/GPa) = 0.03746419
#
# Stress axis : x y z
#
# Youngs Moduli (GPa) = 92.32526 46.83137 96.26853
#
# Poissons Ratio (x) = 0.09390 0.10948
# Poissons Ratio (y) = 0.18511 -0.05663
# Poissons Ratio (z) = 0.10500 -0.02755
#
# Static dielectric constant tensor:
#      x y z
#    x 2.088420 0.000000 0.073670 
#    y 0.000000 1.961890 0.000000 
#    z 0.073670 0.000000 2.132450 
# 
# From -- ./inp_files/4323.got.cif
#   From: 2010.05.17/outbox.cif.g08.bks.cpg/sg11_3_cif.got.tgz:4323.got - 2010.06.03 12:22:45.
