data_PCOD9165793
_publ_section_title
;
Structure prediction by ZEFSAII (Michael W. Deem and Ramdas Pophale) SiO2 
 PCOD9165793
Probable space group: P 21/M
;
_chemical_formula_sum "Si O2"
_cell_formula_units_Z 28
_cell_length_a 9.630902
_cell_length_b 13.629359
_cell_length_c 12.594913
_cell_angle_alpha 90.000000
_cell_angle_beta 127.469662
_cell_angle_gamma 90.000000
_cell_volume 1312.141217
_symmetry_space_group_name_H-M "P 21/M"
_symmetry_group_IT_number 11
_symmetry_cell_setting 'monoclinic'
loop_
_space_group_symop_operation_xyz
x,y,z
-x,1/2+y,-z
-x,-y,-z
x,1/2-y,z
loop_
_atom_site_type_symbol
_atom_site_label
_atom_site_fract_x
_atom_site_fract_y
_atom_site_fract_z
Si Si1 0.948088 0.631571 0.038503
Si Si2 0.945255 0.868007 0.793589
Si Si3 0.811270 0.469062 0.452661
Si Si4 0.226287 0.632857 0.343610
Si Si5 0.724300 0.065056 0.190086
Si Si6 0.631191 0.633481 0.492356
Si Si7 0.355263 0.363843 0.940982
O O1 0.962177 0.750000 0.039974
O O2 0.762856 0.612297 0.009950
O O3 0.100824 0.598579 0.190023
O O4 0.961196 0.598093 0.923001
O O5 0.962659 0.750000 0.802072
O O6 0.757842 0.888587 0.651711
O O7 0.099265 0.907701 0.790031
O O8 0.828093 0.409184 0.568613
O O9 0.729701 0.409873 0.316751
O O10 0.700889 0.565454 0.430891
O O11 0.000000 0.500000 0.500000
O O12 0.211007 0.750000 0.340472
O O13 0.429729 0.609809 0.420307
O O14 0.698785 0.947429 0.167556
O O15 0.558672 0.118027 0.060230
O O16 0.645779 0.750000 0.476673
O O17 0.323305 0.250000 0.896807
#
# Coordination Sequence:
#
# PCOD9165793 Si02
#       7
#     4   4   4   4   4   4   4
#     4   9  20  40  66  91 122 167 218 268 317 375
#     4  10  21  40  65  95 129 166 216 271 323 381
#     4  12  24  41  63  94 136 169 213 264 324 396
#     4  10  23  42  66  96 128 172 221 269 327 385
#     4  11  24  40  64  97 129 172 213 261 327 390
#     4  10  23  43  65  93 129 172 220 270 326 383
#     4  10  23  43  63  92 130 168 217 267 320 382
#
# _framework density 21.339168000000001
#
# number of rings (size 3 to 8) (size 9 to 14) (size 15 to 20)
#    0.000    1.714    1.429    1.714    2.000    5.143 
#    0.000    1.429    0.000    0.000    0.000    0.000 
#    0.000    0.000    0.000    0.000    0.000    0.000 
#
# Total GULP energy -156572.614491 kJ/mol
# GULP energy per Si atom -5591.879089 kJ/mol
# Density = 2.129060 g / cm^3
# Si number density = 21.339168 Si / 1000 Ang^3
#
#
#
# Elastic Constant Matrix: (Units=GPa)
#
#
# Indices 1 2 3 4 5 6 
#
# 1 144.6451 35.7662 65.0868 0.0000 4.2064 0.0000
# 2 35.7662 80.7064 27.3457 0.0000 -3.1378 0.0000
# 3 65.0868 27.3457 96.3708 0.0000 -11.4223 0.0000
# 4 0.0000 0.0000 0.0000 24.2215 0.0000 -4.7688
# 5 4.2064 -3.1378 -11.4223 0.0000 39.8952 0.0000
# 6 0.0000 0.0000 0.0000 -4.7688 0.0000 29.8865
#
#
#
# Elastic Compliance Matrix: (Units=1/GPa)
#
#
# Indices 1 2 3 4 5 6 
#
# 1 0.010763 -0.002547 -0.006940 0.000000 -0.003322 0.000000
# 2 -0.002547 0.014312 -0.002252 0.000000 0.000750 0.000000
# 3 -0.006940 -0.002252 0.016322 0.000000 0.005228 0.000000
# 4 0.000000 0.000000 0.000000 0.042625 0.000000 0.006801
# 5 -0.003322 0.000750 0.005228 0.000000 0.026972 0.000000
# 6 0.000000 0.000000 0.000000 0.006801 0.000000 0.034545
#
#
# Mechanical properties :
#
#
# Convention : Reuss Voigt Hill
#
# Bulk Modulus (GPa) = 55.80783 64.23551 60.02167
# Shear Modulus (GPa) = 28.57330 31.70222 30.13776
#
# Velocity S-wave (km/s) = 3.66321 3.85858 3.76216
# Velocity P-wave (km/s) = 6.64091 7.07241 6.86006
#
# Compressibility (1/GPa) = 0.01791863
#
# Stress axis : x y z
#
# Youngs Moduli (GPa) = 92.91329 69.87346 61.26648
#
# Poissons Ratio (x) = 0.17800 0.42518
# Poissons Ratio (y) = 0.23669 0.13795
# Poissons Ratio (z) = 0.64480 0.15733
#
# Static dielectric constant tensor:
#      x y z
#    x 1.717350 0.000000 0.006310 
#    y 0.000000 1.813550 0.000000 
#    z 0.006310 0.000000 1.784250 
# 
# From -- ./inp_files/31953.got.cif
#   From: 2010.05.17/outbox.cif.g08.bks.cpg/sg11_16_cif.got.tgz:31953.got - 2010.06.03 12:22:45.
