data_PCOD9165974
_publ_section_title
;
Structure prediction by ZEFSAII (Michael W. Deem and Ramdas Pophale) SiO2 
 PCOD9165974
Probable space group: P 21/M
;
_chemical_formula_sum "Si O2"
_cell_formula_units_Z 20
_cell_length_a 12.241654
_cell_length_b 14.095094
_cell_length_c 7.787565
_cell_angle_alpha 90.000000
_cell_angle_beta 144.207840
_cell_angle_gamma 90.000000
_cell_volume 785.871966
_symmetry_space_group_name_H-M "P 21/M"
_symmetry_group_IT_number 11
_symmetry_cell_setting 'monoclinic'
loop_
_space_group_symop_operation_xyz
x,y,z
-x,1/2+y,-z
-x,-y,-z
x,1/2-y,z
loop_
_atom_site_type_symbol
_atom_site_label
_atom_site_fract_x
_atom_site_fract_y
_atom_site_fract_z
Si Si1 0.448598 0.864909 0.803488
Si Si2 0.138754 0.852510 0.923959
Si Si3 0.298409 0.360576 0.543719
Si Si4 0.070409 0.910958 0.474214
Si Si5 0.702855 0.559497 0.825407
O O1 0.427844 0.750000 0.766006
O O2 0.552637 0.905478 0.770836
O O3 0.249774 0.914912 0.581486
O O4 0.581110 0.887320 0.136190
O O5 0.202664 0.750000 0.076261
O O6 0.923197 0.868619 0.703428
O O7 0.134702 0.845253 0.712196
O O8 0.250533 0.947401 0.110073
O O9 0.338925 0.250000 0.566911
O O10 0.343405 0.412539 0.425923
O O11 0.000000 0.000000 0.500000
O O12 0.893602 0.887851 0.131405
#
# Coordination Sequence:
#
# PCOD9165974 Si02
#       5
#     4   4   4   4   4
#     4  11  24  44  74 108 149 194 240 302 371 437
#     4  10  21  42  69 101 144 196 243 299 370 433
#     4  10  22  42  71 106 146 192 248 306 366 436
#     4  10  23  44  72 103 140 191 240 295 367 436
#     4  11  23  45  74 107 145 194 248 304 364 437
#
# _framework density 25.449439999999999
#
# number of rings (size 3 to 8) (size 9 to 14) (size 15 to 20)
#    0.000    1.600    2.000    1.800    0.000    5.600 
#    3.600    4.000    0.000    1.200    0.000    0.000 
#    0.000    0.000    0.000    0.000    0.000    0.000 
#
# Total GULP energy -112109.877726 kJ/mol
# GULP energy per Si atom -5605.493886 kJ/mol
# Density = 2.539152 g / cm^3
# Si number density = 25.449440 Si / 1000 Ang^3
#
#
#
# Elastic Constant Matrix: (Units=GPa)
#
#
# Indices 1 2 3 4 5 6 
#
# 1 228.0569 65.5134 71.8986 0.0000 9.1459 0.0000
# 2 65.5134 144.8050 20.6289 0.0000 -2.9122 0.0000
# 3 71.8986 20.6289 97.0291 0.0000 -17.1029 0.0000
# 4 0.0000 0.0000 0.0000 -66.9260 0.0000 -9.2112
# 5 9.1459 -2.9122 -17.1029 0.0000 51.1915 0.0000
# 6 0.0000 0.0000 0.0000 -9.2112 0.0000 20.8085
#
#
#
# Elastic Compliance Matrix: (Units=1/GPa)
#
#
# Indices 1 2 3 4 5 6 
#
# 1 0.006795 -0.002415 -0.005058 0.000000 -0.003041 0.000000
# 2 -0.002415 0.007980 0.000264 0.000000 0.000974 0.000000
# 3 -0.005058 0.000264 0.015046 0.000000 0.005945 0.000000
# 4 0.000000 0.000000 0.000000 -0.014084 0.000000 -0.006234
# 5 -0.003041 0.000974 0.005945 0.000000 0.022120 0.000000
# 6 0.000000 0.000000 0.000000 -0.006234 0.000000 0.045297
#
#
# Mechanical properties :
#
#
# Convention : Reuss Voigt Hill
#
# Bulk Modulus (GPa) = 64.91552 87.33030 76.12291
# Shear Modulus (GPa) = 48.68272 21.80483 35.24378
#
# Velocity S-wave (km/s) = 4.37844 2.93027 3.72540
# Velocity P-wave (km/s) = 7.15010 6.77040 6.96284
#
# Compressibility (1/GPa) = 0.01540464
#
# Stress axis : x y z
#
# Youngs Moduli (GPa) = 147.16447 125.30836 66.46376
#
# Poissons Ratio (x) = 0.30261 0.33616
# Poissons Ratio (y) = 0.35539 -0.01758
# Poissons Ratio (z) = 0.74433 -0.03314
#
# Static dielectric constant tensor:
#      x y z
#    x 1.971260 0.000000 0.049500 
#    y 0.000000 2.027260 0.000000 
#    z 0.049500 0.000000 1.998130 
# 
# From -- ./inp_files/24852.got.cif
#   From: 2010.05.17/outbox.cif.g08.bks.cpg/sg11_13_cif.got.tgz:24852.got - 2010.06.03 12:22:45.
