data_PCOD9165457
_publ_section_title
;
Structure prediction by ZEFSAII (Michael W. Deem and Ramdas Pophale) SiO2 
 PCOD9165457
Probable space group: P 21/M
;
_chemical_formula_sum "Si O2"
_cell_formula_units_Z 32
_cell_length_a 5.192203
_cell_length_b 14.029253
_cell_length_c 20.002172
_cell_angle_alpha 90.000000
_cell_angle_beta 74.726747
_cell_angle_gamma 90.000000
_cell_volume 1405.551834
_symmetry_space_group_name_H-M "P 21/M"
_symmetry_group_IT_number 11
_symmetry_cell_setting 'monoclinic'
loop_
_space_group_symop_operation_xyz
x,y,z
-x,1/2+y,-z
-x,-y,-z
x,1/2-y,z
loop_
_atom_site_type_symbol
_atom_site_label
_atom_site_fract_x
_atom_site_fract_y
_atom_site_fract_z
Si Si1 0.122563 0.570729 0.074030
Si Si2 0.626004 0.439706 0.071807
Si Si3 0.037124 0.519136 0.313026
Si Si4 0.815758 0.859504 0.218463
Si Si5 0.499915 0.559438 0.779017
Si Si6 0.369693 0.858449 0.645417
Si Si7 0.347755 0.147242 0.508138
Si Si8 0.187007 0.567019 0.440855
O O1 0.339952 0.489104 0.077454
O O2 0.846712 0.523114 0.067710
O O3 0.042748 0.630742 0.144919
O O4 0.265361 0.617856 0.999540
O O5 0.599853 0.393119 0.146286
O O6 0.924082 0.612383 0.284697
O O7 0.833079 0.443159 0.357726
O O8 0.185202 0.461021 0.244279
O O9 0.233664 0.541350 0.360585
O O10 0.712991 0.750000 0.223931
O O11 0.623610 0.951414 0.217492
O O12 0.443726 0.620643 0.716947
O O13 0.264050 0.750000 0.646693
O O14 0.604858 0.867082 0.574511
O O15 0.468446 0.250000 0.513912
O O16 0.538172 0.082742 0.540263
O O17 0.039586 0.147918 0.548374
O O18 0.000000 0.500000 0.500000
#
# Coordination Sequence:
#
# PCOD9165457 Si02
#       8
#     4   4   4   4   4   4   4   4
#     4   9  17  34  57  88 113 162 202 252 295 353
#     4   9  17  33  61  85 119 152 207 246 301 358
#     4  11  23  39  63  88 124 165 209 254 322 375
#     4  10  22  38  57  88 130 168 211 253 302 374
#     4  10  21  39  60  93 121 168 204 255 314 376
#     4  10  23  41  64  89 118 157 208 267 324 381
#     4  11  25  44  64  91 121 161 210 264 321 380
#     4  12  24  41  66  89 122 162 207 264 319 381
#
# _framework density 22.766860999999999
#
# number of rings (size 3 to 8) (size 9 to 14) (size 15 to 20)
#    0.000    1.750    2.500    1.500    3.500    2.000 
#    0.000    0.625    0.000    0.000    0.000    0.000 
#    0.000    0.000    0.000    0.000    0.000    0.000 
#
# Total GULP energy -178267.190311 kJ/mol
# GULP energy per Si atom -5570.849697 kJ/mol
# Density = 2.271504 g / cm^3
# Si number density = 22.766861 Si / 1000 Ang^3
#
#
#
# Elastic Constant Matrix: (Units=GPa)
#
#
# Indices 1 2 3 4 5 6 
#
# 1 68.8103 15.1000 13.6930 0.0000 2.2100 0.0000
# 2 15.1000 78.3277 28.2365 0.0000 -0.3571 0.0000
# 3 13.6930 28.2365 155.4285 0.0000 -3.9548 0.0000
# 4 0.0000 0.0000 0.0000 18.5707 0.0000 -0.8478
# 5 2.2100 -0.3571 -3.9548 0.0000 38.0715 0.0000
# 6 0.0000 0.0000 0.0000 -0.8478 0.0000 12.6772
#
#
#
# Elastic Compliance Matrix: (Units=1/GPa)
#
#
# Indices 1 2 3 4 5 6 
#
# 1 0.015322 -0.002635 -0.000897 0.000000 -0.001007 0.000000
# 2 -0.002635 0.014115 -0.002331 0.000000 0.000043 0.000000
# 3 -0.000897 -0.002331 0.006955 0.000000 0.000753 0.000000
# 4 0.000000 0.000000 0.000000 0.054013 0.000000 0.003612
# 5 -0.001007 0.000043 0.000753 0.000000 0.026403 0.000000
# 6 0.000000 0.000000 0.000000 0.003612 0.000000 0.079123
#
#
# Mechanical properties :
#
#
# Convention : Reuss Voigt Hill
#
# Bulk Modulus (GPa) = 40.54021 46.29172 43.41596
# Shear Modulus (GPa) = 23.16095 30.23301 26.69698
#
# Velocity S-wave (km/s) = 3.19299 3.64804 3.42808
# Velocity P-wave (km/s) = 5.60704 6.17425 5.89747
#
# Compressibility (1/GPa) = 0.02466687
#
# Stress axis : x y z
#
# Youngs Moduli (GPa) = 65.26667 70.84460 143.77178
#
# Poissons Ratio (x) = 0.18668 0.12893
# Poissons Ratio (y) = 0.17198 0.33514
# Poissons Ratio (z) = 0.05853 0.16515
#
# Static dielectric constant tensor:
#      x y z
#    x 1.914140 0.000000 0.004720 
#    y 0.000000 2.036680 0.000000 
#    z 0.004720 0.000000 1.888880 
# 
# From -- ./inp_files/62844.got.cif
#   From: 2010.05.17/outbox.cif.g08.bks.cpg/sg11_32_cif.got.tgz:62844.got - 2010.06.03 12:22:45.
