data_PCOD9165609
_publ_section_title
;
Structure prediction by ZEFSAII (Michael W. Deem and Ramdas Pophale) SiO2 
 PCOD9165609
Probable space group: P 21/M
;
_chemical_formula_sum "Si O2"
_cell_formula_units_Z 24
_cell_length_a 9.121691
_cell_length_b 24.208111
_cell_length_c 5.092550
_cell_angle_alpha 90.000000
_cell_angle_beta 102.629390
_cell_angle_gamma 90.000000
_cell_volume 1097.322999
_symmetry_space_group_name_H-M "P 21/M"
_symmetry_group_IT_number 11
_symmetry_cell_setting 'monoclinic'
loop_
_space_group_symop_operation_xyz
x,y,z
-x,1/2+y,-z
-x,-y,-z
x,1/2-y,z
loop_
_atom_site_type_symbol
_atom_site_label
_atom_site_fract_x
_atom_site_fract_y
_atom_site_fract_z
Si Si1 0.463365 0.686100 0.271336
Si Si2 0.335158 0.313053 0.142091
Si Si3 0.623171 0.976208 0.856200
Si Si4 0.643546 0.079480 0.514212
Si Si5 0.894203 0.595619 0.082975
Si Si6 0.941822 0.059965 0.371258
O O1 0.405963 0.750000 0.239040
O O2 0.596375 0.685764 0.539908
O O3 0.354054 0.637704 0.332898
O O4 0.534357 0.670824 0.017234
O O5 0.299056 0.250000 0.061120
O O6 0.189617 0.350006 0.048225
O O7 0.528488 0.933187 0.641046
O O8 0.756760 0.947249 0.059483
O O9 0.682424 0.026681 0.708274
O O10 0.500000 0.000000 0.000000
O O11 0.765434 0.073197 0.331995
O O12 0.999414 0.571383 0.896139
O O13 0.979057 0.600989 0.388974
O O14 0.000000 0.000000 0.500000
#
# Coordination Sequence:
#
# PCOD9165609 Si02
#       6
#     4   4   4   4   4   4
#     4  10  21  39  64  93 122 158 207 267 319 363
#     4  10  21  40  66  93 122 159 213 265 310 364
#     4  11  23  37  65  90 122 159 217 260 302 371
#     4  11  24  39  60  94 123 164 209 260 313 371
#     4  12  24  42  63  91 126 168 211 250 315 382
#     4  12  26  42  60  91 135 172 201 251 327 380
#
# _framework density 21.871407000000001
#
# number of rings (size 3 to 8) (size 9 to 14) (size 15 to 20)
#    0.000    1.000    3.333    3.500    4.667    0.000 
#    0.000    1.667    0.000    0.000    0.000    0.000 
#    0.000    0.000    0.000    0.000    0.000    0.000 
#
# Total GULP energy -134242.727040 kJ/mol
# GULP energy per Si atom -5593.446960 kJ/mol
# Density = 2.182163 g / cm^3
# Si number density = 21.871407 Si / 1000 Ang^3
#
#
#
# Elastic Constant Matrix: (Units=GPa)
#
#
# Indices 1 2 3 4 5 6 
#
# 1 88.4692 20.6342 7.2966 0.0000 -7.5374 0.0000
# 2 20.6342 100.7649 -13.5991 0.0000 -8.7208 0.0000
# 3 7.2966 -13.5991 63.3186 0.0000 -0.1332 0.0000
# 4 0.0000 0.0000 0.0000 27.1629 0.0000 -3.2147
# 5 -7.5374 -8.7208 -0.1332 0.0000 40.0318 0.0000
# 6 0.0000 0.0000 0.0000 -3.2147 0.0000 27.5641
#
#
#
# Elastic Compliance Matrix: (Units=1/GPa)
#
#
# Indices 1 2 3 4 5 6 
#
# 1 0.012223 -0.002619 -0.001968 0.000000 0.001724 0.000000
# 2 -0.002619 0.010985 0.002665 0.000000 0.001909 0.000000
# 3 -0.001968 0.002665 0.016593 0.000000 0.000265 0.000000
# 4 0.000000 0.000000 0.000000 0.037330 0.000000 0.004354
# 5 0.001724 0.001909 0.000265 0.000000 0.025722 0.000000
# 6 0.000000 0.000000 0.000000 0.004354 0.000000 0.036787
#
#
# Mechanical properties :
#
#
# Convention : Reuss Voigt Hill
#
# Bulk Modulus (GPa) = 27.80996 31.24623 29.52809
# Shear Modulus (GPa) = 32.16061 34.83317 33.49689
#
# Velocity S-wave (km/s) = 3.83879 3.99511 3.91773
# Velocity P-wave (km/s) = 5.69133 5.96645 5.83052
#
# Compressibility (1/GPa) = 0.03595834
#
# Stress axis : x y z
#
# Youngs Moduli (GPa) = 81.80968 91.03021 60.26689
#
# Poissons Ratio (x) = 0.23844 0.11858
# Poissons Ratio (y) = 0.21429 -0.16062
# Poissons Ratio (z) = 0.16096 -0.24262
#
# Static dielectric constant tensor:
#      x y z
#    x 1.808000 0.000000 -0.001420 
#    y 0.000000 1.856300 0.000000 
#    z -0.001420 0.000000 1.846660 
# 
# From -- ./inp_files/2731.got.cif
#   From: 2010.05.17/outbox.cif.g08.bks.cpg/sg11_2_cif.got.tgz:2731.got - 2010.06.03 12:22:45.
