data_PCOD9165314
_publ_section_title
;
Structure prediction by ZEFSAII (Michael W. Deem and Ramdas Pophale) SiO2 
 PCOD9165314
Probable space group: P 21/M
;
_chemical_formula_sum "Si O2"
_cell_formula_units_Z 32
_cell_length_a 14.827783
_cell_length_b 14.817466
_cell_length_c 11.188977
_cell_angle_alpha 90.000000
_cell_angle_beta 29.611700
_cell_angle_gamma 90.000000
_cell_volume 1214.709580
_symmetry_space_group_name_H-M "P 21/M"
_symmetry_group_IT_number 11
_symmetry_cell_setting 'monoclinic'
loop_
_space_group_symop_operation_xyz
x,y,z
-x,1/2+y,-z
-x,-y,-z
x,1/2-y,z
loop_
_atom_site_type_symbol
_atom_site_label
_atom_site_fract_x
_atom_site_fract_y
_atom_site_fract_z
Si Si1 0.516170 0.390484 0.466208
Si Si2 0.157988 0.854098 0.309461
Si Si3 0.250337 0.897655 0.586800
Si Si4 0.424023 0.358561 0.191864
Si Si5 0.419949 0.354006 0.933348
Si Si6 0.934098 0.902802 0.790694
Si Si7 0.134485 0.889953 0.073688
Si Si8 0.806680 0.899935 0.308516
O O1 0.500000 0.500000 0.500000
O O2 0.621288 0.353636 0.460512
O O3 0.315573 0.360362 0.656981
O O4 0.657290 0.368939 0.197288
O O5 0.161649 0.750000 0.347638
O O6 0.078107 0.853694 0.267708
O O7 0.048038 0.907393 0.535974
O O8 0.364547 0.888658 0.054631
O O9 0.402941 0.910513 0.307666
O O10 0.070686 0.858994 0.730385
O O11 0.185192 0.992268 0.718220
O O12 0.426457 0.250000 0.200533
O O13 0.307720 0.391739 0.436700
O O14 0.349886 0.380997 0.145236
O O15 0.481749 0.250000 0.870538
O O16 0.257297 0.359877 0.025796
O O17 0.886926 0.002543 0.890347
O O18 0.002089 0.860587 0.118354
#
# Coordination Sequence:
#
# PCOD9165314 Si02
#       8
#     4   4   4   4   4   4   4   4
#     4  10  21  40  62  86 120 160 200 252 299 347
#     4  11  22  39  62  89 126 163 192 242 306 364
#     4  10  23  39  60  88 118 158 199 251 296 350
#     4  10  21  38  62  88 120 160 197 240 303 365
#     4  11  23  39  61  86 119 162 198 242 302 363
#     4  11  22  38  61  93 123 155 198 247 299 357
#     4  11  23  39  63  94 120 157 204 248 300 357
#     4  10  21  38  63  90 116 153 197 249 300 351
#
# _framework density 26.343745999999999
#
# number of rings (size 3 to 8) (size 9 to 14) (size 15 to 20)
#    0.000    1.500    2.500    3.000    0.000    9.000 
#    0.000    1.250    0.000    1.500    0.000    0.000 
#    0.000    0.000    0.000    0.000    0.000    0.000 
#
# Total GULP energy -179098.027216 kJ/mol
# GULP energy per Si atom -5596.813351 kJ/mol
# Density = 2.628379 g / cm^3
# Si number density = 26.343746 Si / 1000 Ang^3
#
#
#
# Elastic Constant Matrix: (Units=GPa)
#
#
# Indices 1 2 3 4 5 6 
#
# 1 190.7514 3.8806 24.5444 0.0000 -35.6791 0.0000
# 2 3.8806 65.6786 -0.5986 0.0000 -2.7711 0.0000
# 3 24.5444 -0.5986 114.6577 0.0000 -10.9601 0.0000
# 4 0.0000 0.0000 0.0000 -34.4520 0.0000 0.7254
# 5 -35.6791 -2.7711 -10.9601 0.0000 56.9476 0.0000
# 6 0.0000 0.0000 0.0000 0.7254 0.0000 51.9406
#
#
#
# Elastic Compliance Matrix: (Units=1/GPa)
#
#
# Indices 1 2 3 4 5 6 
#
# 1 0.006041 -0.000214 -0.000951 0.000000 0.003591 0.000000
# 2 -0.000214 0.015267 0.000187 0.000000 0.000645 0.000000
# 3 -0.000951 0.000187 0.009036 0.000000 0.001152 0.000000
# 4 0.000000 0.000000 0.000000 -0.029017 0.000000 0.000405
# 5 0.003591 0.000645 0.001152 0.000000 0.020063 0.000000
# 6 0.000000 0.000000 0.000000 0.000405 0.000000 0.019247
#
#
# Mechanical properties :
#
#
# Convention : Reuss Voigt Hill
#
# Bulk Modulus (GPa) = 35.22530 47.41561 41.32046
# Shear Modulus (GPa) = 96.05028 37.77132 66.91080
#
# Velocity S-wave (km/s) = 6.04479 3.79065 5.04522
# Velocity P-wave (km/s) = 7.88161 6.09890 7.04686
#
# Compressibility (1/GPa) = 0.02838869
#
# Stress axis : x y z
#
# Youngs Moduli (GPa) = 165.53869 65.49981 110.66451
#
# Poissons Ratio (x) = 0.01402 0.10524
# Poissons Ratio (y) = 0.03544 -0.02071
# Poissons Ratio (z) = 0.15742 -0.01226
#
# Static dielectric constant tensor:
#      x y z
#    x 2.115480 0.000000 0.002410 
#    y 0.000000 2.002470 0.000000 
#    z 0.002410 0.000000 2.027760 
# 
# From -- ./inp_files/39963.got.cif
#   From: 2010.05.17/outbox.cif.g08.bks.cpg/sg11_20_cif.got.tgz:39963.got - 2010.06.03 12:22:45.
