data_PCOD9165928
_publ_section_title
;
Structure prediction by ZEFSAII (Michael W. Deem and Ramdas Pophale) SiO2 
 PCOD9165928
Probable space group: P 21/M
;
_chemical_formula_sum "Si O2"
_cell_formula_units_Z 30
_cell_length_a 13.855633
_cell_length_b 7.759718
_cell_length_c 11.492068
_cell_angle_alpha 90.000000
_cell_angle_beta 104.711920
_cell_angle_gamma 90.000000
_cell_volume 1195.070409
_symmetry_space_group_name_H-M "P 21/M"
_symmetry_group_IT_number 11
_symmetry_cell_setting 'monoclinic'
loop_
_space_group_symop_operation_xyz
x,y,z
-x,1/2+y,-z
-x,-y,-z
x,1/2-y,z
loop_
_atom_site_type_symbol
_atom_site_label
_atom_site_fract_x
_atom_site_fract_y
_atom_site_fract_z
Si Si1 0.333653 0.559294 0.145288
Si Si2 0.120286 0.445699 0.091316
Si Si3 0.509570 0.750000 0.101606
Si Si4 0.132388 0.043685 0.846408
Si Si5 0.061586 0.457366 0.326102
Si Si6 0.665302 0.439020 0.193934
Si Si7 0.772769 0.552586 0.457695
Si Si8 0.607639 0.045972 0.581681
O O1 0.287603 0.750000 0.151921
O O2 0.239658 0.440323 0.103014
O O3 0.419261 0.599448 0.078759
O O4 0.390025 0.508781 0.280724
O O5 0.085509 0.250000 0.088110
O O6 0.105239 0.524145 0.214988
O O7 0.085211 0.517793 0.955309
O O8 0.593130 0.598537 0.150041
O O9 0.144335 0.250000 0.853966
O O10 0.237730 0.954114 0.858552
O O11 0.054678 0.001199 0.720069
O O12 0.073524 0.250000 0.332840
O O13 0.125667 0.521727 0.455138
O O14 0.616247 0.250000 0.169875
O O15 0.716020 0.456814 0.337080
O O16 0.788948 0.750000 0.423031
O O17 0.694990 0.550899 0.541353
O O18 0.623850 0.250000 0.571213
O O19 0.500000 0.000000 0.500000
#
# Coordination Sequence:
#
# PCOD9165928 Si02
#       8
#     4   4   2   4   4   4   4   4
#     4   9  21  37  60  91 131 169 210 278 324 393
#     4  10  21  41  68  98 136 173 222 275 339 404
#     4  10  22  46  68  98 138 170 238 278 330 398
#     4  11  24  43  69  96 132 177 226 285 333 400
#     4  10  22  40  65 103 136 175 222 271 342 408
#     4  12  25  45  72  94 133 187 228 277 336 399
#     4  11  22  39  63  93 139 175 216 282 323 394
#     4  11  21  33  55  90 126 172 218 260 335 397
#
# _framework density 25.103121999999999
#
# number of rings (size 3 to 8) (size 9 to 14) (size 15 to 20)
#    0.400    1.067    2.667    2.400    0.000    4.267 
#    0.000    0.667    0.000    0.000    0.000    0.000 
#    0.000    0.000    0.000    0.000    0.000    0.000 
#
# Total GULP energy -167211.574331 kJ/mol
# GULP energy per Si atom -5573.719144 kJ/mol
# Density = 2.504599 g / cm^3
# Si number density = 25.103122 Si / 1000 Ang^3
#
#
#
# Elastic Constant Matrix: (Units=GPa)
#
#
# Indices 1 2 3 4 5 6 
#
# 1 79.6980 30.9996 -2.2505 0.0000 17.5348 0.0000
# 2 30.9996 117.8910 22.3913 0.0000 7.6218 0.0000
# 3 -2.2505 22.3913 85.1706 0.0000 -7.9676 0.0000
# 4 0.0000 0.0000 0.0000 30.4414 0.0000 9.3607
# 5 17.5348 7.6218 -7.9676 0.0000 25.7097 0.0000
# 6 0.0000 0.0000 0.0000 9.3607 0.0000 37.3871
#
#
#
# Elastic Compliance Matrix: (Units=1/GPa)
#
#
# Indices 1 2 3 4 5 6 
#
# 1 0.016152 -0.003709 0.000488 0.000000 -0.009766 0.000000
# 2 -0.003709 0.010092 -0.002878 0.000000 -0.001354 0.000000
# 3 0.000488 -0.002878 0.012934 0.000000 0.004529 0.000000
# 4 0.000000 0.000000 0.000000 0.035590 0.000000 -0.008911
# 5 -0.009766 -0.001354 0.004529 0.000000 0.047361 0.000000
# 6 0.000000 0.000000 0.000000 -0.008911 0.000000 0.028978
#
#
# Mechanical properties :
#
#
# Convention : Reuss Voigt Hill
#
# Bulk Modulus (GPa) = 37.06193 42.78227 39.92210
# Shear Modulus (GPa) = 29.01951 34.14892 31.58421
#
# Velocity S-wave (km/s) = 3.40371 3.69229 3.55093
# Velocity P-wave (km/s) = 5.49935 5.93775 5.72275
#
# Compressibility (1/GPa) = 0.02698187
#
# Stress axis : x y z
#
# Youngs Moduli (GPa) = 61.91095 99.09098 77.31413
#
# Poissons Ratio (x) = 0.36749 -0.03775
# Poissons Ratio (y) = 0.22960 0.22249
# Poissons Ratio (z) = -0.03023 0.28516
#
# Static dielectric constant tensor:
#      x y z
#    x 1.985890 0.000000 -0.034060 
#    y 0.000000 1.926620 0.000000 
#    z -0.034060 0.000000 2.086480 
# 
# From -- ./inp_files/38366.got.cif
#   From: 2010.05.17/outbox.cif.g08.bks.cpg/sg11_20_cif.got.tgz:38366.got - 2010.06.03 12:22:45.
