data_PCOD9165922
_publ_section_title
;
Structure prediction by ZEFSAII (Michael W. Deem and Ramdas Pophale) SiO2 
 PCOD9165922
Probable space group: P 21/M
;
_chemical_formula_sum "Si O2"
_cell_formula_units_Z 22
_cell_length_a 8.345065
_cell_length_b 16.565377
_cell_length_c 10.495725
_cell_angle_alpha 90.000000
_cell_angle_beta 42.687878
_cell_angle_gamma 90.000000
_cell_volume 983.729864
_symmetry_space_group_name_H-M "P 21/M"
_symmetry_group_IT_number 11
_symmetry_cell_setting 'monoclinic'
loop_
_space_group_symop_operation_xyz
x,y,z
-x,1/2+y,-z
-x,-y,-z
x,1/2-y,z
loop_
_atom_site_type_symbol
_atom_site_label
_atom_site_fract_x
_atom_site_fract_y
_atom_site_fract_z
Si Si1 0.979720 0.250000 0.350220
Si Si2 0.391861 0.604329 0.464132
Si Si3 0.081395 0.087553 0.902566
Si Si4 0.255665 0.400030 0.275195
Si Si5 0.978140 0.959170 0.343315
Si Si6 0.373127 0.656918 0.755968
O O1 0.771571 0.179905 0.472249
O O2 0.181326 0.322401 0.238547
O O3 0.639675 0.599780 0.245930
O O4 0.234096 0.524830 0.539285
O O5 0.447891 0.614928 0.581467
O O6 0.022124 0.088767 0.787224
O O7 0.910537 0.150420 0.072009
O O8 0.000000 0.000000 0.000000
O O9 0.077421 0.404364 0.502314
O O10 0.507883 0.387191 0.194032
O O11 0.207035 0.484350 0.232612
O O12 0.447933 0.750000 0.711097
#
# Coordination Sequence:
#
# PCOD9165922 Si02
#       6
#     2   4   4   4   4   4
#     4  10  22  40  68  90 126 182 212 264 322 388
#     4  11  22  42  69  94 130 173 220 265 322 379
#     4  12  24  39  69 103 126 165 222 270 321 380
#     4  10  21  41  68  92 127 174 214 257 331 381
#     4  10  21  41  69  94 126 171 217 264 318 386
#     4  12  24  40  67  96 133 171 214 268 321 390
#
# _framework density 22.363862999999998
#
# number of rings (size 3 to 8) (size 9 to 14) (size 15 to 20)
#    0.000    1.091    5.455    1.636    1.273    0.727 
#    1.636    0.000    4.000    0.000    0.000    0.000 
#    0.000    0.000    0.000    0.000    0.000    0.000 
#
# Total GULP energy -122475.354548 kJ/mol
# GULP energy per Si atom -5567.061570 kJ/mol
# Density = 2.231296 g / cm^3
# Si number density = 22.363863 Si / 1000 Ang^3
#
#
#
# Elastic Constant Matrix: (Units=GPa)
#
#
# Indices 1 2 3 4 5 6 
#
# 1 61.9932 -2.5170 7.3649 0.0000 -22.0072 0.0000
# 2 -2.5170 44.8917 -4.3118 0.0000 -5.7292 0.0000
# 3 7.3649 -4.3118 71.6111 0.0000 -23.8081 0.0000
# 4 0.0000 0.0000 0.0000 15.8820 0.0000 -22.3056
# 5 -22.0072 -5.7292 -23.8081 0.0000 37.7284 0.0000
# 6 0.0000 0.0000 0.0000 -22.3056 0.0000 13.2970
#
#
#
# Elastic Compliance Matrix: (Units=1/GPa)
#
#
# Indices 1 2 3 4 5 6 
#
# 1 0.021126 0.003334 0.002902 0.000000 0.014660 0.000000
# 2 0.003334 0.023830 0.003723 0.000000 0.007913 0.000000
# 3 0.002902 0.003723 0.018528 0.000000 0.013950 0.000000
# 4 0.000000 0.000000 0.000000 -0.046435 0.000000 -0.077894
# 5 0.014660 0.007913 0.013950 0.000000 0.045061 0.000000
# 6 0.000000 0.000000 0.000000 -0.077894 0.000000 -0.055462
#
#
# Mechanical properties :
#
#
# Convention : Reuss Voigt Hill
#
# Bulk Modulus (GPa) = 11.99018 19.95202 15.97110
# Shear Modulus (GPa) = 344.10723 25.24549 184.67636
#
# Velocity S-wave (km/s) = 12.41779 3.36348 9.09710
# Velocity P-wave (km/s) = 14.52498 4.90153 10.83974
#
# Compressibility (1/GPa) = 0.08340162
#
# Stress axis : x y z
#
# Youngs Moduli (GPa) = 47.33564 41.96362 53.97295
#
# Poissons Ratio (x) = -0.13992 -0.15664
# Poissons Ratio (y) = -0.15783 -0.20092
# Poissons Ratio (z) = -0.13737 -0.15621
#
# Static dielectric constant tensor:
#      x y z
#    x 1.904710 0.000000 -0.002650 
#    y 0.000000 1.844560 0.000000 
#    z -0.002650 0.000000 1.815290 
# 
# From -- ./inp_files/18751.got.cif
#   From: 2010.05.17/outbox.cif.g08.bks.cpg/sg11_10_cif.got.tgz:18751.got - 2010.06.03 12:22:45.
