data_PCOD9165886
_publ_section_title
;
Structure prediction by ZEFSAII (Michael W. Deem and Ramdas Pophale) SiO2 
 PCOD9165886
Probable space group: P 21/M
;
_chemical_formula_sum "Si O2"
_cell_formula_units_Z 28
_cell_length_a 8.861684
_cell_length_b 14.373111
_cell_length_c 13.110436
_cell_angle_alpha 90.000000
_cell_angle_beta 119.256166
_cell_angle_gamma 90.000000
_cell_volume 1456.872160
_symmetry_space_group_name_H-M "P 21/M"
_symmetry_group_IT_number 11
_symmetry_cell_setting 'monoclinic'
loop_
_space_group_symop_operation_xyz
x,y,z
-x,1/2+y,-z
-x,-y,-z
x,1/2-y,z
loop_
_atom_site_type_symbol
_atom_site_label
_atom_site_fract_x
_atom_site_fract_y
_atom_site_fract_z
Si Si1 0.860033 0.859675 0.080268
Si Si2 0.767658 0.860192 0.821879
Si Si3 0.202552 0.640457 0.300262
Si Si4 0.360127 0.493219 0.864059
Si Si5 0.058790 0.859103 0.757501
Si Si6 0.135198 0.494172 0.452347
Si Si7 0.500892 0.483907 0.684060
O O1 0.828648 0.750000 0.077210
O O2 0.063395 0.875276 0.163882
O O3 0.765438 0.911659 0.140162
O O4 0.790951 0.889683 0.947158
O O5 0.723720 0.750000 0.802686
O O6 0.622322 0.923986 0.721639
O O7 0.952686 0.871210 0.827683
O O8 0.210700 0.750000 0.325121
O O9 0.136602 0.581487 0.375448
O O10 0.382334 0.598732 0.321260
O O11 0.238199 0.584500 0.816150
O O12 0.444852 0.472973 0.783185
O O13 0.500000 0.500000 0.000000
O O14 0.086394 0.750000 0.748499
O O15 0.929633 0.905221 0.632911
O O16 0.327333 0.489720 0.560871
O O17 0.000000 0.500000 0.500000
#
# Coordination Sequence:
#
# PCOD9165886 Si02
#       7
#     4   4   4   4   4   4   4
#     4  10  21  41  65  94 131 171 214 264 329 393
#     4  10  22  40  67  97 128 171 220 272 327 388
#     4  11  25  43  67  97 130 172 218 270 329 388
#     4  12  24  40  67  97 133 172 208 272 330 384
#     4  11  25  45  68  95 129 174 223 266 324 392
#     4  12  24  46  67  94 131 173 220 267 326 386
#     4  12  24  41  67  95 132 169 221 271 323 390
#
# _framework density 19.219258
#
# number of rings (size 3 to 8) (size 9 to 14) (size 15 to 20)
#    0.000    0.857    5.714    0.429    2.000    4.571 
#    0.000    0.000    0.000    0.000    0.000    0.000 
#    0.000    0.000    0.000    0.000    0.000    0.000 
#
# Total GULP energy -156426.463000 kJ/mol
# GULP energy per Si atom -5586.659393 kJ/mol
# Density = 1.917551 g / cm^3
# Si number density = 19.219258 Si / 1000 Ang^3
#
#
#
# Elastic Constant Matrix: (Units=GPa)
#
#
# Indices 1 2 3 4 5 6 
#
# 1 106.7382 45.0117 39.3463 0.0000 3.4518 0.0000
# 2 45.0117 77.0815 55.1680 0.0000 8.1994 0.0000
# 3 39.3463 55.1680 107.7395 0.0000 16.6904 0.0000
# 4 0.0000 0.0000 0.0000 20.3063 0.0000 -4.0143
# 5 3.4518 8.1994 16.6904 0.0000 42.9567 0.0000
# 6 0.0000 0.0000 0.0000 -4.0143 0.0000 -0.4952
#
#
#
# Elastic Compliance Matrix: (Units=1/GPa)
#
#
# Indices 1 2 3 4 5 6 
#
# 1 0.012569 -0.006395 -0.001435 0.000000 0.000768 0.000000
# 2 -0.006395 0.023732 -0.009784 0.000000 -0.000215 0.000000
# 3 -0.001435 -0.009784 0.015437 0.000000 -0.004015 0.000000
# 4 0.000000 0.000000 0.000000 0.018921 0.000000 -0.153397
# 5 0.000768 -0.000215 -0.004015 0.000000 0.024819 0.000000
# 6 0.000000 0.000000 0.000000 -0.153397 0.000000 -0.775963
#
#
# Mechanical properties :
#
#
# Convention : Reuss Voigt Hill
#
# Bulk Modulus (GPa) = 60.55857 63.40123 61.97990
# Shear Modulus (GPa) = -7.81552 22.68912 7.43680
#
# Velocity S-wave (km/s) = -2.01874 3.43963 1.96923
# Velocity P-wave (km/s) = 5.11312 6.98818 6.12285
#
# Compressibility (1/GPa) = 0.01651294
#
# Stress axis : x y z
#
# Youngs Moduli (GPa) = 79.55792 42.13634 64.77760
#
# Poissons Ratio (x) = 0.26944 0.09296
# Poissons Ratio (y) = 0.50874 0.63376
# Poissons Ratio (z) = 0.11416 0.41225
#
# Static dielectric constant tensor:
#      x y z
#    x 1.678100 0.000000 0.000460 
#    y 0.000000 1.652970 0.000000 
#    z 0.000460 0.000000 1.693030 
# 
# From -- ./inp_files/17692.got.cif
#   From: 2010.05.17/outbox.cif.g08.bks.cpg/sg11_9_cif.got.tgz:17692.got - 2010.06.03 12:22:45.
