data_PCOD9165743
_publ_section_title
;
Structure prediction by ZEFSAII (Michael W. Deem and Ramdas Pophale) SiO2 
 PCOD9165743
Probable space group: P 21/M
;
_chemical_formula_sum "Si O2"
_cell_formula_units_Z 20
_cell_length_a 5.292520
_cell_length_b 7.667703
_cell_length_c 25.671661
_cell_angle_alpha 90.000000
_cell_angle_beta 101.907767
_cell_angle_gamma 90.000000
_cell_volume 1019.375443
_symmetry_space_group_name_H-M "P 21/M"
_symmetry_group_IT_number 11
_symmetry_cell_setting 'monoclinic'
loop_
_space_group_symop_operation_xyz
x,y,z
-x,1/2+y,-z
-x,-y,-z
x,1/2-y,z
loop_
_atom_site_type_symbol
_atom_site_label
_atom_site_fract_x
_atom_site_fract_y
_atom_site_fract_z
Si Si1 0.784305 0.455703 0.534189
Si Si2 0.885188 0.547082 0.155229
Si Si3 0.216799 0.954104 0.966885
Si Si4 0.576004 0.250000 0.305917
Si Si5 0.146926 0.250000 0.376920
Si Si6 0.446011 0.535676 0.215887
O O1 0.500000 0.500000 0.500000
O O2 0.797143 0.250000 0.546951
O O3 0.833664 0.580244 0.585410
O O4 0.000000 0.500000 0.500000
O O5 0.897981 0.750000 0.168483
O O6 0.839541 0.533937 0.091816
O O7 0.646177 0.481654 0.178970
O O8 0.161618 0.478214 0.185029
O O9 0.207906 0.750000 0.958171
O O10 0.500000 0.000000 0.000000
O O11 0.000000 0.000000 0.000000
O O12 0.382613 0.250000 0.346519
O O13 0.520040 0.423669 0.269463
O O14 0.872521 0.250000 0.336386
O O15 0.453091 0.750000 0.223197
#
# Coordination Sequence:
#
# PCOD9165743 Si02
#       6
#     4   4   4   2   2   4
#     4  12  23  43  71 100 139 180 228 272 324 397
#     4  10  21  40  64  89 117 161 213 263 322 390
#     4  12  25  40  62  92 130 165 206 265 332 399
#     4  12  26  42  66  94 138 168 226 276 326 386
#     4  12  26  42  66 104 134 180 218 280 332 372
#     4  10  23  41  65  90 124 166 217 273 322 386
#
# _framework density 19.619855000000001
#
# number of rings (size 3 to 8) (size 9 to 14) (size 15 to 20)
#    0.000    0.800    2.000    5.400    2.800    3.200 
#    0.000    0.000    0.000    0.000    0.000    0.000 
#    0.000    0.000    0.000    0.000    0.000    0.000 
#
# Total GULP energy -111787.099005 kJ/mol
# GULP energy per Si atom -5589.354950 kJ/mol
# Density = 1.957520 g / cm^3
# Si number density = 19.619855 Si / 1000 Ang^3
#
#
#
# Elastic Constant Matrix: (Units=GPa)
#
#
# Indices 1 2 3 4 5 6 
#
# 1 86.2314 8.4928 -10.7511 0.0000 -1.3341 0.0000
# 2 8.4928 95.0687 12.9715 0.0000 -0.2356 0.0000
# 3 -10.7511 12.9715 52.8642 0.0000 0.1384 0.0000
# 4 0.0000 0.0000 0.0000 52.7277 0.0000 1.6215
# 5 -1.3341 -0.2356 0.1384 0.0000 53.9462 0.0000
# 6 0.0000 0.0000 0.0000 1.6215 0.0000 16.3287
#
#
#
# Elastic Compliance Matrix: (Units=1/GPa)
#
#
# Indices 1 2 3 4 5 6 
#
# 1 0.012097 -0.001465 0.002819 0.000000 0.000286 0.000000
# 2 -0.001465 0.011061 -0.003012 0.000000 0.000020 0.000000
# 3 0.002819 -0.003012 0.020229 0.000000 0.000005 0.000000
# 4 0.000000 0.000000 0.000000 0.019023 0.000000 -0.001889
# 5 0.000286 0.000020 0.000005 0.000000 0.018544 0.000000
# 6 0.000000 0.000000 0.000000 -0.001889 0.000000 0.061430
#
#
# Mechanical properties :
#
#
# Convention : Reuss Voigt Hill
#
# Bulk Modulus (GPa) = 24.95589 28.39897 26.67743
# Shear Modulus (GPa) = 31.43558 39.49725 35.46642
#
# Velocity S-wave (km/s) = 4.00713 4.49166 4.25629
# Velocity P-wave (km/s) = 5.84438 6.43475 6.14666
#
# Compressibility (1/GPa) = 0.04007069
#
# Stress axis : x y z
#
# Youngs Moduli (GPa) = 82.66651 90.41147 49.43481
#
# Poissons Ratio (x) = 0.13241 -0.13934
# Poissons Ratio (y) = 0.12107 0.14889
# Poissons Ratio (z) = -0.23302 0.27231
#
# Static dielectric constant tensor:
#      x y z
#    x 1.657570 0.000000 -0.010410 
#    y 0.000000 1.680240 0.000000 
#    z -0.010410 0.000000 1.592650 
# 
# From -- ./inp_files/62483.got.cif
#   From: 2010.05.17/outbox.cif.g08.bks.cpg/sg11_32_cif.got.tgz:62483.got - 2010.06.03 12:22:45.
