data_PCOD9165260
_publ_section_title
;
Structure prediction by ZEFSAII (Michael W. Deem and Ramdas Pophale) SiO2 
 PCOD9165260
Probable space group: P 21/M
;
_chemical_formula_sum "Si O2"
_cell_formula_units_Z 28
_cell_length_a 31.527064
_cell_length_b 8.758456
_cell_length_c 31.527589
_cell_angle_alpha 90.000000
_cell_angle_beta 9.523048
_cell_angle_gamma 90.000000
_cell_volume 1440.302628
_symmetry_space_group_name_H-M "P 21/M"
_symmetry_group_IT_number 11
_symmetry_cell_setting 'monoclinic'
loop_
_space_group_symop_operation_xyz
x,y,z
-x,1/2+y,-z
-x,-y,-z
x,1/2-y,z
loop_
_atom_site_type_symbol
_atom_site_label
_atom_site_fract_x
_atom_site_fract_y
_atom_site_fract_z
Si Si1 0.217303 0.567037 0.166508
Si Si2 0.761359 0.568068 0.761139
Si Si3 0.526994 0.566821 0.426181
Si Si4 0.403609 0.568489 0.361010
Si Si5 0.074071 0.931673 0.117286
Si Si6 0.007667 0.067441 0.901644
Si Si7 0.690507 0.932778 0.638463
O O1 0.214684 0.750000 0.177323
O O2 0.216774 0.480875 0.211476
O O3 0.965398 0.529902 0.387570
O O4 0.468730 0.531421 0.891048
O O5 0.759508 0.750000 0.758880
O O6 0.000000 0.500000 0.500000
O O7 0.500000 0.500000 0.000000
O O8 0.500000 0.500000 0.500000
O O9 0.532694 0.750000 0.421683
O O10 0.279871 0.507906 0.644056
O O11 0.785363 0.503256 0.149978
O O12 0.406200 0.750000 0.361382
O O13 0.358417 0.516918 0.357263
O O14 0.174029 0.501766 0.615666
O O15 0.671055 0.502297 0.114119
O O16 0.075506 0.750000 0.122924
O O17 0.061411 0.959035 0.079390
O O18 0.023338 0.250000 0.893288
O O19 0.683031 0.750000 0.637946
#
# Coordination Sequence:
#
# PCOD9165260 Si02
#       7
#     4   4   4   4   4   4   4
#     4  10  21  38  61  89 120 158 204 253 304 363
#     4  12  25  42  65  93 127 165 206 255 308 367
#     4  12  25  42  65  93 127 165 205 254 309 368
#     4  12  25  40  63  95 129 161 205 262 309 358
#     4  11  24  43  66  90 124 168 209 250 307 376
#     4  11  24  43  66  93 124 162 209 258 307 366
#     4  10  21  38  61  87 121 163 203 246 305 372
#
# _framework density 19.440360999999999
#
# number of rings (size 3 to 8) (size 9 to 14) (size 15 to 20)
#    0.000    0.857    0.000    7.714    0.000    9.143 
#    0.000    0.000    0.000    0.000    0.000    0.000 
#    0.000    0.000    0.000    0.000    0.000    0.000 
#
# Total GULP energy -156794.393005 kJ/mol
# GULP energy per Si atom -5599.799750 kJ/mol
# Density = 1.939611 g / cm^3
# Si number density = 19.440361 Si / 1000 Ang^3
#
#
#
# Elastic Constant Matrix: (Units=GPa)
#
#
# Indices 1 2 3 4 5 6 
#
# 1 72.6627 50.3010 0.9070 0.0000 1.6092 0.0000
# 2 50.3010 99.7286 18.5132 0.0000 4.2601 0.0000
# 3 0.9070 18.5132 95.2341 0.0000 0.3747 0.0000
# 4 0.0000 0.0000 0.0000 33.3718 0.0000 3.8835
# 5 1.6092 4.2601 0.3747 0.0000 38.8486 0.0000
# 6 0.0000 0.0000 0.0000 3.8835 0.0000 30.5330
#
#
#
# Elastic Compliance Matrix: (Units=1/GPa)
#
#
# Indices 1 2 3 4 5 6 
#
# 1 0.021501 -0.011225 0.001976 0.000000 0.000321 0.000000
# 2 -0.011225 0.016312 -0.003059 0.000000 -0.001294 0.000000
# 3 0.001976 -0.003059 0.011076 0.000000 0.000147 0.000000
# 4 0.000000 0.000000 0.000000 0.030416 0.000000 -0.003869
# 5 0.000321 -0.001294 0.000147 0.000000 0.025868 0.000000
# 6 0.000000 0.000000 0.000000 -0.003869 0.000000 0.033243
#
#
# Mechanical properties :
#
#
# Convention : Reuss Voigt Hill
#
# Bulk Modulus (GPa) = 41.19865 45.22976 43.21420
# Shear Modulus (GPa) = 29.21863 33.74428 31.48146
#
# Velocity S-wave (km/s) = 3.88105 4.17079 4.02853
# Velocity P-wave (km/s) = 6.42819 6.81986 6.62692
#
# Compressibility (1/GPa) = 0.02427264
#
# Stress axis : x y z
#
# Youngs Moduli (GPa) = 46.50906 61.30390 90.28763
#
# Poissons Ratio (x) = 0.68816 -0.17842
# Poissons Ratio (y) = 0.52208 0.27619
# Poissons Ratio (z) = -0.09191 0.18753
#
# Static dielectric constant tensor:
#      x y z
#    x 1.641970 0.000000 0.001150 
#    y 0.000000 1.652410 0.000000 
#    z 0.001150 0.000000 1.630510 
# 
# From -- ./inp_files/73852.got.cif
#   From: 2010.05.17/outbox.cif.g08.bks.cpg/sg11_37_cif.got.tgz:73852.got - 2010.06.03 12:22:45.
