data_PCOD9165493
_publ_section_title
;
Structure prediction by ZEFSAII (Michael W. Deem and Ramdas Pophale) SiO2 
 PCOD9165493
Probable space group: P 21/M
;
_chemical_formula_sum "Si O2"
_cell_formula_units_Z 24
_cell_length_a 12.393118
_cell_length_b 8.485232
_cell_length_c 11.828460
_cell_angle_alpha 90.000000
_cell_angle_beta 68.607549
_cell_angle_gamma 90.000000
_cell_volume 1158.165567
_symmetry_space_group_name_H-M "P 21/M"
_symmetry_group_IT_number 11
_symmetry_cell_setting 'monoclinic'
loop_
_space_group_symop_operation_xyz
x,y,z
-x,1/2+y,-z
-x,-y,-z
x,1/2-y,z
loop_
_atom_site_type_symbol
_atom_site_label
_atom_site_fract_x
_atom_site_fract_y
_atom_site_fract_z
Si Si1 0.665394 0.940350 0.700179
Si Si2 0.752694 0.437894 0.144467
Si Si3 0.230713 0.439695 0.101217
Si Si4 0.893080 0.938464 0.466617
Si Si5 0.544064 0.935959 0.363099
Si Si6 0.965330 0.439507 0.199362
O O1 0.648252 0.750000 0.706276
O O2 0.701169 0.991331 0.812866
O O3 0.774057 0.975439 0.576740
O O4 0.552967 0.022126 0.692680
O O5 0.755544 0.250000 0.133825
O O6 0.662539 0.485861 0.275493
O O7 0.880763 0.496913 0.132079
O O8 0.716982 0.508540 0.037813
O O9 0.226944 0.250000 0.107729
O O10 0.097275 0.499294 0.152648
O O11 0.900623 0.750000 0.453480
O O12 0.904460 0.015093 0.339886
O O13 0.000000 0.000000 0.500000
O O14 0.561240 0.750000 0.365408
O O15 0.500000 0.000000 0.500000
O O16 0.970925 0.250000 0.189513
#
# Coordination Sequence:
#
# PCOD9165493 Si02
#       6
#     4   4   4   4   4   4
#     4  10  22  41  64  91 126 166 207 256 307 362
#     4  11  24  41  64  93 125 163 210 256 304 368
#     4  10  21  40  63  90 128 166 204 253 310 366
#     4  11  21  35  59  90 124 160 200 250 306 364
#     4  12  26  45  68  92 122 160 205 257 310 368
#     4  10  21  39  61  90 127 165 207 256 307 362
#
# _framework density 20.722425000000001
#
# number of rings (size 3 to 8) (size 9 to 14) (size 15 to 20)
#    0.000    1.333    1.667    4.000    0.000    7.333 
#    0.000    0.000    0.000    0.000    0.000    0.000 
#    0.000    0.000    0.000    0.000    0.000    0.000 
#
# Total GULP energy -134224.916523 kJ/mol
# GULP energy per Si atom -5592.704855 kJ/mol
# Density = 2.067526 g / cm^3
# Si number density = 20.722425 Si / 1000 Ang^3
#
#
#
# Elastic Constant Matrix: (Units=GPa)
#
#
# Indices 1 2 3 4 5 6 
#
# 1 91.7997 6.6880 19.2063 0.0000 14.2479 0.0000
# 2 6.6880 4.9607 -7.9541 0.0000 3.7945 0.0000
# 3 19.2063 -7.9541 101.7129 0.0000 20.0449 0.0000
# 4 0.0000 0.0000 0.0000 35.1507 0.0000 -0.3353
# 5 14.2479 3.7945 20.0449 0.0000 31.6715 0.0000
# 6 0.0000 0.0000 0.0000 -0.3353 0.0000 22.3476
#
#
#
# Elastic Compliance Matrix: (Units=1/GPa)
#
#
# Indices 1 2 3 4 5 6 
#
# 1 0.013754 -0.025688 -0.004562 0.000000 -0.000222 0.000000
# 2 -0.025688 0.350869 0.043753 0.000000 -0.058172 0.000000
# 3 -0.004562 0.043753 0.016844 0.000000 -0.013850 0.000000
# 4 0.000000 0.000000 0.000000 0.028453 0.000000 0.000427
# 5 -0.000222 -0.058172 -0.013850 0.000000 0.047410 0.000000
# 6 0.000000 0.000000 0.000000 0.000427 0.000000 0.044754
#
#
# Mechanical properties :
#
#
# Convention : Reuss Voigt Hill
#
# Bulk Modulus (GPa) = 2.44814 26.03929 14.24371
# Shear Modulus (GPa) = 8.18017 29.86950 19.02484
#
# Velocity S-wave (km/s) = 1.98899 3.80071 3.03327
# Velocity P-wave (km/s) = 2.54140 5.64389 4.37677
#
# Compressibility (1/GPa) = 0.40847371
#
# Stress axis : x y z
#
# Youngs Moduli (GPa) = 72.70759 2.85007 59.36788
#
# Poissons Ratio (x) = 0.07321 0.27084
# Poissons Ratio (y) = 1.86768 -2.59754
# Poissons Ratio (z) = 0.33170 -0.12470
#
# Static dielectric constant tensor:
#      x y z
#    x 1.750460 0.000000 -0.003280 
#    y 0.000000 1.702310 0.000000 
#    z -0.003280 0.000000 1.720250 
# 
# From -- ./inp_files/33700.got.cif
#   From: 2010.05.17/outbox.cif.g08.bks.cpg/sg11_17_cif.got.tgz:33700.got - 2010.06.03 12:22:45.
