data_PCOD9165032
_publ_section_title
;
Structure prediction by ZEFSAII (Michael W. Deem and Ramdas Pophale) SiO2 
 PCOD9165032
Probable space group: P 21/M
;
_chemical_formula_sum "Si O2"
_cell_formula_units_Z 32
_cell_length_a 10.788657
_cell_length_b 14.632417
_cell_length_c 17.152210
_cell_angle_alpha 90.000000
_cell_angle_beta 34.587940
_cell_angle_gamma 90.000000
_cell_volume 1537.091942
_symmetry_space_group_name_H-M "P 21/M"
_symmetry_group_IT_number 11
_symmetry_cell_setting 'monoclinic'
loop_
_space_group_symop_operation_xyz
x,y,z
-x,1/2+y,-z
-x,-y,-z
x,1/2-y,z
loop_
_atom_site_type_symbol
_atom_site_label
_atom_site_fract_x
_atom_site_fract_y
_atom_site_fract_z
Si Si1 0.644034 0.355769 0.145142
Si Si2 0.792461 0.973359 0.435039
Si Si3 0.987291 0.034724 0.181063
Si Si4 0.114900 0.923039 0.386314
Si Si5 0.128054 0.353906 0.855171
Si Si6 0.577291 0.357515 0.351739
Si Si7 0.624522 0.150274 0.613965
Si Si8 0.532015 0.503334 0.077060
O O1 0.585546 0.250000 0.166267
O O2 0.543761 0.389329 0.278680
O O3 0.575911 0.409548 0.102868
O O4 0.907230 0.360855 0.020267
O O5 0.589772 0.914548 0.509121
O O6 0.924581 0.904530 0.423215
O O7 0.961773 0.010555 0.284688
O O8 0.695434 0.063624 0.526338
O O9 0.820973 0.114832 0.247894
O O10 0.901323 0.941429 0.184812
O O11 0.236460 0.054336 0.030218
O O12 0.217683 0.852167 0.393065
O O13 0.321763 0.956417 0.228805
O O14 0.000000 0.000000 0.500000
O O15 0.117157 0.250000 0.825891
O O16 0.368033 0.360785 0.768287
O O17 0.544234 0.250000 0.373605
O O18 0.645593 0.250000 0.563849
O O19 0.500000 0.500000 0.000000
#
# Coordination Sequence:
#
# PCOD9165032 Si02
#       8
#     4   4   4   4   4   4   4   4
#     4   9  20  38  60  89 122 161 211 260 312 378
#     4  11  22  42  60  86 130 170 211 261 314 385
#     4  11  23  39  63  92 128 164 214 262 318 379
#     4  10  22  40  63  90 125 163 214 258 303 377
#     4   9  19  35  59  88 119 156 201 259 316 371
#     4  11  24  40  63  93 125 168 217 267 320 373
#     4  10  21  37  62  92 122 163 212 263 316 368
#     4  11  22  41  67  92 124 174 206 254 325 381
#
# _framework density 20.818534
#
# number of rings (size 3 to 8) (size 9 to 14) (size 15 to 20)
#    0.000    1.750    2.500    1.875    1.750    2.500 
#    0.000    5.000    0.000    0.000    0.000    0.000 
#    0.000    0.000    0.000    0.000    0.000    0.000 
#
# Total GULP energy -178326.053237 kJ/mol
# GULP energy per Si atom -5572.689164 kJ/mol
# Density = 2.077115 g / cm^3
# Si number density = 20.818534 Si / 1000 Ang^3
#
#
#
# Elastic Constant Matrix: (Units=GPa)
#
#
# Indices 1 2 3 4 5 6 
#
# 1 58.9887 10.5259 12.8632 0.0000 -16.7143 0.0000
# 2 10.5259 70.2860 26.4915 0.0000 -12.1375 0.0000
# 3 12.8632 26.4915 110.3236 0.0000 -20.0201 0.0000
# 4 0.0000 0.0000 0.0000 15.5280 0.0000 -0.8705
# 5 -16.7143 -12.1375 -20.0201 0.0000 32.9734 0.0000
# 6 0.0000 0.0000 0.0000 -0.8705 0.0000 12.9035
#
#
#
# Elastic Compliance Matrix: (Units=1/GPa)
#
#
# Indices 1 2 3 4 5 6 
#
# 1 0.019919 -0.001233 -0.000311 0.000000 0.009454 0.000000
# 2 -0.001233 0.016181 -0.003118 0.000000 0.003438 0.000000
# 3 -0.000311 -0.003118 0.010803 0.000000 0.005254 0.000000
# 4 0.000000 0.000000 0.000000 0.064644 0.000000 0.004361
# 5 0.009454 0.003438 0.005254 0.000000 0.039575 0.000000
# 6 0.000000 0.000000 0.000000 0.004361 0.000000 0.077793
#
#
# Mechanical properties :
#
#
# Convention : Reuss Voigt Hill
#
# Bulk Modulus (GPa) = 26.61044 37.70663 32.15853
# Shear Modulus (GPa) = 19.93897 24.92881 22.43389
#
# Velocity S-wave (km/s) = 3.09811 3.46415 3.28623
# Velocity P-wave (km/s) = 5.06039 5.84395 5.46623
#
# Compressibility (1/GPa) = 0.03757924
#
# Stress axis : x y z
#
# Youngs Moduli (GPa) = 50.20302 61.80046 92.57113
#
# Poissons Ratio (x) = 0.07622 0.02876
# Poissons Ratio (y) = 0.06192 0.28862
# Poissons Ratio (z) = 0.01560 0.19268
#
# Static dielectric constant tensor:
#      x y z
#    x 1.801110 0.000000 0.010140 
#    y 0.000000 1.718140 0.000000 
#    z 0.010140 0.000000 1.770720 
# 
# From -- ./inp_files/59460.got.cif
#   From: 2010.05.17/outbox.cif.g08.bks.cpg/sg11_30_cif.got.tgz:59460.got - 2010.06.03 12:22:45.
