data_PCOD9165334
_publ_section_title
;
Structure prediction by ZEFSAII (Michael W. Deem and Ramdas Pophale) SiO2 
 PCOD9165334
Probable space group: P 21/M
;
_chemical_formula_sum "Si O2"
_cell_formula_units_Z 24
_cell_length_a 29.741937
_cell_length_b 8.988052
_cell_length_c 9.404306
_cell_angle_alpha 90.000000
_cell_angle_beta 30.291823
_cell_angle_gamma 90.000000
_cell_volume 1268.061867
_symmetry_space_group_name_H-M "P 21/M"
_symmetry_group_IT_number 11
_symmetry_cell_setting 'monoclinic'
loop_
_space_group_symop_operation_xyz
x,y,z
-x,1/2+y,-z
-x,-y,-z
x,1/2-y,z
loop_
_atom_site_type_symbol
_atom_site_label
_atom_site_fract_x
_atom_site_fract_y
_atom_site_fract_z
Si Si1 0.739928 0.070292 0.764342
Si Si2 0.941719 0.582049 0.776069
Si Si3 0.759671 0.427470 0.375284
Si Si4 0.420467 0.429007 0.625105
Si Si5 0.936999 0.416288 0.278269
Si Si6 0.580140 0.430099 0.688656
O O1 0.725653 0.250000 0.820696
O O2 0.740263 0.036801 0.594266
O O3 0.836937 0.025753 0.559302
O O4 0.667168 0.980787 0.050856
O O5 0.920887 0.750000 0.787100
O O6 0.000000 0.500000 0.500000
O O7 0.009306 0.587520 0.723537
O O8 0.849696 0.504610 0.074016
O O9 0.773495 0.250000 0.330305
O O10 0.673639 0.463232 0.513684
O O11 0.500000 0.500000 0.500000
O O12 0.428238 0.250000 0.596632
O O13 0.420535 0.498523 0.466543
O O14 0.925537 0.250000 0.251833
O O15 0.000000 0.500000 0.000000
O O16 0.570928 0.250000 0.705400
O O17 0.500000 0.500000 0.000000
#
# Coordination Sequence:
#
# PCOD9165334 Si02
#       6
#     4   4   4   4   4   4
#     4  10  21  40  65  93 126 164 207 261 316 372
#     4  11  24  39  59  90 126 167 212 259 309 368
#     4  10  22  41  65  91 123 165 206 254 316 373
#     4  12  26  44  67  96 127 164 209 260 316 376
#     4  10  21  38  62  90 123 164 210 258 309 366
#     4  11  24  43  68  97 129 165 209 259 315 380
#
# _framework density 18.926521999999999
#
# number of rings (size 3 to 8) (size 9 to 14) (size 15 to 20)
#    0.000    1.333    1.667    3.500    2.333    4.667 
#    0.000    0.000    0.000    0.000    0.000    0.000 
#    0.000    0.000    0.000    0.000    0.000    0.000 
#
# Total GULP energy -134045.776855 kJ/mol
# GULP energy per Si atom -5585.240702 kJ/mol
# Density = 1.888344 g / cm^3
# Si number density = 18.926522 Si / 1000 Ang^3
#
#
#
# Elastic Constant Matrix: (Units=GPa)
#
#
# Indices 1 2 3 4 5 6 
#
# 1 125.8124 70.4227 91.8156 0.0000 -12.5370 0.0000
# 2 70.4227 107.3239 93.1711 0.0000 2.0820 0.0000
# 3 91.8156 93.1711 199.1721 0.0000 -7.2634 0.0000
# 4 0.0000 0.0000 0.0000 43.0309 0.0000 0.3118
# 5 -12.5370 2.0820 -7.2634 0.0000 40.8538 0.0000
# 6 0.0000 0.0000 0.0000 0.3118 0.0000 26.9786
#
#
#
# Elastic Compliance Matrix: (Units=1/GPa)
#
#
# Indices 1 2 3 4 5 6 
#
# 1 0.014637 -0.006671 -0.003473 0.000000 0.004214 0.000000
# 2 -0.006671 0.018914 -0.005921 0.000000 -0.004064 0.000000
# 3 -0.003473 -0.005921 0.009425 0.000000 0.000912 0.000000
# 4 0.000000 0.000000 0.000000 0.023241 0.000000 -0.000269
# 5 0.004214 -0.004064 0.000912 0.000000 0.026140 0.000000
# 6 0.000000 0.000000 0.000000 -0.000269 0.000000 0.037070
#
#
# Mechanical properties :
#
#
# Convention : Reuss Voigt Hill
#
# Bulk Modulus (GPa) = 92.20110 104.79188 98.49649
# Shear Modulus (GPa) = 30.27181 33.96594 32.11888
#
# Velocity S-wave (km/s) = 4.00364 4.24089 4.12397
# Velocity P-wave (km/s) = 8.37814 8.91449 8.65047
#
# Compressibility (1/GPa) = 0.01084586
#
# Stress axis : x y z
#
# Youngs Moduli (GPa) = 68.32043 52.87224 106.10429
#
# Poissons Ratio (x) = 0.35271 0.36851
# Poissons Ratio (y) = 0.45576 0.62820
# Poissons Ratio (z) = 0.23729 0.31303
#
# Static dielectric constant tensor:
#      x y z
#    x 1.667330 0.000000 -0.033690 
#    y 0.000000 1.660520 0.000000 
#    z -0.033690 0.000000 1.602160 
# 
# From -- ./inp_files/28947.got.cif
#   From: 2010.05.17/outbox.cif.g08.bks.cpg/sg11_15_cif.got.tgz:28947.got - 2010.06.03 12:22:45.
