data_PCOD9165554
_publ_section_title
;
Structure prediction by ZEFSAII (Michael W. Deem and Ramdas Pophale) SiO2 
 PCOD9165554
Probable space group: P 21/M
;
_chemical_formula_sum "Si O2"
_cell_formula_units_Z 32
_cell_length_a 22.139964
_cell_length_b 11.278913
_cell_length_c 4.947876
_cell_angle_alpha 90.000000
_cell_angle_beta 80.035964
_cell_angle_gamma 90.000000
_cell_volume 1216.921046
_symmetry_space_group_name_H-M "P 21/M"
_symmetry_group_IT_number 11
_symmetry_cell_setting 'monoclinic'
loop_
_space_group_symop_operation_xyz
x,y,z
-x,1/2+y,-z
-x,-y,-z
x,1/2-y,z
loop_
_atom_site_type_symbol
_atom_site_label
_atom_site_fract_x
_atom_site_fract_y
_atom_site_fract_z
Si Si1 0.160071 0.119373 0.277947
Si Si2 0.572550 0.994130 0.427866
Si Si3 0.079097 0.619317 0.992225
Si Si4 0.263447 0.380191 0.805845
Si Si5 0.951598 0.616823 0.319734
Si Si6 0.688563 0.378732 0.240407
Si Si7 0.624879 0.622083 0.897355
Si Si8 0.799493 0.123192 0.742960
O O1 0.177574 0.250000 0.370140
O O2 0.087049 0.114258 0.372134
O O3 0.186239 0.002757 0.404676
O O4 0.193731 0.115039 0.962935
O O5 0.599165 0.971228 0.705141
O O6 0.500000 0.000000 0.500000
O O7 0.615815 0.098493 0.268957
O O8 0.588346 0.890587 0.205473
O O9 0.070901 0.750000 0.862441
O O10 0.068780 0.501924 0.822307
O O11 0.145785 0.621334 0.076372
O O12 0.025015 0.614715 0.260051
O O13 0.276285 0.250000 0.678731
O O14 0.287459 0.499030 0.644925
O O15 0.305376 0.383960 0.048838
O O16 0.936320 0.750000 0.215308
O O17 0.696013 0.250000 0.366147
O O18 0.733814 0.375548 0.944659
O O19 0.613620 0.750000 0.782913
O O20 0.806946 0.250000 0.591013
#
# Coordination Sequence:
#
# PCOD9165554 Si02
#       8
#     4   4   4   4   4   4   4   4
#     4   9  17  30  49  75 106 136 175 229 287 345
#     4  11  23  40  61  92 126 162 205 255 309 368
#     4   9  18  32  47  65  95 136 181 230 284 345
#     4   8  16  33  56  82 113 151 193 241 297 360
#     4   9  18  31  46  67  97 134 179 232 287 345
#     4   9  19  36  57  83 116 154 195 243 299 363
#     4  10  21  39  63  89 120 159 205 252 302 363
#     4   9  18  33  52  75 105 140 181 228 283 349
#
# _framework density 26.295867999999999
#
# number of rings (size 3 to 8) (size 9 to 14) (size 15 to 20)
#    0.000    2.750    0.000    0.750    0.000    4.000 
#    0.000    2.500    0.000    3.000    0.000    0.000 
#    0.000    0.000    0.000    0.000    0.000    0.000 
#
# Total GULP energy -178413.382993 kJ/mol
# GULP energy per Si atom -5575.418219 kJ/mol
# Density = 2.623602 g / cm^3
# Si number density = 26.295868 Si / 1000 Ang^3
#
#
#
# Elastic Constant Matrix: (Units=GPa)
#
#
# Indices 1 2 3 4 5 6 
#
# 1 114.6504 59.1285 61.8829 0.0000 -33.0540 0.0000
# 2 59.1285 258.7213 28.6649 0.0000 -10.2714 0.0000
# 3 61.8829 28.6649 97.2181 0.0000 -22.6693 0.0000
# 4 0.0000 0.0000 0.0000 -0.2178 0.0000 -10.6278
# 5 -33.0540 -10.2714 -22.6693 0.0000 55.6489 0.0000
# 6 0.0000 0.0000 0.0000 -10.6278 0.0000 7.3094
#
#
#
# Elastic Compliance Matrix: (Units=1/GPa)
#
#
# Indices 1 2 3 4 5 6 
#
# 1 0.016099 -0.002547 -0.008151 0.000000 0.005772 0.000000
# 2 -0.002547 0.004403 0.000177 0.000000 -0.000628 0.000000
# 3 -0.008151 0.000177 0.015802 0.000000 0.001628 0.000000
# 4 0.000000 0.000000 0.000000 -0.063814 0.000000 -0.092785
# 5 0.005772 -0.000628 0.001628 0.000000 0.021946 0.000000
# 6 0.000000 0.000000 0.000000 -0.092785 0.000000 0.001901
#
#
# Mechanical properties :
#
#
# Convention : Reuss Voigt Hill
#
# Bulk Modulus (GPa) = 65.52415 85.54914 75.53664
# Shear Modulus (GPa) = 222.55195 33.94236 128.24715
#
# Velocity S-wave (km/s) = 9.20964 3.59665 6.99119
# Velocity P-wave (km/s) = 11.74999 7.06058 9.69314
#
# Compressibility (1/GPa) = 0.01526155
#
# Stress axis : x y z
#
# Youngs Moduli (GPa) = 62.11420 227.12973 63.28276
#
# Poissons Ratio (x) = 0.57853 0.51581
# Poissons Ratio (y) = 0.15821 -0.01118
# Poissons Ratio (z) = 0.50629 -0.04013
#
# Static dielectric constant tensor:
#      x y z
#    x 2.081320 0.000000 -0.001620 
#    y 0.000000 2.189010 0.000000 
#    z -0.001620 0.000000 2.015060 
# 
# From -- ./inp_files/9404.got.cif
#   From: 2010.05.17/outbox.cif.g08.bks.cpg/sg11_5_cif.got.tgz:9404.got - 2010.06.03 12:22:45.
