data_PCOD9165363
_publ_section_title
;
Structure prediction by ZEFSAII (Michael W. Deem and Ramdas Pophale) SiO2 
 PCOD9165363
Probable space group: P 21/M
;
_chemical_formula_sum "Si O2"
_cell_formula_units_Z 32
_cell_length_a 28.071741
_cell_length_b 8.907510
_cell_length_c 21.947083
_cell_angle_alpha 90.000000
_cell_angle_beta 161.522570
_cell_angle_gamma 90.000000
_cell_volume 1739.271122
_symmetry_space_group_name_H-M "P 21/M"
_symmetry_group_IT_number 11
_symmetry_cell_setting 'monoclinic'
loop_
_space_group_symop_operation_xyz
x,y,z
-x,1/2+y,-z
-x,-y,-z
x,1/2-y,z
loop_
_atom_site_type_symbol
_atom_site_label
_atom_site_fract_x
_atom_site_fract_y
_atom_site_fract_z
Si Si1 0.913444 0.069627 0.482628
Si Si2 0.422987 0.070444 0.346751
Si Si3 0.169431 0.568471 0.480325
Si Si4 0.539772 0.930613 0.233393
Si Si5 0.062916 0.422724 0.136244
Si Si6 0.578632 0.923621 0.421145
Si Si7 0.922468 0.569403 0.084037
Si Si8 0.231419 0.070809 0.812165
O O1 0.895878 0.250000 0.453897
O O2 0.856267 0.027811 0.480320
O O3 0.090354 0.036776 0.685915
O O4 0.822127 0.986473 0.318891
O O5 0.425618 0.250000 0.356690
O O6 0.500000 0.000000 0.500000
O O7 0.506846 0.021648 0.387074
O O8 0.250137 0.019637 0.128879
O O9 0.183047 0.750000 0.493609
O O10 0.316885 0.497269 0.628546
O O11 0.021554 0.523064 0.262425
O O12 0.546688 0.750000 0.238660
O O13 0.545732 0.973953 0.312165
O O14 0.384332 0.990824 0.017310
O O15 0.013088 0.250000 0.078430
O O16 0.242518 0.425865 0.353531
O O17 0.005455 0.508787 0.125470
O O18 0.000000 0.500000 0.000000
O O19 0.527855 0.750000 0.366022
O O20 0.921462 0.750000 0.082064
O O21 0.253181 0.250000 0.837926
#
# Coordination Sequence:
#
# PCOD9165363 Si02
#       8
#     4   4   4   4   4   4   4   4
#     4   9  20  39  63  90 122 156 195 243 291 344
#     4  11  24  40  61  87 118 154 196 244 297 354
#     4  10  21  39  62  87 117 154 197 243 293 348
#     4  11  23  40  60  87 122 158 196 243 293 346
#     4  11  22  38  60  85 115 152 196 241 291 346
#     4  10  23  41  58  83 119 154 194 243 292 347
#     4  10  22  39  59  86 117 151 193 243 295 348
#     4  10  21  38  63  92 122 157 198 240 288 349
#
# _framework density 18.398513000000001
#
# number of rings (size 3 to 8) (size 9 to 14) (size 15 to 20)
#    0.000    1.750    1.250    2.250    1.750    7.500 
#    0.000    0.000    0.000    0.000    0.000    0.000 
#    0.000    0.000    0.000    0.000    0.000    0.000 
#
# Total GULP energy -178731.739942 kJ/mol
# GULP energy per Si atom -5585.366873 kJ/mol
# Density = 1.835664 g / cm^3
# Si number density = 18.398513 Si / 1000 Ang^3
#
#
#
# Elastic Constant Matrix: (Units=GPa)
#
#
# Indices 1 2 3 4 5 6 
#
# 1 160.4864 39.9418 76.0575 0.0000 -6.0629 0.0000
# 2 39.9418 24.0483 45.6017 0.0000 -1.1466 0.0000
# 3 76.0575 45.6017 139.7540 0.0000 -5.3394 0.0000
# 4 0.0000 0.0000 0.0000 24.3226 0.0000 -0.2992
# 5 -6.0629 -1.1466 -5.3394 0.0000 25.5605 0.0000
# 6 0.0000 0.0000 0.0000 -0.2992 0.0000 22.4264
#
#
#
# Elastic Compliance Matrix: (Units=1/GPa)
#
#
# Indices 1 2 3 4 5 6 
#
# 1 0.010699 -0.017762 0.000040 0.000000 0.001749 0.000000
# 2 -0.017762 0.138726 -0.035809 0.000000 -0.005471 0.000000
# 3 0.000040 -0.035809 0.018908 0.000000 0.002353 0.000000
# 4 0.000000 0.000000 0.000000 0.041121 0.000000 0.000549
# 5 0.001749 -0.005471 0.002353 0.000000 0.039784 0.000000
# 6 0.000000 0.000000 0.000000 0.000549 0.000000 0.044598
#
#
# Mechanical properties :
#
#
# Convention : Reuss Voigt Hill
#
# Bulk Modulus (GPa) = 16.32090 71.94339 44.13214
# Shear Modulus (GPa) = 11.86744 25.30774 18.58759
#
# Velocity S-wave (km/s) = 2.54248 3.71284 3.18193
# Velocity P-wave (km/s) = 4.18437 7.58735 6.12686
#
# Compressibility (1/GPa) = 0.06127115
#
# Stress axis : x y z
#
# Youngs Moduli (GPa) = 93.46830 7.20844 52.88812
#
# Poissons Ratio (x) = 0.12804 -0.00212
# Poissons Ratio (y) = 1.66022 1.89385
# Poissons Ratio (z) = -0.00375 0.25812
#
# Static dielectric constant tensor:
#      x y z
#    x 1.598120 0.000000 -0.008820 
#    y 0.000000 1.625600 0.000000 
#    z -0.008820 0.000000 1.596360 
# 
# From -- ./inp_files/67212.got.cif
#   From: 2010.05.17/outbox.cif.g08.bks.cpg/sg11_34_cif.got.tgz:67212.got - 2010.06.03 12:22:45.
