data_PCOD9165400
_publ_section_title
;
Structure prediction by ZEFSAII (Michael W. Deem and Ramdas Pophale) SiO2 
 PCOD9165400
Probable space group: P 21/M
;
_chemical_formula_sum "Si O2"
_cell_formula_units_Z 28
_cell_length_a 9.159444
_cell_length_b 20.285823
_cell_length_c 13.743052
_cell_angle_alpha 90.000000
_cell_angle_beta 148.780304
_cell_angle_gamma 90.000000
_cell_volume 1323.560367
_symmetry_space_group_name_H-M "P 21/M"
_symmetry_group_IT_number 11
_symmetry_cell_setting 'monoclinic'
loop_
_space_group_symop_operation_xyz
x,y,z
-x,1/2+y,-z
-x,-y,-z
x,1/2-y,z
loop_
_atom_site_type_symbol
_atom_site_label
_atom_site_fract_x
_atom_site_fract_y
_atom_site_fract_z
Si Si1 0.366987 0.874057 0.537817
Si Si2 0.057233 0.386852 0.200070
Si Si3 0.488844 0.924102 0.227772
Si Si4 0.812336 0.459196 0.748830
Si Si5 0.544762 0.934787 0.838506
Si Si6 0.819832 0.678489 0.315744
Si Si7 0.341983 0.826842 0.875811
O O1 0.670327 0.846291 0.678929
O O2 0.248612 0.916022 0.380458
O O3 0.440588 0.918832 0.671960
O O4 0.122033 0.827764 0.437856
O O5 0.159116 0.463522 0.263036
O O6 0.931041 0.356206 0.225812
O O7 0.795657 0.389615 0.975708
O O8 0.413841 0.944390 0.295113
O O9 0.748447 0.876377 0.354994
O O10 0.542816 0.989512 0.193222
O O11 0.116862 0.438301 0.964141
O O12 0.431864 0.878043 0.844076
O O13 0.784899 0.750000 0.341167
O O14 0.591194 0.671446 0.098855
O O15 0.309487 0.750000 0.827299
#
# Coordination Sequence:
#
# PCOD9165400 Si02
#       7
#     4   4   4   4   4   4   4
#     4  12  23  38  67  98 128 164 211 269 315 386
#     4  10  21  38  65  96 128 166 218 260 319 386
#     4  10  21  41  67  93 135 169 213 269 321 384
#     4  11  21  41  64 100 133 163 203 275 324 376
#     4  11  22  40  67  98 126 168 215 264 325 380
#     4  10  24  43  63  94 131 172 218 264 322 388
#     4  10  23  44  65  89 131 176 214 263 326 387
#
# _framework density 21.155062000000001
#
# number of rings (size 3 to 8) (size 9 to 14) (size 15 to 20)
#    0.000    1.429    4.286    1.286    2.000    4.571 
#    0.000    1.429    0.000    0.000    0.000    0.000 
#    0.000    0.000    0.000    0.000    0.000    0.000 
#
# Total GULP energy -156361.438017 kJ/mol
# GULP energy per Si atom -5584.337072 kJ/mol
# Density = 2.110691 g / cm^3
# Si number density = 21.155062 Si / 1000 Ang^3
#
#
#
# Elastic Constant Matrix: (Units=GPa)
#
#
# Indices 1 2 3 4 5 6 
#
# 1 116.8188 87.6183 17.8032 0.0000 24.5772 0.0000
# 2 87.6183 126.8903 32.1027 0.0000 19.3222 0.0000
# 3 17.8032 32.1027 45.1337 0.0000 -1.8942 0.0000
# 4 0.0000 0.0000 0.0000 8.7528 0.0000 9.4025
# 5 24.5772 19.3222 -1.8942 0.0000 37.9435 0.0000
# 6 0.0000 0.0000 0.0000 9.4025 0.0000 -2.0117
#
#
#
# Elastic Compliance Matrix: (Units=1/GPa)
#
#
# Indices 1 2 3 4 5 6 
#
# 1 0.019020 -0.012533 0.001165 0.000000 -0.005879 0.000000
# 2 -0.012533 0.019037 -0.008682 0.000000 -0.002010 0.000000
# 3 0.001165 -0.008682 0.028085 0.000000 0.005068 0.000000
# 4 0.000000 0.000000 0.000000 0.018976 0.000000 0.088690
# 5 -0.005879 -0.002010 0.005068 0.000000 0.031440 0.000000
# 6 0.000000 0.000000 0.000000 0.088690 0.000000 -0.082562
#
#
# Mechanical properties :
#
#
# Convention : Reuss Voigt Hill
#
# Bulk Modulus (GPa) = 38.39782 62.65456 50.52619
# Shear Modulus (GPa) = 60.40504 19.02481 39.71492
#
# Velocity S-wave (km/s) = 5.34934 3.00209 4.33751
# Velocity P-wave (km/s) = 7.50626 6.45739 7.00149
#
# Compressibility (1/GPa) = 0.02604315
#
# Stress axis : x y z
#
# Youngs Moduli (GPa) = 52.57753 52.52901 35.60674
#
# Poissons Ratio (x) = 0.65832 -0.04149
# Poissons Ratio (y) = 0.65893 0.30912
# Poissons Ratio (z) = -0.06126 0.45603
#
# Static dielectric constant tensor:
#      x y z
#    x 1.764630 0.000000 0.011870 
#    y 0.000000 1.760390 0.000000 
#    z 0.011870 0.000000 1.796400 
# 
# From -- ./inp_files/48313.got.cif
#   From: 2010.05.17/outbox.cif.g08.bks.cpg/sg11_25_cif.got.tgz:48313.got - 2010.06.03 12:22:45.
