data_PCOD9165764
_publ_section_title
;
Structure prediction by ZEFSAII (Michael W. Deem and Ramdas Pophale) SiO2 
 PCOD9165764
Probable space group: P 21/M
;
_chemical_formula_sum "Si O2"
_cell_formula_units_Z 32
_cell_length_a 12.740956
_cell_length_b 13.140566
_cell_length_c 13.263799
_cell_angle_alpha 90.000000
_cell_angle_beta 41.486325
_cell_angle_gamma 90.000000
_cell_volume 1471.063443
_symmetry_space_group_name_H-M "P 21/M"
_symmetry_group_IT_number 11
_symmetry_cell_setting 'monoclinic'
loop_
_space_group_symop_operation_xyz
x,y,z
-x,1/2+y,-z
-x,-y,-z
x,1/2-y,z
loop_
_atom_site_type_symbol
_atom_site_label
_atom_site_fract_x
_atom_site_fract_y
_atom_site_fract_z
Si Si1 0.199952 0.366644 0.451995
Si Si2 0.719905 0.503495 0.776072
Si Si3 0.561566 0.633557 0.052702
Si Si4 0.562946 0.525148 0.586598
Si Si5 0.287477 0.129817 0.849220
Si Si6 0.900567 0.131252 0.809128
Si Si7 0.315389 0.632466 0.636260
Si Si8 0.949699 0.371201 0.001214
O O1 0.207973 0.250000 0.412290
O O2 0.163951 0.441919 0.385619
O O3 0.365526 0.406749 0.377018
O O4 0.073642 0.371133 0.633234
O O5 0.592339 0.433059 0.810979
O O6 0.795036 0.435509 0.810074
O O7 0.625253 0.592411 0.901376
O O8 0.513583 0.750000 0.081214
O O9 0.696410 0.625190 0.041235
O O10 0.424931 0.445736 0.714242
O O11 0.484568 0.603784 0.564310
O O12 0.697706 0.452796 0.440672
O O13 0.315058 0.250000 0.802698
O O14 0.119497 0.096159 0.923766
O O15 0.847427 0.250000 0.847233
O O16 0.906114 0.092056 0.920270
O O17 0.310224 0.750000 0.605876
O O18 0.184876 0.618636 0.817227
O O19 0.968797 0.250000 0.972467
#
# Coordination Sequence:
#
# PCOD9165764 Si02
#       8
#     4   4   4   4   4   4   4   4
#     4  11  24  43  64  93 127 168 220 272 328 388
#     4  11  22  41  65  92 125 167 218 269 328 384
#     4  10  22  39  63  94 126 165 214 270 325 384
#     4  11  23  39  62  96 126 174 212 261 331 379
#     4  10  21  40  64  93 131 169 213 260 322 390
#     4  10  23  41  66  96 129 170 216 267 323 389
#     4  10  23  40  60  92 131 170 219 265 316 389
#     4   9  21  41  65  93 130 173 210 260 319 382
#
# _framework density 21.752972
#
# number of rings (size 3 to 8) (size 9 to 14) (size 15 to 20)
#    0.000    1.750    1.250    1.875    5.250    1.500 
#    0.000    2.500    0.000    1.500    0.000    0.000 
#    0.000    0.000    0.000    0.000    0.000    0.000 
#
# Total GULP energy -178727.800611 kJ/mol
# GULP energy per Si atom -5585.243769 kJ/mol
# Density = 2.170346 g / cm^3
# Si number density = 21.752972 Si / 1000 Ang^3
#
#
#
# Elastic Constant Matrix: (Units=GPa)
#
#
# Indices 1 2 3 4 5 6 
#
# 1 90.1350 30.2447 14.9768 0.0000 1.2574 0.0000
# 2 30.2447 84.9373 24.1197 0.0000 10.3431 0.0000
# 3 14.9768 24.1197 63.0935 0.0000 2.5129 0.0000
# 4 0.0000 0.0000 0.0000 30.1142 0.0000 3.9374
# 5 1.2574 10.3431 2.5129 0.0000 19.4729 0.0000
# 6 0.0000 0.0000 0.0000 3.9374 0.0000 27.0173
#
#
#
# Elastic Compliance Matrix: (Units=1/GPa)
#
#
# Indices 1 2 3 4 5 6 
#
# 1 0.012767 -0.004341 -0.001437 0.000000 0.001667 0.000000
# 2 -0.004341 0.015526 -0.004611 0.000000 -0.007371 0.000000
# 3 -0.001437 -0.004611 0.017945 0.000000 0.000227 0.000000
# 4 0.000000 0.000000 0.000000 0.033852 0.000000 -0.004933
# 5 0.001667 -0.007371 0.000227 0.000000 0.055132 0.000000
# 6 0.000000 0.000000 0.000000 -0.004933 0.000000 0.037732
#
#
# Mechanical properties :
#
#
# Convention : Reuss Voigt Hill
#
# Bulk Modulus (GPa) = 39.28025 41.87201 40.57613
# Shear Modulus (GPa) = 24.72566 26.57584 25.65075
#
# Velocity S-wave (km/s) = 3.37509 3.49909 3.43765
# Velocity P-wave (km/s) = 5.76931 5.96787 5.86943
#
# Compressibility (1/GPa) = 0.02545809
#
# Stress axis : x y z
#
# Youngs Moduli (GPa) = 78.32947 64.40723 55.72708
#
# Poissons Ratio (x) = 0.27957 0.08011
# Poissons Ratio (y) = 0.34001 0.25698
# Poissons Ratio (z) = 0.11260 0.29701
#
# Static dielectric constant tensor:
#      x y z
#    x 1.793930 0.000000 0.013360 
#    y 0.000000 1.806700 0.000000 
#    z 0.013360 0.000000 1.807090 
# 
# From -- ./inp_files/52298.got.cif
#   From: 2010.05.17/outbox.cif.g08.bks.cpg/sg11_27_cif.got.tgz:52298.got - 2010.06.03 12:22:45.
