data_PCOD9165099
_publ_section_title
;
Structure prediction by ZEFSAII (Michael W. Deem and Ramdas Pophale) SiO2 
 PCOD9165099
Probable space group: P 21/M
;
_chemical_formula_sum "Si O2"
_cell_formula_units_Z 28
_cell_length_a 14.267564
_cell_length_b 8.666220
_cell_length_c 19.861162
_cell_angle_alpha 90.000000
_cell_angle_beta 30.817384
_cell_angle_gamma 90.000000
_cell_volume 1258.089330
_symmetry_space_group_name_H-M "P 21/M"
_symmetry_group_IT_number 11
_symmetry_cell_setting 'monoclinic'
loop_
_space_group_symop_operation_xyz
x,y,z
-x,1/2+y,-z
-x,-y,-z
x,1/2-y,z
loop_
_atom_site_type_symbol
_atom_site_label
_atom_site_fract_x
_atom_site_fract_y
_atom_site_fract_z
Si Si1 0.820041 0.569110 0.990799
Si Si2 0.038241 0.937032 0.235974
Si Si3 0.321323 0.418022 0.586596
Si Si4 0.523800 0.068618 0.264916
Si Si5 0.792275 0.063606 0.622993
Si Si6 0.828639 0.575769 0.171565
Si Si7 0.350029 0.933592 0.144527
O O1 0.775496 0.750000 0.020122
O O2 0.868038 0.518783 0.885550
O O3 0.991854 0.531641 0.934279
O O4 0.655546 0.467388 0.120201
O O5 0.034696 0.750000 0.227375
O O6 0.156085 0.965352 0.228686
O O7 0.827935 0.991533 0.370225
O O8 0.500000 0.500000 0.500000
O O9 0.371228 0.250000 0.529143
O O10 0.214024 0.407092 0.723058
O O11 0.507212 0.250000 0.286779
O O12 0.327679 0.997432 0.366063
O O13 0.647023 0.991232 0.248030
O O14 0.798745 0.250000 0.617623
O O15 0.678947 0.014883 0.760640
O O16 0.000000 0.000000 0.500000
O O17 0.865980 0.750000 0.123759
O O18 0.382624 0.750000 0.126491
O O19 0.500000 0.000000 0.000000
#
# Coordination Sequence:
#
# PCOD9165099 Si02
#       7
#     4   4   4   4   4   4   4
#     4  11  21  35  57  89 123 154 191 242 298 362
#     4   9  19  37  57  81 114 153 192 240 299 358
#     4   9  19  34  54  79 111 147 185 230 285 349
#     4  12  24  39  60  85 115 158 201 245 300 360
#     4  11  25  45  65  92 127 166 211 262 314 371
#     4  10  21  38  57  83 117 153 192 239 293 357
#     4  10  22  40  65  93 122 157 205 258 311 367
#
# _framework density 22.255970999999999
#
# number of rings (size 3 to 8) (size 9 to 14) (size 15 to 20)
#    0.000    1.714    0.000    5.571    0.000    8.000 
#    0.000    1.429    0.000    0.000    0.000    0.000 
#    0.000    0.000    0.000    0.000    0.000    0.000 
#
# Total GULP energy -156287.779534 kJ/mol
# GULP energy per Si atom -5581.706412 kJ/mol
# Density = 2.220532 g / cm^3
# Si number density = 22.255971 Si / 1000 Ang^3
#
#
#
# Elastic Constant Matrix: (Units=GPa)
#
#
# Indices 1 2 3 4 5 6 
#
# 1 139.3734 28.9408 27.3330 0.0000 -23.1521 0.0000
# 2 28.9408 79.6100 16.0447 0.0000 -7.8575 0.0000
# 3 27.3330 16.0447 66.7344 0.0000 -20.1390 0.0000
# 4 0.0000 0.0000 0.0000 30.2485 0.0000 -8.1438
# 5 -23.1521 -7.8575 -20.1390 0.0000 44.9477 0.0000
# 6 0.0000 0.0000 0.0000 -8.1438 0.0000 26.3548
#
#
#
# Elastic Compliance Matrix: (Units=1/GPa)
#
#
# Indices 1 2 3 4 5 6 
#
# 1 0.008583 -0.002411 -0.001999 0.000000 0.003104 0.000000
# 2 -0.002411 0.013919 -0.002312 0.000000 0.000155 0.000000
# 3 -0.001999 -0.002312 0.018417 0.000000 0.006818 0.000000
# 4 0.000000 0.000000 0.000000 0.036059 0.000000 0.011143
# 5 0.003104 0.000155 0.006818 0.000000 0.026929 0.000000
# 6 0.000000 0.000000 0.000000 0.011143 0.000000 0.041387
#
#
# Mechanical properties :
#
#
# Convention : Reuss Voigt Hill
#
# Bulk Modulus (GPa) = 36.39709 47.81721 42.10715
# Shear Modulus (GPa) = 29.78014 34.53682 32.15848
#
# Velocity S-wave (km/s) = 3.66194 3.94356 3.80536
# Velocity P-wave (km/s) = 5.85398 6.50133 6.18613
#
# Compressibility (1/GPa) = 0.02747472
#
# Stress axis : x y z
#
# Youngs Moduli (GPa) = 116.50534 71.84405 54.29776
#
# Poissons Ratio (x) = 0.17322 0.10855
# Poissons Ratio (y) = 0.28090 0.12554
# Poissons Ratio (z) = 0.23291 0.16611
#
# Static dielectric constant tensor:
#      x y z
#    x 1.853900 0.000000 -0.015740 
#    y 0.000000 1.784950 0.000000 
#    z -0.015740 0.000000 1.913640 
# 
# From -- ./inp_files/65356.got.cif
#   From: 2010.05.17/outbox.cif.g08.bks.cpg/sg11_33_cif.got.tgz:65356.got - 2010.06.03 12:22:45.
