data_PCOD9165992
_publ_section_title
;
Structure prediction by ZEFSAII (Michael W. Deem and Ramdas Pophale) SiO2 
 PCOD9165992
Probable space group: P 21/M
;
_chemical_formula_sum "Si O2"
_cell_formula_units_Z 28
_cell_length_a 9.453431
_cell_length_b 29.023165
_cell_length_c 5.288612
_cell_angle_alpha 90.000000
_cell_angle_beta 70.020895
_cell_angle_gamma 90.000000
_cell_volume 1363.701648
_symmetry_space_group_name_H-M "P 21/M"
_symmetry_group_IT_number 11
_symmetry_cell_setting 'monoclinic'
loop_
_space_group_symop_operation_xyz
x,y,z
-x,1/2+y,-z
-x,-y,-z
x,1/2-y,z
loop_
_atom_site_type_symbol
_atom_site_label
_atom_site_fract_x
_atom_site_fract_y
_atom_site_fract_z
Si Si1 0.331496 0.303327 0.080955
Si Si2 0.514606 0.840343 0.504723
Si Si3 0.351970 0.064807 0.421447
Si Si4 0.162935 0.023227 0.926543
Si Si5 0.666656 0.053295 0.969691
Si Si6 0.761401 0.107559 0.413282
Si Si7 0.110749 0.114049 0.222995
O O1 0.293431 0.250000 0.136376
O O2 0.429547 0.320427 0.261793
O O3 0.187253 0.336589 0.145481
O O4 0.421998 0.311736 0.767186
O O5 0.577425 0.893037 0.456800
O O6 0.336627 0.847050 0.583629
O O7 0.286531 0.023355 0.627995
O O8 0.490905 0.051805 0.152831
O O9 0.209554 0.088302 0.374016
O O10 0.247244 0.995381 0.096137
O O11 0.132806 0.077224 0.985411
O O12 0.000000 0.000000 0.000000
O O13 0.745630 0.078165 0.163979
O O14 0.692530 0.081280 0.697800
O O15 0.934056 0.116928 0.374381
#
# Coordination Sequence:
#
# PCOD9165992 Si02
#       7
#     4   4   4   4   4   4   4
#     4  11  23  44  71  98 122 162 215 272 333 398
#     4  10  21  43  67  93 126 164 211 264 325 386
#     4  10  23  40  61  91 129 177 225 268 314 377
#     4  12  23  39  60  95 137 181 224 266 324 377
#     4  11  25  39  63  91 133 179 228 260 304 380
#     4  11  23  42  64  95 130 176 210 262 325 379
#     4  11  24  40  66  91 137 169 218 271 331 386
#
# _framework density 20.532349
#
# number of rings (size 3 to 8) (size 9 to 14) (size 15 to 20)
#    0.000    1.143    2.857    4.286    4.000    1.714 
#    0.000    1.429    0.000    0.000    0.000    0.000 
#    0.000    0.000    0.000    0.000    0.000    0.000 
#
# Total GULP energy -156383.624549 kJ/mol
# GULP energy per Si atom -5585.129448 kJ/mol
# Density = 2.048562 g / cm^3
# Si number density = 20.532349 Si / 1000 Ang^3
#
#
#
# Elastic Constant Matrix: (Units=GPa)
#
#
# Indices 1 2 3 4 5 6 
#
# 1 169.9210 49.4711 42.3080 0.0000 -10.5835 0.0000
# 2 49.4711 119.0781 33.5334 0.0000 -4.9852 0.0000
# 3 42.3080 33.5334 98.8445 0.0000 6.7590 0.0000
# 4 0.0000 0.0000 0.0000 25.5482 0.0000 -0.1491
# 5 -10.5835 -4.9852 6.7590 0.0000 23.7459 0.0000
# 6 0.0000 0.0000 0.0000 -0.1491 0.0000 16.8934
#
#
#
# Elastic Compliance Matrix: (Units=1/GPa)
#
#
# Indices 1 2 3 4 5 6 
#
# 1 0.007410 -0.002172 -0.002682 0.000000 0.003610 0.000000
# 2 -0.002172 0.010122 -0.002635 0.000000 0.001907 0.000000
# 3 -0.002682 -0.002635 0.012522 0.000000 -0.005312 0.000000
# 4 0.000000 0.000000 0.000000 0.039144 0.000000 0.000345
# 5 0.003610 0.001907 -0.005312 0.000000 0.045634 0.000000
# 6 0.000000 0.000000 0.000000 0.000345 0.000000 0.059198
#
#
# Mechanical properties :
#
#
# Convention : Reuss Voigt Hill
#
# Bulk Modulus (GPa) = 66.32589 70.94095 68.63342
# Shear Modulus (GPa) = 25.76898 30.73957 28.25428
#
# Velocity S-wave (km/s) = 3.54650 3.87347 3.71359
# Velocity P-wave (km/s) = 7.01024 7.39127 7.20328
#
# Compressibility (1/GPa) = 0.01507707
#
# Stress axis : x y z
#
# Youngs Moduli (GPa) = 134.95223 98.79433 79.86106
#
# Poissons Ratio (x) = 0.21460 0.21416
# Poissons Ratio (y) = 0.29315 0.21040
# Poissons Ratio (z) = 0.36189 0.26028
#
# Static dielectric constant tensor:
#      x y z
#    x 1.737150 0.000000 0.013650 
#    y 0.000000 1.763150 0.000000 
#    z 0.013650 0.000000 1.793160 
# 
# From -- ./inp_files/3209.got.cif
#   From: 2010.05.17/outbox.cif.g08.bks.cpg/sg11_2_cif.got.tgz:3209.got - 2010.06.03 12:22:45.
