data_PCOD9165349
_publ_section_title
;
Structure prediction by ZEFSAII (Michael W. Deem and Ramdas Pophale) SiO2 
 PCOD9165349
Probable space group: P 21/M
;
_chemical_formula_sum "Si O2"
_cell_formula_units_Z 32
_cell_length_a 14.843960
_cell_length_b 8.127598
_cell_length_c 12.625235
_cell_angle_alpha 90.000000
_cell_angle_beta 89.377752
_cell_angle_gamma 90.000000
_cell_volume 1523.090989
_symmetry_space_group_name_H-M "P 21/M"
_symmetry_group_IT_number 11
_symmetry_cell_setting 'monoclinic'
loop_
_space_group_symop_operation_xyz
x,y,z
-x,1/2+y,-z
-x,-y,-z
x,1/2-y,z
loop_
_atom_site_type_symbol
_atom_site_label
_atom_site_fract_x
_atom_site_fract_y
_atom_site_fract_z
Si Si1 0.987657 0.558276 0.839981
Si Si2 0.267823 0.050557 0.679480
Si Si3 0.467735 0.052387 0.617371
Si Si4 0.179452 0.946647 0.900033
Si Si5 0.785974 0.556029 0.877519
Si Si6 0.203261 0.440844 0.454274
Si Si7 0.347464 0.555579 0.300696
Si Si8 0.026209 0.563407 0.384100
O O1 0.982308 0.750000 0.868611
O O2 0.887788 0.486087 0.858288
O O3 0.006789 0.541162 0.714437
O O4 0.075676 0.488175 0.896808
O O5 0.268028 0.250000 0.684561
O O6 0.369515 0.990965 0.653864
O O7 0.209551 0.007361 0.576066
O O8 0.226659 0.984448 0.788107
O O9 0.460629 0.250000 0.615513
O O10 0.547737 0.007153 0.697791
O O11 0.500000 0.000000 0.500000
O O12 0.176854 0.750000 0.914820
O O13 0.229969 0.027186 0.998254
O O14 0.788472 0.750000 0.851593
O O15 0.709793 0.480145 0.803762
O O16 0.174792 0.250000 0.448350
O O17 0.299048 0.460484 0.397300
O O18 0.134183 0.548092 0.387946
O O19 0.342681 0.750000 0.323281
O O20 0.996442 0.750000 0.369228
O O21 0.000000 0.500000 0.500000
#
# Coordination Sequence:
#
# PCOD9165349 Si02
#       8
#     4   4   4   4   4   4   4   4
#     4  10  22  40  61  87 119 157 203 251 302 359
#     4  10  22  40  61  88 123 162 201 246 303 366
#     4  10  21  38  62  92 125 159 199 248 302 364
#     4  11  24  41  62  89 121 157 204 257 303 357
#     4  11  23  41  65  88 120 163 205 250 301 363
#     4  11  21  36  59  86 121 159 198 244 300 362
#     4  11  22  37  61  93 123 154 198 250 300 354
#     4  12  24  36  54  82 121 163 203 248 299 358
#
# _framework density 21.009906999999998
#
# number of rings (size 3 to 8) (size 9 to 14) (size 15 to 20)
#    0.000    1.250    2.500    3.750    0.000    5.500 
#    0.000    0.625    0.000    0.000    0.000    0.000 
#    0.000    0.000    0.000    0.000    0.000    0.000 
#
# Total GULP energy -178845.775560 kJ/mol
# GULP energy per Si atom -5588.930486 kJ/mol
# Density = 2.096209 g / cm^3
# Si number density = 21.009907 Si / 1000 Ang^3
#
#
#
# Elastic Constant Matrix: (Units=GPa)
#
#
# Indices 1 2 3 4 5 6 
#
# 1 92.4008 9.3141 26.3942 0.0000 14.5841 0.0000
# 2 9.3141 27.7010 -2.1974 0.0000 2.7388 0.0000
# 3 26.3942 -2.1974 110.1216 0.0000 16.7244 0.0000
# 4 0.0000 0.0000 0.0000 28.9459 0.0000 -1.5789
# 5 14.5841 2.7388 16.7244 0.0000 28.6317 0.0000
# 6 0.0000 0.0000 0.0000 -1.5789 0.0000 21.3226
#
#
#
# Elastic Compliance Matrix: (Units=1/GPa)
#
#
# Indices 1 2 3 4 5 6 
#
# 1 0.012645 -0.003982 -0.002403 0.000000 -0.004656 0.000000
# 2 -0.003982 0.037890 0.002143 0.000000 -0.002848 0.000000
# 3 -0.002403 0.002143 0.010474 0.000000 -0.005099 0.000000
# 4 0.000000 0.000000 0.000000 0.034687 0.000000 0.002569
# 5 -0.004656 -0.002848 -0.005099 0.000000 0.040549 0.000000
# 6 0.000000 0.000000 0.000000 0.002569 0.000000 0.047089
#
#
# Mechanical properties :
#
#
# Convention : Reuss Voigt Hill
#
# Bulk Modulus (GPa) = 19.03847 33.02726 26.03286
# Shear Modulus (GPa) = 23.88604 28.89420 26.39012
#
# Velocity S-wave (km/s) = 3.37544 3.71248 3.54797
# Velocity P-wave (km/s) = 4.92675 5.84215 5.40386
#
# Compressibility (1/GPa) = 0.05252523
#
# Stress axis : x y z
#
# Youngs Moduli (GPa) = 79.08130 26.39202 95.47431
#
# Poissons Ratio (x) = 0.10509 0.22943
# Poissons Ratio (y) = 0.31491 -0.20460
# Poissons Ratio (z) = 0.19004 -0.05656
#
# Static dielectric constant tensor:
#      x y z
#    x 1.821600 0.000000 -0.011200 
#    y 0.000000 1.754570 0.000000 
#    z -0.011200 0.000000 1.741880 
# 
# From -- ./inp_files/38268.got.cif
#   From: 2010.05.17/outbox.cif.g08.bks.cpg/sg11_20_cif.got.tgz:38268.got - 2010.06.03 12:22:45.
