data_PCOD9165384
_publ_section_title
;
Structure prediction by ZEFSAII (Michael W. Deem and Ramdas Pophale) SiO2 
 PCOD9165384
Probable space group: P 21/M
;
_chemical_formula_sum "Si O2"
_cell_formula_units_Z 28
_cell_length_a 22.214079
_cell_length_b 8.686296
_cell_length_c 14.742242
_cell_angle_alpha 90.000000
_cell_angle_beta 30.492208
_cell_angle_gamma 90.000000
_cell_volume 1443.427794
_symmetry_space_group_name_H-M "P 21/M"
_symmetry_group_IT_number 11
_symmetry_cell_setting 'monoclinic'
loop_
_space_group_symop_operation_xyz
x,y,z
-x,1/2+y,-z
-x,-y,-z
x,1/2-y,z
loop_
_atom_site_type_symbol
_atom_site_label
_atom_site_fract_x
_atom_site_fract_y
_atom_site_fract_z
Si Si1 0.615605 0.567637 0.463737
Si Si2 0.706740 0.434189 0.520121
Si Si3 0.136146 0.568377 0.177350
Si Si4 0.516090 0.065575 0.080576
Si Si5 0.229307 0.066813 0.234683
Si Si6 0.106212 0.934166 0.572411
Si Si7 0.356469 0.432077 0.785518
O O1 0.603959 0.750000 0.493988
O O2 0.704732 0.495912 0.420630
O O3 0.487082 0.489357 0.643439
O O4 0.652141 0.543627 0.311832
O O5 0.692633 0.250000 0.539521
O O6 0.594065 0.509590 0.716674
O O7 0.822913 0.472994 0.427936
O O8 0.130585 0.750000 0.200698
O O9 0.144152 0.481725 0.263166
O O10 0.020995 0.512512 0.272671
O O11 0.254007 0.523161 0.969545
O O12 0.521104 0.250000 0.071796
O O13 0.500000 0.000000 0.000000
O O14 0.639877 0.998170 0.956104
O O15 0.233331 0.250000 0.238916
O O16 0.184817 0.991673 0.385655
O O17 0.093561 0.750000 0.583713
O O18 0.345059 0.250000 0.819440
#
# Coordination Sequence:
#
# PCOD9165384 Si02
#       7
#     4   4   4   4   4   4   4
#     4  10  21  38  64  94 123 154 192 243 299 357
#     4  11  23  39  61  88 122 160 198 243 297 357
#     4  12  25  41  62  87 118 156 202 250 298 353
#     4  12  23  37  58  86 121 156 196 243 294 349
#     4  12  24  40  62  87 119 159 202 247 298 354
#     4  11  24  42  61  84 119 159 203 248 294 353
#     4  10  21  40  64  91 122 154 195 245 298 353
#
# _framework density 19.398268000000002
#
# number of rings (size 3 to 8) (size 9 to 14) (size 15 to 20)
#    0.000    0.857    1.429    6.857    0.000    3.429 
#    0.000    0.714    0.000    0.000    0.000    0.000 
#    0.000    0.000    0.000    0.000    0.000    0.000 
#
# Total GULP energy -156728.641193 kJ/mol
# GULP energy per Si atom -5597.451471 kJ/mol
# Density = 1.935412 g / cm^3
# Si number density = 19.398268 Si / 1000 Ang^3
#
#
#
# Elastic Constant Matrix: (Units=GPa)
#
#
# Indices 1 2 3 4 5 6 
#
# 1 110.3556 9.7798 6.2939 0.0000 -11.2362 0.0000
# 2 9.7798 43.2946 -7.2801 0.0000 0.5255 0.0000
# 3 6.2939 -7.2801 19.0319 0.0000 -12.8198 0.0000
# 4 0.0000 0.0000 0.0000 31.0054 0.0000 -2.6995
# 5 -11.2362 0.5255 -12.8198 0.0000 20.5156 0.0000
# 6 0.0000 0.0000 0.0000 -2.6995 0.0000 33.5704
#
#
#
# Elastic Compliance Matrix: (Units=1/GPa)
#
#
# Indices 1 2 3 4 5 6 
#
# 1 0.009825 -0.002427 -0.000882 0.000000 0.004892 0.000000
# 2 -0.002427 0.026309 0.016435 0.000000 0.008267 0.000000
# 3 -0.000882 0.016435 0.101044 0.000000 0.062236 0.000000
# 4 0.000000 0.000000 0.000000 0.032480 0.000000 0.002612
# 5 0.004892 0.008267 0.062236 0.000000 0.090101 0.000000
# 6 0.000000 0.000000 0.000000 0.002612 0.000000 0.029998
#
#
# Mechanical properties :
#
#
# Convention : Reuss Voigt Hill
#
# Bulk Modulus (GPa) = 6.11890 21.14105 13.62997
# Shear Modulus (GPa) = 15.72409 27.94417 21.83413
#
# Velocity S-wave (km/s) = 2.85018 3.79958 3.35859
# Velocity P-wave (km/s) = 3.74066 5.49282 4.69913
#
# Compressibility (1/GPa) = 0.16342816
#
# Stress axis : x y z
#
# Youngs Moduli (GPa) = 101.77980 38.00973 9.89669
#
# Poissons Ratio (x) = 0.09226 0.00873
# Poissons Ratio (y) = 0.24704 -0.16265
# Poissons Ratio (z) = 0.08982 -0.62468
#
# Static dielectric constant tensor:
#      x y z
#    x 1.692450 0.000000 -0.001980 
#    y 0.000000 1.643900 0.000000 
#    z -0.001980 0.000000 1.656480 
# 
# From -- ./inp_files/54485.got.cif
#   From: 2010.05.17/outbox.cif.g08.bks.cpg/sg11_28_cif.got.tgz:54485.got - 2010.06.03 12:22:45.
