data_PCOD9165581
_publ_section_title
;
Structure prediction by ZEFSAII (Michael W. Deem and Ramdas Pophale) SiO2 
 PCOD9165581
Probable space group: P 21/M
;
_chemical_formula_sum "Si O2"
_cell_formula_units_Z 28
_cell_length_a 4.979327
_cell_length_b 17.686089
_cell_length_c 14.099080
_cell_angle_alpha 90.000000
_cell_angle_beta 109.045678
_cell_angle_gamma 90.000000
_cell_volume 1173.664375
_symmetry_space_group_name_H-M "P 21/M"
_symmetry_group_IT_number 11
_symmetry_cell_setting 'monoclinic'
loop_
_space_group_symop_operation_xyz
x,y,z
-x,1/2+y,-z
-x,-y,-z
x,1/2-y,z
loop_
_atom_site_type_symbol
_atom_site_label
_atom_site_fract_x
_atom_site_fract_y
_atom_site_fract_z
Si Si1 0.957106 0.628138 0.482781
Si Si2 0.823635 0.170490 0.314943
Si Si3 0.912193 0.750000 0.210634
Si Si4 0.234577 0.573896 0.944928
Si Si5 0.453993 0.250000 0.643366
Si Si6 0.265570 0.403104 0.250288
Si Si7 0.169180 0.399347 0.931286
Si Si8 0.214836 0.992707 0.406616
O O1 0.174550 0.675190 0.570540
O O2 0.071858 0.587988 0.402443
O O3 0.681324 0.676953 0.426353
O O4 0.955264 0.557803 0.557384
O O5 0.728239 0.250000 0.263401
O O6 0.586094 0.110960 0.257671
O O7 0.143128 0.155028 0.315338
O O8 0.210330 0.750000 0.302831
O O9 0.674528 0.750000 0.265082
O O10 0.883687 0.827687 0.144123
O O11 0.252119 0.486306 0.910114
O O12 0.972746 0.605885 0.855259
O O13 0.537359 0.615398 0.976480
O O14 0.110812 0.583867 0.037646
O O15 0.255824 0.483032 0.303691
O O16 0.500000 0.000000 0.500000
#
# Coordination Sequence:
#
# PCOD9165581 Si02
#       8
#     4   4   2   4   2   4   4   4
#     4  10  23  41  60  92 134 179 220 259 322 374
#     4  11  22  41  58  88 135 170 207 262 313 366
#     4  12  28  48  68 105 130 171 216 284 348 412
#     4  10  22  44  71  97 121 174 214 271 327 401
#     4  12  28  42  70 101 132 181 224 266 336 402
#     4  11  23  38  65  96 123 164 225 256 308 388
#     4  10  23  47  70  92 134 162 210 273 354 389
#     4  10  21  39  63  93 133 182 215 271 314 363
#
# _framework density 23.856905999999999
#
# number of rings (size 3 to 8) (size 9 to 14) (size 15 to 20)
#    0.000    1.429    2.143    2.143    4.000    0.000 
#    7.714    0.000    0.000    0.000    0.000    0.000 
#    0.000    0.000    0.000    0.000    0.000    0.000 
#
# Total GULP energy -155928.957266 kJ/mol
# GULP energy per Si atom -5568.891331 kJ/mol
# Density = 2.380261 g / cm^3
# Si number density = 23.856906 Si / 1000 Ang^3
#
#
#
# Elastic Constant Matrix: (Units=GPa)
#
#
# Indices 1 2 3 4 5 6 
#
# 1 86.0315 7.6037 0.3249 0.0000 21.0213 0.0000
# 2 7.6037 80.7252 13.7146 0.0000 5.1367 0.0000
# 3 0.3249 13.7146 69.6176 0.0000 24.2335 0.0000
# 4 0.0000 0.0000 0.0000 26.5645 0.0000 9.5293
# 5 21.0213 5.1367 24.2335 0.0000 44.2193 0.0000
# 6 0.0000 0.0000 0.0000 9.5293 0.0000 15.9660
#
#
#
# Elastic Compliance Matrix: (Units=1/GPa)
#
#
# Indices 1 2 3 4 5 6 
#
# 1 0.013675 -0.001284 0.002966 0.000000 -0.007977 0.000000
# 2 -0.001284 0.012938 -0.002758 0.000000 0.000619 0.000000
# 3 0.002966 -0.002758 0.018873 0.000000 -0.011433 0.000000
# 4 0.000000 0.000000 0.000000 0.047900 0.000000 -0.028589
# 5 -0.007977 0.000619 -0.011433 0.000000 0.032600 0.000000
# 6 0.000000 0.000000 0.000000 -0.028589 0.000000 0.079696
#
#
# Mechanical properties :
#
#
# Convention : Reuss Voigt Hill
#
# Bulk Modulus (GPa) = 23.07704 31.07341 27.07523
# Shear Modulus (GPa) = 22.49408 31.66538 27.07973
#
# Velocity S-wave (km/s) = 3.07396 3.64717 3.37276
# Velocity P-wave (km/s) = 4.72155 5.54878 5.15180
#
# Compressibility (1/GPa) = 0.04333311
#
# Stress axis : x y z
#
# Youngs Moduli (GPa) = 73.12519 77.29226 52.98458
#
# Poissons Ratio (x) = 0.09927 -0.15716
# Poissons Ratio (y) = 0.09392 0.14615
# Poissons Ratio (z) = -0.21689 0.21320
#
# Static dielectric constant tensor:
#      x y z
#    x 2.030630 0.000000 -0.053790 
#    y 0.000000 3.909160 0.000000 
#    z -0.053790 0.000000 2.031120 
# 
# From -- ./inp_files/46098.got.cif
#   From: 2010.05.17/outbox.cif.g08.bks.cpg/sg11_24_cif.got.tgz:46098.got - 2010.06.03 12:22:45.
