data_PCOD9165855
_publ_section_title
;
Structure prediction by ZEFSAII (Michael W. Deem and Ramdas Pophale) SiO2 
 PCOD9165855
Probable space group: P 21/M
;
_chemical_formula_sum "Si O2"
_cell_formula_units_Z 32
_cell_length_a 15.975617
_cell_length_b 8.384724
_cell_length_c 26.964151
_cell_angle_alpha 90.000000
_cell_angle_beta 152.767541
_cell_angle_gamma 90.000000
_cell_volume 1652.801936
_symmetry_space_group_name_H-M "P 21/M"
_symmetry_group_IT_number 11
_symmetry_cell_setting 'monoclinic'
loop_
_space_group_symop_operation_xyz
x,y,z
-x,1/2+y,-z
-x,-y,-z
x,1/2-y,z
loop_
_atom_site_type_symbol
_atom_site_label
_atom_site_fract_x
_atom_site_fract_y
_atom_site_fract_z
Si Si1 0.497937 0.440671 0.942702
Si Si2 0.229752 0.942687 0.720764
Si Si3 0.843747 0.558908 0.954722
Si Si4 0.431296 0.557463 0.727191
Si Si5 0.233633 0.442394 0.326005
Si Si6 0.136641 0.943205 0.922281
Si Si7 0.386123 0.057264 0.511813
Si Si8 0.189367 0.442829 0.508558
O O1 0.501523 0.250000 0.944863
O O2 0.321302 0.498420 0.819436
O O3 0.500000 0.500000 0.000000
O O4 0.677915 0.497626 0.007330
O O5 0.230212 0.750000 0.721779
O O6 0.352545 0.996352 0.738846
O O7 0.021308 0.996475 0.603309
O O8 0.844328 0.750000 0.954737
O O9 0.640763 0.503390 0.831423
O O10 0.872813 0.501544 0.026304
O O11 0.000000 0.500000 0.000000
O O12 0.430417 0.750000 0.726765
O O13 0.299631 0.499880 0.614371
O O14 0.231317 0.250000 0.325081
O O15 0.406881 0.498071 0.385171
O O16 0.275383 0.495843 0.404340
O O17 0.042006 0.497179 0.202380
O O18 0.137390 0.750000 0.923166
O O19 0.387741 0.250000 0.512554
O O20 0.291246 0.002801 0.512243
O O21 0.188475 0.250000 0.508207
#
# Coordination Sequence:
#
# PCOD9165855 Si02
#       8
#     4   4   4   4   4   4   4   4
#     4  11  24  40  63  92 123 160 201 249 300 360
#     4  10  21  41  63  85 117 155 195 245 300 354
#     4  11  24  41  62  89 122 160 199 248 301 357
#     4  10  22  40  60  84 117 153 194 245 298 351
#     4   9  19  36  58  80 112 151 188 232 287 342
#     4  10  22  40  63  90 118 157 201 245 299 356
#     4   9  19  36  55  83 114 147 189 234 285 342
#     4  10  22  36  60  88 114 151 195 242 295 354
#
# _framework density 19.361062
#
# number of rings (size 3 to 8) (size 9 to 14) (size 15 to 20)
#    0.000    2.000    1.250    1.125    3.500    3.500 
#    0.000    0.000    0.000    0.000    0.000    0.000 
#    0.000    0.000    0.000    0.000    0.000    0.000 
#
# Total GULP energy -178753.386141 kJ/mol
# GULP energy per Si atom -5586.043317 kJ/mol
# Density = 1.931700 g / cm^3
# Si number density = 19.361062 Si / 1000 Ang^3
#
#
#
# Elastic Constant Matrix: (Units=GPa)
#
#
# Indices 1 2 3 4 5 6 
#
# 1 120.2795 10.6697 55.8643 0.0000 -19.3736 0.0000
# 2 10.6697 7.3939 12.8716 0.0000 -2.3857 0.0000
# 3 55.8643 12.8716 163.0765 0.0000 -10.8095 0.0000
# 4 0.0000 0.0000 0.0000 31.2298 0.0000 -5.1225
# 5 -19.3736 -2.3857 -10.8095 0.0000 17.1467 0.0000
# 6 0.0000 0.0000 0.0000 -5.1225 0.0000 28.6876
#
#
#
# Elastic Compliance Matrix: (Units=1/GPa)
#
#
# Indices 1 2 3 4 5 6 
#
# 1 0.012121 -0.009329 -0.002707 0.000000 0.010690 0.000000
# 2 -0.009329 0.167565 -0.009584 0.000000 0.006732 0.000000
# 3 -0.002707 -0.009584 0.007853 0.000000 0.000558 0.000000
# 4 0.000000 0.000000 0.000000 0.032987 0.000000 0.005890
# 5 0.010690 0.006732 0.000558 0.000000 0.071688 0.000000
# 6 0.000000 0.000000 0.000000 0.005890 0.000000 0.035910
#
#
# Mechanical properties :
#
#
# Convention : Reuss Voigt Hill
#
# Bulk Modulus (GPa) = 6.93006 49.95125 28.44065
# Shear Modulus (GPa) = 11.92002 29.50244 20.71123
#
# Velocity S-wave (km/s) = 2.48396 3.90783 3.27423
# Velocity P-wave (km/s) = 3.43714 6.79833 5.38661
#
# Compressibility (1/GPa) = 0.14429890
#
# Stress axis : x y z
#
# Youngs Moduli (GPa) = 82.50288 5.96784 127.34033
#
# Poissons Ratio (x) = 0.05567 0.34474
# Poissons Ratio (y) = 0.76964 1.22043
# Poissons Ratio (z) = 0.22336 0.05720
#
# Static dielectric constant tensor:
#      x y z
#    x 1.654160 0.000000 0.013750 
#    y 0.000000 1.674250 0.000000 
#    z 0.013750 0.000000 1.655350 
# 
# From -- ./inp_files/55639.got.cif
#   From: 2010.05.17/outbox.cif.g08.bks.cpg/sg11_28_cif.got.tgz:55639.got - 2010.06.03 12:22:45.
