data_PCOD9165516
_publ_section_title
;
Structure prediction by ZEFSAII (Michael W. Deem and Ramdas Pophale) SiO2 
 PCOD9165516
Probable space group: P 21/M
;
_chemical_formula_sum "Si O2"
_cell_formula_units_Z 24
_cell_length_a 12.445595
_cell_length_b 7.975878
_cell_length_c 23.148728
_cell_angle_alpha 90.000000
_cell_angle_beta 151.696878
_cell_angle_gamma 90.000000
_cell_volume 1089.492887
_symmetry_space_group_name_H-M "P 21/M"
_symmetry_group_IT_number 11
_symmetry_cell_setting 'monoclinic'
loop_
_space_group_symop_operation_xyz
x,y,z
-x,1/2+y,-z
-x,-y,-z
x,1/2-y,z
loop_
_atom_site_type_symbol
_atom_site_label
_atom_site_fract_x
_atom_site_fract_y
_atom_site_fract_z
Si Si1 0.237946 0.449992 0.140634
Si Si2 0.133525 0.945170 0.307449
Si Si3 0.934631 0.945982 0.595959
Si Si4 0.442940 0.950875 0.355085
Si Si5 0.569652 0.453625 0.198468
Si Si6 0.681576 0.448106 0.037514
O O1 0.246583 0.250000 0.146890
O O2 0.277925 0.514772 0.223857
O O3 0.440791 0.510529 0.194960
O O4 0.000000 0.500000 0.000000
O O5 0.172096 0.750000 0.339943
O O6 0.339474 0.015022 0.366383
O O7 0.078860 0.038542 0.340949
O O8 0.913717 0.959099 0.162497
O O9 0.937937 0.750000 0.581510
O O10 0.694623 0.018885 0.461394
O O11 0.172836 0.017803 0.686726
O O12 0.459965 0.750000 0.370117
O O13 0.574851 0.250000 0.200511
O O14 0.423109 0.508162 0.073890
O O15 0.723280 0.250000 0.060753
O O16 0.500000 0.500000 0.000000
#
# Coordination Sequence:
#
# PCOD9165516 Si02
#       6
#     4   4   4   4   4   4
#     4  11  24  42  64  89 118 156 201 251 300 355
#     4  11  22  37  59  89 124 158 200 251 298 351
#     4  10  21  39  62  87 120 161 199 244 304 358
#     4  10  23  41  61  88 122 160 201 247 298 355
#     4  10  22  40  61  88 122 156 198 250 300 350
#     4  12  23  36  58  88 120 155 197 243 297 355
#
# _framework density 22.028597999999999
#
# number of rings (size 3 to 8) (size 9 to 14) (size 15 to 20)
#    0.000    1.333    1.667    4.000    0.000    8.000 
#    0.000    0.000    0.000    0.000    0.000    0.000 
#    0.000    0.000    0.000    0.000    0.000    0.000 
#
# Total GULP energy -134216.673541 kJ/mol
# GULP energy per Si atom -5592.361398 kJ/mol
# Density = 2.197846 g / cm^3
# Si number density = 22.028598 Si / 1000 Ang^3
#
#
#
# Elastic Constant Matrix: (Units=GPa)
#
#
# Indices 1 2 3 4 5 6 
#
# 1 103.2168 -4.4357 19.9249 0.0000 14.4538 0.0000
# 2 -4.4357 34.6236 -11.5114 0.0000 6.4293 0.0000
# 3 19.9249 -11.5114 107.5359 0.0000 15.4868 0.0000
# 4 0.0000 0.0000 0.0000 14.4679 0.0000 -6.9363
# 5 14.4538 6.4293 15.4868 0.0000 27.1403 0.0000
# 6 0.0000 0.0000 0.0000 -6.9363 0.0000 21.7395
#
#
#
# Elastic Compliance Matrix: (Units=1/GPa)
#
#
# Indices 1 2 3 4 5 6 
#
# 1 0.010759 0.002121 -0.000947 0.000000 -0.005692 0.000000
# 2 0.002121 0.032922 0.004813 0.000000 -0.011674 0.000000
# 3 -0.000947 0.004813 0.010984 0.000000 -0.006904 0.000000
# 4 0.000000 0.000000 0.000000 0.081601 0.000000 0.026036
# 5 -0.005692 -0.011674 -0.006904 0.000000 0.046582 0.000000
# 6 0.000000 0.000000 0.000000 0.026036 0.000000 0.054307
#
#
# Mechanical properties :
#
#
# Convention : Reuss Voigt Hill
#
# Bulk Modulus (GPa) = 15.00658 28.14801 21.57730
# Shear Modulus (GPa) = 20.21067 28.76278 24.48673
#
# Velocity S-wave (km/s) = 3.03227 3.61737 3.33767
# Velocity P-wave (km/s) = 4.36883 5.50026 4.96686
#
# Compressibility (1/GPa) = 0.06663743
#
# Stress axis : x y z
#
# Youngs Moduli (GPa) = 92.94271 30.37525 91.04125
#
# Poissons Ratio (x) = -0.06441 0.08620
# Poissons Ratio (y) = -0.19709 -0.43814
# Poissons Ratio (z) = 0.08800 -0.14618
#
# Static dielectric constant tensor:
#      x y z
#    x 1.925510 0.000000 -0.119580 
#    y 0.000000 1.779870 0.000000 
#    z -0.119580 0.000000 2.012900 
# 
# From -- ./inp_files/43872.got.cif
#   From: 2010.05.17/outbox.cif.g08.bks.cpg/sg11_22_cif.got.tgz:43872.got - 2010.06.03 12:22:45.
