data_PCOD9165828
_publ_section_title
;
Structure prediction by ZEFSAII (Michael W. Deem and Ramdas Pophale) SiO2 
 PCOD9165828
Probable space group: P 21/M
;
_chemical_formula_sum "Si O2"
_cell_formula_units_Z 20
_cell_length_a 9.169126
_cell_length_b 20.011287
_cell_length_c 6.712846
_cell_angle_alpha 90.000000
_cell_angle_beta 129.685630
_cell_angle_gamma 90.000000
_cell_volume 947.876994
_symmetry_space_group_name_H-M "P 21/M"
_symmetry_group_IT_number 11
_symmetry_cell_setting 'monoclinic'
loop_
_space_group_symop_operation_xyz
x,y,z
-x,1/2+y,-z
-x,-y,-z
x,1/2-y,z
loop_
_atom_site_type_symbol
_atom_site_label
_atom_site_fract_x
_atom_site_fract_y
_atom_site_fract_z
Si Si1 0.355863 0.997703 0.557909
Si Si2 0.948159 0.599391 0.770881
Si Si3 0.947031 0.674004 0.172954
Si Si4 0.642867 0.871237 0.213631
Si Si5 0.262162 0.870217 0.731154
O O1 0.153570 0.027362 0.307333
O O2 0.409225 0.052778 0.771579
O O3 0.662366 0.073476 0.355412
O O4 0.500000 0.000000 0.500000
O O5 0.783634 0.645443 0.520409
O O6 0.126504 0.597401 0.780209
O O7 0.996625 0.632117 0.021273
O O8 0.893806 0.750000 0.078427
O O9 0.774674 0.637545 0.136592
O O10 0.123572 0.674378 0.477986
O O11 0.442912 0.837109 0.995346
#
# Coordination Sequence:
#
# PCOD9165828 Si02
#       5
#     4   4   4   4   4
#     4  10  21  40  67  98 135 163 201 261 330 395
#     4   9  23  38  62  97 128 166 205 258 323 374
#     4  11  25  44  63  89 127 171 223 264 306 371
#     4   9  23  42  63  96 126 169 201 265 320 384
#     4  11  22  41  68  97 128 162 213 261 326 377
#
# _framework density 21.099784
#
# number of rings (size 3 to 8) (size 9 to 14) (size 15 to 20)
#    1.200    0.800    0.000    2.400    2.800    4.800 
#    0.000    0.000    0.000    0.000    0.000    0.000 
#    0.000    0.000    0.000    0.000    0.000    0.000 
#
# Total GULP energy -111459.150194 kJ/mol
# GULP energy per Si atom -5572.957510 kJ/mol
# Density = 2.105176 g / cm^3
# Si number density = 21.099784 Si / 1000 Ang^3
#
#
#
# Elastic Constant Matrix: (Units=GPa)
#
#
# Indices 1 2 3 4 5 6 
#
# 1 114.9973 23.9866 25.3562 0.0000 7.3023 0.0000
# 2 23.9866 58.8806 5.9262 0.0000 -17.7275 0.0000
# 3 25.3562 5.9262 60.2224 0.0000 27.6320 0.0000
# 4 0.0000 0.0000 0.0000 12.1370 0.0000 0.2504
# 5 7.3023 -17.7275 27.6320 0.0000 36.6857 0.0000
# 6 0.0000 0.0000 0.0000 0.2504 0.0000 -7.4735
#
#
#
# Elastic Compliance Matrix: (Units=1/GPa)
#
#
# Indices 1 2 3 4 5 6 
#
# 1 0.010440 -0.004546 -0.003036 0.000000 -0.001988 0.000000
# 2 -0.004546 0.026439 -0.010643 0.000000 0.021698 0.000000
# 3 -0.003036 -0.010643 0.032111 0.000000 -0.028725 0.000000
# 4 0.000000 0.000000 0.000000 0.082336 0.000000 0.002759
# 5 -0.001988 0.021698 -0.028725 0.000000 0.059775 0.000000
# 6 0.000000 0.000000 0.000000 0.002759 0.000000 -0.133714
#
#
# Mechanical properties :
#
#
# Convention : Reuss Voigt Hill
#
# Bulk Modulus (GPa) = 30.73231 38.29314 34.51273
# Shear Modulus (GPa) = 40.10132 20.19193 30.14662
#
# Velocity S-wave (km/s) = 4.36427 3.09685 3.78400
# Velocity P-wave (km/s) = 6.32397 5.56555 5.95684
#
# Compressibility (1/GPa) = 0.03253904
#
# Stress axis : x y z
#
# Youngs Moduli (GPa) = 95.78808 37.82247 31.14212
#
# Poissons Ratio (x) = 0.17193 0.09455
# Poissons Ratio (y) = 0.43543 0.33146
# Poissons Ratio (z) = 0.29083 0.40256
#
# Static dielectric constant tensor:
#      x y z
#    x 1.719100 0.000000 0.053870 
#    y 0.000000 1.784020 0.000000 
#    z 0.053870 0.000000 1.824760 
# 
# From -- ./inp_files/2938.got.cif
#   From: 2010.05.17/outbox.cif.g08.bks.cpg/sg11_2_cif.got.tgz:2938.got - 2010.06.03 12:22:45.
