data_PCOD9165176
_publ_section_title
;
Structure prediction by ZEFSAII (Michael W. Deem and Ramdas Pophale) SiO2 
 PCOD9165176
Probable space group: P 21/M
;
_chemical_formula_sum "Si O2"
_cell_formula_units_Z 32
_cell_length_a 11.681156
_cell_length_b 13.619202
_cell_length_c 17.470656
_cell_angle_alpha 90.000000
_cell_angle_beta 148.138417
_cell_angle_gamma 90.000000
_cell_volume 1467.144323
_symmetry_space_group_name_H-M "P 21/M"
_symmetry_group_IT_number 11
_symmetry_cell_setting 'monoclinic'
loop_
_space_group_symop_operation_xyz
x,y,z
-x,1/2+y,-z
-x,-y,-z
x,1/2-y,z
loop_
_atom_site_type_symbol
_atom_site_label
_atom_site_fract_x
_atom_site_fract_y
_atom_site_fract_z
Si Si1 0.673860 0.134061 0.837451
Si Si2 0.499165 0.139414 0.137489
Si Si3 0.707621 0.632899 0.496214
Si Si4 0.974814 0.366733 0.459961
Si Si5 0.983620 0.637345 0.085388
Si Si6 0.044787 0.005576 0.259355
Si Si7 0.405558 0.935027 0.038369
Si Si8 0.868217 0.636956 0.287819
O O1 0.644618 0.250000 0.837745
O O2 0.507661 0.110089 0.674543
O O3 0.911493 0.118112 0.937370
O O4 0.625818 0.078399 0.887947
O O5 0.516908 0.250000 0.114465
O O6 0.717985 0.120322 0.308460
O O7 0.475604 0.048739 0.066435
O O8 0.276889 0.137700 0.059411
O O9 0.710690 0.750000 0.513404
O O10 0.753282 0.569267 0.597332
O O11 0.902059 0.606112 0.547674
O O12 0.016775 0.250000 0.488422
O O13 0.073992 0.405763 0.595159
O O14 0.051741 0.750000 0.145438
O O15 0.061732 0.556407 0.190769
O O16 0.983961 0.925128 0.288530
O O17 0.832618 0.076323 0.132134
O O18 0.608834 0.868977 0.132703
O O19 0.937497 0.750000 0.321820
#
# Coordination Sequence:
#
# PCOD9165176 Si02
#       8
#     4   4   4   4   4   4   4   4
#     4  10  21  40  67  87 110 158 207 246 290 345
#     4   9  19  34  55  84 117 153 191 240 291 340
#     4  10  21  38  59  88 120 156 198 246 298 347
#     4   9  18  34  57  84 115 151 198 241 285 345
#     4   9  20  41  63  84 118 159 201 242 290 354
#     4  11  24  36  56  91 124 158 191 238 303 357
#     4  11  22  37  61  90 117 154 199 247 292 351
#     4  11  22  37  59  89 124 157 195 242 294 358
#
# _framework density 21.811077999999998
#
# number of rings (size 3 to 8) (size 9 to 14) (size 15 to 20)
#    0.000    2.000    1.250    1.875    1.750    6.000 
#    0.000    2.500    2.750    0.750    0.000    0.000 
#    0.000    0.000    0.000    0.000    0.000    0.000 
#
# Total GULP energy -178783.439186 kJ/mol
# GULP energy per Si atom -5586.982475 kJ/mol
# Density = 2.176143 g / cm^3
# Si number density = 21.811078 Si / 1000 Ang^3
#
#
#
# Elastic Constant Matrix: (Units=GPa)
#
#
# Indices 1 2 3 4 5 6 
#
# 1 53.3138 7.4869 4.9648 0.0000 -1.2422 0.0000
# 2 7.4869 67.4412 16.8750 0.0000 3.5602 0.0000
# 3 4.9648 16.8750 62.8887 0.0000 -5.3852 0.0000
# 4 0.0000 0.0000 0.0000 35.3826 0.0000 -6.7426
# 5 -1.2422 3.5602 -5.3852 0.0000 17.6731 0.0000
# 6 0.0000 0.0000 0.0000 -6.7426 0.0000 16.0342
#
#
#
# Elastic Compliance Matrix: (Units=1/GPa)
#
#
# Indices 1 2 3 4 5 6 
#
# 1 0.019150 -0.001992 -0.000850 0.000000 0.001488 0.000000
# 2 -0.001992 0.016479 -0.004683 0.000000 -0.004886 0.000000
# 3 -0.000850 -0.004683 0.017764 0.000000 0.006296 0.000000
# 4 0.000000 0.000000 0.000000 0.030725 0.000000 0.012920
# 5 0.001488 -0.004886 0.006296 0.000000 0.059591 0.000000
# 6 0.000000 0.000000 0.000000 0.012920 0.000000 0.067800
#
#
# Mechanical properties :
#
#
# Convention : Reuss Voigt Hill
#
# Bulk Modulus (GPa) = 26.08002 26.92192 26.50097
# Shear Modulus (GPa) = 20.89091 24.10578 22.49834
#
# Velocity S-wave (km/s) = 3.09821 3.32807 3.21520
# Velocity P-wave (km/s) = 4.97813 5.20943 5.09509
#
# Compressibility (1/GPa) = 0.03834354
#
# Stress axis : x y z
#
# Youngs Moduli (GPa) = 52.21822 60.68496 56.29384
#
# Poissons Ratio (x) = 0.12088 0.04785
# Poissons Ratio (y) = 0.10401 0.26362
# Poissons Ratio (z) = 0.04438 0.28418
#
# Static dielectric constant tensor:
#      x y z
#    x 1.783630 0.000000 -0.012530 
#    y 0.000000 1.835580 0.000000 
#    z -0.012530 0.000000 1.803960 
# 
# From -- ./inp_files/59518.got.cif
#   From: 2010.05.17/outbox.cif.g08.bks.cpg/sg11_30_cif.got.tgz:59518.got - 2010.06.03 12:22:45.
