data_PCOD9165607
_publ_section_title
;
Structure prediction by ZEFSAII (Michael W. Deem and Ramdas Pophale) SiO2 
 PCOD9165607
Probable space group: P 21/M
;
_chemical_formula_sum "Si O2"
_cell_formula_units_Z 28
_cell_length_a 8.128351
_cell_length_b 27.714857
_cell_length_c 9.260996
_cell_angle_alpha 90.000000
_cell_angle_beta 146.048007
_cell_angle_gamma 90.000000
_cell_volume 1165.183878
_symmetry_space_group_name_H-M "P 21/M"
_symmetry_group_IT_number 11
_symmetry_cell_setting 'monoclinic'
loop_
_space_group_symop_operation_xyz
x,y,z
-x,1/2+y,-z
-x,-y,-z
x,1/2-y,z
loop_
_atom_site_type_symbol
_atom_site_label
_atom_site_fract_x
_atom_site_fract_y
_atom_site_fract_z
Si Si1 0.648634 0.646174 0.348372
Si Si2 0.282799 0.053965 0.252579
Si Si3 0.611000 0.750000 0.333796
Si Si4 0.842134 0.096555 0.571694
Si Si5 0.919549 0.750000 0.860403
Si Si6 0.134438 0.003235 0.852680
Si Si7 0.734349 0.403519 0.174144
Si Si8 0.055090 0.650077 0.094476
O O1 0.741340 0.700115 0.372004
O O2 0.390198 0.652561 0.278540
O O3 0.934653 0.617429 0.609164
O O4 0.490956 0.620804 0.099143
O O5 0.605447 0.074224 0.510014
O O6 0.152390 0.023333 0.287602
O O7 0.085800 0.101225 0.074949
O O8 0.291694 0.021111 0.114075
O O9 0.259327 0.750000 0.049844
O O10 0.691805 0.750000 0.563056
O O11 0.687448 0.107426 0.308595
O O12 0.962865 0.141720 0.746762
O O13 0.061575 0.051553 0.711518
O O14 0.899635 0.699532 0.931944
O O15 0.274672 0.960721 0.861839
#
# Coordination Sequence:
#
# PCOD9165607 Si02
#       8
#     4   4   2   4   2   4   4   4
#     4  11  24  44  69  97 127 171 220 274 328 389
#     4  10  21  39  64  92 128 175 224 274 322 386
#     4  10  22  42  70 101 125 162 223 277 323 387
#     4  11  25  39  63  93 140 174 220 267 334 393
#     4  10  22  38  70 103 123 160 217 281 329 377
#     4  10  22  39  61  95 124 183 222 275 317 386
#     4  12  26  41  67  96 136 175 218 272 330 393
#     4  10  22  41  66  95 127 167 221 275 326 392
#
# _framework density 24.030542000000001
#
# number of rings (size 3 to 8) (size 9 to 14) (size 15 to 20)
#    0.000    1.429    1.429    3.429   10.000    0.571 
#    0.000    1.429    0.000    0.000    0.000    0.000 
#    0.000    0.000    0.000    0.000    0.000    0.000 
#
# Total GULP energy -156675.852877 kJ/mol
# GULP energy per Si atom -5595.566174 kJ/mol
# Density = 2.397585 g / cm^3
# Si number density = 24.030542 Si / 1000 Ang^3
#
#
#
# Elastic Constant Matrix: (Units=GPa)
#
#
# Indices 1 2 3 4 5 6 
#
# 1 55.6688 25.0367 27.0089 0.0000 -5.5926 0.0000
# 2 25.0367 136.2251 59.1993 0.0000 -9.1735 0.0000
# 3 27.0089 59.1993 98.1917 0.0000 -8.4639 0.0000
# 4 0.0000 0.0000 0.0000 38.9074 0.0000 1.3598
# 5 -5.5926 -9.1735 -8.4639 0.0000 42.8363 0.0000
# 6 0.0000 0.0000 0.0000 1.3598 0.0000 21.9685
#
#
#
# Elastic Compliance Matrix: (Units=1/GPa)
#
#
# Indices 1 2 3 4 5 6 
#
# 1 0.021153 -0.001782 -0.004617 0.000000 0.001468 0.000000
# 2 -0.001782 0.010136 -0.005548 0.000000 0.000842 0.000000
# 3 -0.004617 -0.005548 0.014899 0.000000 0.001153 0.000000
# 4 0.000000 0.000000 0.000000 0.025758 0.000000 -0.001594
# 5 0.001468 0.000842 0.001153 0.000000 0.023944 0.000000
# 6 0.000000 0.000000 0.000000 -0.001594 0.000000 0.045618
#
#
# Mechanical properties :
#
#
# Convention : Reuss Voigt Hill
#
# Bulk Modulus (GPa) = 44.85968 56.95282 50.90625
# Shear Modulus (GPa) = 28.92950 32.66514 30.79732
#
# Velocity S-wave (km/s) = 3.47344 3.69089 3.58382
# Velocity P-wave (km/s) = 5.89870 6.47420 6.19314
#
# Compressibility (1/GPa) = 0.02229173
#
# Stress axis : x y z
#
# Youngs Moduli (GPa) = 47.27562 98.65701 67.12055
#
# Poissons Ratio (x) = 0.17583 0.30991
# Poissons Ratio (y) = 0.08426 0.37240
# Poissons Ratio (z) = 0.21828 0.54737
#
# Static dielectric constant tensor:
#      x y z
#    x 2.006980 0.000000 0.031730 
#    y 0.000000 1.943340 0.000000 
#    z 0.031730 0.000000 1.903200 
# 
# From -- ./inp_files/3229.got.cif
#   From: 2010.05.17/outbox.cif.g08.bks.cpg/sg11_2_cif.got.tgz:3229.got - 2010.06.03 12:22:45.
