data_PCOD9165948
_publ_section_title
;
Structure prediction by ZEFSAII (Michael W. Deem and Ramdas Pophale) SiO2 
 PCOD9165948
Probable space group: P 21/M
;
_chemical_formula_sum "Si O2"
_cell_formula_units_Z 30
_cell_length_a 11.809851
_cell_length_b 9.637898
_cell_length_c 14.884580
_cell_angle_alpha 90.000000
_cell_angle_beta 74.469594
_cell_angle_gamma 90.000000
_cell_volume 1632.337144
_symmetry_space_group_name_H-M "P 21/M"
_symmetry_group_IT_number 11
_symmetry_cell_setting 'monoclinic'
loop_
_space_group_symop_operation_xyz
x,y,z
-x,1/2+y,-z
-x,-y,-z
x,1/2-y,z
loop_
_atom_site_type_symbol
_atom_site_label
_atom_site_fract_x
_atom_site_fract_y
_atom_site_fract_z
Si Si1 0.341151 0.087180 0.326198
Si Si2 0.884336 0.914029 0.504194
Si Si3 0.836725 0.590200 0.981959
Si Si4 0.539463 0.250000 0.984537
Si Si5 0.895997 0.412927 0.138098
Si Si6 0.627135 0.530941 0.887297
Si Si7 0.202866 0.088804 0.678906
Si Si8 0.480232 0.085928 0.595818
O O1 0.369104 0.250000 0.338470
O O2 0.219577 0.056128 0.403328
O O3 0.332740 0.064290 0.221902
O O4 0.439433 0.987161 0.346877
O O5 0.909683 0.750000 0.504268
O O6 0.838211 0.942968 0.413519
O O7 0.000000 0.000000 0.500000
O O8 0.829097 0.750000 0.015466
O O9 0.732269 0.564096 0.934795
O O10 0.963962 0.572079 0.908432
O O11 0.833374 0.486586 0.066734
O O12 0.590885 0.372652 0.908090
O O13 0.480773 0.129593 0.062487
O O14 0.868287 0.250000 0.146194
O O15 0.856909 0.489493 0.236307
O O16 0.172883 0.250000 0.704718
O O17 0.343546 0.075600 0.651407
O O18 0.507350 0.250000 0.578231
O O19 0.500000 0.000000 0.500000
#
# Coordination Sequence:
#
# PCOD9165948 Si02
#       8
#     4   4   4   2   4   4   4   4
#     4  11  23  43  67  95 129 169 212 258 326 374
#     4  10  23  42  64  93 130 167 210 262 311 373
#     4  10  21  42  64  87 127 163 203 257 321 373
#     4  10  24  42  62  92 130 156 218 254 312 372
#     4  10  23  39  63  96 118 159 213 258 308 376
#     4  11  23  44  66  93 127 171 204 268 316 379
#     4  10  22  43  62  89 128 168 202 256 318 369
#     4  11  23  42  66  91 127 165 208 258 312 373
#
# _framework density 18.378554999999999
#
# number of rings (size 3 to 8) (size 9 to 14) (size 15 to 20)
#    0.000    1.600    2.667    0.800    3.733    4.800 
#    2.400    0.000    0.000    0.000    0.000    0.000 
#    0.000    0.000    0.000    0.000    0.000    0.000 
#
# Total GULP energy -167053.831603 kJ/mol
# GULP energy per Si atom -5568.461053 kJ/mol
# Density = 1.833672 g / cm^3
# Si number density = 18.378555 Si / 1000 Ang^3
#
#
#
# Elastic Constant Matrix: (Units=GPa)
#
#
# Indices 1 2 3 4 5 6 
#
# 1 75.1499 44.1508 36.7115 0.0000 3.6131 0.0000
# 2 44.1508 143.9390 69.9942 0.0000 -15.9887 0.0000
# 3 36.7115 69.9942 130.9972 0.0000 -5.3135 0.0000
# 4 0.0000 0.0000 0.0000 38.3173 0.0000 -3.9063
# 5 3.6131 -15.9887 -5.3135 0.0000 12.1156 0.0000
# 6 0.0000 0.0000 0.0000 -3.9063 0.0000 24.4982
#
#
#
# Elastic Compliance Matrix: (Units=1/GPa)
#
#
# Indices 1 2 3 4 5 6 
#
# 1 0.018947 -0.006213 -0.002598 0.000000 -0.014989 0.000000
# 2 -0.006213 0.012906 -0.004468 0.000000 0.016925 0.000000
# 3 -0.002598 -0.004468 0.010732 0.000000 -0.000415 0.000000
# 4 0.000000 0.000000 0.000000 0.026529 0.000000 0.004230
# 5 -0.014989 0.016925 -0.000415 0.000000 0.109162 0.000000
# 6 0.000000 0.000000 0.000000 0.004230 0.000000 0.041494
#
#
# Mechanical properties :
#
#
# Convention : Reuss Voigt Hill
#
# Bulk Modulus (GPa) = 62.39654 72.42212 67.40933
# Shear Modulus (GPa) = 19.86723 28.26820 24.06771
#
# Velocity S-wave (km/s) = 3.29142 3.92613 3.62270
# Velocity P-wave (km/s) = 6.96197 7.74880 7.36590
#
# Compressibility (1/GPa) = 0.01602653
#
# Stress axis : x y z
#
# Youngs Moduli (GPa) = 52.77923 77.48339 93.17602
#
# Poissons Ratio (x) = 0.48143 0.24206
# Poissons Ratio (y) = 0.32793 0.41632
# Poissons Ratio (z) = 0.13711 0.34621
#
# Static dielectric constant tensor:
#      x y z
#    x 1.624940 0.000000 0.003140 
#    y 0.000000 1.620450 0.000000 
#    z 0.003140 0.000000 1.603020 
# 
# From -- ./inp_files/49277.got.cif
#   From: 2010.05.17/outbox.cif.g08.bks.cpg/sg11_25_cif.got.tgz:49277.got - 2010.06.03 12:22:45.
