data_PCOD9165588
_publ_section_title
;
Structure prediction by ZEFSAII (Michael W. Deem and Ramdas Pophale) SiO2 
 PCOD9165588
Probable space group: P 21/M
;
_chemical_formula_sum "Si O2"
_cell_formula_units_Z 32
_cell_length_a 26.086099
_cell_length_b 8.582335
_cell_length_c 12.427512
_cell_angle_alpha 90.000000
_cell_angle_beta 35.811282
_cell_angle_gamma 90.000000
_cell_volume 1627.952698
_symmetry_space_group_name_H-M "P 21/M"
_symmetry_group_IT_number 11
_symmetry_cell_setting 'monoclinic'
loop_
_space_group_symop_operation_xyz
x,y,z
-x,1/2+y,-z
-x,-y,-z
x,1/2-y,z
loop_
_atom_site_type_symbol
_atom_site_label
_atom_site_fract_x
_atom_site_fract_y
_atom_site_fract_z
Si Si1 0.845517 0.434085 0.580616
Si Si2 0.356445 0.935470 0.761600
Si Si3 0.824455 0.567092 0.850932
Si Si4 0.759089 0.561878 0.513833
Si Si5 0.086491 0.062569 0.912886
Si Si6 0.961364 0.066080 0.779165
Si Si7 0.560618 0.937837 0.802274
Si Si8 0.478742 0.062179 0.371573
O O1 0.836957 0.250000 0.610088
O O2 0.733604 0.522788 0.062782
O O3 0.788612 0.489028 0.576170
O O4 0.819094 0.518860 0.735644
O O5 0.341331 0.750000 0.789475
O O6 0.428494 0.975289 0.730627
O O7 0.402604 0.985171 0.572212
O O8 0.842015 0.750000 0.830788
O O9 0.902483 0.474970 0.776718
O O10 0.946043 0.478757 0.384867
O O11 0.761443 0.750000 0.520250
O O12 0.829445 0.519872 0.302090
O O13 0.661264 0.513938 0.648507
O O14 0.082027 0.250000 0.928101
O O15 0.087573 0.990565 0.029803
O O16 0.000000 0.000000 0.000000
O O17 0.977895 0.250000 0.757072
O O18 0.558378 0.750000 0.808104
O O19 0.527203 0.987634 0.741692
O O20 0.500000 0.000000 0.000000
O O21 0.468187 0.250000 0.395455
#
# Coordination Sequence:
#
# PCOD9165588 Si02
#       8
#     4   4   4   4   4   4   4   4
#     4  12  25  43  66  92 126 167 214 261 318 381
#     4  10  21  39  63  95 125 159 210 262 316 378
#     4  12  26  43  65  92 126 166 211 261 322 380
#     4  10  23  42  64  93 130 171 217 263 319 384
#     4  11  22  39  65  96 130 172 217 265 318 379
#     4  12  25  43  65  94 131 166 211 263 317 378
#     4  10  23  42  64  94 128 169 214 264 320 378
#     4   9  20  40  64  89 126 167 206 258 319 376
#
# _framework density 19.656592
#
# number of rings (size 3 to 8) (size 9 to 14) (size 15 to 20)
#    0.000    1.250    1.250    4.500    3.500    2.000 
#    0.000    0.000    0.000    0.000    0.000    0.000 
#    0.000    0.000    0.000    0.000    0.000    0.000 
#
# Total GULP energy -179030.414501 kJ/mol
# GULP energy per Si atom -5594.700453 kJ/mol
# Density = 1.961185 g / cm^3
# Si number density = 19.656592 Si / 1000 Ang^3
#
#
#
# Elastic Constant Matrix: (Units=GPa)
#
#
# Indices 1 2 3 4 5 6 
#
# 1 66.9924 -0.2561 33.9263 0.0000 11.8831 0.0000
# 2 -0.2561 18.8314 0.8903 0.0000 -1.9063 0.0000
# 3 33.9263 0.8903 78.3103 0.0000 2.4581 0.0000
# 4 0.0000 0.0000 0.0000 31.3556 0.0000 4.8500
# 5 11.8831 -1.9063 2.4581 0.0000 31.9773 0.0000
# 6 0.0000 0.0000 0.0000 4.8500 0.0000 28.9006
#
#
#
# Elastic Compliance Matrix: (Units=1/GPa)
#
#
# Indices 1 2 3 4 5 6 
#
# 1 0.020565 -0.000016 -0.008690 0.000000 -0.006975 0.000000
# 2 -0.000016 0.053465 -0.000703 0.000000 0.003247 0.000000
# 3 -0.008690 -0.000703 0.016482 0.000000 0.001920 0.000000
# 4 0.000000 0.000000 0.000000 0.032742 0.000000 -0.005495
# 5 -0.006975 0.003247 0.001920 0.000000 0.033910 0.000000
# 6 0.000000 0.000000 0.000000 -0.005495 0.000000 0.035523
#
#
# Mechanical properties :
#
#
# Convention : Reuss Voigt Hill
#
# Bulk Modulus (GPa) = 13.94814 25.91725 19.93269
# Shear Modulus (GPa) = 21.24012 27.08495 24.16253
#
# Velocity S-wave (km/s) = 3.29075 3.71604 3.50985
# Velocity P-wave (km/s) = 4.64220 5.62367 5.15634
#
# Compressibility (1/GPa) = 0.07169417
#
# Stress axis : x y z
#
# Youngs Moduli (GPa) = 48.62586 18.70400 60.67107
#
# Poissons Ratio (x) = 0.00029 0.52725
# Poissons Ratio (y) = 0.00076 0.04265
# Poissons Ratio (z) = 0.42257 0.01315
#
# Static dielectric constant tensor:
#      x y z
#    x 1.670900 0.000000 0.003530 
#    y 0.000000 1.661940 0.000000 
#    z 0.003530 0.000000 1.659520 
# 
# From -- ./inp_files/45180.got.cif
#   From: 2010.05.17/outbox.cif.g08.bks.cpg/sg11_23_cif.got.tgz:45180.got - 2010.06.03 12:22:45.
