data_PCOD9165482
_publ_section_title
;
Structure prediction by ZEFSAII (Michael W. Deem and Ramdas Pophale) SiO2 
 PCOD9165482
Probable space group: P 21/M
;
_chemical_formula_sum "Si O2"
_cell_formula_units_Z 28
_cell_length_a 27.382745
_cell_length_b 8.943022
_cell_length_c 9.375248
_cell_angle_alpha 90.000000
_cell_angle_beta 141.173275
_cell_angle_gamma 90.000000
_cell_volume 1439.424554
_symmetry_space_group_name_H-M "P 21/M"
_symmetry_group_IT_number 11
_symmetry_cell_setting 'monoclinic'
loop_
_space_group_symop_operation_xyz
x,y,z
-x,1/2+y,-z
-x,-y,-z
x,1/2-y,z
loop_
_atom_site_type_symbol
_atom_site_label
_atom_site_fract_x
_atom_site_fract_y
_atom_site_fract_z
Si Si1 0.022386 0.430225 0.704181
Si Si2 0.433754 0.421357 0.259173
Si Si3 0.700845 0.928757 0.648450
Si Si4 0.463951 0.577405 0.781698
Si Si5 0.161028 0.930230 0.197745
Si Si6 0.737007 0.929435 0.055758
Si Si7 0.872549 0.070839 0.552289
O O1 0.029081 0.250000 0.706287
O O2 0.000000 0.500000 0.500000
O O3 0.954542 0.466668 0.664475
O O4 0.100869 0.499322 0.947736
O O5 0.500000 0.500000 0.500000
O O6 0.428952 0.250000 0.298719
O O7 0.467237 0.424630 0.177367
O O8 0.347275 0.483705 0.079643
O O9 0.700030 0.750000 0.626475
O O10 0.613117 0.991242 0.445285
O O11 0.754160 0.007328 0.651157
O O12 0.737327 0.961066 0.887516
O O13 0.442569 0.750000 0.759318
O O14 0.500000 0.500000 0.000000
O O15 0.159715 0.750000 0.185418
O O16 0.136789 0.975846 0.303769
O O17 0.742285 0.750000 0.085794
O O18 0.805380 0.002861 0.300787
O O19 0.865510 0.250000 0.534136
#
# Coordination Sequence:
#
# PCOD9165482 Si02
#       7
#     4   4   4   4   4   4   4
#     4  11  23  42  67  95 125 162 204 247 300 361
#     4  10  21  39  61  88 118 158 205 254 306 361
#     4  11  23  41  63  89 122 162 206 254 308 364
#     4  11  24  40  61  89 123 162 206 255 310 367
#     4  11  24  42  63  92 127 162 203 251 302 359
#     4  10  22  39  61  89 121 157 203 252 303 361
#     4  10  24  42  62  91 125 161 201 247 301 359
#
# _framework density 19.452217000000001
#
# number of rings (size 3 to 8) (size 9 to 14) (size 15 to 20)
#    0.000    1.429    1.429    3.000    2.000    6.857 
#    0.000    0.000    0.000    0.000    0.000    0.000 
#    0.000    0.000    0.000    0.000    0.000    0.000 
#
# Total GULP energy -156465.757113 kJ/mol
# GULP energy per Si atom -5588.062754 kJ/mol
# Density = 1.940794 g / cm^3
# Si number density = 19.452217 Si / 1000 Ang^3
#
#
#
# Elastic Constant Matrix: (Units=GPa)
#
#
# Indices 1 2 3 4 5 6 
#
# 1 102.2823 35.2703 16.7178 0.0000 4.1662 0.0000
# 2 35.2703 50.7147 16.5587 0.0000 -7.6390 0.0000
# 3 16.7178 16.5587 65.5425 0.0000 -6.1302 0.0000
# 4 0.0000 0.0000 0.0000 40.0126 0.0000 2.8171
# 5 4.1662 -7.6390 -6.1302 0.0000 36.1019 0.0000
# 6 0.0000 0.0000 0.0000 2.8171 0.0000 29.7070
#
#
#
# Elastic Compliance Matrix: (Units=1/GPa)
#
#
# Indices 1 2 3 4 5 6 
#
# 1 0.013415 -0.009446 -0.001389 0.000000 -0.003783 0.000000
# 2 -0.009446 0.028635 -0.004223 0.000000 0.006432 0.000000
# 3 -0.001389 -0.004223 0.016878 0.000000 0.002133 0.000000
# 4 0.000000 0.000000 0.000000 0.025160 0.000000 -0.002386
# 5 -0.003783 0.006432 0.002133 0.000000 0.029859 0.000000
# 6 0.000000 0.000000 0.000000 -0.002386 0.000000 0.033888
#
#
# Mechanical properties :
#
#
# Convention : Reuss Voigt Hill
#
# Bulk Modulus (GPa) = 34.70851 39.51477 37.11164
# Shear Modulus (GPa) = 26.65845 31.16380 28.91113
#
# Velocity S-wave (km/s) = 3.70599 4.00693 3.85939
# Velocity P-wave (km/s) = 6.01616 6.46260 6.24337
#
# Compressibility (1/GPa) = 0.02881138
#
# Stress axis : x y z
#
# Youngs Moduli (GPa) = 74.54158 34.92172 59.24842
#
# Poissons Ratio (x) = 0.32988 0.08230
# Poissons Ratio (y) = 0.70413 0.25023
# Poissons Ratio (z) = 0.10355 0.14749
#
# Static dielectric constant tensor:
#      x y z
#    x 1.716210 0.000000 0.019030 
#    y 0.000000 1.614420 0.000000 
#    z 0.019030 0.000000 1.635070 
# 
# From -- ./inp_files/28625.got.cif
#   From: 2010.05.17/outbox.cif.g08.bks.cpg/sg11_15_cif.got.tgz:28625.got - 2010.06.03 12:22:45.
