data_PCOD9165872
_publ_section_title
;
Structure prediction by ZEFSAII (Michael W. Deem and Ramdas Pophale) SiO2 
 PCOD9165872
Probable space group: P 21/M
;
_chemical_formula_sum "Si O2"
_cell_formula_units_Z 22
_cell_length_a 13.775695
_cell_length_b 10.272010
_cell_length_c 9.129336
_cell_angle_alpha 90.000000
_cell_angle_beta 53.074712
_cell_angle_gamma 90.000000
_cell_volume 1032.720801
_symmetry_space_group_name_H-M "P 21/M"
_symmetry_group_IT_number 11
_symmetry_cell_setting 'monoclinic'
loop_
_space_group_symop_operation_xyz
x,y,z
-x,1/2+y,-z
-x,-y,-z
x,1/2-y,z
loop_
_atom_site_type_symbol
_atom_site_label
_atom_site_fract_x
_atom_site_fract_y
_atom_site_fract_z
Si Si1 0.198928 0.750000 0.052673
Si Si2 0.075537 0.250000 0.584880
Si Si3 0.140434 0.750000 0.643303
Si Si4 0.129954 0.250000 0.187641
Si Si5 0.241454 0.041795 0.589541
Si Si6 0.462214 0.989663 0.205104
Si Si7 0.275334 0.469472 0.891713
Si Si8 0.694208 0.250000 0.741417
O O1 0.299257 0.750000 0.091575
O O2 0.064905 0.750000 0.241763
O O3 0.221724 0.615370 0.949070
O O4 0.103818 0.250000 0.385230
O O5 0.137325 0.123095 0.602390
O O6 0.199260 0.611702 0.638403
O O7 0.170390 0.750000 0.442598
O O8 0.996237 0.750000 0.788284
O O9 0.205804 0.376565 0.069257
O O10 0.260461 0.081971 0.740680
O O11 0.365044 0.074782 0.385235
O O12 0.584135 0.974828 0.187400
O O13 0.377142 0.866480 0.263808
O O14 0.500000 0.000000 0.000000
#
# Coordination Sequence:
#
# PCOD9165872 Si02
#       8
#     2   2   2   2   4   4   4   2
#     4  12  25  42  73  99 134 173 233 274 338 396
#     4  12  27  44  68 103 135 178 232 281 330 397
#     4  10  23  44  71  94 135 180 228 275 333 395
#     4  12  26  43  70  99 138 180 230 279 331 398
#     4  11  26  45  68 100 140 179 222 278 343 404
#     4  11  22  42  69  96 133 175 228 274 330 397
#     4  12  26  44  69 102 139 180 220 278 346 405
#     4  10  21  41  64  99 130 171 223 289 322 384
#
# _framework density 21.302949999999999
#
# number of rings (size 3 to 8) (size 9 to 14) (size 15 to 20)
#    0.000    0.727    2.727    4.364    2.545    7.273 
#    0.000    3.636    0.000    0.000    0.000    0.000 
#    0.000    0.000    0.000    0.000    0.000    0.000 
#
# Total GULP energy -122607.904441 kJ/mol
# GULP energy per Si atom -5573.086565 kJ/mol
# Density = 2.125446 g / cm^3
# Si number density = 21.302950 Si / 1000 Ang^3
#
#
#
# Elastic Constant Matrix: (Units=GPa)
#
#
# Indices 1 2 3 4 5 6 
#
# 1 124.4229 27.5305 75.3470 0.0000 -7.9158 0.0000
# 2 27.5305 94.1461 42.5714 0.0000 -1.5345 0.0000
# 3 75.3470 42.5714 105.6146 0.0000 4.8920 0.0000
# 4 0.0000 0.0000 0.0000 27.5313 0.0000 -6.0298
# 5 -7.9158 -1.5345 4.8920 0.0000 54.2897 0.0000
# 6 0.0000 0.0000 0.0000 -6.0298 0.0000 0.3810
#
#
#
# Elastic Compliance Matrix: (Units=1/GPa)
#
#
# Indices 1 2 3 4 5 6 
#
# 1 0.014685 0.000685 -0.010898 0.000000 0.003143 0.000000
# 2 0.000685 0.013060 -0.005799 0.000000 0.000992 0.000000
# 3 -0.010898 -0.005799 0.019744 0.000000 -0.003532 0.000000
# 4 0.000000 0.000000 0.000000 -0.014729 0.000000 -0.233092
# 5 0.003143 0.000992 -0.003532 0.000000 0.019224 0.000000
# 6 0.000000 0.000000 0.000000 -0.233092 0.000000 -1.064271
#
#
# Mechanical properties :
#
#
# Convention : Reuss Voigt Hill
#
# Bulk Modulus (GPa) = 64.66147 68.34237 66.50192
# Shear Modulus (GPa) = -5.12764 28.35607 11.61422
#
# Velocity S-wave (km/s) = -1.55314 3.65236 2.33747
# Velocity P-wave (km/s) = 5.21564 7.06662 6.21048
#
# Compressibility (1/GPa) = 0.01546516
#
# Stress axis : x y z
#
# Youngs Moduli (GPa) = 68.09599 76.57113 50.64737
#
# Poissons Ratio (x) = -0.05245 0.55197
# Poissons Ratio (y) = -0.04664 0.29369
# Poissons Ratio (z) = 0.74213 0.44402
#
# Static dielectric constant tensor:
#      x y z
#    x 1.717040 0.000000 -0.034350 
#    y 0.000000 1.755570 0.000000 
#    z -0.034350 0.000000 1.940500 
# 
# From -- ./inp_files/20839.got.cif
#   From: 2010.05.17/outbox.cif.g08.bks.cpg/sg11_11_cif.got.tgz:20839.got - 2010.06.03 12:22:45.
