data_PCOD9165788
_publ_section_title
;
Structure prediction by ZEFSAII (Michael W. Deem and Ramdas Pophale) SiO2 
 PCOD9165788
Probable space group: P 21/M
;
_chemical_formula_sum "Si O2"
_cell_formula_units_Z 14
_cell_length_a 4.751267
_cell_length_b 5.334260
_cell_length_c 18.502411
_cell_angle_alpha 90.000000
_cell_angle_beta 93.141877
_cell_angle_gamma 90.000000
_cell_volume 468.229370
_symmetry_space_group_name_H-M "P 21/M"
_symmetry_group_IT_number 11
_symmetry_cell_setting 'monoclinic'
loop_
_space_group_symop_operation_xyz
x,y,z
-x,1/2+y,-z
-x,-y,-z
x,1/2-y,z
loop_
_atom_site_type_symbol
_atom_site_label
_atom_site_fract_x
_atom_site_fract_y
_atom_site_fract_z
Si Si1 0.363106 0.250000 0.870966
Si Si2 0.049503 0.750000 0.406506
Si Si3 0.999083 0.750000 0.834023
Si Si4 0.294892 0.750000 0.556246
Si Si5 0.592078 0.250000 0.732942
Si Si6 0.415766 0.250000 0.306001
Si Si7 0.181127 0.250000 0.017423
O O1 0.626676 0.250000 0.819395
O O2 0.184295 0.500544 0.850144
O O3 0.416791 0.250000 0.957693
O O4 0.302730 0.750000 0.469821
O O5 0.170291 0.750000 0.326285
O O6 0.872130 0.500827 0.422470
O O7 0.846995 0.750000 0.753376
O O8 0.765987 0.750000 0.896055
O O9 0.582280 0.750000 0.607456
O O10 0.426481 0.500122 0.713524
O O11 0.000000 0.500000 0.000000
#
# Coordination Sequence:
#
# PCOD9165788 Si02
#       7
#     2   2   2   2   2   2   2
#     4  10  21  40  65  94 130 169 211 261 318 380
#     4  10  23  45  70  93 122 166 219 271 319 373
#     4  10  21  40  65  94 130 169 211 261 318 380
#     4  10  23  45  70  93 122 166 219 271 319 373
#     4  12  26  40  63  99 132 167 209 265 325 386
#     4  12  26  40  63  99 132 167 209 265 325 386
#     4   8  16  34  62  90 120 166 216 258 304 368
#
# _framework density 29.899875999999999
#
# number of rings (size 3 to 8) (size 9 to 14) (size 15 to 20)
#    0.000    1.714    0.000    3.429    0.000    8.000 
#    0.000    1.429    0.000    1.714    0.000    2.000 
#    0.000    0.000    0.000    0.000    0.000    0.000 
#
# Total GULP energy -78434.909648 kJ/mol
# GULP energy per Si atom -5602.493546 kJ/mol
# Density = 2.983182 g / cm^3
# Si number density = 29.899876 Si / 1000 Ang^3
#
#
#
# Elastic Constant Matrix: (Units=GPa)
#
#
# Indices 1 2 3 4 5 6 
#
# 1 124.5567 51.3754 107.9066 0.0000 -1.2264 0.0000
# 2 51.3754 276.8406 74.6499 0.0000 2.9409 0.0000
# 3 107.9066 74.6499 232.5266 0.0000 -25.6002 0.0000
# 4 0.0000 0.0000 0.0000 58.4534 0.0000 0.2599
# 5 -1.2264 2.9409 -25.6002 0.0000 75.6538 0.0000
# 6 0.0000 0.0000 0.0000 0.2599 0.0000 6.4544
#
#
#
# Elastic Compliance Matrix: (Units=1/GPa)
#
#
# Indices 1 2 3 4 5 6 
#
# 1 0.013886 -0.000835 -0.006385 0.000000 -0.001903 0.000000
# 2 -0.000835 0.004032 -0.000961 0.000000 -0.000496 0.000000
# 3 -0.006385 -0.000961 0.007858 0.000000 0.002593 0.000000
# 4 0.000000 0.000000 0.000000 0.017111 0.000000 -0.000689
# 5 -0.001903 -0.000496 0.002593 0.000000 0.014084 0.000000
# 6 0.000000 0.000000 0.000000 -0.000689 0.000000 0.154961
#
#
# Mechanical properties :
#
#
# Convention : Reuss Voigt Hill
#
# Bulk Modulus (GPa) = 106.24703 122.42086 114.33395
# Shear Modulus (GPa) = 21.60461 54.77846 38.19154
#
# Velocity S-wave (km/s) = 2.69097 4.28490 3.57783
# Velocity P-wave (km/s) = 6.72804 8.09401 7.44243
#
# Compressibility (1/GPa) = 0.00941203
#
# Stress axis : x y z
#
# Youngs Moduli (GPa) = 72.01525 248.03822 127.25984
#
# Poissons Ratio (x) = 0.20708 0.81261
# Poissons Ratio (y) = 0.06012 0.12235
# Poissons Ratio (z) = 0.45985 0.23847
#
# Static dielectric constant tensor:
#      x y z
#    x 2.222710 0.000000 -0.005740 
#    y 0.000000 2.388670 0.000000 
#    z -0.005740 0.000000 2.341880 
# 
# From -- ./inp_files/56593.got.cif
#   From: 2010.05.17/outbox.cif.g08.bks.cpg/sg11_29_cif.got.tgz:56593.got - 2010.06.03 12:22:45.
