data_PCOD9165487
_publ_section_title
;
Structure prediction by ZEFSAII (Michael W. Deem and Ramdas Pophale) SiO2 
 PCOD9165487
Probable space group: P 21/M
;
_chemical_formula_sum "Si O2"
_cell_formula_units_Z 32
_cell_length_a 19.768017
_cell_length_b 8.747485
_cell_length_c 10.236129
_cell_angle_alpha 90.000000
_cell_angle_beta 82.847762
_cell_angle_gamma 90.000000
_cell_volume 1756.262909
_symmetry_space_group_name_H-M "P 21/M"
_symmetry_group_IT_number 11
_symmetry_cell_setting 'monoclinic'
loop_
_space_group_symop_operation_xyz
x,y,z
-x,1/2+y,-z
-x,-y,-z
x,1/2-y,z
loop_
_atom_site_type_symbol
_atom_site_label
_atom_site_fract_x
_atom_site_fract_y
_atom_site_fract_z
Si Si1 0.452677 0.565913 0.397577
Si Si2 0.205130 0.429989 0.357187
Si Si3 0.473486 0.933588 0.870535
Si Si4 0.955919 0.930743 0.626519
Si Si5 0.682767 0.435058 0.163314
Si Si6 0.694242 0.066562 0.461478
Si Si7 0.205348 0.434329 0.060538
Si Si8 0.945932 0.067435 0.911255
O O1 0.500000 0.500000 0.500000
O O2 0.456232 0.750000 0.395622
O O3 0.479927 0.499941 0.255805
O O4 0.375765 0.518751 0.451101
O O5 0.220511 0.250000 0.361912
O O6 0.123982 0.449690 0.386819
O O7 0.244086 0.512295 0.463832
O O8 0.223884 0.481867 0.205292
O O9 0.477720 0.750000 0.869892
O O10 0.394436 0.974839 0.860797
O O11 0.500000 0.000000 0.000000
O O12 0.969168 0.750000 0.639190
O O13 0.967634 0.014977 0.760857
O O14 0.000000 0.000000 0.500000
O O15 0.688510 0.250000 0.156671
O O16 0.694634 0.485625 0.310620
O O17 0.738422 0.507057 0.053904
O O18 0.694120 0.250000 0.456817
O O19 0.200999 0.250000 0.059813
O O20 0.130239 0.500797 0.048595
O O21 0.943915 0.250000 0.920637
O O22 0.000000 0.000000 0.000000
#
# Coordination Sequence:
#
# PCOD9165487 Si02
#       8
#     4   4   4   4   4   4   4   4
#     4  11  22  40  62  87 117 156 197 247 303 355
#     4   9  21  39  58  85 118 151 192 239 288 343
#     4  11  24  42  61  87 120 155 200 251 301 359
#     4  10  21  39  61  89 124 159 198 246 295 348
#     4  10  22  41  59  82 118 156 195 243 296 353
#     4  10  22  39  59  84 115 152 195 238 291 353
#     4  10  22  40  60  87 120 154 196 245 294 352
#     4  11  22  39  63  90 120 159 201 245 298 353
#
# _framework density 18.220507000000001
#
# number of rings (size 3 to 8) (size 9 to 14) (size 15 to 20)
#    0.000    1.750    1.250    3.375    1.750    6.500 
#    0.000    2.500    0.000    0.000    0.000    0.000 
#    0.000    0.000    0.000    0.000    0.000    0.000 
#
# Total GULP energy -178760.168934 kJ/mol
# GULP energy per Si atom -5586.255279 kJ/mol
# Density = 1.817904 g / cm^3
# Si number density = 18.220507 Si / 1000 Ang^3
#
#
#
# Elastic Constant Matrix: (Units=GPa)
#
#
# Indices 1 2 3 4 5 6 
#
# 1 67.2596 45.9886 80.4248 0.0000 6.3013 0.0000
# 2 45.9886 71.1913 58.4868 0.0000 -0.3972 0.0000
# 3 80.4248 58.4868 177.8573 0.0000 -4.7633 0.0000
# 4 0.0000 0.0000 0.0000 37.5592 0.0000 0.1396
# 5 6.3013 -0.3972 -4.7633 0.0000 41.1261 0.0000
# 6 0.0000 0.0000 0.0000 0.1396 0.0000 35.9283
#
#
#
# Elastic Compliance Matrix: (Units=1/GPa)
#
#
# Indices 1 2 3 4 5 6 
#
# 1 0.045507 -0.016915 -0.015254 0.000000 -0.008902 0.000000
# 2 -0.016915 0.025546 -0.000678 0.000000 0.002760 0.000000
# 3 -0.015254 -0.000678 0.012845 0.000000 0.003818 0.000000
# 4 0.000000 0.000000 0.000000 0.026625 0.000000 -0.000103
# 5 -0.008902 0.002760 0.003818 0.000000 0.026148 0.000000
# 6 0.000000 0.000000 0.000000 -0.000103 0.000000 0.027834
#
#
# Mechanical properties :
#
#
# Convention : Reuss Voigt Hill
#
# Bulk Modulus (GPa) = 54.93054 76.23429 65.58242
# Shear Modulus (GPa) = 21.16265 31.68326 26.42296
#
# Velocity S-wave (km/s) = 3.41174 4.17451 3.81225
# Velocity P-wave (km/s) = 6.76262 8.07255 7.44645
#
# Compressibility (1/GPa) = 0.01820481
#
# Stress axis : x y z
#
# Youngs Moduli (GPa) = 21.97487 39.14557 77.85014
#
# Poissons Ratio (x) = 0.66214 1.18750
# Poissons Ratio (y) = 0.37170 0.05278
# Poissons Ratio (z) = 0.33520 0.02654
#
# Static dielectric constant tensor:
#      x y z
#    x 1.595730 0.000000 0.006670 
#    y 0.000000 1.616190 0.000000 
#    z 0.006670 0.000000 1.596020 
# 
# From -- ./inp_files/25813.got.cif
#   From: 2010.05.17/outbox.cif.g08.bks.cpg/sg11_13_cif.got.tgz:25813.got - 2010.06.03 12:22:45.
