data_PCOD9165194
_publ_section_title
;
Structure prediction by ZEFSAII (Michael W. Deem and Ramdas Pophale) SiO2 
 PCOD9165194
Probable space group: P 21/M
;
_chemical_formula_sum "Si O2"
_cell_formula_units_Z 24
_cell_length_a 22.172346
_cell_length_b 8.493636
_cell_length_c 11.328792
_cell_angle_alpha 90.000000
_cell_angle_beta 32.729631
_cell_angle_gamma 90.000000
_cell_volume 1153.521092
_symmetry_space_group_name_H-M "P 21/M"
_symmetry_group_IT_number 11
_symmetry_cell_setting 'monoclinic'
loop_
_space_group_symop_operation_xyz
x,y,z
-x,1/2+y,-z
-x,-y,-z
x,1/2-y,z
loop_
_atom_site_type_symbol
_atom_site_label
_atom_site_fract_x
_atom_site_fract_y
_atom_site_fract_z
Si Si1 0.349660 0.939988 0.991393
Si Si2 0.435896 0.060151 0.489555
Si Si3 0.222040 0.440107 0.973278
Si Si4 0.828149 0.563255 0.331640
Si Si5 0.374590 0.562189 0.209113
Si Si6 0.030631 0.059588 0.130763
O O1 0.347437 0.750000 0.989453
O O2 0.321628 0.988510 0.170144
O O3 0.478354 0.991986 0.753204
O O4 0.269655 0.000656 0.019271
O O5 0.433089 0.250000 0.488859
O O6 0.309775 0.009470 0.725408
O O7 0.500000 0.000000 0.500000
O O8 0.223911 0.250000 0.973266
O O9 0.098738 0.488799 0.135257
O O10 0.820206 0.750000 0.339136
O O11 0.705144 0.498255 0.556298
O O12 0.910309 0.511131 0.302125
O O13 0.891112 0.510876 0.108974
O O14 0.377413 0.750000 0.208374
O O15 0.500000 0.500000 0.000000
O O16 0.020948 0.250000 0.145637
#
# Coordination Sequence:
#
# PCOD9165194 Si02
#       6
#     4   4   4   4   4   4
#     4   9  19  34  52  76 111 147 181 227 277 329
#     4   8  14  26  45  70 102 137 171 210 263 316
#     4   9  17  30  54  82 109 142 181 228 279 331
#     4  10  21  38  60  84 114 149 188 235 280 331
#     4  11  24  40  59  82 113 152 191 230 278 336
#     4   9  19  36  60  86 114 147 185 234 286 333
#
# _framework density 20.805859999999999
#
# number of rings (size 3 to 8) (size 9 to 14) (size 15 to 20)
#    0.000    2.667    0.000    1.000    2.333    2.667 
#    0.000    0.833    0.000    0.000    0.000    0.000 
#    0.000    0.000    0.000    0.000    0.000    0.000 
#
# Total GULP energy -133786.031334 kJ/mol
# GULP energy per Si atom -5574.417972 kJ/mol
# Density = 2.075851 g / cm^3
# Si number density = 20.805860 Si / 1000 Ang^3
#
#
#
# Elastic Constant Matrix: (Units=GPa)
#
#
# Indices 1 2 3 4 5 6 
#
# 1 87.8355 9.6200 18.7330 0.0000 -17.4576 0.0000
# 2 9.6200 12.0240 16.8405 0.0000 -2.2075 0.0000
# 3 18.7330 16.8405 79.0665 0.0000 -9.2343 0.0000
# 4 0.0000 0.0000 0.0000 27.0584 0.0000 -6.3561
# 5 -17.4576 -2.2075 -9.2343 0.0000 33.8673 0.0000
# 6 0.0000 0.0000 0.0000 -6.3561 0.0000 21.9531
#
#
#
# Elastic Compliance Matrix: (Units=1/GPa)
#
#
# Indices 1 2 3 4 5 6 
#
# 1 0.013760 -0.009001 -0.000602 0.000000 0.006342 0.000000
# 2 -0.009001 0.124436 -0.024754 0.000000 -0.003278 0.000000
# 3 -0.000602 -0.024754 0.018425 0.000000 0.003100 0.000000
# 4 0.000000 0.000000 0.000000 0.039654 0.000000 0.011481
# 5 0.006342 -0.003278 0.003100 0.000000 0.033428 0.000000
# 6 0.000000 0.000000 0.000000 0.011481 0.000000 0.048876
#
#
# Mechanical properties :
#
#
# Convention : Reuss Voigt Hill
#
# Bulk Modulus (GPa) = 11.37578 29.92368 20.64973
# Shear Modulus (GPa) = 13.27690 25.49127 19.38408
#
# Velocity S-wave (km/s) = 2.52887 3.50408 3.05563
# Velocity P-wave (km/s) = 3.74251 5.54842 4.73241
#
# Compressibility (1/GPa) = 0.08790609
#
# Stress axis : x y z
#
# Youngs Moduli (GPa) = 72.67655 8.03625 54.27489
#
# Poissons Ratio (x) = 0.07233 0.03269
# Poissons Ratio (y) = 0.65414 1.34353
# Poissons Ratio (z) = 0.04377 0.19893
#
# Static dielectric constant tensor:
#      x y z
#    x 1.770610 0.000000 0.005140 
#    y 0.000000 1.707050 0.000000 
#    z 0.005140 0.000000 1.780140 
# 
# From -- ./inp_files/42264.got.cif
#   From: 2010.05.17/outbox.cif.g08.bks.cpg/sg11_22_cif.got.tgz:42264.got - 2010.06.03 12:22:45.
