data_PCOD9165730
_publ_section_title
;
Structure prediction by ZEFSAII (Michael W. Deem and Ramdas Pophale) SiO2 
 PCOD9165730
Probable space group: P 21/M
;
_chemical_formula_sum "Si O2"
_cell_formula_units_Z 24
_cell_length_a 5.249959
_cell_length_b 15.177614
_cell_length_c 13.441391
_cell_angle_alpha 90.000000
_cell_angle_beta 88.591326
_cell_angle_gamma 90.000000
_cell_volume 1070.711229
_symmetry_space_group_name_H-M "P 21/M"
_symmetry_group_IT_number 11
_symmetry_cell_setting 'monoclinic'
loop_
_space_group_symop_operation_xyz
x,y,z
-x,1/2+y,-z
-x,-y,-z
x,1/2-y,z
loop_
_atom_site_type_symbol
_atom_site_label
_atom_site_fract_x
_atom_site_fract_y
_atom_site_fract_z
Si Si1 0.722423 0.654256 0.137679
Si Si2 0.033445 0.998735 0.242746
Si Si3 0.909338 0.150625 0.386922
Si Si4 0.346210 0.847194 0.307922
Si Si5 0.249104 0.049046 0.040457
Si Si6 0.411236 0.101559 0.505407
O O1 0.834129 0.750000 0.162165
O O2 0.446889 0.653040 0.193235
O O3 0.859629 0.570888 0.185509
O O4 0.731995 0.640532 0.019401
O O5 0.175611 0.933848 0.318117
O O6 0.895079 0.077034 0.301199
O O7 0.219557 0.043734 0.159213
O O8 0.961077 0.250000 0.350425
O O9 0.143380 0.121105 0.455814
O O10 0.643088 0.149860 0.447311
O O11 0.238736 0.750000 0.331159
O O12 0.578948 0.863541 0.381548
O O13 0.500000 0.000000 0.000000
O O14 0.000000 0.000000 0.000000
O O15 0.500000 0.000000 0.500000
#
# Coordination Sequence:
#
# PCOD9165730 Si02
#       6
#     4   4   4   4   4   4
#     4  10  22  40  64  98 131 168 218 274 328 392
#     4  11  23  40  67  91 133 172 223 262 341 388
#     4  12  27  45  67  98 138 178 228 277 328 401
#     4  11  22  37  63  94 128 167 217 272 328 390
#     4  10  21  40  63  90 125 168 209 265 326 387
#     4  12  25  46  67  96 131 181 224 277 338 393
#
# _framework density 22.415009000000001
#
# number of rings (size 3 to 8) (size 9 to 14) (size 15 to 20)
#    0.000    1.000    3.333    3.500    2.333    0.667 
#    0.000    0.000    0.000    1.000    0.000    0.000 
#    0.000    0.000    0.000    0.000    0.000    0.000 
#
# Total GULP energy -134021.947217 kJ/mol
# GULP energy per Si atom -5584.247801 kJ/mol
# Density = 2.236399 g / cm^3
# Si number density = 22.415009 Si / 1000 Ang^3
#
#
#
# Elastic Constant Matrix: (Units=GPa)
#
#
# Indices 1 2 3 4 5 6 
#
# 1 78.5800 1.7636 12.9981 0.0000 -7.0952 0.0000
# 2 1.7636 162.6375 40.2498 0.0000 -2.4366 0.0000
# 3 12.9981 40.2498 78.1243 0.0000 -16.7200 0.0000
# 4 0.0000 0.0000 0.0000 29.0995 0.0000 -10.6421
# 5 -7.0952 -2.4366 -16.7200 0.0000 34.8334 0.0000
# 6 0.0000 0.0000 0.0000 -10.6421 0.0000 16.5561
#
#
#
# Elastic Compliance Matrix: (Units=1/GPa)
#
#
# Indices 1 2 3 4 5 6 
#
# 1 0.013209 0.000383 -0.002021 0.000000 0.001747 0.000000
# 2 0.000383 0.007119 -0.004022 0.000000 -0.001354 0.000000
# 3 -0.002021 -0.004022 0.016784 0.000000 0.007363 0.000000
# 4 0.000000 0.000000 0.000000 0.044926 0.000000 0.028878
# 5 0.001747 -0.001354 0.007363 0.000000 0.032504 0.000000
# 6 0.000000 0.000000 0.000000 0.028878 0.000000 0.078963
#
#
# Mechanical properties :
#
#
# Convention : Reuss Voigt Hill
#
# Bulk Modulus (GPa) = 38.76893 47.70720 43.23806
# Shear Modulus (GPa) = 23.42762 33.71981 28.57372
#
# Velocity S-wave (km/s) = 3.23643 3.88279 3.57425
# Velocity P-wave (km/s) = 5.59459 6.43671 6.03037
#
# Compressibility (1/GPa) = 0.02579385
#
# Stress axis : x y z
#
# Youngs Moduli (GPa) = 75.70383 140.46007 59.57978
#
# Poissons Ratio (x) = -0.05382 0.12042
# Poissons Ratio (y) = -0.02901 0.23960
# Poissons Ratio (z) = 0.15301 0.56487
#
# Static dielectric constant tensor:
#      x y z
#    x 1.872970 0.000000 0.009620 
#    y 0.000000 1.849880 0.000000 
#    z 0.009620 0.000000 1.881360 
# 
# From -- ./inp_files/45685.got.cif
#   From: 2010.05.17/outbox.cif.g08.bks.cpg/sg11_23_cif.got.tgz:45685.got - 2010.06.03 12:22:45.
