data_PCOD9165700
_publ_section_title
;
Structure prediction by ZEFSAII (Michael W. Deem and Ramdas Pophale) SiO2 
 PCOD9165700
Probable space group: P 21/M
;
_chemical_formula_sum "Si O2"
_cell_formula_units_Z 28
_cell_length_a 17.796215
_cell_length_b 13.690371
_cell_length_c 6.916188
_cell_angle_alpha 90.000000
_cell_angle_beta 126.051268
_cell_angle_gamma 90.000000
_cell_volume 1362.337441
_symmetry_space_group_name_H-M "P 21/M"
_symmetry_group_IT_number 11
_symmetry_cell_setting 'monoclinic'
loop_
_space_group_symop_operation_xyz
x,y,z
-x,1/2+y,-z
-x,-y,-z
x,1/2-y,z
loop_
_atom_site_type_symbol
_atom_site_label
_atom_site_fract_x
_atom_site_fract_y
_atom_site_fract_z
Si Si1 0.570361 0.865302 0.076793
Si Si2 0.883444 0.133184 0.346036
Si Si3 0.561400 0.479481 0.402305
Si Si4 0.762130 0.633572 0.142485
Si Si5 0.058999 0.367733 0.350819
Si Si6 0.763879 0.034454 0.871224
Si Si7 0.919078 0.131628 0.841356
O O1 0.566442 0.750000 0.107357
O O2 0.665037 0.887522 0.101906
O O3 0.568574 0.925804 0.273417
O O4 0.487728 0.900196 0.810485
O O5 0.877072 0.250000 0.323372
O O6 0.906100 0.108023 0.599273
O O7 0.972889 0.102812 0.356146
O O8 0.790553 0.090313 0.110613
O O9 0.500000 0.500000 0.500000
O O10 0.662775 0.448631 0.630203
O O11 0.768809 0.750000 0.123014
O O12 0.844929 0.599876 0.410586
O O13 0.769796 0.577528 0.950862
O O14 0.064934 0.250000 0.364325
O O15 0.021301 0.392364 0.080818
O O16 0.840361 0.074260 0.839235
O O17 0.906009 0.250000 0.847681
#
# Coordination Sequence:
#
# PCOD9165700 Si02
#       7
#     4   4   4   4   4   4   4
#     4  10  24  45  68  93 120 156 202 250 304 371
#     4   9  19  36  59  88 124 162 203 251 299 351
#     4  11  24  44  67  92 124 157 196 255 311 365
#     4  10  21  40  62  86 123 162 202 248 293 354
#     4   8  16  35  57  83 120 162 204 248 294 344
#     4  11  22  36  63  88 122 156 198 248 305 358
#     4   9  19  36  57  87 124 162 205 251 298 350
#
# _framework density 20.552911999999999
#
# number of rings (size 3 to 8) (size 9 to 14) (size 15 to 20)
#    0.000    2.286    1.429    1.286    2.000    4.571 
#    2.571    2.857    0.000    0.000    0.000    0.000 
#    0.000    0.000    0.000    0.000    0.000    0.000 
#
# Total GULP energy -156371.735706 kJ/mol
# GULP energy per Si atom -5584.704847 kJ/mol
# Density = 2.050613 g / cm^3
# Si number density = 20.552912 Si / 1000 Ang^3
#
#
#
# Elastic Constant Matrix: (Units=GPa)
#
#
# Indices 1 2 3 4 5 6 
#
# 1 56.9889 38.2275 67.8394 0.0000 21.1334 0.0000
# 2 38.2275 80.3151 38.4024 0.0000 1.3182 0.0000
# 3 67.8394 38.4024 189.8479 0.0000 27.2751 0.0000
# 4 0.0000 0.0000 0.0000 29.0237 0.0000 -1.5277
# 5 21.1334 1.3182 27.2751 0.0000 48.4025 0.0000
# 6 0.0000 0.0000 0.0000 -1.5277 0.0000 27.3912
#
#
#
# Elastic Compliance Matrix: (Units=1/GPa)
#
#
# Indices 1 2 3 4 5 6 
#
# 1 0.048161 -0.017075 -0.011753 0.000000 -0.013940 0.000000
# 2 -0.017075 0.019913 0.001175 0.000000 0.006251 0.000000
# 3 -0.011753 0.001175 0.009245 0.000000 -0.000110 0.000000
# 4 0.000000 0.000000 0.000000 0.034556 0.000000 0.001927
# 5 -0.013940 0.006251 -0.000110 0.000000 0.026638 0.000000
# 6 0.000000 0.000000 0.000000 0.001927 0.000000 0.036616
#
#
# Mechanical properties :
#
#
# Convention : Reuss Voigt Hill
#
# Bulk Modulus (GPa) = 45.42385 68.45449 56.93917
# Shear Modulus (GPa) = 21.02845 33.14231 27.08538
#
# Velocity S-wave (km/s) = 3.20212 4.02000 3.63414
# Velocity P-wave (km/s) = 5.98501 7.41120 6.73596
#
# Compressibility (1/GPa) = 0.02201487
#
# Stress axis : x y z
#
# Youngs Moduli (GPa) = 20.76364 50.21736 108.16369
#
# Poissons Ratio (x) = 0.85745 1.27126
# Poissons Ratio (y) = 0.35453 -0.12713
# Poissons Ratio (z) = 0.24404 -0.05902
#
# Static dielectric constant tensor:
#      x y z
#    x 1.701260 0.000000 -0.008770 
#    y 0.000000 1.781170 0.000000 
#    z -0.008770 0.000000 1.738820 
# 
# From -- ./inp_files/8144.got.cif
#   From: 2010.05.17/outbox.cif.g08.bks.cpg/sg11_5_cif.got.tgz:8144.got - 2010.06.03 12:22:45.
