data_PCOD9165546
_publ_section_title
;
Structure prediction by ZEFSAII (Michael W. Deem and Ramdas Pophale) SiO2 
 PCOD9165546
Probable space group: P 21/M
;
_chemical_formula_sum "Si O2"
_cell_formula_units_Z 28
_cell_length_a 28.075440
_cell_length_b 8.647615
_cell_length_c 9.616596
_cell_angle_alpha 90.000000
_cell_angle_beta 37.889017
_cell_angle_gamma 90.000000
_cell_volume 1433.862084
_symmetry_space_group_name_H-M "P 21/M"
_symmetry_group_IT_number 11
_symmetry_cell_setting 'monoclinic'
loop_
_space_group_symop_operation_xyz
x,y,z
-x,1/2+y,-z
-x,-y,-z
x,1/2-y,z
loop_
_atom_site_type_symbol
_atom_site_label
_atom_site_fract_x
_atom_site_fract_y
_atom_site_fract_z
Si Si1 0.024484 0.564664 0.796682
Si Si2 0.370709 0.434784 0.449459
Si Si3 0.935267 0.065275 0.751332
Si Si4 0.514512 0.063320 0.311383
Si Si5 0.659412 0.063086 0.788874
Si Si6 0.797946 0.061787 0.657069
Si Si7 0.236471 0.936800 0.954053
O O1 0.024932 0.750000 0.792557
O O2 0.112358 0.511859 0.557371
O O3 0.960333 0.501730 0.839933
O O4 0.000000 0.500000 0.000000
O O5 0.372878 0.250000 0.433802
O O6 0.447523 0.485553 0.356916
O O7 0.361680 0.501251 0.314952
O O8 0.299548 0.487325 0.709961
O O9 0.939095 0.250000 0.742762
O O10 0.849391 0.022305 0.901364
O O11 0.000000 0.000000 0.500000
O O12 0.513353 0.250000 0.323727
O O13 0.500000 0.000000 0.500000
O O14 0.595575 0.018154 0.052003
O O15 0.659297 0.250000 0.780800
O O16 0.743401 0.012982 0.654806
O O17 0.799146 0.250000 0.653918
O O18 0.760374 0.016203 0.891248
O O19 0.245127 0.750000 0.927351
#
# Coordination Sequence:
#
# PCOD9165546 Si02
#       7
#     4   4   4   4   4   4   4
#     4  11  23  40  59  86 122 159 201 253 304 357
#     4  11  24  39  57  91 127 153 190 247 300 343
#     4  11  22  39  63  89 117 158 205 252 305 360
#     4  10  22  40  64  91 121 156 196 240 291 351
#     4  10  21  39  63  87 116 160 202 236 284 355
#     4   9  19  38  61  84 112 151 202 245 283 347
#     4  10  21  40  63  85 114 159 204 241 292 362
#
# _framework density 19.527681999999999
#
# number of rings (size 3 to 8) (size 9 to 14) (size 15 to 20)
#    0.000    1.714    1.429    2.571    2.000    4.000 
#    0.000    1.429    0.000    0.000    0.000    0.000 
#    0.000    0.000    0.000    0.000    0.000    0.000 
#
# Total GULP energy -156385.965122 kJ/mol
# GULP energy per Si atom -5585.213040 kJ/mol
# Density = 1.948324 g / cm^3
# Si number density = 19.527682 Si / 1000 Ang^3
#
#
#
# Elastic Constant Matrix: (Units=GPa)
#
#
# Indices 1 2 3 4 5 6 
#
# 1 140.0847 23.5045 24.7484 0.0000 11.4224 0.0000
# 2 23.5045 12.9815 10.6917 0.0000 -6.4232 0.0000
# 3 24.7484 10.6917 70.0146 0.0000 8.0114 0.0000
# 4 0.0000 0.0000 0.0000 30.8195 0.0000 6.8969
# 5 11.4224 -6.4232 8.0114 0.0000 40.6516 0.0000
# 6 0.0000 0.0000 0.0000 6.8969 0.0000 32.0114
#
#
#
# Elastic Compliance Matrix: (Units=1/GPa)
#
#
# Indices 1 2 3 4 5 6 
#
# 1 0.012018 -0.026012 0.000594 0.000000 -0.007604 0.000000
# 2 -0.026012 0.157542 -0.018976 0.000000 0.035941 0.000000
# 3 0.000594 -0.018976 0.017732 0.000000 -0.006660 0.000000
# 4 0.000000 0.000000 0.000000 0.034091 0.000000 -0.007345
# 5 -0.007604 0.035941 -0.006660 0.000000 0.033727 0.000000
# 6 0.000000 0.000000 0.000000 -0.007345 0.000000 0.032821
#
#
# Mechanical properties :
#
#
# Convention : Reuss Voigt Hill
#
# Bulk Modulus (GPa) = 10.15167 37.88554 24.01860
# Shear Modulus (GPa) = 12.20839 31.63891 21.92365
#
# Velocity S-wave (km/s) = 2.50308 4.02955 3.35430
# Velocity P-wave (km/s) = 3.68290 6.41036 5.22764
#
# Compressibility (1/GPa) = 0.09850600
#
# Stress axis : x y z
#
# Youngs Moduli (GPa) = 83.20790 6.34750 56.39378
#
# Poissons Ratio (x) = 0.16511 -0.03351
# Poissons Ratio (y) = 2.16440 1.07011
# Poissons Ratio (z) = -0.04944 0.12045
#
# Static dielectric constant tensor:
#      x y z
#    x 1.626090 0.000000 -0.034550 
#    y 0.000000 1.669040 0.000000 
#    z -0.034550 0.000000 1.651160 
# 
# From -- ./inp_files/28307.got.cif
#   From: 2010.05.17/outbox.cif.g08.bks.cpg/sg11_15_cif.got.tgz:28307.got - 2010.06.03 12:22:45.
