data_PCOD9165534
_publ_section_title
;
Structure prediction by ZEFSAII (Michael W. Deem and Ramdas Pophale) SiO2 
 PCOD9165534
Probable space group: P 21/M
;
_chemical_formula_sum "Si O2"
_cell_formula_units_Z 28
_cell_length_a 5.022115
_cell_length_b 27.452500
_cell_length_c 9.281108
_cell_angle_alpha 90.000000
_cell_angle_beta 64.387845
_cell_angle_gamma 90.000000
_cell_volume 1153.852034
_symmetry_space_group_name_H-M "P 21/M"
_symmetry_group_IT_number 11
_symmetry_cell_setting 'monoclinic'
loop_
_space_group_symop_operation_xyz
x,y,z
-x,1/2+y,-z
-x,-y,-z
x,1/2-y,z
loop_
_atom_site_type_symbol
_atom_site_label
_atom_site_fract_x
_atom_site_fract_y
_atom_site_fract_z
Si Si1 0.849258 0.026339 0.805952
Si Si2 0.018685 0.393504 0.579837
Si Si3 0.056491 0.664277 0.662452
Si Si4 0.807498 0.559672 0.003614
Si Si5 0.501898 0.155113 0.879118
Si Si6 0.611653 0.194902 0.148014
Si Si7 0.620308 0.802850 0.377998
O O1 0.037984 0.051534 0.634606
O O2 0.496333 0.033154 0.870386
O O3 0.951964 0.055592 0.926441
O O4 0.903931 0.970910 0.841744
O O5 0.993899 0.385177 0.416037
O O6 0.719931 0.375775 0.727825
O O7 0.243616 0.352101 0.585237
O O8 0.228661 0.661561 0.772395
O O9 0.280454 0.694952 0.508929
O O10 0.741078 0.689777 0.751893
O O11 0.715589 0.615123 0.002868
O O12 0.359007 0.191767 0.799189
O O13 0.667698 0.180859 0.970136
O O14 0.704980 0.250000 0.156382
O O15 0.744431 0.750000 0.393995
#
# Coordination Sequence:
#
# PCOD9165534 Si02
#       7
#     4   4   4   4   4   4   4
#     4   9  17  31  57  87 115 144 185 234 288 346
#     4  10  21  39  62  90 117 148 196 246 292 336
#     4  11  25  41  60  80 114 158 201 238 282 345
#     4   9  17  32  55  86 118 146 180 233 293 346
#     4  10  23  37  58  89 121 149 191 244 296 340
#     4  12  25  41  58  82 116 160 199 234 285 350
#     4  11  21  37  59  86 115 151 194 245 288 334
#
# _framework density 24.266545000000001
#
# number of rings (size 3 to 8) (size 9 to 14) (size 15 to 20)
#    0.000    1.714    2.857    1.714    2.000    3.429 
#    0.000    0.000    0.000    1.714    0.000    0.000 
#    0.000    0.000    0.000    0.000    0.000    0.000 
#
# Total GULP energy -156419.535209 kJ/mol
# GULP energy per Si atom -5586.411972 kJ/mol
# Density = 2.421131 g / cm^3
# Si number density = 24.266545 Si / 1000 Ang^3
#
#
#
# Elastic Constant Matrix: (Units=GPa)
#
#
# Indices 1 2 3 4 5 6 
#
# 1 101.1924 2.6141 22.5078 0.0000 18.2424 0.0000
# 2 2.6141 33.3908 20.4535 0.0000 -1.2382 0.0000
# 3 22.5078 20.4535 64.3471 0.0000 31.5049 0.0000
# 4 0.0000 0.0000 0.0000 21.7373 0.0000 8.5161
# 5 18.2424 -1.2382 31.5049 0.0000 34.8784 0.0000
# 6 0.0000 0.0000 0.0000 8.5161 0.0000 20.0827
#
#
#
# Elastic Compliance Matrix: (Units=1/GPa)
#
#
# Indices 1 2 3 4 5 6 
#
# 1 0.011034 0.000196 -0.001972 0.000000 -0.003983 0.000000
# 2 0.000196 0.049070 -0.029527 0.000000 0.028311 0.000000
# 3 -0.001972 -0.029527 0.045942 0.000000 -0.041516 0.000000
# 4 0.000000 0.000000 0.000000 0.055169 0.000000 -0.023395
# 5 -0.003983 0.028311 -0.041516 0.000000 0.069259 0.000000
# 6 0.000000 0.000000 0.000000 -0.023395 0.000000 0.059714
#
#
# Mechanical properties :
#
#
# Convention : Reuss Voigt Hill
#
# Bulk Modulus (GPa) = 23.01995 32.23123 27.62559
# Shear Modulus (GPa) = 13.61380 25.56336 19.58858
#
# Velocity S-wave (km/s) = 2.37114 3.24920 2.84425
# Velocity P-wave (km/s) = 4.12350 5.23329 4.71119
#
# Compressibility (1/GPa) = 0.04344059
#
# Stress axis : x y z
#
# Youngs Moduli (GPa) = 90.63165 20.37919 21.76636
#
# Poissons Ratio (x) = -0.00400 0.04292
# Poissons Ratio (y) = -0.01779 0.64270
# Poissons Ratio (z) = 0.17871 0.60174
#
# Static dielectric constant tensor:
#      x y z
#    x 1.941200 0.000000 -0.004140 
#    y 0.000000 1.964110 0.000000 
#    z -0.004140 0.000000 1.967770 
# 
# From -- ./inp_files/3198.got.cif
#   From: 2010.05.17/outbox.cif.g08.bks.cpg/sg11_2_cif.got.tgz:3198.got - 2010.06.03 12:22:45.
