data_PCOD9165843
_publ_section_title
;
Structure prediction by ZEFSAII (Michael W. Deem and Ramdas Pophale) SiO2 
 PCOD9165843
Probable space group: P 21/M
;
_chemical_formula_sum "Si O2"
_cell_formula_units_Z 24
_cell_length_a 8.105964
_cell_length_b 23.146250
_cell_length_c 6.244982
_cell_angle_alpha 90.000000
_cell_angle_beta 71.745493
_cell_angle_gamma 90.000000
_cell_volume 1112.733781
_symmetry_space_group_name_H-M "P 21/M"
_symmetry_group_IT_number 11
_symmetry_cell_setting 'monoclinic'
loop_
_space_group_symop_operation_xyz
x,y,z
-x,1/2+y,-z
-x,-y,-z
x,1/2-y,z
loop_
_atom_site_type_symbol
_atom_site_label
_atom_site_fract_x
_atom_site_fract_y
_atom_site_fract_z
Si Si1 0.142504 0.414465 0.836306
Si Si2 0.306379 0.312791 0.476688
Si Si3 0.680094 0.348512 0.159661
Si Si4 0.197605 0.898263 0.287131
Si Si5 0.980829 0.841095 0.743631
Si Si6 0.684022 0.027848 0.391001
O O1 0.251164 0.366105 0.655135
O O2 0.212623 0.478357 0.774047
O O3 0.952678 0.415627 0.812239
O O4 0.114397 0.392666 0.088706
O O5 0.283485 0.250000 0.594690
O O6 0.506288 0.319274 0.320337
O O7 0.178907 0.312522 0.320148
O O8 0.679329 0.412635 0.263524
O O9 0.868030 0.319806 0.148721
O O10 0.669968 0.361062 0.909211
O O11 0.255962 0.953800 0.395866
O O12 0.106313 0.858457 0.499286
O O13 0.500000 0.000000 0.500000
#
# Coordination Sequence:
#
# PCOD9165843 Si02
#       6
#     4   4   4   4   4   4
#     4  10  21  41  61  87 123 159 201 248 300 367
#     4  11  24  41  63  87 114 156 207 257 306 355
#     4  10  22  40  61  90 125 160 200 251 304 365
#     4   9  21  38  59  88 124 160 196 240 296 363
#     4   9  22  41  62  87 120 158 199 244 300 361
#     4  11  21  34  59  95 125 160 198 243 307 366
#
# _framework density 21.568498999999999
#
# number of rings (size 3 to 8) (size 9 to 14) (size 15 to 20)
#    0.000    2.000    1.667    0.500    2.333   10.667 
#    0.000    6.667    0.000    0.000    0.000    0.000 
#    0.000    0.000    0.000    0.000    0.000    0.000 
#
# Total GULP energy -133641.444920 kJ/mol
# GULP energy per Si atom -5568.393538 kJ/mol
# Density = 2.151941 g / cm^3
# Si number density = 21.568499 Si / 1000 Ang^3
#
#
#
# Elastic Constant Matrix: (Units=GPa)
#
#
# Indices 1 2 3 4 5 6 
#
# 1 64.9324 17.3449 6.4824 0.0000 -14.9132 0.0000
# 2 17.3449 93.9671 13.7432 0.0000 10.6117 0.0000
# 3 6.4824 13.7432 87.6082 0.0000 1.4424 0.0000
# 4 0.0000 0.0000 0.0000 -10.3238 0.0000 78.0799
# 5 -14.9132 10.6117 1.4424 0.0000 22.4313 0.0000
# 6 0.0000 0.0000 0.0000 78.0799 0.0000 -284.9639
#
#
#
# Elastic Compliance Matrix: (Units=1/GPa)
#
#
# Indices 1 2 3 4 5 6 
#
# 1 0.020768 -0.005560 -0.000936 0.000000 0.016498 0.000000
# 2 -0.005560 0.012983 -0.001465 0.000000 -0.009744 0.000000
# 3 -0.000936 -0.001465 0.011725 0.000000 -0.000683 0.000000
# 4 0.000000 0.000000 0.000000 0.090334 0.000000 0.024751
# 5 0.016498 -0.009744 -0.000683 0.000000 0.060203 0.000000
# 6 0.000000 0.000000 0.000000 0.024751 0.000000 0.003273
#
#
# Mechanical properties :
#
#
# Convention : Reuss Voigt Hill
#
# Bulk Modulus (GPa) = 33.83573 35.73875 34.78724
# Shear Modulus (GPa) = 22.21647 -40.64212 -9.21283
#
# Velocity S-wave (km/s) = 3.21291 -4.34559 -2.06899
# Velocity P-wave (km/s) = 5.43004 2.92798 3.23360
#
# Compressibility (1/GPa) = 0.02955456
#
# Stress axis : x y z
#
# Youngs Moduli (GPa) = 48.15012 77.02445 85.28948
#
# Poissons Ratio (x) = 0.42823 0.07985
# Poissons Ratio (y) = 0.26770 0.12493
# Poissons Ratio (z) = 0.04508 0.11283
#
# Static dielectric constant tensor:
#      x y z
#    x 1.861040 0.000000 0.000200 
#    y 0.000000 1.887250 0.000000 
#    z 0.000200 0.000000 1.946110 
# 
# From -- ./inp_files/2679.got.cif
#   From: 2010.05.17/outbox.cif.g08.bks.cpg/sg11_2_cif.got.tgz:2679.got - 2010.06.03 12:22:45.
