data_PCOD9165617
_publ_section_title
;
Structure prediction by ZEFSAII (Michael W. Deem and Ramdas Pophale) SiO2 
 PCOD9165617
Probable space group: P 21/M
;
_chemical_formula_sum "Si O2"
_cell_formula_units_Z 32
_cell_length_a 11.874288
_cell_length_b 16.638261
_cell_length_c 15.091743
_cell_angle_alpha 90.000000
_cell_angle_beta 147.825376
_cell_angle_gamma 90.000000
_cell_volume 1587.726545
_symmetry_space_group_name_H-M "P 21/M"
_symmetry_group_IT_number 11
_symmetry_cell_setting 'monoclinic'
loop_
_space_group_symop_operation_xyz
x,y,z
-x,1/2+y,-z
-x,-y,-z
x,1/2-y,z
loop_
_atom_site_type_symbol
_atom_site_label
_atom_site_fract_x
_atom_site_fract_y
_atom_site_fract_z
Si Si1 0.352694 0.343573 0.927890
Si Si2 0.233282 0.161910 0.161328
Si Si3 0.298590 0.994168 0.304504
Si Si4 0.822790 0.004092 0.457448
Si Si5 0.409794 0.840947 0.741627
Si Si6 0.063747 0.486068 0.793816
Si Si7 0.730310 0.336734 0.826402
Si Si8 0.553429 0.403452 0.882033
O O1 0.299071 0.250000 0.903595
O O2 0.160838 0.402142 0.824617
O O3 0.435719 0.360677 0.884861
O O4 0.540929 0.362065 0.123700
O O5 0.294551 0.250000 0.242233
O O6 0.364399 0.156712 0.157753
O O7 0.279911 0.079989 0.244007
O O8 0.982739 0.164035 0.983507
O O9 0.336542 0.918381 0.266203
O O10 0.089061 0.979211 0.223477
O O11 0.500000 0.000000 0.500000
O O12 0.739754 0.095523 0.405032
O O13 0.925154 0.979939 0.619395
O O14 0.623158 0.952989 0.290273
O O15 0.000000 0.000000 0.500000
O O16 0.327759 0.750000 0.681905
O O17 0.264861 0.539818 0.955428
O O18 0.648268 0.250000 0.738364
O O19 0.666286 0.346082 0.886302
#
# Coordination Sequence:
#
# PCOD9165617 Si02
#       8
#     4   4   4   4   4   4   4   4
#     4  11  23  40  65  97 128 169 221 274 333 393
#     4  10  21  41  67  96 130 171 219 272 330 399
#     4  12  25  42  66 101 139 172 219 278 333 401
#     4  12  24  42  65  96 129 170 219 267 334 399
#     4  10  21  39  64  94 130 168 214 273 332 392
#     4  12  24  41  70  98 127 173 223 270 329 400
#     4  11  24  42  69  98 132 179 225 270 335 403
#     4  12  23  45  68  91 134 173 220 276 330 397
#
# _framework density 20.154603999999999
#
# number of rings (size 3 to 8) (size 9 to 14) (size 15 to 20)
#    0.000    0.750    3.750    4.875    0.000    2.500 
#    0.000    0.000    0.000    3.000    0.000    0.000 
#    0.000    0.000    0.000    0.000    0.000    0.000 
#
# Total GULP energy -178798.589825 kJ/mol
# GULP energy per Si atom -5587.455932 kJ/mol
# Density = 2.010873 g / cm^3
# Si number density = 20.154604 Si / 1000 Ang^3
#
#
#
# Elastic Constant Matrix: (Units=GPa)
#
#
# Indices 1 2 3 4 5 6 
#
# 1 107.9299 39.6693 11.5877 0.0000 -3.4532 0.0000
# 2 39.6693 129.5998 45.7871 0.0000 -8.4878 0.0000
# 3 11.5877 45.7871 96.4834 0.0000 -6.8729 0.0000
# 4 0.0000 0.0000 0.0000 -18.3698 0.0000 5.9812
# 5 -3.4532 -8.4878 -6.8729 0.0000 29.6036 0.0000
# 6 0.0000 0.0000 0.0000 5.9812 0.0000 15.8112
#
#
#
# Elastic Compliance Matrix: (Units=1/GPa)
#
#
# Indices 1 2 3 4 5 6 
#
# 1 0.010451 -0.003294 0.000333 0.000000 0.000352 0.000000
# 2 -0.003294 0.010390 -0.004423 0.000000 0.001568 0.000000
# 3 0.000333 -0.004423 0.012543 0.000000 0.001683 0.000000
# 4 0.000000 0.000000 0.000000 -0.048468 0.000000 0.018335
# 5 0.000352 0.001568 0.001683 0.000000 0.034661 0.000000
# 6 0.000000 0.000000 0.000000 0.018335 0.000000 0.056310
#
#
# Mechanical properties :
#
#
# Convention : Reuss Voigt Hill
#
# Bulk Modulus (GPa) = 53.71587 58.67793 56.19690
# Shear Modulus (GPa) = 51.61999 21.20694 36.41346
#
# Velocity S-wave (km/s) = 5.06632 3.24730 4.25515
# Velocity P-wave (km/s) = 7.80598 6.57549 7.21701
#
# Compressibility (1/GPa) = 0.01861647
#
# Stress axis : x y z
#
# Youngs Moduli (GPa) = 95.68131 96.25011 79.72285
#
# Poissons Ratio (x) = 0.31701 -0.02654
# Poissons Ratio (y) = 0.31514 0.35263
# Poissons Ratio (z) = -0.03185 0.42574
#
# Static dielectric constant tensor:
#      x y z
#    x 1.690700 0.000000 -0.005510 
#    y 0.000000 1.768810 0.000000 
#    z -0.005510 0.000000 1.700050 
# 
# From -- ./inp_files/50741.got.cif
#   From: 2010.05.17/outbox.cif.g08.bks.cpg/sg11_26_cif.got.tgz:50741.got - 2010.06.03 12:22:45.
