data_PCOD9165846
_publ_section_title
;
Structure prediction by ZEFSAII (Michael W. Deem and Ramdas Pophale) SiO2 
 PCOD9165846
Probable space group: P 21/M
;
_chemical_formula_sum "Si O2"
_cell_formula_units_Z 22
_cell_length_a 8.643045
_cell_length_b 15.641755
_cell_length_c 8.642498
_cell_angle_alpha 90.000000
_cell_angle_beta 77.079069
_cell_angle_gamma 90.000000
_cell_volume 1138.815594
_symmetry_space_group_name_H-M "P 21/M"
_symmetry_group_IT_number 11
_symmetry_cell_setting 'monoclinic'
loop_
_space_group_symop_operation_xyz
x,y,z
-x,1/2+y,-z
-x,-y,-z
x,1/2-y,z
loop_
_atom_site_type_symbol
_atom_site_label
_atom_site_fract_x
_atom_site_fract_y
_atom_site_fract_z
Si Si1 0.477458 0.922392 0.810508
Si Si2 0.413756 0.750000 0.645129
Si Si3 0.165517 0.750000 0.446311
Si Si4 0.707135 0.581269 0.226461
Si Si5 0.995688 0.578014 0.380021
Si Si6 0.517378 0.750000 0.285666
Si Si7 0.757105 0.498697 0.908665
O O1 0.443646 0.834079 0.736850
O O2 0.657940 0.940426 0.815937
O O3 0.412456 0.001597 0.722586
O O4 0.372463 0.932731 0.990578
O O5 0.240260 0.750000 0.602454
O O6 0.528162 0.750000 0.470564
O O7 0.066392 0.664696 0.435991
O O8 0.326987 0.750000 0.304696
O O9 0.605653 0.665105 0.211725
O O10 0.822690 0.592383 0.344930
O O11 0.803352 0.552976 0.050320
O O12 0.107456 0.548551 0.213291
O O13 0.000000 0.500000 0.500000
#
# Coordination Sequence:
#
# PCOD9165846 Si02
#       7
#     4   2   2   4   4   2   4
#     4   9  20  39  64  91 125 162 221 255 312 371
#     4  10  22  36  64  95 124 161 212 268 311 370
#     4  10  25  40  58  98 124 169 216 261 318 373
#     4  10  21  41  61  92 129 164 210 258 325 373
#     4  12  24  40  67  89 136 168 209 262 321 390
#     4  10  23  38  66  89 128 162 216 267 309 367
#     4   9  22  41  63  94 122 169 211 258 325 369
#
# _framework density 19.318314999999998
#
# number of rings (size 3 to 8) (size 9 to 14) (size 15 to 20)
#    1.636    0.364    0.000    3.273    2.545    2.182 
#    0.000    0.909    0.000    0.000    0.000    0.000 
#    0.000    0.000    0.000    0.000    0.000    0.000 
#
# Total GULP energy -122594.434420 kJ/mol
# GULP energy per Si atom -5572.474292 kJ/mol
# Density = 1.927435 g / cm^3
# Si number density = 19.318315 Si / 1000 Ang^3
#
#
#
# Elastic Constant Matrix: (Units=GPa)
#
#
# Indices 1 2 3 4 5 6 
#
# 1 69.5847 32.6561 3.3736 0.0000 33.7536 0.0000
# 2 32.6561 158.5386 28.0169 0.0000 18.5488 0.0000
# 3 3.3736 28.0169 41.8935 0.0000 10.8718 0.0000
# 4 0.0000 0.0000 0.0000 25.5671 0.0000 18.0443
# 5 33.7536 18.5488 10.8718 0.0000 34.9379 0.0000
# 6 0.0000 0.0000 0.0000 18.0443 0.0000 24.4266
#
#
#
# Elastic Compliance Matrix: (Units=1/GPa)
#
#
# Indices 1 2 3 4 5 6 
#
# 1 0.030268 -0.004201 0.008030 0.000000 -0.029510 0.000000
# 2 -0.004201 0.007945 -0.005367 0.000000 0.001511 0.000000
# 3 0.008030 -0.005367 0.030554 0.000000 -0.014416 0.000000
# 4 0.000000 0.000000 0.000000 0.081716 0.000000 -0.060365
# 5 -0.029510 0.001511 -0.014416 0.000000 0.060816 0.000000
# 6 0.000000 0.000000 0.000000 -0.060365 0.000000 0.085531
#
#
# Mechanical properties :
#
#
# Convention : Reuss Voigt Hill
#
# Bulk Modulus (GPa) = 15.22283 44.23443 29.72863
# Shear Modulus (GPa) = 15.53754 30.71768 23.12761
#
# Velocity S-wave (km/s) = 2.83908 3.99191 3.46379
# Velocity P-wave (km/s) = 4.31790 6.64789 5.60530
#
# Compressibility (1/GPa) = 0.06569083
#
# Stress axis : x y z
#
# Youngs Moduli (GPa) = 33.03850 125.87138 32.72925
#
# Poissons Ratio (x) = 0.52879 -0.26283
# Poissons Ratio (y) = 0.13880 0.17565
# Poissons Ratio (z) = -0.26531 0.67553
#
# Static dielectric constant tensor:
#      x y z
#    x 1.696660 0.000000 -0.001700 
#    y 0.000000 1.632300 0.000000 
#    z -0.001700 0.000000 1.697420 
# 
# From -- ./inp_files/12294.got.cif
#   From: 2010.05.17/outbox.cif.g08.bks.cpg/sg11_7_cif.got.tgz:12294.got - 2010.06.03 12:22:45.
