data_PCOD9165345
_publ_section_title
;
Structure prediction by ZEFSAII (Michael W. Deem and Ramdas Pophale) SiO2 
 PCOD9165345
Probable space group: P 21/M
;
_chemical_formula_sum "Si O2"
_cell_formula_units_Z 24
_cell_length_a 23.165606
_cell_length_b 8.769705
_cell_length_c 12.344027
_cell_angle_alpha 90.000000
_cell_angle_beta 152.154150
_cell_angle_gamma 90.000000
_cell_volume 1171.359323
_symmetry_space_group_name_H-M "P 21/M"
_symmetry_group_IT_number 11
_symmetry_cell_setting 'monoclinic'
loop_
_space_group_symop_operation_xyz
x,y,z
-x,1/2+y,-z
-x,-y,-z
x,1/2-y,z
loop_
_atom_site_type_symbol
_atom_site_label
_atom_site_fract_x
_atom_site_fract_y
_atom_site_fract_z
Si Si1 0.013804 0.071643 0.641745
Si Si2 0.389045 0.931014 0.047286
Si Si3 0.136906 0.568891 0.235037
Si Si4 0.345074 0.433610 0.435708
Si Si5 0.197963 0.430887 0.564145
Si Si6 0.305003 0.071599 0.132017
O O1 0.977505 0.250000 0.579834
O O2 0.158008 0.063044 0.909872
O O3 0.000000 0.000000 0.500000
O O4 0.925364 0.983350 0.576990
O O5 0.376168 0.750000 0.009821
O O6 0.534040 0.970369 0.293274
O O7 0.336324 0.975863 0.077916
O O8 0.311952 0.017840 0.828271
O O9 0.128488 0.750000 0.219556
O O10 0.224251 0.510177 0.283965
O O11 0.196781 0.511799 0.446454
O O12 0.000000 0.500000 0.000000
O O13 0.328917 0.250000 0.408813
O O14 0.367324 0.479047 0.347611
O O15 0.198102 0.250000 0.550102
O O16 0.334972 0.250000 0.160265
#
# Coordination Sequence:
#
# PCOD9165345 Si02
#       6
#     4   4   4   4   4   4
#     4  11  21  35  59  92 128 164 206 260 319 379
#     4  11  23  39  63  94 130 169 213 266 320 378
#     4  12  26  46  71  97 126 163 209 262 319 382
#     4  10  23  43  65  93 128 169 216 263 316 379
#     4  12  25  42  65  93 129 171 215 265 318 379
#     4  10  21  38  62  91 128 169 209 261 319 379
#
# _framework density 20.489015999999999
#
# number of rings (size 3 to 8) (size 9 to 14) (size 15 to 20)
#    0.000    1.000    1.667    5.500    0.000    4.667 
#    0.000    0.000    0.000    0.000    0.000    0.000 
#    0.000    0.000    0.000    0.000    0.000    0.000 
#
# Total GULP energy -134324.186432 kJ/mol
# GULP energy per Si atom -5596.841101 kJ/mol
# Density = 2.044238 g / cm^3
# Si number density = 20.489016 Si / 1000 Ang^3
#
#
#
# Elastic Constant Matrix: (Units=GPa)
#
#
# Indices 1 2 3 4 5 6 
#
# 1 76.2365 30.0199 29.2730 0.0000 -7.8244 0.0000
# 2 30.0199 82.7276 35.7190 0.0000 6.5507 0.0000
# 3 29.2730 35.7190 92.6094 0.0000 -0.9846 0.0000
# 4 0.0000 0.0000 0.0000 20.6548 0.0000 -4.1832
# 5 -7.8244 6.5507 -0.9846 0.0000 34.5480 0.0000
# 6 0.0000 0.0000 0.0000 -4.1832 0.0000 36.6323
#
#
#
# Elastic Compliance Matrix: (Units=1/GPa)
#
#
# Indices 1 2 3 4 5 6 
#
# 1 0.016867 -0.005052 -0.003333 0.000000 0.004683 0.000000
# 2 -0.005052 0.016315 -0.004742 0.000000 -0.004373 0.000000
# 3 -0.003333 -0.004742 0.013686 0.000000 0.000534 0.000000
# 4 0.000000 0.000000 0.000000 0.049561 0.000000 0.005660
# 5 0.004683 -0.004373 0.000534 0.000000 0.030850 0.000000
# 6 0.000000 0.000000 0.000000 0.005660 0.000000 0.027945
#
#
# Mechanical properties :
#
#
# Convention : Reuss Voigt Hill
#
# Bulk Modulus (GPa) = 48.51248 49.06637 48.78943
# Shear Modulus (GPa) = 26.54626 28.80445 27.67535
#
# Velocity S-wave (km/s) = 3.60340 3.75353 3.67923
# Velocity P-wave (km/s) = 6.40635 6.54102 6.47404
#
# Compressibility (1/GPa) = 0.02061325
#
# Stress axis : x y z
#
# Youngs Moduli (GPa) = 59.28733 61.29324 73.06589
#
# Poissons Ratio (x) = 0.30968 0.24353
# Poissons Ratio (y) = 0.29954 0.34649
# Poissons Ratio (z) = 0.19761 0.29066
#
# Static dielectric constant tensor:
#      x y z
#    x 1.717930 0.000000 0.002780 
#    y 0.000000 1.688060 0.000000 
#    z 0.002780 0.000000 1.745430 
# 
# From -- ./inp_files/44022.got.cif
#   From: 2010.05.17/outbox.cif.g08.bks.cpg/sg11_23_cif.got.tgz:44022.got - 2010.06.03 12:22:45.
