data_PCOD9165670
_publ_section_title
;
Structure prediction by ZEFSAII (Michael W. Deem and Ramdas Pophale) SiO2 
 PCOD9165670
Probable space group: P 21/M
;
_chemical_formula_sum "Si O2"
_cell_formula_units_Z 16
_cell_length_a 7.871522
_cell_length_b 5.397271
_cell_length_c 19.262558
_cell_angle_alpha 90.000000
_cell_angle_beta 55.293972
_cell_angle_gamma 90.000000
_cell_volume 672.764659
_symmetry_space_group_name_H-M "P 21/M"
_symmetry_group_IT_number 11
_symmetry_cell_setting 'monoclinic'
loop_
_space_group_symop_operation_xyz
x,y,z
-x,1/2+y,-z
-x,-y,-z
x,1/2-y,z
loop_
_atom_site_type_symbol
_atom_site_label
_atom_site_fract_x
_atom_site_fract_y
_atom_site_fract_z
Si Si1 0.972014 0.250000 0.416576
Si Si2 0.732417 0.250000 0.269377
Si Si3 0.494668 0.250000 0.791866
Si Si4 0.631183 0.250000 0.985701
Si Si5 0.538104 0.250000 0.159786
Si Si6 0.788611 0.250000 0.607825
Si Si7 0.082093 0.250000 0.815197
Si Si8 0.427001 0.750000 0.555558
O O1 0.815566 0.250000 0.519253
O O2 0.821222 0.250000 0.387243
O O3 0.099369 0.500804 0.392636
O O4 0.644456 0.250000 0.210695
O O5 0.863124 0.502831 0.240402
O O6 0.540586 0.250000 0.369020
O O7 0.579137 0.490855 0.810624
O O8 0.567859 0.250000 0.695024
O O9 0.245345 0.250000 0.843298
O O10 0.671507 0.250000 0.059451
O O11 0.500000 0.500000 0.000000
O O12 0.849119 0.250000 0.896016
O O13 0.500000 0.500000 0.500000
#
# Coordination Sequence:
#
# PCOD9165670 Si02
#       8
#     2   2   2   2   2   2   2   2
#     4  10  23  40  61  94 131 184 226 277 342 390
#     4  10  23  43  68 102 131 176 235 291 326 383
#     4  10  21  39  70  98 128 172 227 285 319 392
#     4  12  26  48  70 103 145 176 210 270 356 428
#     4  10  23  41  68 103 125 175 224 269 342 403
#     4  10  21  41  63  91 133 176 229 280 334 401
#     4  10  23  44  70  99 131 174 226 283 333 410
#     4  12  26  42  68  98 142 187 233 287 336 387
#
# _framework density 23.782463
#
# number of rings (size 3 to 8) (size 9 to 14) (size 15 to 20)
#    0.000    1.500    0.000    3.750    7.000    4.000 
#   13.500    0.000    0.000    0.000    0.000    0.000 
#    0.000    0.000    0.000    0.000    0.000    0.000 
#
# Total GULP energy -89385.659650 kJ/mol
# GULP energy per Si atom -5586.603728 kJ/mol
# Density = 2.372833 g / cm^3
# Si number density = 23.782463 Si / 1000 Ang^3
#
#
#
# Elastic Constant Matrix: (Units=GPa)
#
#
# Indices 1 2 3 4 5 6 
#
# 1 66.8702 28.7243 27.7337 0.0000 -6.7553 0.0000
# 2 28.7243 263.9452 74.1620 0.0000 -5.9513 0.0000
# 3 27.7337 74.1620 176.6471 0.0000 -6.3618 0.0000
# 4 0.0000 0.0000 0.0000 42.3155 0.0000 -0.9098
# 5 -6.7553 -5.9513 -6.3618 0.0000 29.2246 0.0000
# 6 0.0000 0.0000 0.0000 -0.9098 0.0000 16.1872
#
#
#
# Elastic Compliance Matrix: (Units=1/GPa)
#
#
# Indices 1 2 3 4 5 6 
#
# 1 0.016608 -0.001174 -0.002001 0.000000 0.003164 0.000000
# 2 -0.001174 0.004385 -0.001647 0.000000 0.000263 0.000000
# 3 -0.002001 -0.001647 0.006690 0.000000 0.000659 0.000000
# 4 0.000000 0.000000 0.000000 0.023661 0.000000 0.001330
# 5 0.003164 0.000263 0.000659 0.000000 0.035146 0.000000
# 6 0.000000 0.000000 0.000000 0.001330 0.000000 0.061852
#
#
# Mechanical properties :
#
#
# Convention : Reuss Voigt Hill
#
# Bulk Modulus (GPa) = 55.43252 85.41137 70.42194
# Shear Modulus (GPa) = 30.48793 42.66830 36.57812
#
# Velocity S-wave (km/s) = 3.58432 4.24029 3.92603
# Velocity P-wave (km/s) = 6.36306 7.74370 7.08708
#
# Compressibility (1/GPa) = 0.01803995
#
# Stress axis : x y z
#
# Youngs Moduli (GPa) = 60.21181 228.04030 149.46801
#
# Poissons Ratio (x) = 0.26770 0.29903
# Poissons Ratio (y) = 0.07068 0.24621
# Poissons Ratio (z) = 0.12046 0.37564
#
# Static dielectric constant tensor:
#      x y z
#    x 1.962070 0.000000 0.097560 
#    y 0.000000 2.010440 0.000000 
#    z 0.097560 0.000000 1.928750 
# 
# From -- ./inp_files/46366.got.cif
#   From: 2010.05.17/outbox.cif.g08.bks.cpg/sg11_24_cif.got.tgz:46366.got - 2010.06.03 12:22:45.
