data_PCOD9165070
_publ_section_title
;
Structure prediction by ZEFSAII (Michael W. Deem and Ramdas Pophale) SiO2 
 PCOD9165070
Probable space group: P 21/M
;
_chemical_formula_sum "Si O2"
_cell_formula_units_Z 28
_cell_length_a 8.786415
_cell_length_b 32.502715
_cell_length_c 4.953813
_cell_angle_alpha 90.000000
_cell_angle_beta 60.793920
_cell_angle_gamma 90.000000
_cell_volume 1234.868403
_symmetry_space_group_name_H-M "P 21/M"
_symmetry_group_IT_number 11
_symmetry_cell_setting 'monoclinic'
loop_
_space_group_symop_operation_xyz
x,y,z
-x,1/2+y,-z
-x,-y,-z
x,1/2-y,z
loop_
_atom_site_type_symbol
_atom_site_label
_atom_site_fract_x
_atom_site_fract_y
_atom_site_fract_z
Si Si1 0.796236 0.991530 0.101808
Si Si2 0.054251 0.622464 0.120854
Si Si3 0.517225 0.058576 0.385453
Si Si4 0.122558 0.090481 0.219640
Si Si5 0.592280 0.388760 0.856108
Si Si6 0.851476 0.703068 0.391097
Si Si7 0.336608 0.330257 0.922298
O O1 0.653736 0.969716 0.423702
O O2 0.820059 0.956139 0.859790
O O3 0.682589 0.031855 0.130211
O O4 0.000000 0.000000 0.000000
O O5 0.230554 0.616491 0.131330
O O6 0.041100 0.601112 0.839956
O O7 0.997297 0.670272 0.170663
O O8 0.918420 0.600670 0.438964
O O9 0.577826 0.080181 0.613674
O O10 0.473761 0.092433 0.198698
O O11 0.254420 0.123755 0.977436
O O12 0.531804 0.343128 0.821767
O O13 0.909240 0.750000 0.330316
O O14 0.693056 0.694540 0.322332
O O15 0.775272 0.691730 0.749198
#
# Coordination Sequence:
#
# PCOD9165070 Si02
#       7
#     4   4   4   4   4   4   4
#     4  11  23  42  62  90 130 174 219 271 330 366
#     4  10  22  37  66  90 117 162 205 256 313 373
#     4  11  27  40  61  93 129 170 216 280 320 361
#     4  10  21  39  59  88 117 164 216 253 304 379
#     4  12  22  44  61  91 126 163 216 261 315 379
#     4  10  21  40  62  94 123 154 200 249 307 386
#     4  10  21  37  65  86 120 165 198 250 309 372
#
# _framework density 22.674478000000001
#
# number of rings (size 3 to 8) (size 9 to 14) (size 15 to 20)
#    0.000    1.429    1.429    3.857    4.000    3.429 
#    0.000    6.429    0.000    0.000    0.000    0.000 
#    0.000    0.000    0.000    0.000    0.000    0.000 
#
# Total GULP energy -156294.306475 kJ/mol
# GULP energy per Si atom -5581.939517 kJ/mol
# Density = 2.262287 g / cm^3
# Si number density = 22.674478 Si / 1000 Ang^3
#
#
#
# Elastic Constant Matrix: (Units=GPa)
#
#
# Indices 1 2 3 4 5 6 
#
# 1 108.8745 41.4724 34.1634 0.0000 -0.9259 0.0000
# 2 41.4724 107.9741 24.2665 0.0000 -0.7026 0.0000
# 3 34.1634 24.2665 49.7333 0.0000 10.6334 0.0000
# 4 0.0000 0.0000 0.0000 21.9173 0.0000 3.0620
# 5 -0.9259 -0.7026 10.6334 0.0000 49.1797 0.0000
# 6 0.0000 0.0000 0.0000 3.0620 0.0000 15.6471
#
#
#
# Elastic Compliance Matrix: (Units=1/GPa)
#
#
# Indices 1 2 3 4 5 6 
#
# 1 0.012814 -0.003193 -0.007639 0.000000 0.001847 0.000000
# 2 -0.003193 0.011278 -0.003493 0.000000 0.000856 0.000000
# 3 -0.007639 -0.003493 0.028414 0.000000 -0.006337 0.000000
# 4 0.000000 0.000000 0.000000 0.046909 0.000000 -0.009180
# 5 0.001847 0.000856 -0.006337 0.000000 0.021751 0.000000
# 6 0.000000 0.000000 0.000000 -0.009180 0.000000 0.065706
#
#
# Mechanical properties :
#
#
# Convention : Reuss Voigt Hill
#
# Bulk Modulus (GPa) = 41.91760 51.82072 46.86916
# Shear Modulus (GPa) = 22.37391 28.46078 25.41735
#
# Velocity S-wave (km/s) = 3.14466 3.54671 3.35172
# Velocity P-wave (km/s) = 5.63134 6.29889 5.97445
#
# Compressibility (1/GPa) = 0.02385633
#
# Stress axis : x y z
#
# Youngs Moduli (GPa) = 78.03986 88.66488 35.19359
#
# Poissons Ratio (x) = 0.28310 0.26886
# Poissons Ratio (y) = 0.24917 0.12293
# Poissons Ratio (z) = 0.59618 0.30970
#
# Static dielectric constant tensor:
#      x y z
#    x 2.080700 0.000000 -0.076060 
#    y 0.000000 1.848160 0.000000 
#    z -0.076060 0.000000 1.863300 
# 
# From -- ./inp_files/3332.got.cif
#   From: 2010.05.17/outbox.cif.g08.bks.cpg/sg11_2_cif.got.tgz:3332.got - 2010.06.03 12:22:45.
