data_PCOD9165335
_publ_section_title
;
Structure prediction by ZEFSAII (Michael W. Deem and Ramdas Pophale) SiO2 
 PCOD9165335
Probable space group: P 21/M
;
_chemical_formula_sum "Si O2"
_cell_formula_units_Z 24
_cell_length_a 15.079395
_cell_length_b 8.690339
_cell_length_c 9.749599
_cell_angle_alpha 90.000000
_cell_angle_beta 81.200343
_cell_angle_gamma 90.000000
_cell_volume 1262.598050
_symmetry_space_group_name_H-M "P 21/M"
_symmetry_group_IT_number 11
_symmetry_cell_setting 'monoclinic'
loop_
_space_group_symop_operation_xyz
x,y,z
-x,1/2+y,-z
-x,-y,-z
x,1/2-y,z
loop_
_atom_site_type_symbol
_atom_site_label
_atom_site_fract_x
_atom_site_fract_y
_atom_site_fract_z
Si Si1 0.257644 0.064646 0.350049
Si Si2 0.561369 0.067336 0.104274
Si Si3 0.920461 0.565109 0.111764
Si Si4 0.083721 0.436708 0.567643
Si Si5 0.748606 0.564759 0.968000
Si Si6 0.546362 0.432371 0.622553
O O1 0.263766 0.250000 0.355517
O O2 0.176655 0.016459 0.470168
O O3 0.354524 0.998568 0.369023
O O4 0.236153 0.024401 0.196047
O O5 0.550751 0.250000 0.119842
O O6 0.662025 0.022550 0.043425
O O7 0.523046 0.982505 0.244696
O O8 0.500000 0.000000 0.000000
O O9 0.927945 0.750000 0.113286
O O10 0.920067 0.513166 0.271319
O O11 0.830296 0.527173 0.049499
O O12 0.000000 0.500000 0.000000
O O13 0.080428 0.250000 0.566048
O O14 0.000000 0.500000 0.500000
O O15 0.733714 0.750000 0.976432
O O16 0.500000 0.500000 0.500000
O O17 0.553944 0.250000 0.612307
#
# Coordination Sequence:
#
# PCOD9165335 Si02
#       6
#     4   4   4   4   4   4
#     4  10  21  39  62  89 124 165 210 258 314 373
#     4  12  24  41  64  94 128 168 214 259 312 371
#     4  10  22  40  63  93 125 162 206 256 312 370
#     4  10  22  40  63  92 125 164 206 255 312 372
#     4  10  21  38  62  90 124 165 210 260 313 369
#     4  12  26  43  64  92 128 168 212 263 315 374
#
# _framework density 19.008426
#
# number of rings (size 3 to 8) (size 9 to 14) (size 15 to 20)
#    0.000    1.333    1.667    4.000    2.333    3.333 
#    0.000    0.000    0.000    0.000    0.000    0.000 
#    0.000    0.000    0.000    0.000    0.000    0.000 
#
# Total GULP energy -134076.867080 kJ/mol
# GULP energy per Si atom -5586.536128 kJ/mol
# Density = 1.896516 g / cm^3
# Si number density = 19.008426 Si / 1000 Ang^3
#
#
#
# Elastic Constant Matrix: (Units=GPa)
#
#
# Indices 1 2 3 4 5 6 
#
# 1 134.1142 48.5538 89.4272 0.0000 2.1242 0.0000
# 2 48.5538 39.2684 39.9416 0.0000 3.2489 0.0000
# 3 89.4272 39.9416 203.2337 0.0000 7.1704 0.0000
# 4 0.0000 0.0000 0.0000 27.0349 0.0000 -2.4676
# 5 2.1242 3.2489 7.1704 0.0000 40.5178 0.0000
# 6 0.0000 0.0000 0.0000 -2.4676 0.0000 39.5797
#
#
#
# Elastic Compliance Matrix: (Units=1/GPa)
#
#
# Indices 1 2 3 4 5 6 
#
# 1 0.015621 -0.015467 -0.003873 0.000000 0.001107 0.000000
# 2 -0.015467 0.047228 -0.002386 0.000000 -0.002554 0.000000
# 3 -0.003873 -0.002386 0.007124 0.000000 -0.000866 0.000000
# 4 0.000000 0.000000 0.000000 0.037201 0.000000 0.002319
# 5 0.001107 -0.002554 -0.000866 0.000000 0.024981 0.000000
# 6 0.000000 0.000000 0.000000 0.002319 0.000000 0.025410
#
#
# Mechanical properties :
#
#
# Convention : Reuss Voigt Hill
#
# Bulk Modulus (GPa) = 37.70494 81.38463 59.54478
# Shear Modulus (GPa) = 23.82592 34.67271 29.24932
#
# Velocity S-wave (km/s) = 3.54424 4.27555 3.92695
# Velocity P-wave (km/s) = 6.05209 8.20254 7.20796
#
# Compressibility (1/GPa) = 0.02652172
#
# Stress axis : x y z
#
# Youngs Moduli (GPa) = 64.01791 21.17395 140.37003
#
# Poissons Ratio (x) = 0.32749 0.54362
# Poissons Ratio (y) = 0.99014 0.33491
# Poissons Ratio (z) = 0.24793 0.05052
#
# Static dielectric constant tensor:
#      x y z
#    x 1.642390 0.000000 -0.013620 
#    y 0.000000 1.641830 0.000000 
#    z -0.013620 0.000000 1.603370 
# 
# From -- ./inp_files/20320.got.cif
#   From: 2010.05.17/outbox.cif.g08.bks.cpg/sg11_11_cif.got.tgz:20320.got - 2010.06.03 12:22:45.
