data_PCOD9165952
_publ_section_title
;
Structure prediction by ZEFSAII (Michael W. Deem and Ramdas Pophale) SiO2 
 PCOD9165952
Probable space group: P 21/M
;
_chemical_formula_sum "Si O2"
_cell_formula_units_Z 24
_cell_length_a 20.754039
_cell_length_b 10.547987
_cell_length_c 7.848903
_cell_angle_alpha 90.000000
_cell_angle_beta 35.381555
_cell_angle_gamma 90.000000
_cell_volume 994.887077
_symmetry_space_group_name_H-M "P 21/M"
_symmetry_group_IT_number 11
_symmetry_cell_setting 'monoclinic'
loop_
_space_group_symop_operation_xyz
x,y,z
-x,1/2+y,-z
-x,-y,-z
x,1/2-y,z
loop_
_atom_site_type_symbol
_atom_site_label
_atom_site_fract_x
_atom_site_fract_y
_atom_site_fract_z
Si Si1 0.933296 0.250000 0.315615
Si Si2 0.728488 0.750000 0.174997
Si Si3 0.553826 0.397888 0.130135
Si Si4 0.852468 0.111508 0.035693
Si Si5 0.636997 0.023474 0.321082
Si Si6 0.178663 0.250000 0.632902
Si Si7 0.212188 0.517419 0.490100
Si Si8 0.027530 0.250000 0.486676
O O1 0.862303 0.122412 0.440134
O O2 0.967900 0.250000 0.435070
O O3 0.046255 0.250000 0.959928
O O4 0.666750 0.875146 0.243641
O O5 0.753838 0.750000 0.327957
O O6 0.846007 0.750000 0.827889
O O7 0.522786 0.250000 0.163387
O O8 0.458285 0.506843 0.328188
O O9 0.592325 0.413092 0.245687
O O10 0.661883 0.433790 0.788189
O O11 0.831080 0.250000 0.164149
O O12 0.838935 0.009838 0.209323
O O13 0.752186 0.089492 0.122889
O O14 0.974548 0.128507 0.696689
O O15 0.207517 0.371267 0.453936
#
# Coordination Sequence:
#
# PCOD9165952 Si02
#       8
#     2   2   4   4   4   2   4   2
#     4  11  21  44  71  91 135 187 217 280 336 403
#     4  11  22  45  65  95 135 175 216 283 332 391
#     4  11  24  44  69  98 131 179 224 277 340 397
#     4  10  21  42  64  99 129 171 223 269 323 410
#     4  11  23  42  70  94 133 172 224 278 326 399
#     4  11  26  44  61 102 140 168 230 279 335 399
#     4  12  23  45  68  98 136 179 220 276 345 397
#     4   9  23  41  67 100 126 174 229 268 329 403
#
# _framework density 24.123341
#
# number of rings (size 3 to 8) (size 9 to 14) (size 15 to 20)
#    0.500    0.667    4.167    2.000    0.000    2.000 
#   12.000    0.000    0.000    0.000    0.000    0.000 
#    0.000    0.000    0.000    0.000    0.000    0.000 
#
# Total GULP energy -134039.575273 kJ/mol
# GULP energy per Si atom -5584.982303 kJ/mol
# Density = 2.406843 g / cm^3
# Si number density = 24.123341 Si / 1000 Ang^3
#
#
#
# Elastic Constant Matrix: (Units=GPa)
#
#
# Indices 1 2 3 4 5 6 
#
# 1 50.2308 4.1017 -2.1049 0.0000 -1.5765 0.0000
# 2 4.1017 121.3512 -4.0647 0.0000 -3.2463 0.0000
# 3 -2.1049 -4.0647 97.3618 0.0000 -8.9208 0.0000
# 4 0.0000 0.0000 0.0000 4.4643 0.0000 -6.4686
# 5 -1.5765 -3.2463 -8.9208 0.0000 24.7239 0.0000
# 6 0.0000 0.0000 0.0000 -6.4686 0.0000 24.5743
#
#
#
# Elastic Compliance Matrix: (Units=1/GPa)
#
#
# Indices 1 2 3 4 5 6 
#
# 1 0.020025 -0.000622 0.000534 0.000000 0.001388 0.000000
# 2 -0.000622 0.008309 0.000444 0.000000 0.001212 0.000000
# 3 0.000534 0.000444 0.010662 0.000000 0.003939 0.000000
# 4 0.000000 0.000000 0.000000 0.362110 0.000000 0.095316
# 5 0.001388 0.001212 0.003939 0.000000 0.042116 0.000000
# 6 0.000000 0.000000 0.000000 0.095316 0.000000 0.065783
#
#
# Mechanical properties :
#
#
# Convention : Reuss Voigt Hill
#
# Bulk Modulus (GPa) = 25.18306 29.42311 27.30309
# Shear Modulus (GPa) = 9.58724 28.81995 19.20359
#
# Velocity S-wave (km/s) = 1.99572 3.46018 2.82451
# Velocity P-wave (km/s) = 3.97146 5.30916 4.68827
#
# Compressibility (1/GPa) = 0.03970923
#
# Stress axis : x y z
#
# Youngs Moduli (GPa) = 49.93806 120.35343 93.79084
#
# Poissons Ratio (x) = 0.07484 -0.05010
# Poissons Ratio (y) = 0.03105 -0.04169
# Poissons Ratio (z) = -0.02667 -0.05349
#
# Static dielectric constant tensor:
#      x y z
#    x 1.955750 0.000000 -0.014780 
#    y 0.000000 1.973450 0.000000 
#    z -0.014780 0.000000 1.968180 
# 
# From -- ./inp_files/27580.got.cif
#   From: 2010.05.17/outbox.cif.g08.bks.cpg/sg11_14_cif.got.tgz:27580.got - 2010.06.03 12:22:45.
