data_PCOD9165037
_publ_section_title
;
Structure prediction by ZEFSAII (Michael W. Deem and Ramdas Pophale) SiO2 
 PCOD9165037
Probable space group: P 21/M
;
_chemical_formula_sum "Si O2"
_cell_formula_units_Z 32
_cell_length_a 11.455723
_cell_length_b 13.791374
_cell_length_c 10.361731
_cell_angle_alpha 90.000000
_cell_angle_beta 85.974900
_cell_angle_gamma 90.000000
_cell_volume 1633.013584
_symmetry_space_group_name_H-M "P 21/M"
_symmetry_group_IT_number 11
_symmetry_cell_setting 'monoclinic'
loop_
_space_group_symop_operation_xyz
x,y,z
-x,1/2+y,-z
-x,-y,-z
x,1/2-y,z
loop_
_atom_site_type_symbol
_atom_site_label
_atom_site_fract_x
_atom_site_fract_y
_atom_site_fract_z
Si Si1 0.897377 0.456100 0.099250
Si Si2 0.276115 0.858703 0.085961
Si Si3 0.920487 0.858606 0.732323
Si Si4 0.306634 0.865693 0.512780
Si Si5 0.095851 0.359738 0.572204
Si Si6 0.135849 0.937873 0.315211
Si Si7 0.283051 0.463422 0.699723
Si Si8 0.523590 0.134024 0.742052
O O1 0.820835 0.530966 0.188219
O O2 0.964908 0.383252 0.191822
O O3 0.795953 0.408111 0.021371
O O4 0.000000 0.500000 0.000000
O O5 0.305086 0.750000 0.043686
O O6 0.183960 0.860381 0.211192
O O7 0.391651 0.900995 0.147913
O O8 0.877877 0.750000 0.771149
O O9 0.936448 0.857655 0.576420
O O10 0.840735 0.955901 0.748050
O O11 0.293728 0.750000 0.535186
O O12 0.197058 0.910758 0.443968
O O13 0.411626 0.881476 0.401282
O O14 0.314851 0.930732 0.639804
O O15 0.086354 0.250000 0.622100
O O16 0.225584 0.399345 0.589406
O O17 0.000574 0.426721 0.648397
O O18 0.398739 0.415823 0.747288
O O19 0.512379 0.250000 0.756837
#
# Coordination Sequence:
#
# PCOD9165037 Si02
#       8
#     4   4   4   4   4   4   4   4
#     4  12  24  39  58  87 125 164 209 251 306 360
#     4  10  21  39  63  82 113 162 210 256 296 350
#     4  11  22  36  56  85 122 156 194 246 306 366
#     4  10  21  37  62  93 123 155 196 248 306 374
#     4  11  21  34  56  88 121 153 189 246 315 374
#     4  11  18  37  58  84 118 155 202 241 304 373
#     4  12  22  37  62  89 124 161 199 253 304 364
#     4   9  21  41  63  89 114 153 209 256 304 363
#
# _framework density 19.595672
#
# number of rings (size 3 to 8) (size 9 to 14) (size 15 to 20)
#    0.000    1.250    3.750    4.125    0.000    2.500 
#    0.000    1.875    0.000    0.000    0.000    0.000 
#    0.000    0.000    0.000    0.000    0.000    0.000 
#
# Total GULP energy -178285.093201 kJ/mol
# GULP energy per Si atom -5571.409163 kJ/mol
# Density = 1.955107 g / cm^3
# Si number density = 19.595672 Si / 1000 Ang^3
#
#
#
# Elastic Constant Matrix: (Units=GPa)
#
#
# Indices 1 2 3 4 5 6 
#
# 1 121.1457 40.1794 49.4329 0.0000 18.2043 0.0000
# 2 40.1794 98.6460 19.5209 0.0000 4.9146 0.0000
# 3 49.4329 19.5209 70.9059 0.0000 24.2468 0.0000
# 4 0.0000 0.0000 0.0000 20.5670 0.0000 6.4143
# 5 18.2043 4.9146 24.2468 0.0000 24.0836 0.0000
# 6 0.0000 0.0000 0.0000 6.4143 0.0000 24.5155
#
#
#
# Elastic Compliance Matrix: (Units=1/GPa)
#
#
# Indices 1 2 3 4 5 6 
#
# 1 0.012673 -0.003637 -0.007338 0.000000 -0.001449 0.000000
# 2 -0.003637 0.011788 -0.001261 0.000000 0.001614 0.000000
# 3 -0.007338 -0.001261 0.026812 0.000000 -0.021190 0.000000
# 4 0.000000 0.000000 0.000000 0.052942 0.000000 -0.013852
# 5 -0.001449 0.001614 -0.021190 0.000000 0.063622 0.000000
# 6 0.000000 0.000000 0.000000 -0.013852 0.000000 0.044415
#
#
# Mechanical properties :
#
#
# Convention : Reuss Voigt Hill
#
# Bulk Modulus (GPa) = 37.31403 56.55153 46.93278
# Shear Modulus (GPa) = 20.35344 25.93750 23.14547
#
# Velocity S-wave (km/s) = 3.22634 3.64212 3.44052
# Velocity P-wave (km/s) = 5.74128 6.82705 6.30757
#
# Compressibility (1/GPa) = 0.02679957
#
# Stress axis : x y z
#
# Youngs Moduli (GPa) = 78.90788 84.83180 37.29616
#
# Poissons Ratio (x) = 0.30858 0.27369
# Poissons Ratio (y) = 0.28703 0.04704
# Poissons Ratio (z) = 0.57904 0.10700
#
# Static dielectric constant tensor:
#      x y z
#    x 1.676790 0.000000 0.027940 
#    y 0.000000 1.794310 0.000000 
#    z 0.027940 0.000000 1.753490 
# 
# From -- ./inp_files/18047.got.cif
#   From: 2010.05.17/outbox.cif.g08.bks.cpg/sg11_10_cif.got.tgz:18047.got - 2010.06.03 12:22:45.
