data_PCOD9165441
_publ_section_title
;
Structure prediction by ZEFSAII (Michael W. Deem and Ramdas Pophale) SiO2 
 PCOD9165441
Probable space group: P 21/M
;
_chemical_formula_sum "Si O2"
_cell_formula_units_Z 32
_cell_length_a 26.831310
_cell_length_b 8.609053
_cell_length_c 21.348868
_cell_angle_alpha 90.000000
_cell_angle_beta 20.777991
_cell_angle_gamma 90.000000
_cell_volume 1749.411080
_symmetry_space_group_name_H-M "P 21/M"
_symmetry_group_IT_number 11
_symmetry_cell_setting 'monoclinic'
loop_
_space_group_symop_operation_xyz
x,y,z
-x,1/2+y,-z
-x,-y,-z
x,1/2-y,z
loop_
_atom_site_type_symbol
_atom_site_label
_atom_site_fract_x
_atom_site_fract_y
_atom_site_fract_z
Si Si1 0.732583 0.564028 0.974478
Si Si2 0.140384 0.562821 0.303177
Si Si3 0.147985 0.937083 0.803232
Si Si4 0.567577 0.435902 0.982923
Si Si5 0.343076 0.937491 0.686901
Si Si6 0.850460 0.437133 0.967220
Si Si7 0.846672 0.436916 0.347205
Si Si8 0.555174 0.563181 0.739660
O O1 0.733747 0.750000 0.972671
O O2 0.823693 0.501802 0.808263
O O3 0.793795 0.502102 0.968014
O O4 0.572962 0.504081 0.151221
O O5 0.136265 0.750000 0.304044
O O6 0.272387 0.515676 0.191665
O O7 0.000000 0.500000 0.500000
O O8 0.145610 0.750000 0.807353
O O9 0.263721 0.989707 0.717070
O O10 0.168938 0.985280 0.707142
O O11 0.000000 0.000000 0.000000
O O12 0.566556 0.250000 0.980872
O O13 0.500000 0.500000 0.000000
O O14 0.481687 0.481518 0.145724
O O15 0.346747 0.750000 0.683133
O O16 0.500000 0.000000 0.500000
O O17 0.252559 0.985543 0.854312
O O18 0.852005 0.250000 0.963106
O O19 0.007591 0.496671 0.797183
O O20 0.851579 0.250000 0.344972
O O21 0.707380 0.499020 0.544125
O O22 0.552416 0.750000 0.737628
#
# Coordination Sequence:
#
# PCOD9165441 Si02
#       8
#     4   4   4   4   4   4   4   4
#     4  11  23  40  62  88 119 156 199 251 301 351
#     4  10  21  39  61  89 122 158 200 242 292 354
#     4  10  21  39  60  85 116 151 193 242 295 350
#     4   9  20  37  59  86 117 151 190 236 283 338
#     4  10  23  40  59  86 117 152 195 242 295 355
#     4  11  23  41  61  85 118 158 199 244 299 360
#     4  11  23  38  60  90 119 154 198 247 297 351
#     4  10  22  41  61  86 120 158 198 240 294 358
#
# _framework density 18.291871
#
# number of rings (size 3 to 8) (size 9 to 14) (size 15 to 20)
#    0.000    1.750    1.250    3.375    1.750    6.000 
#    0.000    2.500    0.000    0.000    0.000    0.000 
#    0.000    0.000    0.000    0.000    0.000    0.000 
#
# Total GULP energy -178726.859905 kJ/mol
# GULP energy per Si atom -5585.214372 kJ/mol
# Density = 1.825024 g / cm^3
# Si number density = 18.291871 Si / 1000 Ang^3
#
#
#
# Elastic Constant Matrix: (Units=GPa)
#
#
# Indices 1 2 3 4 5 6 
#
# 1 201.6266 53.3243 110.3061 0.0000 -16.6414 0.0000
# 2 53.3243 64.5310 52.7968 0.0000 -1.6719 0.0000
# 3 110.3061 52.7968 198.6733 0.0000 -14.2586 0.0000
# 4 0.0000 0.0000 0.0000 36.3914 0.0000 -4.5243
# 5 -16.6414 -1.6719 -14.2586 0.0000 19.8333 0.0000
# 6 0.0000 0.0000 0.0000 -4.5243 0.0000 29.6893
#
#
#
# Elastic Compliance Matrix: (Units=1/GPa)
#
#
# Indices 1 2 3 4 5 6 
#
# 1 0.008070 -0.004013 -0.003113 0.000000 0.004195 0.000000
# 2 -0.004013 0.021891 -0.003900 0.000000 -0.004326 0.000000
# 3 -0.003113 -0.003900 0.008000 0.000000 0.002810 0.000000
# 4 0.000000 0.000000 0.000000 0.028010 0.000000 0.004268
# 5 0.004195 -0.004326 0.002810 0.000000 0.055596 0.000000
# 6 0.000000 0.000000 0.000000 0.004268 0.000000 0.034333
#
#
# Mechanical properties :
#
#
# Convention : Reuss Voigt Hill
#
# Bulk Modulus (GPa) = 62.85646 99.74283 81.29964
# Shear Modulus (GPa) = 27.28432 33.74305 30.51369
#
# Velocity S-wave (km/s) = 3.86633 4.29966 4.08874
# Velocity P-wave (km/s) = 7.37353 8.90485 8.17512
#
# Compressibility (1/GPa) = 0.01590926
#
# Stress axis : x y z
#
# Youngs Moduli (GPa) = 123.90850 45.68046 124.99990
#
# Poissons Ratio (x) = 0.18332 0.38916
# Poissons Ratio (y) = 0.49725 0.48748
# Poissons Ratio (z) = 0.38576 0.17815
#
# Static dielectric constant tensor:
#      x y z
#    x 1.587450 0.000000 -0.003240 
#    y 0.000000 1.623170 0.000000 
#    z -0.003240 0.000000 1.600700 
# 
# From -- ./inp_files/66949.got.cif
#   From: 2010.05.17/outbox.cif.g08.bks.cpg/sg11_34_cif.got.tgz:66949.got - 2010.06.03 12:22:45.
