data_PCOD9165807
_publ_section_title
;
Structure prediction by ZEFSAII (Michael W. Deem and Ramdas Pophale) SiO2 
 PCOD9165807
Probable space group: P 21/M
;
_chemical_formula_sum "Si O2"
_cell_formula_units_Z 32
_cell_length_a 28.936748
_cell_length_b 9.890061
_cell_length_c 11.225264
_cell_angle_alpha 90.000000
_cell_angle_beta 29.758765
_cell_angle_gamma 90.000000
_cell_volume 1594.529952
_symmetry_space_group_name_H-M "P 21/M"
_symmetry_group_IT_number 11
_symmetry_cell_setting 'monoclinic'
loop_
_space_group_symop_operation_xyz
x,y,z
-x,1/2+y,-z
-x,-y,-z
x,1/2-y,z
loop_
_atom_site_type_symbol
_atom_site_label
_atom_site_fract_x
_atom_site_fract_y
_atom_site_fract_z
Si Si1 0.317733 0.587948 0.574928
Si Si2 0.757641 0.901911 0.447479
Si Si3 0.366944 0.906550 0.855859
Si Si4 0.940572 0.529447 0.452527
Si Si5 0.762241 0.604407 0.721674
Si Si6 0.867802 0.097098 0.855070
Si Si7 0.427369 0.408433 0.501295
Si Si8 0.973911 0.897630 0.954434
O O1 0.333998 0.750000 0.536482
O O2 0.297206 0.522047 0.492862
O O3 0.399027 0.498357 0.451637
O O4 0.224554 0.562031 0.863806
O O5 0.724044 0.750000 0.488920
O O6 0.759246 0.909364 0.586510
O O7 0.865193 0.912301 0.168185
O O8 0.349638 0.750000 0.859433
O O9 0.462746 0.908800 0.716531
O O10 0.381477 0.007060 0.712262
O O11 0.286394 0.974864 0.112531
O O12 0.866310 0.609466 0.540121
O O13 0.889466 0.491069 0.690039
O O14 0.039436 0.591716 0.270824
O O15 0.969969 0.413410 0.293670
O O16 0.716220 0.750000 0.855640
O O17 0.855551 0.250000 0.839905
O O18 0.397749 0.250000 0.560885
O O19 0.989607 0.750000 0.970766
O O20 0.000000 0.000000 0.000000
#
# Coordination Sequence:
#
# PCOD9165807 Si02
#       8
#     4   4   4   4   4   4   4   4
#     4  11  22  38  61  89 120 157 199 248 300 351
#     4  10  22  40  57  82 118 157 205 250 294 355
#     4  10  22  40  64  94 124 152 193 245 294 355
#     4  11  21  37  56  82 117 159 200 242 294 352
#     4  11  23  39  61  86 117 160 202 249 301 352
#     4  10  22  36  52  81 119 154 193 240 289 347
#     4  10  21  40  66  93 122 157 191 236 299 359
#     4  11  22  37  58  82 113 157 206 253 297 348
#
# _framework density 20.068611000000001
#
# number of rings (size 3 to 8) (size 9 to 14) (size 15 to 20)
#    0.000    1.500    2.500    2.625    0.000    5.000 
#    0.000    1.875    0.000    0.000    0.000    0.000 
#    0.000    0.000    0.000    0.000    0.000    0.000 
#
# Total GULP energy -178506.448663 kJ/mol
# GULP energy per Si atom -5578.326521 kJ/mol
# Density = 2.002293 g / cm^3
# Si number density = 20.068611 Si / 1000 Ang^3
#
#
#
# Elastic Constant Matrix: (Units=GPa)
#
#
# Indices 1 2 3 4 5 6 
#
# 1 113.4885 62.2011 9.3591 0.0000 -3.6670 0.0000
# 2 62.2011 148.5503 17.3277 0.0000 -11.1186 0.0000
# 3 9.3591 17.3277 27.3194 0.0000 -3.0456 0.0000
# 4 0.0000 0.0000 0.0000 21.2938 0.0000 -1.4421
# 5 -3.6670 -11.1186 -3.0456 0.0000 9.7618 0.0000
# 6 0.0000 0.0000 0.0000 -1.4421 0.0000 20.5964
#
#
#
# Elastic Compliance Matrix: (Units=1/GPa)
#
#
# Indices 1 2 3 4 5 6 
#
# 1 0.011478 -0.004793 -0.001057 0.000000 -0.001478 0.000000
# 2 -0.004793 0.009778 -0.003646 0.000000 0.008199 0.000000
# 3 -0.001057 -0.003646 0.040168 0.000000 0.007983 0.000000
# 4 0.000000 0.000000 0.000000 0.047186 0.000000 0.003304
# 5 -0.001478 0.008199 0.007983 0.000000 0.113714 0.000000
# 6 0.000000 0.000000 0.000000 0.003304 0.000000 0.048784
#
#
# Mechanical properties :
#
#
# Convention : Reuss Voigt Hill
#
# Bulk Modulus (GPa) = 23.56662 51.90378 37.73520
# Shear Modulus (GPa) = 16.43424 23.69508 20.06466
#
# Velocity S-wave (km/s) = 2.86475 3.43986 3.16540
# Velocity P-wave (km/s) = 4.76560 6.45726 5.67482
#
# Compressibility (1/GPa) = 0.04243290
#
# Stress axis : x y z
#
# Youngs Moduli (GPa) = 87.12272 102.27326 24.89533
#
# Poissons Ratio (x) = 0.49024 0.02630
# Poissons Ratio (y) = 0.41762 0.09076
# Poissons Ratio (z) = 0.09205 0.37284
#
# Static dielectric constant tensor:
#      x y z
#    x 1.718070 0.000000 -0.007100 
#    y 0.000000 1.664060 0.000000 
#    z -0.007100 0.000000 1.706980 
# 
# From -- ./inp_files/45135.got.cif
#   From: 2010.05.17/outbox.cif.g08.bks.cpg/sg11_23_cif.got.tgz:45135.got - 2010.06.03 12:22:45.
