data_PCOD9165321
_publ_section_title
;
Structure prediction by ZEFSAII (Michael W. Deem and Ramdas Pophale) SiO2 
 PCOD9165321
Probable space group: P 21/M
;
_chemical_formula_sum "Si O2"
_cell_formula_units_Z 32
_cell_length_a 11.565461
_cell_length_b 16.583700
_cell_length_c 15.388895
_cell_angle_alpha 90.000000
_cell_angle_beta 153.753796
_cell_angle_gamma 90.000000
_cell_volume 1305.266827
_symmetry_space_group_name_H-M "P 21/M"
_symmetry_group_IT_number 11
_symmetry_cell_setting 'monoclinic'
loop_
_space_group_symop_operation_xyz
x,y,z
-x,1/2+y,-z
-x,-y,-z
x,1/2-y,z
loop_
_atom_site_type_symbol
_atom_site_label
_atom_site_fract_x
_atom_site_fract_y
_atom_site_fract_z
Si Si1 0.953324 0.343049 0.399366
Si Si2 0.226553 0.927960 0.885345
Si Si3 0.255669 0.066975 0.121375
Si Si4 0.253493 0.159932 0.754766
Si Si5 0.480207 0.611499 0.288164
Si Si6 0.152635 0.114322 0.873940
Si Si7 0.938168 0.841917 0.842660
Si Si8 0.694884 0.070252 0.659544
O O1 0.871969 0.250000 0.333314
O O2 0.989744 0.363317 0.525468
O O3 0.249190 0.356557 0.564667
O O4 0.792499 0.399532 0.227030
O O5 0.004990 0.887674 0.797152
O O6 0.197034 0.022175 0.874979
O O7 0.510196 0.899442 0.107596
O O8 0.236531 0.115682 0.199048
O O9 0.433796 0.986356 0.243988
O O10 0.305739 0.122965 0.069108
O O11 0.956365 0.040735 0.889970
O O12 0.323303 0.250000 0.771599
O O13 0.221753 0.163242 0.836264
O O14 0.458308 0.624620 0.376443
O O15 0.228664 0.655117 0.080019
O O16 0.842658 0.119160 0.684915
O O17 0.857442 0.750000 0.773736
O O18 0.500000 0.000000 0.500000
#
# Coordination Sequence:
#
# PCOD9165321 Si02
#       8
#     4   4   4   4   4   4   4   4
#     4  11  24  39  62  94 122 158 208 262 313 361
#     4  12  22  40  66  90 120 158 211 261 307 355
#     4   9  20  35  57  87 124 160 199 251 300 372
#     4  11  24  42  61  86 126 167 203 255 312 364
#     4  11  18  34  58  88 123 156 198 252 315 363
#     4  10  21  38  62  89 122 164 209 249 302 373
#     4  11  19  33  59  89 122 159 199 251 314 364
#     4   9  18  33  55  87 120 156 195 250 303 354
#
# _framework density 24.516061000000001
#
# number of rings (size 3 to 8) (size 9 to 14) (size 15 to 20)
#    0.750    0.750    2.500    4.875    0.000    1.000 
#    0.000    1.250    0.000    0.000    0.000    7.000 
#    0.000    0.000    0.000    0.000    0.000    0.000 
#
# Total GULP energy -178658.218741 kJ/mol
# GULP energy per Si atom -5583.069336 kJ/mol
# Density = 2.446026 g / cm^3
# Si number density = 24.516061 Si / 1000 Ang^3
#
#
#
# Elastic Constant Matrix: (Units=GPa)
#
#
# Indices 1 2 3 4 5 6 
#
# 1 106.4108 25.7233 9.2240 0.0000 -25.0638 0.0000
# 2 25.7233 88.6268 9.1739 0.0000 -17.1179 0.0000
# 3 9.2240 9.1739 75.6584 0.0000 -0.9390 0.0000
# 4 0.0000 0.0000 0.0000 8.9467 0.0000 -13.8148
# 5 -25.0638 -17.1179 -0.9390 0.0000 28.1654 0.0000
# 6 0.0000 0.0000 0.0000 -13.8148 0.0000 22.6497
#
#
#
# Elastic Compliance Matrix: (Units=1/GPa)
#
#
# Indices 1 2 3 4 5 6 
#
# 1 0.012195 -0.001506 -0.001181 0.000000 0.009898 0.000000
# 2 -0.001506 0.013132 -0.001327 0.000000 0.006597 0.000000
# 3 -0.001181 -0.001327 0.013505 0.000000 -0.001407 0.000000
# 4 0.000000 0.000000 0.000000 1.920968 0.000000 1.171661
# 5 0.009898 0.006597 -0.001407 0.000000 0.048275 0.000000
# 6 0.000000 0.000000 0.000000 1.171661 0.000000 0.758785
#
#
# Mechanical properties :
#
#
# Convention : Reuss Voigt Hill
#
# Bulk Modulus (GPa) = 32.46317 39.88204 36.17261
# Shear Modulus (GPa) = 1.79523 27.05734 14.42629
#
# Velocity S-wave (km/s) = 0.85665 3.32574 2.42841
# Velocity P-wave (km/s) = 3.77476 5.57229 4.75916
#
# Compressibility (1/GPa) = 0.03080414
#
# Stress axis : x y z
#
# Youngs Moduli (GPa) = 81.99938 76.15114 74.04798
#
# Poissons Ratio (x) = 0.11465 0.08748
# Poissons Ratio (y) = 0.12345 0.09825
# Poissons Ratio (z) = 0.09687 0.10104
#
# Static dielectric constant tensor:
#      x y z
#    x 2.094980 0.000000 -0.044500 
#    y 0.000000 1.910290 0.000000 
#    z -0.044500 0.000000 2.023970 
# 
# From -- ./inp_files/50716.got.cif
#   From: 2010.05.17/outbox.cif.g08.bks.cpg/sg11_26_cif.got.tgz:50716.got - 2010.06.03 12:22:45.
