data_PCOD9165727
_publ_section_title
;
Structure prediction by ZEFSAII (Michael W. Deem and Ramdas Pophale) SiO2 
 PCOD9165727
Probable space group: P 21/M
;
_chemical_formula_sum "Si O2"
_cell_formula_units_Z 28
_cell_length_a 9.462549
_cell_length_b 28.942570
_cell_length_c 6.863997
_cell_angle_alpha 90.000000
_cell_angle_beta 49.625780
_cell_angle_gamma 90.000000
_cell_volume 1432.122947
_symmetry_space_group_name_H-M "P 21/M"
_symmetry_group_IT_number 11
_symmetry_cell_setting 'monoclinic'
loop_
_space_group_symop_operation_xyz
x,y,z
-x,1/2+y,-z
-x,-y,-z
x,1/2-y,z
loop_
_atom_site_type_symbol
_atom_site_label
_atom_site_fract_x
_atom_site_fract_y
_atom_site_fract_z
Si Si1 0.724237 0.697864 0.015039
Si Si2 0.625099 0.305549 0.942679
Si Si3 0.023073 0.545564 0.346165
Si Si4 0.981347 0.648228 0.510040
Si Si5 0.305728 0.441902 0.653671
Si Si6 0.341259 0.163458 0.514253
Si Si7 0.601622 0.010008 0.110595
O O1 0.767878 0.750000 0.910717
O O2 0.530304 0.684670 0.084344
O O3 0.695760 0.696069 0.270374
O O4 0.891146 0.665731 0.791564
O O5 0.650767 0.250000 0.931702
O O6 0.818633 0.330081 0.717655
O O7 0.525974 0.323859 0.228511
O O8 0.000000 0.500000 0.500000
O O9 0.989602 0.592755 0.493088
O O10 0.885574 0.546198 0.284764
O O11 0.230421 0.544143 0.081696
O O12 0.830958 0.664181 0.482111
O O13 0.344168 0.387732 0.604046
O O14 0.320513 0.463994 0.854008
O O15 0.459315 0.466490 0.383576
O O16 0.500000 0.000000 0.000000
#
# Coordination Sequence:
#
# PCOD9165727 Si02
#       7
#     4   4   4   4   4   4   4
#     4  10  22  40  62  90 121 158 201 248 306 363
#     4  10  21  40  63  89 122 157 198 252 304 362
#     4  11  22  39  60  87 123 160 199 245 303 352
#     4  10  23  40  61  89 123 159 202 250 297 364
#     4  10  23  39  58  89 119 157 201 249 296 359
#     4  10  22  39  62  88 122 157 198 246 304 359
#     4  11  22  39  61  83 116 160 203 248 295 352
#
# _framework density 19.551393999999998
#
# number of rings (size 3 to 8) (size 9 to 14) (size 15 to 20)
#    0.000    1.714    1.429    2.143    2.000    5.143 
#    0.000    0.000    0.000    0.000    0.000    0.000 
#    0.000    0.000    0.000    0.000    0.000    0.000 
#
# Total GULP energy -156382.991055 kJ/mol
# GULP energy per Si atom -5585.106823 kJ/mol
# Density = 1.950689 g / cm^3
# Si number density = 19.551394 Si / 1000 Ang^3
#
#
#
# Elastic Constant Matrix: (Units=GPa)
#
#
# Indices 1 2 3 4 5 6 
#
# 1 71.2669 46.4357 36.6408 0.0000 -19.0528 0.0000
# 2 46.4357 88.8701 27.1578 0.0000 -0.6598 0.0000
# 3 36.6408 27.1578 89.4928 0.0000 -8.0303 0.0000
# 4 0.0000 0.0000 0.0000 34.4469 0.0000 -5.6996
# 5 -19.0528 -0.6598 -8.0303 0.0000 34.7096 0.0000
# 6 0.0000 0.0000 0.0000 -5.6996 0.0000 22.6299
#
#
#
# Elastic Compliance Matrix: (Units=1/GPa)
#
#
# Indices 1 2 3 4 5 6 
#
# 1 0.030549 -0.013709 -0.007012 0.000000 0.014886 0.000000
# 2 -0.013709 0.018569 -0.000680 0.000000 -0.007329 0.000000
# 3 -0.007012 -0.000680 0.014199 0.000000 -0.000577 0.000000
# 4 0.000000 0.000000 0.000000 0.030293 0.000000 0.007630
# 5 0.014886 -0.007329 -0.000577 0.000000 0.036709 0.000000
# 6 0.000000 0.000000 0.000000 0.007630 0.000000 0.046111
#
#
# Mechanical properties :
#
#
# Convention : Reuss Voigt Hill
#
# Bulk Modulus (GPa) = 48.74182 52.23315 50.48748
# Shear Modulus (GPa) = 22.11715 27.65030 24.88373
#
# Velocity S-wave (km/s) = 3.36703 3.76471 3.57141
# Velocity P-wave (km/s) = 6.33246 6.75805 6.54871
#
# Compressibility (1/GPa) = 0.02051626
#
# Stress axis : x y z
#
# Youngs Moduli (GPa) = 32.73457 53.85387 70.42553
#
# Poissons Ratio (x) = 0.73828 0.49380
# Poissons Ratio (y) = 0.44875 0.04788
# Poissons Ratio (z) = 0.22952 0.03661
#
# Static dielectric constant tensor:
#      x y z
#    x 1.648190 0.000000 0.011200 
#    y 0.000000 1.712220 0.000000 
#    z 0.011200 0.000000 1.673640 
# 
# From -- ./inp_files/3321.got.cif
#   From: 2010.05.17/outbox.cif.g08.bks.cpg/sg11_2_cif.got.tgz:3321.got - 2010.06.03 12:22:45.
