data_PCOD9165844
_publ_section_title
;
Structure prediction by ZEFSAII (Michael W. Deem and Ramdas Pophale) SiO2 
 PCOD9165844
Probable space group: P 21/M
;
_chemical_formula_sum "Si O2"
_cell_formula_units_Z 30
_cell_length_a 14.275074
_cell_length_b 9.453363
_cell_length_c 12.004582
_cell_angle_alpha 90.000000
_cell_angle_beta 111.796548
_cell_angle_gamma 90.000000
_cell_volume 1504.171961
_symmetry_space_group_name_H-M "P 21/M"
_symmetry_group_IT_number 11
_symmetry_cell_setting 'monoclinic'
loop_
_space_group_symop_operation_xyz
x,y,z
-x,1/2+y,-z
-x,-y,-z
x,1/2-y,z
loop_
_atom_site_type_symbol
_atom_site_label
_atom_site_fract_x
_atom_site_fract_y
_atom_site_fract_z
Si Si1 0.994999 0.502803 0.160625
Si Si2 0.236458 0.083321 0.957242
Si Si3 0.040791 0.750000 0.031608
Si Si4 0.594256 0.416574 0.094758
Si Si5 0.546428 0.415736 0.333480
Si Si6 0.065030 0.081611 0.437808
Si Si7 0.282541 0.079877 0.465759
Si Si8 0.311968 0.078834 0.231369
O O1 0.881283 0.565624 0.117088
O O2 0.060168 0.625416 0.133375
O O3 0.028608 0.456056 0.297528
O O4 0.989750 0.371607 0.074627
O O5 0.263686 0.250000 0.960211
O O6 0.305146 0.990276 0.906608
O O7 0.259678 0.032736 0.093943
O O8 0.590857 0.250000 0.063505
O O9 0.584706 0.427141 0.223489
O O10 0.500000 0.500000 0.000000
O O11 0.549332 0.250000 0.367052
O O12 0.618131 0.506341 0.443484
O O13 0.429750 0.462129 0.283297
O O14 0.055942 0.250000 0.450290
O O15 0.183742 0.043458 0.493453
O O16 0.000000 0.000000 0.500000
O O17 0.294675 0.250000 0.473682
O O18 0.266295 0.037397 0.329640
O O19 0.307837 0.250000 0.225547
#
# Coordination Sequence:
#
# PCOD9165844 Si02
#       8
#     4   4   2   4   4   4   4   4
#     4  11  24  44  69 100 134 171 216 280 339 403
#     4  11  23  40  65  97 130 173 211 260 323 396
#     4  10  24  42  72 100 132 166 214 276 354 400
#     4  11  23  40  63  91 129 168 212 263 324 386
#     4  10  21  41  61  89 126 165 202 256 317 376
#     4  11  27  47  66  92 131 178 228 275 328 396
#     4  10  23  41  66  90 117 164 215 261 310 377
#     4   9  19  38  65  91 126 161 202 249 317 380
#
# _framework density 19.944527999999998
#
# number of rings (size 3 to 8) (size 9 to 14) (size 15 to 20)
#    0.000    1.600    2.667    0.800    7.467    1.600 
#    0.000    0.667    0.000    0.000    0.000    0.000 
#    0.000    0.000    0.000    0.000    0.000    0.000 
#
# Total GULP energy -167108.567729 kJ/mol
# GULP energy per Si atom -5570.285591 kJ/mol
# Density = 1.989913 g / cm^3
# Si number density = 19.944528 Si / 1000 Ang^3
#
#
#
# Elastic Constant Matrix: (Units=GPa)
#
#
# Indices 1 2 3 4 5 6 
#
# 1 69.4225 21.6415 13.3760 0.0000 -2.0687 0.0000
# 2 21.6415 81.8645 7.4315 0.0000 -14.1748 0.0000
# 3 13.3760 7.4315 34.9750 0.0000 2.5955 0.0000
# 4 0.0000 0.0000 0.0000 32.6382 0.0000 3.6199
# 5 -2.0687 -14.1748 2.5955 0.0000 30.8254 0.0000
# 6 0.0000 0.0000 0.0000 3.6199 0.0000 18.7758
#
#
#
# Elastic Compliance Matrix: (Units=1/GPa)
#
#
# Indices 1 2 3 4 5 6 
#
# 1 0.016695 -0.003952 -0.005528 0.000000 -0.000231 0.000000
# 2 -0.003952 0.014595 -0.002081 0.000000 0.006622 0.000000
# 3 -0.005528 -0.002081 0.031443 0.000000 -0.003976 0.000000
# 4 0.000000 0.000000 0.000000 0.031308 0.000000 -0.006036
# 5 -0.000231 0.006622 -0.003976 0.000000 0.035805 0.000000
# 6 0.000000 0.000000 0.000000 -0.006036 0.000000 0.054424
#
#
# Mechanical properties :
#
#
# Convention : Reuss Voigt Hill
#
# Bulk Modulus (GPa) = 25.24519 30.12887 27.68703
# Shear Modulus (GPa) = 22.66587 26.03541 24.35064
#
# Velocity S-wave (km/s) = 3.37478 3.61694 3.49796
# Velocity P-wave (km/s) = 5.27927 5.70808 5.49785
#
# Compressibility (1/GPa) = 0.03961150
#
# Stress axis : x y z
#
# Youngs Moduli (GPa) = 59.89957 68.51475 31.80333
#
# Poissons Ratio (x) = 0.27074 0.17581
# Poissons Ratio (y) = 0.23670 0.06619
# Poissons Ratio (z) = 0.33112 0.14260
#
# Static dielectric constant tensor:
#      x y z
#    x 1.731820 0.000000 -0.004650 
#    y 0.000000 1.675670 0.000000 
#    z -0.004650 0.000000 1.682020 
# 
# From -- ./inp_files/38339.got.cif
#   From: 2010.05.17/outbox.cif.g08.bks.cpg/sg11_20_cif.got.tgz:38339.got - 2010.06.03 12:22:45.
