data_PCOD9165023
_publ_section_title
;
Structure prediction by ZEFSAII (Michael W. Deem and Ramdas Pophale) SiO2 
 PCOD9165023
Probable space group: P 21/M
;
_chemical_formula_sum "Si O2"
_cell_formula_units_Z 30
_cell_length_a 8.313519
_cell_length_b 14.961249
_cell_length_c 10.746857
_cell_angle_alpha 90.000000
_cell_angle_beta 73.974342
_cell_angle_gamma 90.000000
_cell_volume 1284.754174
_symmetry_space_group_name_H-M "P 21/M"
_symmetry_group_IT_number 11
_symmetry_cell_setting 'monoclinic'
loop_
_space_group_symop_operation_xyz
x,y,z
-x,1/2+y,-z
-x,-y,-z
x,1/2-y,z
loop_
_atom_site_type_symbol
_atom_site_label
_atom_site_fract_x
_atom_site_fract_y
_atom_site_fract_z
Si Si1 0.730360 0.004017 0.713557
Si Si2 0.329831 0.400040 0.637099
Si Si3 0.824962 0.912170 0.928771
Si Si4 0.032951 0.650409 0.330392
Si Si5 0.867747 0.114199 0.978043
Si Si6 0.476162 0.149939 0.864628
Si Si7 0.660695 0.250000 0.163325
Si Si8 0.439599 0.907169 0.627375
O O1 0.609822 0.070161 0.821543
O O2 0.860516 0.073173 0.626367
O O3 0.828412 0.936668 0.783254
O O4 0.607841 0.949650 0.652310
O O5 0.164299 0.361347 0.611147
O O6 0.358214 0.361924 0.768129
O O7 0.496187 0.379296 0.522259
O O8 0.316625 0.507794 0.647900
O O9 0.985942 0.864295 0.952735
O O10 0.651738 0.863259 0.994736
O O11 0.824729 0.009424 0.995536
O O12 0.084276 0.750000 0.354777
O O13 0.064907 0.635550 0.174564
O O14 0.711162 0.172631 0.049570
O O15 0.546306 0.250000 0.846395
O O16 0.623935 0.328238 0.274805
#
# Coordination Sequence:
#
# PCOD9165023 Si02
#       8
#     4   4   4   4   4   4   2   4
#     4  10  23  41  59  90 137 168 203 250 335 389
#     4  10  22  43  71  90 125 172 221 262 320 372
#     4  10  21  38  61  89 130 169 200 255 326 382
#     4  11  21  38  69  97 124 165 216 274 310 377
#     4  10  21  37  61  94 125 163 212 261 316 375
#     4  11  21  36  63  94 125 156 215 264 306 374
#     4  12  24  38  66  92 134 162 220 268 314 380
#     4  10  25  45  64  94 128 179 213 261 318 391
#
# _framework density 23.350771999999999
#
# number of rings (size 3 to 8) (size 9 to 14) (size 15 to 20)
#    0.000    1.600    2.000    2.800    6.533    1.600 
#    6.000    0.000    0.000    0.000    0.000    0.000 
#    0.000    0.000    0.000    0.000    0.000    0.000 
#
# Total GULP energy -167319.576854 kJ/mol
# GULP energy per Si atom -5577.319228 kJ/mol
# Density = 2.329762 g / cm^3
# Si number density = 23.350772 Si / 1000 Ang^3
#
#
#
# Elastic Constant Matrix: (Units=GPa)
#
#
# Indices 1 2 3 4 5 6 
#
# 1 62.0647 -8.1838 -24.4230 0.0000 6.5980 0.0000
# 2 -8.1838 87.8465 22.9100 0.0000 -7.0821 0.0000
# 3 -24.4230 22.9100 43.3173 0.0000 -11.2527 0.0000
# 4 0.0000 0.0000 0.0000 38.3171 0.0000 -23.3348
# 5 6.5980 -7.0821 -11.2527 0.0000 22.3795 0.0000
# 6 0.0000 0.0000 0.0000 -23.3348 0.0000 93.4075
#
#
#
# Elastic Compliance Matrix: (Units=1/GPa)
#
#
# Indices 1 2 3 4 5 6 
#
# 1 0.020836 -0.001307 0.012349 0.000000 -0.000348 0.000000
# 2 -0.001307 0.013298 -0.007565 0.000000 0.000790 0.000000
# 3 0.012349 -0.007565 0.037362 0.000000 0.012751 0.000000
# 4 0.000000 0.000000 0.000000 0.030781 0.000000 0.007690
# 5 -0.000348 0.000790 0.012751 0.000000 0.051448 0.000000
# 6 0.000000 0.000000 0.000000 0.007690 0.000000 0.012627
#
#
# Mechanical properties :
#
#
# Convention : Reuss Voigt Hill
#
# Bulk Modulus (GPa) = 12.74718 19.31499 16.03109
# Shear Modulus (GPa) = 26.94710 44.34918 35.64814
#
# Velocity S-wave (km/s) = 3.40076 4.36278 3.91146
# Velocity P-wave (km/s) = 4.57068 5.80242 5.22299
#
# Compressibility (1/GPa) = 0.07844870
#
# Stress axis : x y z
#
# Youngs Moduli (GPa) = 47.99337 75.19715 26.76537
#
# Poissons Ratio (x) = 0.09832 -0.33053
# Poissons Ratio (y) = 0.06275 0.20249
# Poissons Ratio (z) = -0.59267 0.56889
#
# Static dielectric constant tensor:
#      x y z
#    x 1.965380 0.000000 0.045230 
#    y 0.000000 1.833870 0.000000 
#    z 0.045230 0.000000 1.883940 
# 
# From -- ./inp_files/31850.got.cif
#   From: 2010.05.17/outbox.cif.g08.bks.cpg/sg11_16_cif.got.tgz:31850.got - 2010.06.03 12:22:45.
