data_PCOD9165112
_publ_section_title
;
Structure prediction by ZEFSAII (Michael W. Deem and Ramdas Pophale) SiO2 
 PCOD9165112
Probable space group: P 21/M
;
_chemical_formula_sum "Si O2"
_cell_formula_units_Z 28
_cell_length_a 31.920038
_cell_length_b 8.746191
_cell_length_c 5.473650
_cell_angle_alpha 90.000000
_cell_angle_beta 122.036635
_cell_angle_gamma 90.000000
_cell_volume 1295.406948
_symmetry_space_group_name_H-M "P 21/M"
_symmetry_group_IT_number 11
_symmetry_cell_setting 'monoclinic'
loop_
_space_group_symop_operation_xyz
x,y,z
-x,1/2+y,-z
-x,-y,-z
x,1/2-y,z
loop_
_atom_site_type_symbol
_atom_site_label
_atom_site_fract_x
_atom_site_fract_y
_atom_site_fract_z
Si Si1 0.125104 0.414990 0.443516
Si Si2 0.222581 0.080535 0.065763
Si Si3 0.316416 0.566714 0.147140
Si Si4 0.948197 0.924861 0.396302
Si Si5 0.849629 0.416243 0.887882
Si Si6 0.364356 0.064814 0.798352
Si Si7 0.475202 0.564444 0.173388
O O1 0.130013 0.250000 0.321540
O O2 0.070135 0.422017 0.379698
O O3 0.138670 0.571799 0.359192
O O4 0.168914 0.404298 0.775682
O O5 0.243511 0.250000 0.169611
O O6 0.259955 0.980855 0.026308
O O7 0.203177 0.000344 0.249566
O O8 0.322845 0.750000 0.157762
O O9 0.334516 0.493163 0.946897
O O10 0.343703 0.498942 0.474714
O O11 0.950024 0.750000 0.320516
O O12 0.000000 0.000000 0.500000
O O13 0.901269 0.009622 0.135405
O O14 0.844531 0.250000 0.979212
O O15 0.364922 0.250000 0.795621
O O16 0.419169 0.996361 0.997786
O O17 0.500000 0.500000 0.500000
O O18 0.477306 0.750000 0.180051
O O19 0.500000 0.500000 0.000000
#
# Coordination Sequence:
#
# PCOD9165112 Si02
#       7
#     4   4   4   4   4   4   4
#     4   9  20  38  59  82 112 151 198 247 303 374
#     4  10  22  41  63  87 119 163 209 258 319 388
#     4  12  26  45  69 101 140 182 231 290 348 408
#     4  10  21  38  58  81 112 148 191 243 304 370
#     4  11  22  36  58  86 116 151 196 250 307 373
#     4  12  26  47  71 102 142 187 235 286 348 413
#     4  12  25  45  72 105 142 186 236 289 347 410
#
# _framework density 21.614829
#
# number of rings (size 3 to 8) (size 9 to 14) (size 15 to 20)
#    0.000    1.143    0.000    7.714    2.000    4.000 
#    0.000    0.000    0.000    0.000    0.000    0.000 
#    0.000    0.000    0.000    0.000    0.000    0.000 
#
# Total GULP energy -155995.483937 kJ/mol
# GULP energy per Si atom -5571.267283 kJ/mol
# Density = 2.156563 g / cm^3
# Si number density = 21.614829 Si / 1000 Ang^3
#
#
#
# Elastic Constant Matrix: (Units=GPa)
#
#
# Indices 1 2 3 4 5 6 
#
# 1 139.4887 45.9048 29.1890 0.0000 3.6985 0.0000
# 2 45.9048 161.4515 21.4495 0.0000 -9.7373 0.0000
# 3 29.1890 21.4495 53.9743 0.0000 -7.0905 0.0000
# 4 0.0000 0.0000 0.0000 21.1097 0.0000 -3.2612
# 5 3.6985 -9.7373 -7.0905 0.0000 28.5736 0.0000
# 6 0.0000 0.0000 0.0000 -3.2612 0.0000 26.6041
#
#
#
# Elastic Compliance Matrix: (Units=1/GPa)
#
#
# Indices 1 2 3 4 5 6 
#
# 1 0.008851 -0.002118 -0.004331 0.000000 -0.002942 0.000000
# 2 -0.002118 0.007121 -0.001374 0.000000 0.002360 0.000000
# 3 -0.004331 -0.001374 0.022150 0.000000 0.005589 0.000000
# 4 0.000000 0.000000 0.000000 0.048286 0.000000 0.005919
# 5 -0.002942 0.002360 0.005589 0.000000 0.037569 0.000000
# 6 0.000000 0.000000 0.000000 0.005919 0.000000 0.038314
#
#
# Mechanical properties :
#
#
# Convention : Reuss Voigt Hill
#
# Bulk Modulus (GPa) = 44.49583 60.88902 52.69242
# Shear Modulus (GPa) = 26.96451 32.48222 29.72337
#
# Velocity S-wave (km/s) = 3.53583 3.88077 3.71231
# Velocity P-wave (km/s) = 6.10737 6.95066 6.54261
#
# Compressibility (1/GPa) = 0.02247402
#
# Stress axis : x y z
#
# Youngs Moduli (GPa) = 112.98776 140.42869 45.14721
#
# Poissons Ratio (x) = 0.29750 0.19553
# Poissons Ratio (y) = 0.23936 0.06204
# Poissons Ratio (z) = 0.48934 0.19298
#
# Static dielectric constant tensor:
#      x y z
#    x 1.815930 0.000000 -0.125690 
#    y 0.000000 2.152330 0.000000 
#    z -0.125690 0.000000 1.941510 
# 
# From -- ./inp_files/9713.got.cif
#   From: 2010.05.17/outbox.cif.g08.bks.cpg/sg11_5_cif.got.tgz:9713.got - 2010.06.03 12:22:45.
