data_PCOD9165065
_publ_section_title
;
Structure prediction by ZEFSAII (Michael W. Deem and Ramdas Pophale) SiO2 
 PCOD9165065
Probable space group: P 21/M
;
_chemical_formula_sum "Si O2"
_cell_formula_units_Z 32
_cell_length_a 14.754209
_cell_length_b 19.282114
_cell_length_c 13.917492
_cell_angle_alpha 90.000000
_cell_angle_beta 159.749208
_cell_angle_gamma 90.000000
_cell_volume 1370.474099
_symmetry_space_group_name_H-M "P 21/M"
_symmetry_group_IT_number 11
_symmetry_cell_setting 'monoclinic'
loop_
_space_group_symop_operation_xyz
x,y,z
-x,1/2+y,-z
-x,-y,-z
x,1/2-y,z
loop_
_atom_site_type_symbol
_atom_site_label
_atom_site_fract_x
_atom_site_fract_y
_atom_site_fract_z
Si Si1 0.382452 0.928566 0.418532
Si Si2 0.216510 0.671277 0.086432
Si Si3 0.737141 0.823312 0.873150
Si Si4 0.764026 0.325238 0.493258
Si Si5 0.105967 0.968534 0.337014
Si Si6 0.715935 0.514930 0.095640
Si Si7 0.725383 0.629045 0.478625
Si Si8 0.784286 0.923871 0.348631
O O1 0.237151 0.883364 0.193510
O O2 0.631082 0.883397 0.700628
O O3 0.188195 0.945810 0.312812
O O4 0.500000 0.000000 0.500000
O O5 0.257654 0.750000 0.161164
O O6 0.443526 0.649710 0.237310
O O7 0.943454 0.665851 0.759254
O O8 0.727211 0.750000 0.808801
O O9 0.518687 0.821750 0.739445
O O10 0.011343 0.824769 0.200921
O O11 0.799500 0.250000 0.475701
O O12 0.787157 0.406481 0.485457
O O13 0.803362 0.972557 0.072370
O O14 0.215657 0.046641 0.450426
O O15 0.745062 0.581206 0.195115
O O16 0.938756 0.460628 0.354245
O O17 0.447155 0.476507 0.849645
O O18 0.756317 0.639538 0.394539
#
# Coordination Sequence:
#
# PCOD9165065 Si02
#       8
#     4   4   4   4   4   4   4   4
#     4  11  23  40  62  90 125 165 216 278 323 380
#     4  12  27  45  63  90 127 176 227 271 330 397
#     4   9  19  36  54  75 107 155 202 244 303 372
#     4   9  19  33  54  80 116 157 194 236 303 381
#     4  10  21  37  64  94 130 160 214 265 331 380
#     4   9  18  33  61  97 134 163 199 261 326 398
#     4  11  23  41  67  92 125 167 220 280 321 387
#     4   9  18  36  61  97 129 162 206 259 331 387
#
# _framework density 23.349584
#
# number of rings (size 3 to 8) (size 9 to 14) (size 15 to 20)
#    0.000    2.000    1.250    2.250    1.750    7.000 
#    0.000    3.750    0.000    1.500    0.000    3.500 
#    0.000    0.000    0.000    0.000    0.000    0.000 
#
# Total GULP energy -178488.920986 kJ/mol
# GULP energy per Si atom -5577.778781 kJ/mol
# Density = 2.329644 g / cm^3
# Si number density = 23.349584 Si / 1000 Ang^3
#
#
#
# Elastic Constant Matrix: (Units=GPa)
#
#
# Indices 1 2 3 4 5 6 
#
# 1 115.1890 10.2675 13.4114 0.0000 1.4795 0.0000
# 2 10.2675 125.3076 7.1285 0.0000 7.7534 0.0000
# 3 13.4114 7.1285 56.6811 0.0000 -3.3441 0.0000
# 4 0.0000 0.0000 0.0000 83.2415 0.0000 -0.2797
# 5 1.4795 7.7534 -3.3441 0.0000 27.5290 0.0000
# 6 0.0000 0.0000 0.0000 -0.2797 0.0000 5.9663
#
#
#
# Elastic Compliance Matrix: (Units=1/GPa)
#
#
# Indices 1 2 3 4 5 6 
#
# 1 0.008984 -0.000582 -0.002086 0.000000 -0.000572 0.000000
# 2 -0.000582 0.008237 -0.001041 0.000000 -0.002415 0.000000
# 3 -0.002086 -0.001041 0.018423 0.000000 0.002643 0.000000
# 4 0.000000 0.000000 0.000000 0.012015 0.000000 0.000563
# 5 -0.000572 -0.002415 0.002643 0.000000 0.037357 0.000000
# 6 0.000000 0.000000 0.000000 0.000563 0.000000 0.167635
#
#
# Mechanical properties :
#
#
# Convention : Reuss Voigt Hill
#
# Bulk Modulus (GPa) = 35.42892 39.86582 37.64737
# Shear Modulus (GPa) = 18.55449 41.10538 29.82993
#
# Velocity S-wave (km/s) = 2.82199 4.20030 3.57814
# Velocity P-wave (km/s) = 5.08177 6.37447 5.76447
#
# Compressibility (1/GPa) = 0.02822553
#
# Stress axis : x y z
#
# Youngs Moduli (GPa) = 111.31515 121.40824 54.27996
#
# Poissons Ratio (x) = 0.07066 0.11324
# Poissons Ratio (y) = 0.06479 0.05649
# Poissons Ratio (z) = 0.23222 0.12634
#
# Static dielectric constant tensor:
#      x y z
#    x 1.977540 0.000000 -0.049500 
#    y 0.000000 1.977100 0.000000 
#    z -0.049500 0.000000 1.906270 
# 
# From -- ./inp_files/52731.got.cif
#   From: 2010.05.17/outbox.cif.g08.bks.cpg/sg11_27_cif.got.tgz:52731.got - 2010.06.03 12:22:45.
