data_PCOD9165146
_publ_section_title
;
Structure prediction by ZEFSAII (Michael W. Deem and Ramdas Pophale) SiO2 
 PCOD9165146
Probable space group: P 21/M
;
_chemical_formula_sum "Si O2"
_cell_formula_units_Z 32
_cell_length_a 12.923529
_cell_length_b 7.578120
_cell_length_c 25.030064
_cell_angle_alpha 90.000000
_cell_angle_beta 145.735103
_cell_angle_gamma 90.000000
_cell_volume 1380.156217
_symmetry_space_group_name_H-M "P 21/M"
_symmetry_group_IT_number 11
_symmetry_cell_setting 'monoclinic'
loop_
_space_group_symop_operation_xyz
x,y,z
-x,1/2+y,-z
-x,-y,-z
x,1/2-y,z
loop_
_atom_site_type_symbol
_atom_site_label
_atom_site_fract_x
_atom_site_fract_y
_atom_site_fract_z
Si Si1 0.250280 0.032318 0.675038
Si Si2 0.081195 0.548335 0.393988
Si Si3 0.477976 0.545856 0.125107
Si Si4 0.314004 0.959308 0.887639
Si Si5 0.124378 0.532817 0.909940
Si Si6 0.723640 0.547464 0.743923
Si Si7 0.677543 0.548328 0.410077
Si Si8 0.300399 0.961949 0.389589
O O1 0.249294 0.250000 0.673343
O O2 0.436427 0.972947 0.784143
O O3 0.240250 0.973968 0.609659
O O4 0.081771 0.971247 0.639815
O O5 0.029152 0.750000 0.360246
O O6 0.255080 0.548349 0.508240
O O7 0.147765 0.469125 0.366535
O O8 0.435317 0.750000 0.116859
O O9 0.642908 0.538510 0.151609
O O10 0.295125 0.470725 0.019254
O O11 0.294992 0.750000 0.872317
O O12 0.159798 0.023110 0.863375
O O13 0.500000 0.000000 0.000000
O O14 0.128238 0.750000 0.910555
O O15 0.924851 0.476245 0.844440
O O16 0.712798 0.750000 0.756684
O O17 0.542229 0.454908 0.687761
O O18 0.715796 0.539790 0.676103
O O19 0.737229 0.750000 0.442042
O O20 0.283684 0.750000 0.377912
O O21 0.500000 0.000000 0.500000
#
# Coordination Sequence:
#
# PCOD9165146 Si02
#       8
#     4   4   4   4   4   4   4   4
#     4   9  20  37  59  84 110 144 186 230 277 330
#     4  10  21  38  59  83 112 145 181 222 278 341
#     4   9  17  34  56  78 108 144 181 224 273 322
#     4   9  16  29  48  74 105 139 176 216 265 320
#     4   8  17  32  52  77 107 146 184 218 266 326
#     4  11  22  37  56  79 113 152 189 227 272 328
#     4  11  22  38  58  81 109 144 189 234 277 328
#     4  11  22  36  57  85 116 145 180 224 277 333
#
# _framework density 23.185780999999999
#
# number of rings (size 3 to 8) (size 9 to 14) (size 15 to 20)
#    0.000    2.250    1.250    2.625    1.750    0.500 
#    0.000    8.750    0.000    0.000    0.000    0.000 
#    0.000    0.000    0.000    0.000    0.000    0.000 
#
# Total GULP energy -178719.159398 kJ/mol
# GULP energy per Si atom -5584.973731 kJ/mol
# Density = 2.313301 g / cm^3
# Si number density = 23.185781 Si / 1000 Ang^3
#
#
#
# Elastic Constant Matrix: (Units=GPa)
#
#
# Indices 1 2 3 4 5 6 
#
# 1 85.5347 -4.6180 11.6527 0.0000 8.9114 0.0000
# 2 -4.6180 63.0808 3.9728 0.0000 0.1730 0.0000
# 3 11.6527 3.9728 69.8580 0.0000 17.2016 0.0000
# 4 0.0000 0.0000 0.0000 7.9338 0.0000 6.0691
# 5 8.9114 0.1730 17.2016 0.0000 34.0961 0.0000
# 6 0.0000 0.0000 0.0000 6.0691 0.0000 11.6564
#
#
#
# Elastic Compliance Matrix: (Units=1/GPa)
#
#
# Indices 1 2 3 4 5 6 
#
# 1 0.012202 0.000994 -0.001491 0.000000 -0.002442 0.000000
# 2 0.000994 0.015996 -0.001132 0.000000 0.000230 0.000000
# 3 -0.001491 -0.001132 0.016592 0.000000 -0.007975 0.000000
# 4 0.000000 0.000000 0.000000 0.209472 0.000000 -0.109064
# 5 -0.002442 0.000230 -0.007975 0.000000 0.033990 0.000000
# 6 0.000000 0.000000 0.000000 -0.109064 0.000000 0.142576
#
#
# Mechanical properties :
#
#
# Convention : Reuss Voigt Hill
#
# Bulk Modulus (GPa) = 24.07765 26.72095 25.39930
# Shear Modulus (GPa) = 11.16248 24.56833 17.86541
#
# Velocity S-wave (km/s) = 2.19655 3.25873 2.77886
# Velocity P-wave (km/s) = 4.10369 5.07038 4.61243
#
# Compressibility (1/GPa) = 0.04153229
#
# Stress axis : x y z
#
# Youngs Moduli (GPa) = 81.95153 62.51516 60.27165
#
# Poissons Ratio (x) = -0.06213 0.08984
# Poissons Ratio (y) = -0.08145 0.06824
# Poissons Ratio (z) = 0.12215 0.07078
#
# Static dielectric constant tensor:
#      x y z
#    x 1.861370 0.000000 0.023620 
#    y 0.000000 1.864460 0.000000 
#    z 0.023620 0.000000 1.891270 
# 
# From -- ./inp_files/73315.got.cif
#   From: 2010.05.17/outbox.cif.g08.bks.cpg/sg11_37_cif.got.tgz:73315.got - 2010.06.03 12:22:45.
