data_PCOD9165845
_publ_section_title
;
Structure prediction by ZEFSAII (Michael W. Deem and Ramdas Pophale) SiO2 
 PCOD9165845
Probable space group: P 21/M
;
_chemical_formula_sum "Si O2"
_cell_formula_units_Z 28
_cell_length_a 13.441560
_cell_length_b 12.522741
_cell_length_c 7.851892
_cell_angle_alpha 90.000000
_cell_angle_beta 71.975975
_cell_angle_gamma 90.000000
_cell_volume 1256.812537
_symmetry_space_group_name_H-M "P 21/M"
_symmetry_group_IT_number 11
_symmetry_cell_setting 'monoclinic'
loop_
_space_group_symop_operation_xyz
x,y,z
-x,1/2+y,-z
-x,-y,-z
x,1/2-y,z
loop_
_atom_site_type_symbol
_atom_site_label
_atom_site_fract_x
_atom_site_fract_y
_atom_site_fract_z
Si Si1 0.160607 0.508009 0.984484
Si Si2 0.530322 0.440630 0.155050
Si Si3 0.042718 0.566679 0.745333
Si Si4 0.653654 0.622511 0.255756
Si Si5 0.285800 0.629809 0.168280
Si Si6 0.917848 0.861862 0.502911
Si Si7 0.309451 0.422081 0.373331
O O1 0.139150 0.577440 0.824805
O O2 0.255745 0.425074 0.913328
O O3 0.182362 0.586151 0.130703
O O4 0.058502 0.440135 0.081219
O O5 0.561158 0.536189 0.268817
O O6 0.424744 0.379632 0.261942
O O7 0.500000 0.500000 0.000000
O O8 0.630135 0.375255 0.033558
O O9 0.064538 0.455591 0.638412
O O10 0.004425 0.635835 0.605848
O O11 0.632090 0.750000 0.242128
O O12 0.693650 0.601095 0.424947
O O13 0.278928 0.750000 0.235194
O O14 0.310087 0.544745 0.305146
O O15 0.922150 0.750000 0.407564
O O16 0.799708 0.875639 0.639538
#
# Coordination Sequence:
#
# PCOD9165845 Si02
#       7
#     4   4   4   4   4   4   4
#     4  10  21  41  61  89 128 163 210 266 310 373
#     4   9  22  42  64  92 130 162 204 263 311 375
#     4  10  22  41  61  87 130 162 208 269 312 369
#     4  11  23  41  69  99 128 166 209 258 321 380
#     4  10  22  41  63  89 124 173 211 254 323 379
#     4  11  23  40  65  95 125 168 215 260 323 377
#     4  11  21  42  64  96 131 162 210 268 308 377
#
# _framework density 22.278580999999999
#
# number of rings (size 3 to 8) (size 9 to 14) (size 15 to 20)
#    0.000    1.714    2.857    0.857    0.000    5.143 
#    0.000    7.857    0.000    0.000    0.000    0.000 
#    0.000    0.000    0.000    0.000    0.000    0.000 
#
# Total GULP energy -155928.295403 kJ/mol
# GULP energy per Si atom -5568.867693 kJ/mol
# Density = 2.222787 g / cm^3
# Si number density = 22.278581 Si / 1000 Ang^3
#
#
#
# Elastic Constant Matrix: (Units=GPa)
#
#
# Indices 1 2 3 4 5 6 
#
# 1 62.6803 18.2906 -6.3135 0.0000 11.5581 0.0000
# 2 18.2906 125.2598 9.2494 0.0000 3.5994 0.0000
# 3 -6.3135 9.2494 38.4986 0.0000 4.6175 0.0000
# 4 0.0000 0.0000 0.0000 -3.0299 0.0000 11.2077
# 5 11.5581 3.5994 4.6175 0.0000 42.3071 0.0000
# 6 0.0000 0.0000 0.0000 11.2077 0.0000 -3.8367
#
#
#
# Elastic Compliance Matrix: (Units=1/GPa)
#
#
# Indices 1 2 3 4 5 6 
#
# 1 0.018165 -0.002819 0.004279 0.000000 -0.005190 0.000000
# 2 -0.002819 0.008575 -0.002561 0.000000 0.000320 0.000000
# 3 0.004279 -0.002561 0.027769 0.000000 -0.003982 0.000000
# 4 0.000000 0.000000 0.000000 0.033659 0.000000 0.098324
# 5 -0.005190 0.000320 -0.003982 0.000000 0.025462 0.000000
# 6 0.000000 0.000000 0.000000 0.098324 0.000000 0.026581
#
#
# Mechanical properties :
#
#
# Convention : Reuss Voigt Hill
#
# Bulk Modulus (GPa) = 19.11823 29.87683 24.49753
# Shear Modulus (GPa) = 31.27951 20.76893 26.02422
#
# Velocity S-wave (km/s) = 3.75109 3.05657 3.42150
# Velocity P-wave (km/s) = 5.23077 5.08886 5.16030
#
# Compressibility (1/GPa) = 0.05230611
#
# Stress axis : x y z
#
# Youngs Moduli (GPa) = 55.05216 116.61841 36.01076
#
# Poissons Ratio (x) = 0.32877 -0.15408
# Poissons Ratio (y) = 0.15520 0.09222
# Poissons Ratio (z) = -0.23555 0.29865
#
# Static dielectric constant tensor:
#      x y z
#    x 1.793020 0.000000 -0.047800 
#    y 0.000000 1.826530 0.000000 
#    z -0.047800 0.000000 1.863300 
# 
# From -- ./inp_files/21147.got.cif
#   From: 2010.05.17/outbox.cif.g08.bks.cpg/sg11_11_cif.got.tgz:21147.got - 2010.06.03 12:22:45.
