data_PCOD9165652
_publ_section_title
;
Structure prediction by ZEFSAII (Michael W. Deem and Ramdas Pophale) SiO2 
 PCOD9165652
Probable space group: P 21/M
;
_chemical_formula_sum "Si O2"
_cell_formula_units_Z 30
_cell_length_a 9.451584
_cell_length_b 14.327290
_cell_length_c 11.094259
_cell_angle_alpha 90.000000
_cell_angle_beta 113.676427
_cell_angle_gamma 90.000000
_cell_volume 1375.880813
_symmetry_space_group_name_H-M "P 21/M"
_symmetry_group_IT_number 11
_symmetry_cell_setting 'monoclinic'
loop_
_space_group_symop_operation_xyz
x,y,z
-x,1/2+y,-z
-x,-y,-z
x,1/2-y,z
loop_
_atom_site_type_symbol
_atom_site_label
_atom_site_fract_x
_atom_site_fract_y
_atom_site_fract_z
Si Si1 0.463076 0.062772 0.102699
Si Si2 0.735546 0.647403 0.385420
Si Si3 0.013822 0.971155 0.864788
Si Si4 0.198713 0.352826 0.864799
Si Si5 0.000000 0.000000 0.500000
Si Si6 0.452292 0.644557 0.466999
Si Si7 0.328612 0.023262 0.299543
Si Si8 0.197810 0.860574 0.745817
O O1 0.391459 0.003581 0.187511
O O2 0.620397 0.113550 0.194623
O O3 0.324154 0.129677 0.011296
O O4 0.500000 0.000000 0.000000
O O5 0.805470 0.750000 0.433588
O O6 0.717584 0.640248 0.235479
O O7 0.848427 0.566349 0.463802
O O8 0.574717 0.645046 0.399225
O O9 0.844510 0.940393 0.766642
O O10 0.133450 0.895117 0.855243
O O11 0.070042 0.067164 0.821501
O O12 0.000000 0.000000 0.000000
O O13 0.129953 0.250000 0.852929
O O14 0.893930 0.077567 0.383695
O O15 0.399448 0.750000 0.473185
O O16 0.552773 0.598973 0.607416
O O17 0.327907 0.568524 0.383174
O O18 0.177029 0.750000 0.722938
#
# Coordination Sequence:
#
# PCOD9165652 Si02
#       8
#     4   4   4   4   2   4   4   4
#     4  12  22  46  72  98 135 178 228 285 336 402
#     4  10  21  39  66  95 126 176 228 276 341 407
#     4  12  24  46  66  99 140 178 223 283 350 409
#     4  11  23  41  68  98 131 174 225 282 342 404
#     4  12  20  40  64  94 140 170 216 286 334 396
#     4  10  23  43  65  95 132 174 224 278 336 405
#     4  11  24  41  70  97 133 178 221 275 343 402
#     4  12  27  44  71 105 137 184 236 282 342 414
#
# _framework density 21.804214999999999
#
# number of rings (size 3 to 8) (size 9 to 14) (size 15 to 20)
#    0.000    0.800    4.000    3.200    0.000    4.800 
#    0.000    3.333    0.000    0.000    0.000    0.000 
#    0.000    0.000    0.000    0.000    0.000    0.000 
#
# Total GULP energy -167138.323776 kJ/mol
# GULP energy per Si atom -5571.277459 kJ/mol
# Density = 2.175459 g / cm^3
# Si number density = 21.804215 Si / 1000 Ang^3
#
#
#
# Elastic Constant Matrix: (Units=GPa)
#
#
# Indices 1 2 3 4 5 6 
#
# 1 63.1393 12.3692 17.9063 0.0000 3.7602 0.0000
# 2 12.3692 111.4058 11.5870 0.0000 -10.6401 0.0000
# 3 17.9063 11.5870 59.0742 0.0000 -8.3504 0.0000
# 4 0.0000 0.0000 0.0000 19.6742 0.0000 -0.7400
# 5 3.7602 -10.6401 -8.3504 0.0000 28.0528 0.0000
# 6 0.0000 0.0000 0.0000 -0.7400 0.0000 21.0439
#
#
#
# Elastic Compliance Matrix: (Units=1/GPa)
#
#
# Indices 1 2 3 4 5 6 
#
# 1 0.018147 -0.001875 -0.005822 0.000000 -0.004877 0.000000
# 2 -0.001875 0.009617 -0.000801 0.000000 0.003661 0.000000
# 3 -0.005822 -0.000801 0.019748 0.000000 0.006355 0.000000
# 4 0.000000 0.000000 0.000000 0.050895 0.000000 0.001790
# 5 -0.004877 0.003661 0.006355 0.000000 0.039581 0.000000
# 6 0.000000 0.000000 0.000000 0.001790 0.000000 0.047583
#
#
# Mechanical properties :
#
#
# Convention : Reuss Voigt Hill
#
# Bulk Modulus (GPa) = 32.76900 35.26050 34.01475
# Shear Modulus (GPa) = 23.50300 26.53797 25.02049
#
# Velocity S-wave (km/s) = 3.28672 3.49248 3.39116
# Velocity P-wave (km/s) = 5.42814 5.69823 5.56482
#
# Compressibility (1/GPa) = 0.03051665
#
# Stress axis : x y z
#
# Youngs Moduli (GPa) = 55.10581 103.97966 50.63808
#
# Poissons Ratio (x) = 0.19497 0.29482
# Poissons Ratio (y) = 0.10333 0.04054
# Poissons Ratio (z) = 0.32084 0.08324
#
# Static dielectric constant tensor:
#      x y z
#    x 1.773360 0.000000 -0.032280 
#    y 0.000000 1.810540 0.000000 
#    z -0.032280 0.000000 1.870220 
# 
# From -- ./inp_files/31942.got.cif
#   From: 2010.05.17/outbox.cif.g08.bks.cpg/sg11_16_cif.got.tgz:31942.got - 2010.06.03 12:22:45.
