data_PCOD9165830
_publ_section_title
;
Structure prediction by ZEFSAII (Michael W. Deem and Ramdas Pophale) SiO2 
 PCOD9165830
Probable space group: P 21/M
;
_chemical_formula_sum "Si O2"
_cell_formula_units_Z 20
_cell_length_a 12.743579
_cell_length_b 13.804813
_cell_length_c 7.192445
_cell_angle_alpha 90.000000
_cell_angle_beta 128.776485
_cell_angle_gamma 90.000000
_cell_volume 986.432960
_symmetry_space_group_name_H-M "P 21/M"
_symmetry_group_IT_number 11
_symmetry_cell_setting 'monoclinic'
loop_
_space_group_symop_operation_xyz
x,y,z
-x,1/2+y,-z
-x,-y,-z
x,1/2-y,z
loop_
_atom_site_type_symbol
_atom_site_label
_atom_site_fract_x
_atom_site_fract_y
_atom_site_fract_z
Si Si1 0.439601 0.137657 0.531489
Si Si2 0.654312 0.047930 0.043345
Si Si3 0.056827 0.976352 0.765986
Si Si4 0.125585 0.133789 0.146761
Si Si5 0.513567 0.639033 0.848747
O O1 0.445950 0.250000 0.595733
O O2 0.283069 0.108993 0.353758
O O3 0.493486 0.131212 0.380844
O O4 0.465478 0.921783 0.228101
O O5 0.631854 0.933126 0.046403
O O6 0.620726 0.103528 0.195970
O O7 0.795962 0.068189 0.107957
O O8 0.076423 0.073025 0.912795
O O9 0.000000 0.000000 0.500000
O O10 0.961743 0.904853 0.777343
O O11 0.115389 0.250000 0.111095
O O12 0.542633 0.750000 0.927474
#
# Coordination Sequence:
#
# PCOD9165830 Si02
#       5
#     4   4   4   4   4
#     4  10  21  40  68  94 121 162 214 268 319 374
#     4  11  23  39  65  92 129 163 212 265 316 377
#     4  11  26  43  65  95 135 175 213 262 325 387
#     4  10  24  45  68  93 126 172 221 266 321 389
#     4  10  22  37  61  95 125 162 207 259 320 373
#
# _framework density 20.275072999999999
#
# number of rings (size 3 to 8) (size 9 to 14) (size 15 to 20)
#    0.000    1.600    2.000    1.200    5.600    4.000 
#    0.000    2.000    0.000    0.000    0.000    0.000 
#    0.000    0.000    0.000    0.000    0.000    0.000 
#
# Total GULP energy -111776.049978 kJ/mol
# GULP energy per Si atom -5588.802499 kJ/mol
# Density = 2.022893 g / cm^3
# Si number density = 20.275073 Si / 1000 Ang^3
#
#
#
# Elastic Constant Matrix: (Units=GPa)
#
#
# Indices 1 2 3 4 5 6 
#
# 1 183.4346 55.3919 67.6943 0.0000 -16.3061 0.0000
# 2 55.3919 94.4149 44.5005 0.0000 8.2481 0.0000
# 3 67.6943 44.5005 104.6254 0.0000 -3.1242 0.0000
# 4 0.0000 0.0000 0.0000 16.3983 0.0000 -1.2751
# 5 -16.3061 8.2481 -3.1242 0.0000 20.9512 0.0000
# 6 0.0000 0.0000 0.0000 -1.2751 0.0000 29.4118
#
#
#
# Elastic Compliance Matrix: (Units=1/GPa)
#
#
# Indices 1 2 3 4 5 6 
#
# 1 0.008742 -0.004078 -0.003687 0.000000 0.007859 0.000000
# 2 -0.004078 0.015969 -0.004456 0.000000 -0.010125 0.000000
# 3 -0.003687 -0.004456 0.013867 0.000000 0.000952 0.000000
# 4 0.000000 0.000000 0.000000 0.061188 0.000000 0.002653
# 5 0.007859 -0.010125 0.000952 0.000000 0.057975 0.000000
# 6 0.000000 0.000000 0.000000 0.002653 0.000000 0.034115
#
#
# Mechanical properties :
#
#
# Convention : Reuss Voigt Hill
#
# Bulk Modulus (GPa) = 70.73981 79.73869 75.23925
# Shear Modulus (GPa) = 22.62340 27.67815 25.15077
#
# Velocity S-wave (km/s) = 3.34402 3.69878 3.52586
# Velocity P-wave (km/s) = 7.06227 7.59309 7.33249
#
# Compressibility (1/GPa) = 0.01413631
#
# Stress axis : x y z
#
# Youngs Moduli (GPa) = 114.38665 62.62315 72.11165
#
# Poissons Ratio (x) = 0.25535 0.26590
# Poissons Ratio (y) = 0.46642 0.32133
# Poissons Ratio (z) = 0.42178 0.27905
#
# Static dielectric constant tensor:
#      x y z
#    x 1.728930 0.000000 -0.015780 
#    y 0.000000 1.750570 0.000000 
#    z -0.015780 0.000000 1.707780 
# 
# From -- ./inp_files/17277.got.cif
#   From: 2010.05.17/outbox.cif.g08.bks.cpg/sg11_9_cif.got.tgz:17277.got - 2010.06.03 12:22:45.
