data_PCOD9165702
_publ_section_title
;
Structure prediction by ZEFSAII (Michael W. Deem and Ramdas Pophale) SiO2 
 PCOD9165702
Probable space group: P 21/M
;
_chemical_formula_sum "Si O2"
_cell_formula_units_Z 28
_cell_length_a 22.202271
_cell_length_b 8.917794
_cell_length_c 9.838973
_cell_angle_alpha 90.000000
_cell_angle_beta 133.473373
_cell_angle_gamma 90.000000
_cell_volume 1413.703231
_symmetry_space_group_name_H-M "P 21/M"
_symmetry_group_IT_number 11
_symmetry_cell_setting 'monoclinic'
loop_
_space_group_symop_operation_xyz
x,y,z
-x,1/2+y,-z
-x,-y,-z
x,1/2-y,z
loop_
_atom_site_type_symbol
_atom_site_label
_atom_site_fract_x
_atom_site_fract_y
_atom_site_fract_z
Si Si1 0.289947 0.072347 0.705125
Si Si2 0.154622 0.070395 0.887783
Si Si3 0.439044 0.429238 0.144197
Si Si4 0.627499 0.427811 0.415161
Si Si5 0.333126 0.926714 0.207024
Si Si6 0.122670 0.929237 0.558045
Si Si7 0.983232 0.569791 0.120415
O O1 0.273373 0.250000 0.685912
O O2 0.312576 0.019895 0.589365
O O3 0.211673 0.983588 0.641473
O O4 0.370718 0.039976 0.922938
O O5 0.155597 0.250000 0.880455
O O6 0.103625 0.025943 0.943450
O O7 0.110576 0.005626 0.685366
O O8 0.247877 0.009113 0.036514
O O9 0.441062 0.250000 0.171281
O O10 0.531631 0.474719 0.246227
O O11 0.407033 0.509389 0.229926
O O12 0.634908 0.250000 0.395158
O O13 0.648570 0.448832 0.605794
O O14 0.323757 0.750000 0.166416
O O15 0.121237 0.750000 0.571930
O O16 0.054244 0.971564 0.339679
O O17 0.983975 0.750000 0.108036
O O18 0.000000 0.500000 0.000000
#
# Coordination Sequence:
#
# PCOD9165702 Si02
#       7
#     4   4   4   4   4   4   4
#     4  11  23  38  61  92 123 163 209 253 308 365
#     4  11  23  42  65  92 124 161 206 252 303 365
#     4  10  21  40  62  87 122 162 208 259 307 364
#     4  10  23  40  59  87 125 165 208 258 309 363
#     4  11  23  38  61  91 122 163 209 254 308 364
#     4  11  23  42  66  93 124 162 206 251 302 363
#     4  10  25  44  66  96 128 161 200 248 303 363
#
# _framework density 19.806138000000001
#
# number of rings (size 3 to 8) (size 9 to 14) (size 15 to 20)
#    0.000    1.429    1.429    3.000    2.000    4.571 
#    0.000    0.000    0.000    0.000    0.000    0.000 
#    0.000    0.000    0.000    0.000    0.000    0.000 
#
# Total GULP energy -156595.153125 kJ/mol
# GULP energy per Si atom -5592.684040 kJ/mol
# Density = 1.976106 g / cm^3
# Si number density = 19.806138 Si / 1000 Ang^3
#
#
#
# Elastic Constant Matrix: (Units=GPa)
#
#
# Indices 1 2 3 4 5 6 
#
# 1 91.1212 10.1833 1.3646 0.0000 -15.0285 0.0000
# 2 10.1833 19.9284 8.6408 0.0000 -6.9868 0.0000
# 3 1.3646 8.6408 24.9165 0.0000 2.4896 0.0000
# 4 0.0000 0.0000 0.0000 29.2052 0.0000 -6.5961
# 5 -15.0285 -6.9868 2.4896 0.0000 31.0084 0.0000
# 6 0.0000 0.0000 0.0000 -6.5961 0.0000 29.5263
#
#
#
# Elastic Compliance Matrix: (Units=1/GPa)
#
#
# Indices 1 2 3 4 5 6 
#
# 1 0.012302 -0.004813 0.000512 0.000000 0.004837 0.000000
# 2 -0.004813 0.068869 -0.025139 0.000000 0.015204 0.000000
# 3 0.000512 -0.025139 0.049764 0.000000 -0.009412 0.000000
# 4 0.000000 0.000000 0.000000 0.036060 0.000000 0.008056
# 5 0.004837 0.015204 -0.009412 0.000000 0.038775 0.000000
# 6 0.000000 0.000000 0.000000 0.008056 0.000000 0.035668
#
#
# Mechanical properties :
#
#
# Convention : Reuss Voigt Hill
#
# Bulk Modulus (GPa) = 13.87790 19.59371 16.73580
# Shear Modulus (GPa) = 15.41613 25.66647 20.54130
#
# Velocity S-wave (km/s) = 2.79292 3.60375 3.22393
# Velocity P-wave (km/s) = 4.17404 5.21826 4.72508
#
# Compressibility (1/GPa) = 0.07205702
#
# Stress axis : x y z
#
# Youngs Moduli (GPa) = 81.28547 14.52033 20.09476
#
# Poissons Ratio (x) = 0.06988 -0.01029
# Poissons Ratio (y) = 0.39119 0.50515
# Poissons Ratio (z) = -0.04161 0.36502
#
# Static dielectric constant tensor:
#      x y z
#    x 1.673720 0.000000 0.005480 
#    y 0.000000 1.655300 0.000000 
#    z 0.005480 0.000000 1.692100 
# 
# From -- ./inp_files/26170.got.cif
#   From: 2010.05.17/outbox.cif.g08.bks.cpg/sg11_14_cif.got.tgz:26170.got - 2010.06.03 12:22:45.
