data_PCOD9165074
_publ_section_title
;
Structure prediction by ZEFSAII (Michael W. Deem and Ramdas Pophale) SiO2 
 PCOD9165074
Probable space group: P 21/M
;
_chemical_formula_sum "Si O2"
_cell_formula_units_Z 28
_cell_length_a 16.777546
_cell_length_b 14.562153
_cell_length_c 6.526500
_cell_angle_alpha 90.000000
_cell_angle_beta 122.964161
_cell_angle_gamma 90.000000
_cell_volume 1337.833500
_symmetry_space_group_name_H-M "P 21/M"
_symmetry_group_IT_number 11
_symmetry_cell_setting 'monoclinic'
loop_
_space_group_symop_operation_xyz
x,y,z
-x,1/2+y,-z
-x,-y,-z
x,1/2-y,z
loop_
_atom_site_type_symbol
_atom_site_label
_atom_site_fract_x
_atom_site_fract_y
_atom_site_fract_z
Si Si1 0.737430 0.146213 0.915905
Si Si2 0.216574 0.471035 0.259952
Si Si3 0.781126 0.646939 0.137115
Si Si4 0.540052 0.442023 0.750167
Si Si5 0.935246 0.953203 0.637646
Si Si6 0.081379 0.643216 0.587842
Si Si7 0.625057 0.583034 0.200246
O O1 0.744875 0.250000 0.852705
O O2 0.628883 0.119544 0.807935
O O3 0.778257 0.073609 0.814070
O O4 0.805904 0.137756 0.210068
O O5 0.115633 0.444568 0.216108
O O6 0.296641 0.463233 0.544558
O O7 0.239910 0.404079 0.104273
O O8 0.816131 0.750000 0.152064
O O9 0.859313 0.586824 0.366078
O O10 0.687582 0.650125 0.148340
O O11 0.500000 0.500000 0.500000
O O12 0.457578 0.387690 0.757637
O O13 0.580715 0.513547 0.973571
O O14 0.026935 0.891847 0.717596
O O15 0.947376 0.061714 0.607726
O O16 0.058381 0.750000 0.509894
#
# Coordination Sequence:
#
# PCOD9165074 Si02
#       7
#     4   4   4   4   4   4   4
#     4  11  22  39  63  92 128 169 211 258 317 381
#     4  11  21  41  64  92 128 166 209 266 323 376
#     4  11  22  39  62  93 126 163 214 264 321 378
#     4  11  20  40  67  90 123 169 211 266 320 385
#     4  10  22  40  67  92 128 170 212 262 317 372
#     4  10  21  41  65  94 131 168 213 263 315 383
#     4  10  21  37  67  88 122 167 209 263 329 376
#
# _framework density 20.929362999999999
#
# number of rings (size 3 to 8) (size 9 to 14) (size 15 to 20)
#    0.000    1.429    4.286    1.286    0.000    4.571 
#    0.000    2.857    0.000    0.000    0.000    0.000 
#    0.000    0.000    0.000    0.000    0.000    0.000 
#
# Total GULP energy -156250.132123 kJ/mol
# GULP energy per Si atom -5580.361862 kJ/mol
# Density = 2.088173 g / cm^3
# Si number density = 20.929363 Si / 1000 Ang^3
#
#
#
# Elastic Constant Matrix: (Units=GPa)
#
#
# Indices 1 2 3 4 5 6 
#
# 1 113.6292 14.1506 28.2815 0.0000 2.5461 0.0000
# 2 14.1506 132.5807 42.3979 0.0000 0.1366 0.0000
# 3 28.2815 42.3979 93.7180 0.0000 -6.3647 0.0000
# 4 0.0000 0.0000 0.0000 6.0224 0.0000 8.3876
# 5 2.5461 0.1366 -6.3647 0.0000 30.4643 0.0000
# 6 0.0000 0.0000 0.0000 8.3876 0.0000 15.3967
#
#
#
# Elastic Compliance Matrix: (Units=1/GPa)
#
#
# Indices 1 2 3 4 5 6 
#
# 1 0.009576 -0.000077 -0.002951 0.000000 -0.001417 0.000000
# 2 -0.000077 0.008843 -0.004037 0.000000 -0.000877 0.000000
# 3 -0.002951 -0.004037 0.013598 0.000000 0.003106 0.000000
# 4 0.000000 0.000000 0.000000 0.688180 0.000000 -0.374897
# 5 -0.001417 -0.000877 0.003106 0.000000 0.033596 0.000000
# 6 0.000000 0.000000 0.000000 -0.374897 0.000000 0.269179
#
#
# Mechanical properties :
#
#
# Convention : Reuss Voigt Hill
#
# Bulk Modulus (GPa) = 55.90566 56.62086 56.26326
# Shear Modulus (GPa) = 4.79356 27.38321 16.08838
#
# Velocity S-wave (km/s) = 1.51503 3.62105 2.77555
# Velocity P-wave (km/s) = 5.46169 6.67793 6.10020
#
# Compressibility (1/GPa) = 0.01788728
#
# Stress axis : x y z
#
# Youngs Moduli (GPa) = 104.42298 113.08909 73.53984
#
# Poissons Ratio (x) = 0.00869 0.21704
# Poissons Ratio (y) = 0.00802 0.29686
# Poissons Ratio (z) = 0.30819 0.45651
#
# Static dielectric constant tensor:
#      x y z
#    x 1.823930 0.000000 0.015460 
#    y 0.000000 1.718050 0.000000 
#    z 0.015460 0.000000 1.753580 
# 
# From -- ./inp_files/8150.got.cif
#   From: 2010.05.17/outbox.cif.g08.bks.cpg/sg11_5_cif.got.tgz:8150.got - 2010.06.03 12:22:45.
