data_PCOD9165613
_publ_section_title
;
Structure prediction by ZEFSAII (Michael W. Deem and Ramdas Pophale) SiO2 
 PCOD9165613
Probable space group: P 21/M
;
_chemical_formula_sum "Si O2"
_cell_formula_units_Z 32
_cell_length_a 30.960385
_cell_length_b 8.701378
_cell_length_c 13.195883
_cell_angle_alpha 90.000000
_cell_angle_beta 27.673844
_cell_angle_gamma 90.000000
_cell_volume 1651.050704
_symmetry_space_group_name_H-M "P 21/M"
_symmetry_group_IT_number 11
_symmetry_cell_setting 'monoclinic'
loop_
_space_group_symop_operation_xyz
x,y,z
-x,1/2+y,-z
-x,-y,-z
x,1/2-y,z
loop_
_atom_site_type_symbol
_atom_site_label
_atom_site_fract_x
_atom_site_fract_y
_atom_site_fract_z
Si Si1 0.230087 0.566197 0.916500
Si Si2 0.890588 0.935470 0.426212
Si Si3 0.235939 0.933249 0.133233
Si Si4 0.556725 0.933748 0.286102
Si Si5 0.409862 0.432546 0.445707
Si Si6 0.106219 0.935243 0.980735
Si Si7 0.402203 0.933138 0.239609
Si Si8 0.213993 0.434064 0.562954
O O1 0.249026 0.750000 0.869718
O O2 0.324943 0.476892 0.695666
O O3 0.155972 0.526379 0.983659
O O4 0.200139 0.533831 0.093569
O O5 0.887454 0.750000 0.439891
O O6 0.843106 0.979570 0.418442
O O7 0.832900 0.004430 0.638669
O O8 0.998500 0.982329 0.204134
O O9 0.245963 0.750000 0.122392
O O10 0.337656 0.008432 0.931989
O O11 0.553497 0.750000 0.295869
O O12 0.500000 0.000000 0.500000
O O13 0.502989 0.995838 0.299092
O O14 0.418602 0.250000 0.418276
O O15 0.387026 0.506774 0.385137
O O16 0.110798 0.750000 0.959462
O O17 0.160711 0.009694 0.774034
O O18 0.404126 0.750000 0.234176
O O19 0.316498 0.993846 0.351310
O O20 0.500000 0.000000 0.000000
O O21 0.221898 0.250000 0.548889
#
# Coordination Sequence:
#
# PCOD9165613 Si02
#       8
#     4   4   4   4   4   4   4   4
#     4  10  21  39  64  93 128 167 213 267 317 373
#     4  10  24  43  63  91 130 170 212 267 327 383
#     4  11  24  41  62  92 130 169 216 268 320 382
#     4  12  24  40  63  91 126 167 211 259 309 373
#     4  12  24  40  64  94 126 166 213 259 316 386
#     4  10  21  41  68  94 123 166 214 265 327 386
#     4  12  26  44  65  93 130 169 210 262 319 381
#     4  11  23  41  65  95 129 165 214 268 318 384
#
# _framework density 19.381598
#
# number of rings (size 3 to 8) (size 9 to 14) (size 15 to 20)
#    0.000    1.000    2.500    4.500    1.750    2.500 
#    0.000    0.000    0.000    0.000    0.000    0.000 
#    0.000    0.000    0.000    0.000    0.000    0.000 
#
# Total GULP energy -179026.541588 kJ/mol
# GULP energy per Si atom -5594.579425 kJ/mol
# Density = 1.933748 g / cm^3
# Si number density = 19.381598 Si / 1000 Ang^3
#
#
#
# Elastic Constant Matrix: (Units=GPa)
#
#
# Indices 1 2 3 4 5 6 
#
# 1 148.1078 63.1664 67.3768 0.0000 -8.1398 0.0000
# 2 63.1664 85.2825 51.4187 0.0000 -7.2374 0.0000
# 3 67.3768 51.4187 128.2613 0.0000 -17.5885 0.0000
# 4 0.0000 0.0000 0.0000 38.0583 0.0000 2.6618
# 5 -8.1398 -7.2374 -17.5885 0.0000 27.1402 0.0000
# 6 0.0000 0.0000 0.0000 2.6618 0.0000 26.5356
#
#
#
# Elastic Compliance Matrix: (Units=1/GPa)
#
#
# Indices 1 2 3 4 5 6 
#
# 1 0.010818 -0.006050 -0.003330 0.000000 -0.000527 0.000000
# 2 -0.006050 0.018847 -0.004321 0.000000 0.000411 0.000000
# 3 -0.003330 -0.004321 0.012054 0.000000 0.005661 0.000000
# 4 0.000000 0.000000 0.000000 0.026461 0.000000 -0.002654
# 5 -0.000527 0.000411 0.005661 0.000000 0.040466 0.000000
# 6 0.000000 0.000000 0.000000 -0.002654 0.000000 0.037952
#
#
# Mechanical properties :
#
#
# Convention : Reuss Voigt Hill
#
# Bulk Modulus (GPa) = 69.84271 80.61949 75.23110
# Shear Modulus (GPa) = 27.96879 30.32612 29.14746
#
# Velocity S-wave (km/s) = 3.80288 3.95990 3.88219
# Velocity P-wave (km/s) = 7.44287 7.91164 7.68083
#
# Compressibility (1/GPa) = 0.01431789
#
# Stress axis : x y z
#
# Youngs Moduli (GPa) = 92.44139 53.05974 82.95802
#
# Poissons Ratio (x) = 0.32099 0.27622
# Poissons Ratio (y) = 0.55923 0.35848
# Poissons Ratio (z) = 0.30780 0.22928
#
# Static dielectric constant tensor:
#      x y z
#    x 1.671410 0.000000 -0.003340 
#    y 0.000000 1.648920 0.000000 
#    z -0.003340 0.000000 1.640230 
# 
# From -- ./inp_files/45152.got.cif
#   From: 2010.05.17/outbox.cif.g08.bks.cpg/sg11_23_cif.got.tgz:45152.got - 2010.06.03 12:22:45.
