data_PCOD9165438
_publ_section_title
;
Structure prediction by ZEFSAII (Michael W. Deem and Ramdas Pophale) SiO2 
 PCOD9165438
Probable space group: P 21/M
;
_chemical_formula_sum "Si O2"
_cell_formula_units_Z 20
_cell_length_a 6.547191
_cell_length_b 14.591673
_cell_length_c 11.567418
_cell_angle_alpha 90.000000
_cell_angle_beta 82.715876
_cell_angle_gamma 90.000000
_cell_volume 1096.168668
_symmetry_space_group_name_H-M "P 21/M"
_symmetry_group_IT_number 11
_symmetry_cell_setting 'monoclinic'
loop_
_space_group_symop_operation_xyz
x,y,z
-x,1/2+y,-z
-x,-y,-z
x,1/2-y,z
loop_
_atom_site_type_symbol
_atom_site_label
_atom_site_fract_x
_atom_site_fract_y
_atom_site_fract_z
Si Si1 0.274802 0.644340 0.278080
Si Si2 0.018763 0.996936 0.135754
Si Si3 0.110117 0.592234 0.529735
Si Si4 0.227192 0.146062 0.261571
Si Si5 0.404979 0.986153 0.694613
O O1 0.316439 0.750000 0.240403
O O2 0.153200 0.645436 0.408794
O O3 0.472904 0.582271 0.299562
O O4 0.144938 0.586326 0.190670
O O5 0.793594 0.003411 0.209270
O O6 0.136593 0.089439 0.162150
O O7 0.000000 0.000000 0.000000
O O8 0.310678 0.553833 0.582168
O O9 0.000000 0.500000 0.500000
O O10 0.952303 0.641081 0.628159
O O11 0.276769 0.250000 0.231955
O O12 0.428045 0.090247 0.284195
#
# Coordination Sequence:
#
# PCOD9165438 Si02
#       5
#     4   4   4   4   4
#     4  11  23  37  59  91 119 151 195 237 285 345
#     4  10  23  43  61  79 116 157 194 244 293 335
#     4  11  19  39  59  85 124 154 182 229 290 349
#     4  10  22  37  60  90 117 151 194 234 284 346
#     4  10  21  39  60  83 119 152 194 233 291 342
#
# _framework density 18.245367000000002
#
# number of rings (size 3 to 8) (size 9 to 14) (size 15 to 20)
#    0.000    1.600    6.000    1.200    0.000    8.800 
#    0.000    2.000    0.000    0.000    0.000    0.000 
#    0.000    0.000    0.000    0.000    0.000    0.000 
#
# Total GULP energy -111393.104818 kJ/mol
# GULP energy per Si atom -5569.655241 kJ/mol
# Density = 1.820384 g / cm^3
# Si number density = 18.245367 Si / 1000 Ang^3
#
#
#
# Elastic Constant Matrix: (Units=GPa)
#
#
# Indices 1 2 3 4 5 6 
#
# 1 104.9016 50.0515 29.5198 0.0000 22.6022 0.0000
# 2 50.0515 169.7949 32.7173 0.0000 16.1317 0.0000
# 3 29.5198 32.7173 110.2965 0.0000 28.2772 0.0000
# 4 0.0000 0.0000 0.0000 10.9859 0.0000 -6.9976
# 5 22.6022 16.1317 28.2772 0.0000 17.3859 0.0000
# 6 0.0000 0.0000 0.0000 -6.9976 0.0000 1.9035
#
#
#
# Elastic Compliance Matrix: (Units=1/GPa)
#
#
# Indices 1 2 3 4 5 6 
#
# 1 0.014506 -0.002805 0.001916 0.000000 -0.019372 0.000000
# 2 -0.002805 0.007028 -0.001024 0.000000 -0.001210 0.000000
# 3 0.001916 -0.001024 0.015870 0.000000 -0.027352 0.000000
# 4 0.000000 0.000000 0.000000 -0.067848 0.000000 -0.249422
# 5 -0.019372 -0.001210 -0.027352 0.000000 0.128312 0.000000
# 6 0.000000 0.000000 0.000000 -0.249422 0.000000 -0.391577
#
#
# Mechanical properties :
#
#
# Convention : Reuss Voigt Hill
#
# Bulk Modulus (GPa) = 29.78081 67.73001 48.75541
# Shear Modulus (GPa) = -17.94098 24.23535 3.14718
#
# Velocity S-wave (km/s) = -3.13919 3.64854 1.31479
# Velocity P-wave (km/s) = 1.79401 7.41293 5.39305
#
# Compressibility (1/GPa) = 0.03357867
#
# Stress axis : x y z
#
# Youngs Moduli (GPa) = 68.93897 142.27869 63.01260
#
# Poissons Ratio (x) = 0.39904 -0.12074
# Poissons Ratio (y) = 0.19335 0.06453
# Poissons Ratio (z) = -0.13210 0.14570
#
# Static dielectric constant tensor:
#      x y z
#    x 1.732780 0.000000 -0.009930 
#    y 0.000000 1.652120 0.000000 
#    z -0.009930 0.000000 1.705100 
# 
# From -- ./inp_files/4122.got.cif
#   From: 2010.05.17/outbox.cif.g08.bks.cpg/sg11_3_cif.got.tgz:4122.got - 2010.06.03 12:22:45.
