data_PCOD9165917
_publ_section_title
;
Structure prediction by ZEFSAII (Michael W. Deem and Ramdas Pophale) SiO2 
 PCOD9165917
Probable space group: P 21/M
;
_chemical_formula_sum "Si O2"
_cell_formula_units_Z 30
_cell_length_a 17.786200
_cell_length_b 9.586098
_cell_length_c 18.544638
_cell_angle_alpha 90.000000
_cell_angle_beta 149.224631
_cell_angle_gamma 90.000000
_cell_volume 1617.842985
_symmetry_space_group_name_H-M "P 21/M"
_symmetry_group_IT_number 11
_symmetry_cell_setting 'monoclinic'
loop_
_space_group_symop_operation_xyz
x,y,z
-x,1/2+y,-z
-x,-y,-z
x,1/2-y,z
loop_
_atom_site_type_symbol
_atom_site_label
_atom_site_fract_x
_atom_site_fract_y
_atom_site_fract_z
Si Si1 0.341521 0.586760 0.155983
Si Si2 0.148917 0.916644 0.136016
Si Si3 0.562528 0.585324 0.984361
Si Si4 0.164395 0.413073 0.431799
Si Si5 0.333792 0.007550 0.426239
Si Si6 0.820407 0.087093 0.126855
Si Si7 0.505882 0.750000 0.531447
Si Si8 0.397962 0.586392 0.698152
O O1 0.386140 0.750000 0.196344
O O2 0.263544 0.549825 0.166608
O O3 0.478655 0.492416 0.247709
O O4 0.223934 0.572826 0.993989
O O5 0.124330 0.750000 0.114107
O O6 0.220097 0.958635 0.270266
O O7 0.000000 0.000000 0.000000
O O8 0.579856 0.750000 0.014142
O O9 0.452779 0.571535 0.825627
O O10 0.500000 0.500000 0.000000
O O11 0.714616 0.514789 0.083893
O O12 0.182738 0.250000 0.465196
O O13 0.244954 0.442500 0.422332
O O14 0.245209 0.510313 0.556095
O O15 0.991466 0.441528 0.280356
O O16 0.433953 0.873385 0.522288
O O17 0.429424 0.130137 0.470602
O O18 0.791166 0.250000 0.121751
O O19 0.391434 0.750000 0.675995
#
# Coordination Sequence:
#
# PCOD9165917 Si02
#       8
#     4   4   4   4   4   4   2   4
#     4   9  19  36  58  77 109 147 195 243 291 347
#     4  11  24  37  53  77 107 146 197 248 299 353
#     4  10  21  41  67  95 122 151 185 228 277 342
#     4  11  23  38  59  83 120 159 198 242 295 354
#     4  11  23  39  56  82 111 157 205 252 305 351
#     4   9  19  38  60  87 115 156 194 235 291 346
#     4  10  24  38  56  78 114 150 210 254 304 352
#     4  10  23  37  58  92 118 146 188 235 281 334
#
# _framework density 18.543209999999998
#
# number of rings (size 3 to 8) (size 9 to 14) (size 15 to 20)
#    0.000    1.867    1.333    1.600    5.600    3.733 
#    0.000    2.000    0.000    0.000    0.000    0.000 
#    0.000    0.000    0.000    0.000    0.000    0.000 
#
# Total GULP energy -167099.519579 kJ/mol
# GULP energy per Si atom -5569.983986 kJ/mol
# Density = 1.850100 g / cm^3
# Si number density = 18.543210 Si / 1000 Ang^3
#
#
#
# Elastic Constant Matrix: (Units=GPa)
#
#
# Indices 1 2 3 4 5 6 
#
# 1 74.6510 43.5539 34.4663 0.0000 -5.0304 0.0000
# 2 43.5539 122.4318 67.0953 0.0000 -0.9010 0.0000
# 3 34.4663 67.0953 105.8224 0.0000 1.8632 0.0000
# 4 0.0000 0.0000 0.0000 27.2552 0.0000 0.0398
# 5 -5.0304 -0.9010 1.8632 0.0000 12.1311 0.0000
# 6 0.0000 0.0000 0.0000 0.0398 0.0000 32.4992
#
#
#
# Elastic Compliance Matrix: (Units=1/GPa)
#
#
# Indices 1 2 3 4 5 6 
#
# 1 0.018052 -0.004705 -0.003030 0.000000 0.007602 0.000000
# 2 -0.004705 0.013800 -0.007220 0.000000 0.000183 0.000000
# 3 -0.003030 -0.007220 0.015087 0.000000 -0.004110 0.000000
# 4 0.000000 0.000000 0.000000 0.036690 0.000000 -0.000045
# 5 0.007602 0.000183 -0.004110 0.000000 0.086230 0.000000
# 6 0.000000 0.000000 0.000000 -0.000045 0.000000 0.030770
#
#
# Mechanical properties :
#
#
# Convention : Reuss Voigt Hill
#
# Bulk Modulus (GPa) = 58.72832 65.90403 62.31618
# Shear Modulus (GPa) = 21.16699 24.89641 23.03170
#
# Velocity S-wave (km/s) = 3.38227 3.66815 3.52810
# Velocity P-wave (km/s) = 6.85513 7.31836 7.09053
#
# Compressibility (1/GPa) = 0.01702756
#
# Stress axis : x y z
#
# Youngs Moduli (GPa) = 55.39499 72.46387 66.28223
#
# Poissons Ratio (x) = 0.34097 0.20084
# Poissons Ratio (y) = 0.26066 0.47858
# Poissons Ratio (z) = 0.16785 0.52321
#
# Static dielectric constant tensor:
#      x y z
#    x 1.629880 0.000000 -0.035670 
#    y 0.000000 1.623660 0.000000 
#    z -0.035670 0.000000 1.676110 
# 
# From -- ./inp_files/66134.got.cif
#   From: 2010.05.17/outbox.cif.g08.bks.cpg/sg11_34_cif.got.tgz:66134.got - 2010.06.03 12:22:45.
