data_PCOD9165108
_publ_section_title
;
Structure prediction by ZEFSAII (Michael W. Deem and Ramdas Pophale) SiO2 
 PCOD9165108
Probable space group: P 21/M
;
_chemical_formula_sum "Si O2"
_cell_formula_units_Z 32
_cell_length_a 23.276690
_cell_length_b 8.321190
_cell_length_c 15.402107
_cell_angle_alpha 90.000000
_cell_angle_beta 30.898074
_cell_angle_gamma 90.000000
_cell_volume 1531.925831
_symmetry_space_group_name_H-M "P 21/M"
_symmetry_group_IT_number 11
_symmetry_cell_setting 'monoclinic'
loop_
_space_group_symop_operation_xyz
x,y,z
-x,1/2+y,-z
-x,-y,-z
x,1/2-y,z
loop_
_atom_site_type_symbol
_atom_site_label
_atom_site_fract_x
_atom_site_fract_y
_atom_site_fract_z
Si Si1 0.467429 0.938818 0.355148
Si Si2 0.665672 0.444863 0.837100
Si Si3 0.300279 0.936443 0.910138
Si Si4 0.321394 0.435222 0.694358
Si Si5 0.950740 0.443749 0.789864
Si Si6 0.430290 0.556801 0.217070
Si Si7 0.916521 0.443117 0.033809
Si Si8 0.089795 0.940427 0.452824
O O1 0.445289 0.750000 0.395520
O O2 0.409569 0.999650 0.341794
O O3 0.600146 0.967393 0.174381
O O4 0.420562 0.028985 0.499530
O O5 0.663487 0.250000 0.842977
O O6 0.651199 0.495560 0.754808
O O7 0.783529 0.502794 0.722062
O O8 0.555125 0.506165 0.027836
O O9 0.306939 0.750000 0.927794
O O10 0.322744 0.954455 0.777825
O O11 0.172414 0.993297 0.086042
O O12 0.324397 0.250000 0.718871
O O13 0.204533 0.475466 0.798933
O O14 0.954316 0.250000 0.779860
O O15 0.956925 0.487241 0.883611
O O16 0.044747 0.515605 0.606641
O O17 0.426728 0.750000 0.224546
O O18 0.903948 0.250000 0.052774
O O19 0.000000 0.500000 0.000000
O O20 0.095376 0.750000 0.436983
O O21 0.000000 0.000000 0.500000
#
# Coordination Sequence:
#
# PCOD9165108 Si02
#       8
#     4   4   4   4   4   4   4   4
#     4  11  22  35  55  85 116 147 189 238 290 350
#     4   9  20  40  60  81 113 149 187 235 292 348
#     4  10  21  38  58  80 114 154 191 237 291 346
#     4  11  22  37  56  82 115 152 194 237 289 344
#     4   9  21  40  59  84 117 153 195 242 294 350
#     4   9  20  38  60  85 111 146 190 237 290 348
#     4  10  21  39  62  88 119 156 196 242 294 351
#     4  11  24  39  60  88 119 157 199 246 301 358
#
# _framework density 20.888741
#
# number of rings (size 3 to 8) (size 9 to 14) (size 15 to 20)
#    0.000    2.000    0.000    3.750    1.750    6.000 
#    0.000    1.250    0.000    0.000    0.000    0.000 
#    0.000    0.000    0.000    0.000    0.000    0.000 
#
# Total GULP energy -178763.452635 kJ/mol
# GULP energy per Si atom -5586.357895 kJ/mol
# Density = 2.084120 g / cm^3
# Si number density = 20.888741 Si / 1000 Ang^3
#
#
#
# Elastic Constant Matrix: (Units=GPa)
#
#
# Indices 1 2 3 4 5 6 
#
# 1 79.7381 -3.2974 6.3550 0.0000 -18.1448 0.0000
# 2 -3.2974 22.7506 -2.4935 0.0000 -2.7775 0.0000
# 3 6.3550 -2.4935 35.0531 0.0000 -11.1734 0.0000
# 4 0.0000 0.0000 0.0000 27.6111 0.0000 -1.8540
# 5 -18.1448 -2.7775 -11.1734 0.0000 24.5795 0.0000
# 6 0.0000 0.0000 0.0000 -1.8540 0.0000 26.9714
#
#
#
# Elastic Compliance Matrix: (Units=1/GPa)
#
#
# Indices 1 2 3 4 5 6 
#
# 1 0.015431 0.003923 0.001466 0.000000 0.012501 0.000000
# 2 0.003923 0.046522 0.006078 0.000000 0.010916 0.000000
# 3 0.001466 0.006078 0.034217 0.000000 0.017323 0.000000
# 4 0.000000 0.000000 0.000000 0.036385 0.000000 0.002501
# 5 0.012501 0.010916 0.017323 0.000000 0.059021 0.000000
# 6 0.000000 0.000000 0.000000 0.002501 0.000000 0.037248
#
#
# Mechanical properties :
#
#
# Convention : Reuss Voigt Hill
#
# Bulk Modulus (GPa) = 8.39599 15.40780 11.90189
# Shear Modulus (GPa) = 20.35901 24.96425 22.66163
#
# Velocity S-wave (km/s) = 3.12531 3.46078 3.29731
# Velocity P-wave (km/s) = 4.12935 4.83337 4.49516
#
# Compressibility (1/GPa) = 0.11910455
#
# Stress axis : x y z
#
# Youngs Moduli (GPa) = 64.80395 21.49507 29.22566
#
# Poissons Ratio (x) = -0.08433 -0.04285
# Poissons Ratio (y) = -0.25425 -0.17762
# Poissons Ratio (z) = -0.09502 -0.13064
#
# Static dielectric constant tensor:
#      x y z
#    x 1.795650 0.000000 0.012940 
#    y 0.000000 1.722010 0.000000 
#    z 0.012940 0.000000 1.763400 
# 
# From -- ./inp_files/55612.got.cif
#   From: 2010.05.17/outbox.cif.g08.bks.cpg/sg11_28_cif.got.tgz:55612.got - 2010.06.03 12:22:45.
