data_PCOD9165557
_publ_section_title
;
Structure prediction by ZEFSAII (Michael W. Deem and Ramdas Pophale) SiO2 
 PCOD9165557
Probable space group: P 21/M
;
_chemical_formula_sum "Si O2"
_cell_formula_units_Z 32
_cell_length_a 11.662936
_cell_length_b 19.293034
_cell_length_c 19.393486
_cell_angle_alpha 90.000000
_cell_angle_beta 156.043897
_cell_angle_gamma 90.000000
_cell_volume 1771.860392
_symmetry_space_group_name_H-M "P 21/M"
_symmetry_group_IT_number 11
_symmetry_cell_setting 'monoclinic'
loop_
_space_group_symop_operation_xyz
x,y,z
-x,1/2+y,-z
-x,-y,-z
x,1/2-y,z
loop_
_atom_site_type_symbol
_atom_site_label
_atom_site_fract_x
_atom_site_fract_y
_atom_site_fract_z
Si Si1 0.829901 0.419877 0.704145
Si Si2 0.487339 0.434151 0.042808
Si Si3 0.702230 0.920263 0.671909
Si Si4 0.194788 0.068981 0.113432
Si Si5 0.943429 0.330395 0.242172
Si Si6 0.227946 0.833361 0.192470
Si Si7 0.823338 0.829308 0.474180
Si Si8 0.769765 0.054948 0.347459
O O1 0.626906 0.408731 0.527206
O O2 0.772563 0.499014 0.695980
O O3 0.737694 0.367360 0.713513
O O4 0.162803 0.413656 0.875810
O O5 0.639617 0.453911 0.198857
O O6 0.655733 0.371292 0.100018
O O7 0.500000 0.500000 0.000000
O O8 0.775766 0.908901 0.791356
O O9 0.883274 0.872628 0.719833
O O10 0.502943 0.055260 0.251339
O O11 0.045893 0.130420 0.989518
O O12 0.000000 0.000000 0.000000
O O13 0.904983 0.250000 0.201866
O O14 0.102307 0.331951 0.403382
O O15 0.214267 0.750000 0.188740
O O16 0.498229 0.853231 0.293795
O O17 0.837665 0.750000 0.459525
O O18 0.050263 0.874442 0.558823
O O19 0.000000 0.000000 0.500000
#
# Coordination Sequence:
#
# PCOD9165557 Si02
#       8
#     4   4   4   4   4   4   4   4
#     4  11  22  39  62  98 120 163 210 260 310 365
#     4  11  22  39  62  92 124 157 206 257 307 368
#     4  11  23  37  66  89 129 161 204 261 310 374
#     4  12  24  41  60  93 129 163 206 259 313 377
#     4  10  21  39  63  90 120 160 204 252 309 364
#     4  11  22  40  64  90 123 165 208 253 310 376
#     4   9  20  40  63  88 120 158 202 249 304 371
#     4  11  24  37  61  92 122 163 201 253 307 370
#
# _framework density 18.060113999999999
#
# number of rings (size 3 to 8) (size 9 to 14) (size 15 to 20)
#    0.000    1.250    5.000    0.750    1.750    1.500 
#    0.000    0.000    0.000    0.000    0.000    0.000 
#    0.000    0.000    0.000    0.000    0.000    0.000 
#
# Total GULP energy -178624.467289 kJ/mol
# GULP energy per Si atom -5582.014603 kJ/mol
# Density = 1.801901 g / cm^3
# Si number density = 18.060114 Si / 1000 Ang^3
#
#
#
# Elastic Constant Matrix: (Units=GPa)
#
#
# Indices 1 2 3 4 5 6 
#
# 1 66.3490 31.3701 35.1820 0.0000 11.8097 0.0000
# 2 31.3701 94.6687 40.3127 0.0000 13.7536 0.0000
# 3 35.1820 40.3127 129.6523 0.0000 22.5164 0.0000
# 4 0.0000 0.0000 0.0000 22.1404 0.0000 -1.1108
# 5 11.8097 13.7536 22.5164 0.0000 41.8872 0.0000
# 6 0.0000 0.0000 0.0000 -1.1108 0.0000 27.5443
#
#
#
# Elastic Compliance Matrix: (Units=1/GPa)
#
#
# Indices 1 2 3 4 5 6 
#
# 1 0.019498 -0.004678 -0.003473 0.000000 -0.002095 0.000000
# 2 -0.004678 0.013478 -0.002627 0.000000 -0.001694 0.000000
# 3 -0.003473 -0.002627 0.010095 0.000000 -0.003585 0.000000
# 4 0.000000 0.000000 0.000000 0.045258 0.000000 0.001825
# 5 -0.002095 -0.001694 -0.003585 0.000000 0.026947 0.000000
# 6 0.000000 0.000000 0.000000 0.001825 0.000000 0.036379
#
#
# Mechanical properties :
#
#
# Convention : Reuss Voigt Hill
#
# Bulk Modulus (GPa) = 46.47850 56.04440 51.26145
# Shear Modulus (GPa) = 27.71905 30.56808 29.14356
#
# Velocity S-wave (km/s) = 3.92193 4.11855 4.02144
# Velocity P-wave (km/s) = 6.80441 7.32913 7.07164
#
# Compressibility (1/GPa) = 0.02151532
#
# Stress axis : x y z
#
# Youngs Moduli (GPa) = 51.28812 74.19439 99.06264
#
# Poissons Ratio (x) = 0.34707 0.34400
# Poissons Ratio (y) = 0.23992 0.26025
# Poissons Ratio (z) = 0.17810 0.19492
#
# Static dielectric constant tensor:
#      x y z
#    x 1.606520 0.000000 -0.000600 
#    y 0.000000 1.913110 0.000000 
#    z -0.000600 0.000000 1.651240 
# 
# From -- ./inp_files/64924.got.cif
#   From: 2010.05.17/outbox.cif.g08.bks.cpg/sg11_33_cif.got.tgz:64924.got - 2010.06.03 12:22:45.
