data_PCOD9165724
_publ_section_title
;
Structure prediction by ZEFSAII (Michael W. Deem and Ramdas Pophale) SiO2 
 PCOD9165724
Probable space group: P 21/M
;
_chemical_formula_sum "Si O2"
_cell_formula_units_Z 20
_cell_length_a 7.346399
_cell_length_b 20.607680
_cell_length_c 7.738076
_cell_angle_alpha 90.000000
_cell_angle_beta 124.928583
_cell_angle_gamma 90.000000
_cell_volume 960.460848
_symmetry_space_group_name_H-M "P 21/M"
_symmetry_group_IT_number 11
_symmetry_cell_setting 'monoclinic'
loop_
_space_group_symop_operation_xyz
x,y,z
-x,1/2+y,-z
-x,-y,-z
x,1/2-y,z
loop_
_atom_site_type_symbol
_atom_site_label
_atom_site_fract_x
_atom_site_fract_y
_atom_site_fract_z
Si Si1 0.807737 0.327135 0.626326
Si Si2 0.589371 0.927396 0.518091
Si Si3 0.987159 0.386115 0.047215
Si Si4 0.265078 0.821932 0.801132
Si Si5 0.468251 0.564632 0.088755
O O1 0.779619 0.250000 0.646017
O O2 0.586359 0.369550 0.542589
O O3 0.848296 0.334846 0.444493
O O4 0.985763 0.357946 0.854171
O O5 0.793634 0.916089 0.755944
O O6 0.500000 0.000000 0.500000
O O7 0.637254 0.925270 0.338074
O O8 0.910129 0.329590 0.138615
O O9 0.777675 0.435042 0.955829
O O10 0.359900 0.750000 0.848090
O O11 0.449503 0.875117 0.947861
O O12 0.500000 0.500000 0.000000
#
# Coordination Sequence:
#
# PCOD9165724 Si02
#       5
#     4   4   4   4   4
#     4  10  21  40  63  88 124 162 205 258 306 367
#     4  11  23  40  61  94 125 166 204 253 309 371
#     4   9  22  39  62  86 121 161 201 255 304 365
#     4   9  19  40  62  86 121 159 205 255 305 364
#     4   9  20  38  60  91 122 159 201 256 303 359
#
# _framework density 20.823339000000001
#
# number of rings (size 3 to 8) (size 9 to 14) (size 15 to 20)
#    1.200    1.200    0.000    1.800    0.000    5.600 
#    7.200    0.000    0.000    0.000    0.000    0.000 
#    0.000    0.000    0.000    0.000    0.000    0.000 
#
# Total GULP energy -111433.048500 kJ/mol
# GULP energy per Si atom -5571.652425 kJ/mol
# Density = 2.077594 g / cm^3
# Si number density = 20.823339 Si / 1000 Ang^3
#
#
#
# Elastic Constant Matrix: (Units=GPa)
#
#
# Indices 1 2 3 4 5 6 
#
# 1 14.5523 19.2014 33.1385 0.0000 -5.0185 0.0000
# 2 19.2014 138.4650 84.2150 0.0000 -3.3988 0.0000
# 3 33.1385 84.2150 176.4230 0.0000 -25.2235 0.0000
# 4 0.0000 0.0000 0.0000 35.6186 0.0000 -7.0265
# 5 -5.0185 -3.3988 -25.2235 0.0000 39.0007 0.0000
# 6 0.0000 0.0000 0.0000 -7.0265 0.0000 21.3216
#
#
#
# Elastic Compliance Matrix: (Units=1/GPa)
#
#
# Indices 1 2 3 4 5 6 
#
# 1 0.121927 -0.004376 -0.020522 0.000000 0.002035 0.000000
# 2 -0.004376 0.010557 -0.004591 0.000000 -0.002612 0.000000
# 3 -0.020522 -0.004591 0.012429 0.000000 0.004998 0.000000
# 4 0.000000 0.000000 0.000000 0.030027 0.000000 0.009895
# 5 0.002035 -0.002612 0.004998 0.000000 0.028907 0.000000
# 6 0.000000 0.000000 0.000000 0.009895 0.000000 0.050162
#
#
# Mechanical properties :
#
#
# Convention : Reuss Voigt Hill
#
# Bulk Modulus (GPa) = 11.63679 66.95002 39.29341
# Shear Modulus (GPa) = 14.63559 32.04719 23.34139
#
# Velocity S-wave (km/s) = 2.65400 3.92727 3.35165
# Velocity P-wave (km/s) = 3.87196 7.26539 5.82142
#
# Compressibility (1/GPa) = 0.08593437
#
# Stress axis : x y z
#
# Youngs Moduli (GPa) = 8.20160 94.72459 80.45760
#
# Poissons Ratio (x) = 0.41455 1.65118
# Poissons Ratio (y) = 0.03589 0.36936
# Poissons Ratio (z) = 0.16832 0.43486
#
# Static dielectric constant tensor:
#      x y z
#    x 1.783600 0.000000 -0.017180 
#    y 0.000000 1.724270 0.000000 
#    z -0.017180 0.000000 1.765630 
# 
# From -- ./inp_files/13342.got.cif
#   From: 2010.05.17/outbox.cif.g08.bks.cpg/sg11_7_cif.got.tgz:13342.got - 2010.06.03 12:22:45.
