data_PCOD9165736
_publ_section_title
;
Structure prediction by ZEFSAII (Michael W. Deem and Ramdas Pophale) SiO2 
 PCOD9165736
Probable space group: P 21/M
;
_chemical_formula_sum "Si O2"
_cell_formula_units_Z 24
_cell_length_a 9.864029
_cell_length_b 14.125740
_cell_length_c 17.544428
_cell_angle_alpha 90.000000
_cell_angle_beta 29.739779
_cell_angle_gamma 90.000000
_cell_volume 1212.663728
_symmetry_space_group_name_H-M "P 21/M"
_symmetry_group_IT_number 11
_symmetry_cell_setting 'monoclinic'
loop_
_space_group_symop_operation_xyz
x,y,z
-x,1/2+y,-z
-x,-y,-z
x,1/2-y,z
loop_
_atom_site_type_symbol
_atom_site_label
_atom_site_fract_x
_atom_site_fract_y
_atom_site_fract_z
Si Si1 0.293712 0.545644 0.869236
Si Si2 0.756083 0.750000 0.804321
Si Si3 0.707344 0.750000 0.498314
Si Si4 0.505369 0.250000 0.229298
Si Si5 0.422077 0.959135 0.122005
Si Si6 0.551625 0.042606 0.374587
Si Si7 0.917125 0.059064 0.322589
Si Si8 0.336301 0.750000 0.137673
O O1 0.302148 0.658818 0.867962
O O2 0.433963 0.509247 0.877847
O O3 0.455526 0.526221 0.711869
O O4 0.000000 0.500000 0.000000
O O5 0.693155 0.750000 0.746052
O O6 0.931608 0.658095 0.740957
O O7 0.461239 0.750000 0.990907
O O8 0.680378 0.750000 0.603812
O O9 0.558292 0.649362 0.551779
O O10 0.010735 0.750000 0.313251
O O11 0.457138 0.847156 0.111392
O O12 0.101271 0.982696 0.276542
O O13 0.500000 0.000000 0.000000
O O14 0.854767 0.039478 0.264011
O O15 0.377192 0.957698 0.496350
#
# Coordination Sequence:
#
# PCOD9165736 Si02
#       8
#     4   2   2   2   4   4   4   2
#     4  11  24  42  66  94 131 171 217 269 328 382
#     4  12  23  40  68  96 128 174 216 267 320 395
#     4  10  21  40  63  93 131 164 213 265 329 380
#     4  10  22  43  65  95 127 175 217 268 322 390
#     4  12  23  41  65  93 128 171 213 269 323 386
#     4  10  23  41  64  95 126 173 210 271 322 386
#     4  11  22  40  65  92 129 167 220 258 325 385
#     4  12  24  37  64 102 124 165 216 270 319 391
#
# _framework density 19.791142000000001
#
# number of rings (size 3 to 8) (size 9 to 14) (size 15 to 20)
#    0.000    1.000    5.000    1.500    0.000    2.667 
#    0.000    0.833    0.000    0.000    0.000    0.000 
#    0.000    0.000    0.000    0.000    0.000    0.000 
#
# Total GULP energy -133760.797452 kJ/mol
# GULP energy per Si atom -5573.366560 kJ/mol
# Density = 1.974610 g / cm^3
# Si number density = 19.791142 Si / 1000 Ang^3
#
#
#
# Elastic Constant Matrix: (Units=GPa)
#
#
# Indices 1 2 3 4 5 6 
#
# 1 152.0351 46.0679 46.6283 0.0000 1.8413 0.0000
# 2 46.0679 120.4534 43.8799 0.0000 10.0103 0.0000
# 3 46.6283 43.8799 74.5719 0.0000 -1.5825 0.0000
# 4 0.0000 0.0000 0.0000 37.3119 0.0000 -4.5169
# 5 1.8413 10.0103 -1.5825 0.0000 24.4798 0.0000
# 6 0.0000 0.0000 0.0000 -4.5169 0.0000 29.4123
#
#
#
# Elastic Compliance Matrix: (Units=1/GPa)
#
#
# Indices 1 2 3 4 5 6 
#
# 1 0.008390 -0.001623 -0.004296 0.000000 -0.000245 0.000000
# 2 -0.001623 0.011458 -0.005832 0.000000 -0.004940 0.000000
# 3 -0.004296 -0.005832 0.019612 0.000000 0.003976 0.000000
# 4 0.000000 0.000000 0.000000 0.027309 0.000000 0.004194
# 5 -0.000245 -0.004940 0.003976 0.000000 0.043146 0.000000
# 6 0.000000 0.000000 0.000000 0.004194 0.000000 0.034643
#
#
# Mechanical properties :
#
#
# Convention : Reuss Voigt Hill
#
# Bulk Modulus (GPa) = 62.66708 68.91252 65.78980
# Shear Modulus (GPa) = 28.83853 32.27309 30.55581
#
# Velocity S-wave (km/s) = 3.82140 4.04255 3.93353
# Velocity P-wave (km/s) = 7.15568 7.52895 7.34469
#
# Compressibility (1/GPa) = 0.01595734
#
# Stress axis : x y z
#
# Youngs Moduli (GPa) = 119.19172 87.27617 50.98915
#
# Poissons Ratio (x) = 0.14168 0.21905
# Poissons Ratio (y) = 0.19350 0.29736
# Poissons Ratio (z) = 0.51204 0.50898
#
# Static dielectric constant tensor:
#      x y z
#    x 1.724490 0.000000 0.004910 
#    y 0.000000 1.719700 0.000000 
#    z 0.004910 0.000000 1.782650 
# 
# From -- ./inp_files/58092.got.cif
#   From: 2010.05.17/outbox.cif.g08.bks.cpg/sg11_30_cif.got.tgz:58092.got - 2010.06.03 12:22:45.
