data_PCOD9165735
_publ_section_title
;
Structure prediction by ZEFSAII (Michael W. Deem and Ramdas Pophale) SiO2 
 PCOD9165735
Probable space group: P 21/M
;
_chemical_formula_sum "Si O2"
_cell_formula_units_Z 28
_cell_length_a 11.645533
_cell_length_b 15.149174
_cell_length_c 8.473972
_cell_angle_alpha 90.000000
_cell_angle_beta 62.938115
_cell_angle_gamma 90.000000
_cell_volume 1331.302984
_symmetry_space_group_name_H-M "P 21/M"
_symmetry_group_IT_number 11
_symmetry_cell_setting 'monoclinic'
loop_
_space_group_symop_operation_xyz
x,y,z
-x,1/2+y,-z
-x,-y,-z
x,1/2-y,z
loop_
_atom_site_type_symbol
_atom_site_label
_atom_site_fract_x
_atom_site_fract_y
_atom_site_fract_z
Si Si1 0.117353 0.354151 0.147771
Si Si2 0.066989 0.411764 0.522469
Si Si3 0.834656 0.356098 0.202827
Si Si4 0.364001 0.146773 0.794033
Si Si5 0.695227 0.982004 0.442331
Si Si6 0.418602 0.554349 0.176039
Si Si7 0.186153 0.849579 0.157994
O O1 0.116380 0.250000 0.121811
O O2 0.128737 0.370488 0.326869
O O3 0.976845 0.384390 0.175587
O O4 0.239215 0.386761 0.971699
O O5 0.172653 0.434819 0.586086
O O6 0.000000 0.500000 0.500000
O O7 0.952078 0.356290 0.671255
O O8 0.816353 0.250000 0.247435
O O9 0.733059 0.421870 0.348271
O O10 0.828344 0.368796 0.018511
O O11 0.348317 0.250000 0.761972
O O12 0.371959 0.082344 0.639662
O O13 0.490864 0.133451 0.819857
O O14 0.614773 0.996250 0.650866
O O15 0.286210 0.586721 0.181233
O O16 0.500000 0.500000 0.000000
O O17 0.235374 0.750000 0.142380
#
# Coordination Sequence:
#
# PCOD9165735 Si02
#       7
#     4   4   4   4   4   4   4
#     4  10  21  40  63  93 130 169 210 262 323 388
#     4  12  22  37  64 101 128 165 211 267 333 390
#     4  10  22  40  66  99 129 164 211 271 335 391
#     4  11  26  44  65  93 132 177 220 264 319 385
#     4  12  25  42  69  95 129 170 216 272 328 389
#     4  12  25  45  67  93 128 170 224 270 323 386
#     4  11  24  42  66  95 130 169 214 269 328 391
#
# _framework density 21.032026999999999
#
# number of rings (size 3 to 8) (size 9 to 14) (size 15 to 20)
#    0.000    0.857    2.857    3.857    2.000    5.714 
#    0.000    2.857    0.000    0.000    0.000    0.000 
#    0.000    0.000    0.000    0.000    0.000    0.000 
#
# Total GULP energy -156608.380148 kJ/mol
# GULP energy per Si atom -5593.156434 kJ/mol
# Density = 2.098416 g / cm^3
# Si number density = 21.032027 Si / 1000 Ang^3
#
#
#
# Elastic Constant Matrix: (Units=GPa)
#
#
# Indices 1 2 3 4 5 6 
#
# 1 86.9529 33.6283 20.4873 0.0000 13.1176 0.0000
# 2 33.6283 69.7674 47.3705 0.0000 2.6694 0.0000
# 3 20.4873 47.3705 148.4170 0.0000 4.7938 0.0000
# 4 0.0000 0.0000 0.0000 33.2595 0.0000 0.7707
# 5 13.1176 2.6694 4.7938 0.0000 28.8256 0.0000
# 6 0.0000 0.0000 0.0000 0.7707 0.0000 27.3917
#
#
#
# Elastic Compliance Matrix: (Units=1/GPa)
#
#
# Indices 1 2 3 4 5 6 
#
# 1 0.015207 -0.007406 0.000469 0.000000 -0.006312 0.000000
# 2 -0.007406 0.021921 -0.006050 0.000000 0.002347 0.000000
# 3 0.000469 -0.006050 0.008639 0.000000 -0.001090 0.000000
# 4 0.000000 0.000000 0.000000 0.030086 0.000000 -0.000846
# 5 -0.006312 0.002347 -0.001090 0.000000 0.037528 0.000000
# 6 0.000000 0.000000 0.000000 -0.000846 0.000000 0.036531
#
#
# Mechanical properties :
#
#
# Convention : Reuss Voigt Hill
#
# Bulk Modulus (GPa) = 50.52632 56.45661 53.49146
# Shear Modulus (GPa) = 27.39946 31.47212 29.43579
#
# Velocity S-wave (km/s) = 3.61328 3.87252 3.74514
# Velocity P-wave (km/s) = 6.44076 6.84811 6.64756
#
# Compressibility (1/GPa) = 0.01979166
#
# Stress axis : x y z
#
# Youngs Moduli (GPa) = 65.76062 45.61757 115.75020
#
# Poissons Ratio (x) = 0.33786 -0.05425
# Poissons Ratio (y) = 0.48705 0.70030
# Poissons Ratio (z) = -0.03082 0.27599
#
# Static dielectric constant tensor:
#      x y z
#    x 1.754180 0.000000 -0.009570 
#    y 0.000000 1.764750 0.000000 
#    z -0.009570 0.000000 1.746730 
# 
# From -- ./inp_files/17912.got.cif
#   From: 2010.05.17/outbox.cif.g08.bks.cpg/sg11_9_cif.got.tgz:17912.got - 2010.06.03 12:22:45.
