data_PCOD9165505
_publ_section_title
;
Structure prediction by ZEFSAII (Michael W. Deem and Ramdas Pophale) SiO2 
 PCOD9165505
Probable space group: P 21/M
;
_chemical_formula_sum "Si O2"
_cell_formula_units_Z 20
_cell_length_a 4.939208
_cell_length_b 21.510359
_cell_length_c 9.193666
_cell_angle_alpha 90.000000
_cell_angle_beta 66.902324
_cell_angle_gamma 90.000000
_cell_volume 898.472450
_symmetry_space_group_name_H-M "P 21/M"
_symmetry_group_IT_number 11
_symmetry_cell_setting 'monoclinic'
loop_
_space_group_symop_operation_xyz
x,y,z
-x,1/2+y,-z
-x,-y,-z
x,1/2-y,z
loop_
_atom_site_type_symbol
_atom_site_label
_atom_site_fract_x
_atom_site_fract_y
_atom_site_fract_z
Si Si1 0.683320 0.821089 0.048663
Si Si2 0.544632 0.488677 0.162107
Si Si3 0.002086 0.413400 0.224785
Si Si4 0.029732 0.822876 0.263462
Si Si5 0.162958 0.932860 0.441385
O O1 0.716141 0.750000 0.998023
O O2 0.337803 0.836223 0.113989
O O3 0.775675 0.826576 0.197538
O O4 0.904119 0.859725 0.903114
O O5 0.856405 0.466632 0.155846
O O6 0.436590 0.545856 0.283610
O O7 0.310787 0.433084 0.232993
O O8 0.500000 0.500000 0.000000
O O9 0.784239 0.406763 0.407655
O O10 0.045904 0.750000 0.311849
O O11 0.004009 0.877266 0.387659
O O12 0.000000 0.000000 0.500000
#
# Coordination Sequence:
#
# PCOD9165505 Si02
#       5
#     4   4   4   4   4
#     4  10  21  39  62  86 114 155 203 245 291 356
#     4  11  22  37  57  82 114 155 194 236 287 347
#     4  11  22  36  56  85 116 148 188 243 294 341
#     4  10  22  41  63  85 116 158 201 243 294 359
#     4  10  23  39  59  90 125 156 196 247 301 355
#
# _framework density 22.260002
#
# number of rings (size 3 to 8) (size 9 to 14) (size 15 to 20)
#    0.000    1.600    0.000    4.800    0.000    8.800 
#    0.000    0.000    0.000    8.400    0.000    0.000 
#    0.000    0.000    0.000    0.000    0.000    0.000 
#
# Total GULP energy -111559.462392 kJ/mol
# GULP energy per Si atom -5577.973120 kJ/mol
# Density = 2.220934 g / cm^3
# Si number density = 22.260002 Si / 1000 Ang^3
#
#
#
# Elastic Constant Matrix: (Units=GPa)
#
#
# Indices 1 2 3 4 5 6 
#
# 1 73.2639 2.1562 -5.7291 0.0000 2.1773 0.0000
# 2 2.1562 106.2719 34.4908 0.0000 -9.2990 0.0000
# 3 -5.7291 34.4908 110.0896 0.0000 7.6554 0.0000
# 4 0.0000 0.0000 0.0000 30.1796 0.0000 -4.0157
# 5 2.1773 -9.2990 7.6554 0.0000 19.1142 0.0000
# 6 0.0000 0.0000 0.0000 -4.0157 0.0000 31.5060
#
#
#
# Elastic Compliance Matrix: (Units=1/GPa)
#
#
# Indices 1 2 3 4 5 6 
#
# 1 0.013840 -0.000875 0.001166 0.000000 -0.002469 0.000000
# 2 -0.000875 0.011406 -0.004127 0.000000 0.007301 0.000000
# 3 0.001166 -0.004127 0.010889 0.000000 -0.006502 0.000000
# 4 0.000000 0.000000 0.000000 0.033707 0.000000 0.004296
# 5 -0.002469 0.007301 -0.006502 0.000000 0.058755 0.000000
# 6 0.000000 0.000000 0.000000 0.004296 0.000000 0.032288
#
#
# Mechanical properties :
#
#
# Convention : Reuss Voigt Hill
#
# Bulk Modulus (GPa) = 35.13348 39.05125 37.09236
# Shear Modulus (GPa) = 28.08313 33.40711 30.74512
#
# Velocity S-wave (km/s) = 3.55575 3.87818 3.72046
# Velocity P-wave (km/s) = 5.71623 6.13474 5.92918
#
# Compressibility (1/GPa) = 0.02846288
#
# Stress axis : x y z
#
# Youngs Moduli (GPa) = 72.25630 87.67466 91.83408
#
# Poissons Ratio (x) = 0.07675 -0.10710
# Poissons Ratio (y) = 0.06325 0.37897
# Poissons Ratio (z) = -0.08426 0.36181
#
# Static dielectric constant tensor:
#      x y z
#    x 1.821510 0.000000 -0.067680 
#    y 0.000000 1.859600 0.000000 
#    z -0.067680 0.000000 1.924250 
# 
# From -- ./inp_files/2122.got.cif
#   From: 2010.05.17/outbox.cif.g08.bks.cpg/sg11_2_cif.got.tgz:2122.got - 2010.06.03 12:22:45.
