data_PCOD9165958
_publ_section_title
;
Structure prediction by ZEFSAII (Michael W. Deem and Ramdas Pophale) SiO2 
 PCOD9165958
Probable space group: P 21/M
;
_chemical_formula_sum "Si O2"
_cell_formula_units_Z 24
_cell_length_a 15.120886
_cell_length_b 9.064535
_cell_length_c 9.427430
_cell_angle_alpha 90.000000
_cell_angle_beta 80.087314
_cell_angle_gamma 90.000000
_cell_volume 1272.869040
_symmetry_space_group_name_H-M "P 21/M"
_symmetry_group_IT_number 11
_symmetry_cell_setting 'monoclinic'
loop_
_space_group_symop_operation_xyz
x,y,z
-x,1/2+y,-z
-x,-y,-z
x,1/2-y,z
loop_
_atom_site_type_symbol
_atom_site_label
_atom_site_fract_x
_atom_site_fract_y
_atom_site_fract_z
Si Si1 0.082038 0.571118 0.066107
Si Si2 0.075229 0.073305 0.380011
Si Si3 0.434452 0.584420 0.414106
Si Si4 0.555203 0.915948 0.102375
Si Si5 0.753659 0.929454 0.148661
Si Si6 0.252995 0.076095 0.517790
O O1 0.077078 0.750000 0.067682
O O2 0.078070 0.507185 0.227187
O O3 0.172493 0.512714 0.965103
O O4 0.000000 0.500000 0.000000
O O5 0.060208 0.250000 0.366127
O O6 0.168011 0.053585 0.440391
O O7 0.000000 0.000000 0.500000
O O8 0.500000 0.500000 0.500000
O O9 0.420727 0.750000 0.470131
O O10 0.488555 0.588241 0.253563
O O11 0.338935 0.506986 0.433866
O O12 0.571521 0.750000 0.045923
O O13 0.653070 0.971022 0.125300
O O14 0.500000 0.000000 0.000000
O O15 0.763990 0.750000 0.132565
O O16 0.764130 0.966495 0.312982
O O17 0.273926 0.250000 0.515723
#
# Coordination Sequence:
#
# PCOD9165958 Si02
#       6
#     4   4   4   4   4   4
#     4  12  26  44  67  95 128 166 210 261 316 380
#     4  11  24  43  69  99 129 165 208 258 317 377
#     4  11  22  39  62  91 124 164 211 258 308 369
#     4  10  23  40  60  88 126 167 210 260 310 368
#     4  10  21  42  65  90 126 166 209 260 316 373
#     4  10  22  41  65  92 125 164 206 257 314 371
#
# _framework density 18.855042999999998
#
# number of rings (size 3 to 8) (size 9 to 14) (size 15 to 20)
#    0.000    1.333    1.667    3.500    2.333    5.333 
#    0.000    0.000    0.000    0.000    0.000    0.000 
#    0.000    0.000    0.000    0.000    0.000    0.000 
#
# Total GULP energy -134056.673444 kJ/mol
# GULP energy per Si atom -5585.694727 kJ/mol
# Density = 1.881213 g / cm^3
# Si number density = 18.855043 Si / 1000 Ang^3
#
#
#
# Elastic Constant Matrix: (Units=GPa)
#
#
# Indices 1 2 3 4 5 6 
#
# 1 141.4427 99.7843 82.2233 0.0000 -10.1333 0.0000
# 2 99.7843 110.5044 73.1694 0.0000 5.1811 0.0000
# 3 82.2233 73.1694 123.7470 0.0000 8.2211 0.0000
# 4 0.0000 0.0000 0.0000 35.4992 0.0000 -1.3606
# 5 -10.1333 5.1811 8.2211 0.0000 39.3734 0.0000
# 6 0.0000 0.0000 0.0000 -1.3606 0.0000 35.2672
#
#
#
# Elastic Compliance Matrix: (Units=1/GPa)
#
#
# Indices 1 2 3 4 5 6 
#
# 1 0.024148 -0.018422 -0.005807 0.000000 0.009851 0.000000
# 2 -0.018422 0.028927 -0.004356 0.000000 -0.007638 0.000000
# 3 -0.005807 -0.004356 0.014781 0.000000 -0.004007 0.000000
# 4 0.000000 0.000000 0.000000 0.028211 0.000000 0.001088
# 5 0.009851 -0.007638 -0.004007 0.000000 0.029775 0.000000
# 6 0.000000 0.000000 0.000000 0.001088 0.000000 0.028397
#
#
# Mechanical properties :
#
#
# Convention : Reuss Voigt Hill
#
# Bulk Modulus (GPa) = 93.57973 98.44975 96.01474
# Shear Modulus (GPa) = 23.25907 30.06243 26.66075
#
# Velocity S-wave (km/s) = 3.51604 3.99732 3.76438
# Velocity P-wave (km/s) = 8.13770 8.58092 8.36225
#
# Compressibility (1/GPa) = 0.01068607
#
# Stress axis : x y z
#
# Youngs Moduli (GPa) = 41.41200 34.57012 67.65461
#
# Poissons Ratio (x) = 0.63685 0.39284
# Poissons Ratio (y) = 0.76290 0.29470
# Poissons Ratio (z) = 0.24046 0.15058
#
# Static dielectric constant tensor:
#      x y z
#    x 1.687620 0.000000 0.071900 
#    y 0.000000 1.656720 0.000000 
#    z 0.071900 0.000000 1.673840 
# 
# From -- ./inp_files/20396.got.cif
#   From: 2010.05.17/outbox.cif.g08.bks.cpg/sg11_11_cif.got.tgz:20396.got - 2010.06.03 12:22:45.
