data_PCOD9165833
_publ_section_title
;
Structure prediction by ZEFSAII (Michael W. Deem and Ramdas Pophale) SiO2 
 PCOD9165833
Probable space group: P 21/M
;
_chemical_formula_sum "Si O2"
_cell_formula_units_Z 32
_cell_length_a 12.711600
_cell_length_b 13.639717
_cell_length_c 19.575910
_cell_angle_alpha 90.000000
_cell_angle_beta 152.332282
_cell_angle_gamma 90.000000
_cell_volume 1576.037512
_symmetry_space_group_name_H-M "P 21/M"
_symmetry_group_IT_number 11
_symmetry_cell_setting 'monoclinic'
loop_
_space_group_symop_operation_xyz
x,y,z
-x,1/2+y,-z
-x,-y,-z
x,1/2-y,z
loop_
_atom_site_type_symbol
_atom_site_label
_atom_site_fract_x
_atom_site_fract_y
_atom_site_fract_z
Si Si1 0.261678 0.473418 0.157798
Si Si2 0.903261 0.133250 0.602177
Si Si3 0.654291 0.867390 0.382603
Si Si4 0.871806 0.634299 0.656728
Si Si5 0.257434 0.477212 0.891551
Si Si6 0.429769 0.132995 0.121757
Si Si7 0.428268 0.132626 0.386666
Si Si8 0.094071 0.631405 0.552075
O O1 0.430332 0.566750 0.247786
O O2 0.331715 0.396951 0.138997
O O3 0.300610 0.424542 0.253654
O O4 0.000000 0.500000 0.000000
O O5 0.912055 0.250000 0.604531
O O6 0.691245 0.105985 0.527999
O O7 0.867900 0.098752 0.504054
O O8 0.128310 0.093653 0.765125
O O9 0.606021 0.750000 0.349445
O O10 0.773323 0.883951 0.524584
O O11 0.846182 0.894076 0.437120
O O12 0.924887 0.750000 0.691379
O O13 0.678931 0.611988 0.601714
O O14 0.093838 0.571351 0.800748
O O15 0.500000 0.500000 0.000000
O O16 0.298057 0.425196 0.987440
O O17 0.414047 0.250000 0.101869
O O18 0.696209 0.103235 0.278784
O O19 0.409539 0.250000 0.364268
O O20 0.102006 0.750000 0.556145
#
# Coordination Sequence:
#
# PCOD9165833 Si02
#       8
#     4   4   4   4   4   4   4   4
#     4  12  25  39  62  94 132 173 217 266 329 398
#     4  10  21  40  68  97 124 168 221 271 318 382
#     4  10  23  42  66  96 128 171 222 276 326 384
#     4  10  23  44  67  92 129 175 223 275 328 384
#     4  12  26  40  62  99 136 176 213 264 331 399
#     4  11  24  43  65  95 135 173 214 271 336 390
#     4  10  21  42  67  90 120 167 226 277 323 381
#     4   9  19  40  69  94 125 168 217 267 320 382
#
# _framework density 20.304085000000001
#
# number of rings (size 3 to 8) (size 9 to 14) (size 15 to 20)
#    0.000    1.500    1.250    3.000    1.750    6.500 
#    0.000    1.875    0.000    0.000    0.000    0.000 
#    0.000    0.000    0.000    0.000    0.000    0.000 
#
# Total GULP energy -178989.527386 kJ/mol
# GULP energy per Si atom -5593.422731 kJ/mol
# Density = 2.025787 g / cm^3
# Si number density = 20.304085 Si / 1000 Ang^3
#
#
#
# Elastic Constant Matrix: (Units=GPa)
#
#
# Indices 1 2 3 4 5 6 
#
# 1 106.1693 35.7349 46.6397 0.0000 15.6883 0.0000
# 2 35.7349 96.5219 42.1214 0.0000 6.8607 0.0000
# 3 46.6397 42.1214 137.8814 0.0000 17.4400 0.0000
# 4 0.0000 0.0000 0.0000 38.3819 0.0000 -0.2242
# 5 15.6883 6.8607 17.4400 0.0000 40.3459 0.0000
# 6 0.0000 0.0000 0.0000 -0.2242 0.0000 30.6859
#
#
#
# Elastic Compliance Matrix: (Units=1/GPa)
#
#
# Indices 1 2 3 4 5 6 
#
# 1 0.012113 -0.003056 -0.002786 0.000000 -0.002986 0.000000
# 2 -0.003056 0.012734 -0.002891 0.000000 0.000273 0.000000
# 3 -0.002786 -0.002891 0.009392 0.000000 -0.002485 0.000000
# 4 0.000000 0.000000 0.000000 0.026055 0.000000 0.000190
# 5 -0.002986 0.000273 -0.002485 0.000000 0.026975 0.000000
# 6 0.000000 0.000000 0.000000 0.000190 0.000000 0.032590
#
#
# Mechanical properties :
#
#
# Convention : Reuss Voigt Hill
#
# Bulk Modulus (GPa) = 59.61945 65.50717 62.56331
# Shear Modulus (GPa) = 34.98569 36.28785 35.63677
#
# Velocity S-wave (km/s) = 4.15551 4.23214 4.19400
# Velocity P-wave (km/s) = 7.24233 7.49763 7.37108
#
# Compressibility (1/GPa) = 0.01677305
#
# Stress axis : x y z
#
# Youngs Moduli (GPa) = 82.55783 78.52964 106.46943
#
# Poissons Ratio (x) = 0.24002 0.29661
# Poissons Ratio (y) = 0.25234 0.30777
# Poissons Ratio (z) = 0.22999 0.22701
#
# Static dielectric constant tensor:
#      x y z
#    x 1.712420 0.000000 0.002360 
#    y 0.000000 1.762640 0.000000 
#    z 0.002360 0.000000 1.634520 
# 
# From -- ./inp_files/59522.got.cif
#   From: 2010.05.17/outbox.cif.g08.bks.cpg/sg11_30_cif.got.tgz:59522.got - 2010.06.03 12:22:45.
