data_PCOD9165008
_publ_section_title
;
Structure prediction by ZEFSAII (Michael W. Deem and Ramdas Pophale) SiO2 
 PCOD9165008
Probable space group: P 21/M
;
_chemical_formula_sum "Si O2"
_cell_formula_units_Z 28
_cell_length_a 11.495472
_cell_length_b 23.640175
_cell_length_c 4.991049
_cell_angle_alpha 90.000000
_cell_angle_beta 82.991148
_cell_angle_gamma 90.000000
_cell_volume 1346.206846
_symmetry_space_group_name_H-M "P 21/M"
_symmetry_group_IT_number 11
_symmetry_cell_setting 'monoclinic'
loop_
_space_group_symop_operation_xyz
x,y,z
-x,1/2+y,-z
-x,-y,-z
x,1/2-y,z
loop_
_atom_site_type_symbol
_atom_site_label
_atom_site_fract_x
_atom_site_fract_y
_atom_site_fract_z
Si Si1 0.210981 0.405617 0.563405
Si Si2 0.010458 0.250000 0.514196
Si Si3 0.903356 0.051650 0.006723
Si Si4 0.323010 0.136035 0.032831
Si Si5 0.498957 0.552686 0.207535
Si Si6 0.046180 0.873743 0.501853
Si Si7 0.189660 0.250000 0.963913
Si Si8 0.298095 0.513737 0.570643
O O1 0.237015 0.402802 0.872028
O O2 0.208819 0.470115 0.456729
O O3 0.088700 0.377611 0.542743
O O4 0.301548 0.371965 0.352672
O O5 0.097865 0.250000 0.235051
O O6 0.931147 0.306894 0.529979
O O7 0.102333 0.250000 0.735580
O O8 0.941228 0.100651 0.206328
O O9 0.774871 0.034791 0.155753
O O10 0.895050 0.081964 0.721049
O O11 0.000000 0.000000 0.000000
O O12 0.450093 0.110298 0.929808
O O13 0.277200 0.196798 0.957070
O O14 0.372113 0.557984 0.379128
O O15 0.597595 0.530897 0.388078
O O16 0.500000 0.500000 0.000000
#
# Coordination Sequence:
#
# PCOD9165008 Si02
#       8
#     4   2   4   4   4   4   2   4
#     4  11  20  35  59  87 123 155 199 239 302 376
#     4  12  24  40  64  86 127 167 212 244 312 372
#     4  12  26  38  62  93 131 162 200 252 311 370
#     4  11  21  34  57  89 119 152 198 254 311 358
#     4  10  21  37  61  84 119 162 201 253 304 371
#     4  12  24  40  59  93 124 170 200 253 305 377
#     4  12  20  36  60  90 117 159 194 270 310 362
#     4  10  23  37  57  90 121 161 202 247 308 371
#
# _framework density 20.799181999999998
#
# number of rings (size 3 to 8) (size 9 to 14) (size 15 to 20)
#    0.000    0.857    5.714    2.143    4.000    0.000 
#    0.000    0.000    0.000    1.714    0.000    0.000 
#    0.000    0.000    0.000    0.000    0.000    0.000 
#
# Total GULP energy -156083.999933 kJ/mol
# GULP energy per Si atom -5574.428569 kJ/mol
# Density = 2.075184 g / cm^3
# Si number density = 20.799182 Si / 1000 Ang^3
#
#
#
# Elastic Constant Matrix: (Units=GPa)
#
#
# Indices 1 2 3 4 5 6 
#
# 1 37.1557 18.5840 18.0668 0.0000 -17.1845 0.0000
# 2 18.5840 130.1970 20.1948 0.0000 -12.5763 0.0000
# 3 18.0668 20.1948 89.1439 0.0000 -14.5564 0.0000
# 4 0.0000 0.0000 0.0000 25.4018 0.0000 0.1376
# 5 -17.1845 -12.5763 -14.5564 0.0000 47.5757 0.0000
# 6 0.0000 0.0000 0.0000 0.1376 0.0000 32.2311
#
#
#
# Elastic Compliance Matrix: (Units=1/GPa)
#
#
# Indices 1 2 3 4 5 6 
#
# 1 0.035804 -0.003348 -0.004769 0.000000 0.010588 0.000000
# 2 -0.003348 0.008396 -0.001114 0.000000 0.000669 0.000000
# 3 -0.004769 -0.001114 0.012744 0.000000 0.001882 0.000000
# 4 0.000000 0.000000 0.000000 0.039368 0.000000 -0.000168
# 5 0.010588 0.000669 0.001882 0.000000 0.025596 0.000000
# 6 0.000000 0.000000 0.000000 -0.000168 0.000000 0.031027
#
#
# Mechanical properties :
#
#
# Convention : Reuss Voigt Hill
#
# Bulk Modulus (GPa) = 25.98625 41.13198 33.55912
# Shear Modulus (GPa) = 27.14057 34.35177 30.74617
#
# Velocity S-wave (km/s) = 3.61624 4.06839 3.84896
# Velocity P-wave (km/s) = 5.47332 6.47207 5.99354
#
# Compressibility (1/GPa) = 0.03848189
#
# Stress axis : x y z
#
# Youngs Moduli (GPa) = 27.92947 119.10374 78.46766
#
# Poissons Ratio (x) = 0.39878 0.37421
# Poissons Ratio (y) = 0.09351 0.08743
# Poissons Ratio (z) = 0.13320 0.13271
#
# Static dielectric constant tensor:
#      x y z
#    x 1.846730 0.000000 -0.000760 
#    y 0.000000 1.916040 0.000000 
#    z -0.000760 0.000000 1.803020 
# 
# From -- ./inp_files/5056.got.cif
#   From: 2010.05.17/outbox.cif.g08.bks.cpg/sg11_3_cif.got.tgz:5056.got - 2010.06.03 12:22:45.
