data_PCOD9165461
_publ_section_title
;
Structure prediction by ZEFSAII (Michael W. Deem and Ramdas Pophale) SiO2 
 PCOD9165461
Probable space group: P 21/M
;
_chemical_formula_sum "Si O2"
_cell_formula_units_Z 28
_cell_length_a 9.137002
_cell_length_b 8.737533
_cell_length_c 22.979934
_cell_angle_alpha 90.000000
_cell_angle_beta 126.590652
_cell_angle_gamma 90.000000
_cell_volume 1473.027169
_symmetry_space_group_name_H-M "P 21/M"
_symmetry_group_IT_number 11
_symmetry_cell_setting 'monoclinic'
loop_
_space_group_symop_operation_xyz
x,y,z
-x,1/2+y,-z
-x,-y,-z
x,1/2-y,z
loop_
_atom_site_type_symbol
_atom_site_label
_atom_site_fract_x
_atom_site_fract_y
_atom_site_fract_z
Si Si1 0.399359 0.567587 0.711953
Si Si2 0.162580 0.566799 0.999777
Si Si3 0.448871 0.434803 0.852082
Si Si4 0.121722 0.434453 0.861382
Si Si5 0.685996 0.434451 0.569993
Si Si6 0.028422 0.434210 0.571040
Si Si7 0.270072 0.564900 0.284949
O O1 0.389474 0.750000 0.707143
O O2 0.424169 0.511480 0.783852
O O3 0.215232 0.496318 0.642181
O O4 0.569788 0.508790 0.714601
O O5 0.150906 0.750000 0.997193
O O6 0.147216 0.506717 0.930564
O O7 0.357375 0.523509 0.073691
O O8 0.000000 0.500000 0.000000
O O9 0.444139 0.250000 0.843467
O O10 0.285259 0.477660 0.856772
O O11 0.124887 0.250000 0.868109
O O12 0.927071 0.477052 0.787620
O O13 0.500000 0.500000 0.500000
O O14 0.676335 0.250000 0.566436
O O15 0.713387 0.480661 0.643582
O O16 0.858556 0.480257 0.571646
O O17 0.035126 0.250000 0.570373
O O18 0.000000 0.500000 0.500000
O O19 0.286291 0.750000 0.285613
#
# Coordination Sequence:
#
# PCOD9165461 Si02
#       7
#     4   4   4   4   4   4   4
#     4  12  25  39  59  89 120 154 196 242 290 344
#     4  11  23  38  59  87 120 156 195 240 294 351
#     4  10  22  41  62  85 116 156 196 239 293 352
#     4  10  21  39  63  87 114 151 197 244 296 352
#     4  10  22  39  61  87 116 152 194 238 286 341
#     4  11  23  41  63  89 121 156 196 241 290 347
#     4  10  21  39  61  84 113 153 194 238 293 349
#
# _framework density 19.008475000000001
#
# number of rings (size 3 to 8) (size 9 to 14) (size 15 to 20)
#    0.000    1.429    0.000    5.143    0.000   12.000 
#    0.000    1.429    0.000    0.000    0.000    0.000 
#    0.000    0.000    0.000    0.000    0.000    0.000 
#
# Total GULP energy -156627.319858 kJ/mol
# GULP energy per Si atom -5593.832852 kJ/mol
# Density = 1.896521 g / cm^3
# Si number density = 19.008475 Si / 1000 Ang^3
#
#
#
# Elastic Constant Matrix: (Units=GPa)
#
#
# Indices 1 2 3 4 5 6 
#
# 1 236.2652 69.8634 143.8909 0.0000 1.2896 0.0000
# 2 69.8634 46.6110 70.1927 0.0000 0.3372 0.0000
# 3 143.8909 70.1927 232.8865 0.0000 -0.5494 0.0000
# 4 0.0000 0.0000 0.0000 38.1539 0.0000 -3.2183
# 5 1.2896 0.3372 -0.5494 0.0000 44.9821 0.0000
# 6 0.0000 0.0000 0.0000 -3.2183 0.0000 27.8437
#
#
#
# Elastic Compliance Matrix: (Units=1/GPa)
#
#
# Indices 1 2 3 4 5 6 
#
# 1 0.008350 -0.008687 -0.002541 0.000000 -0.000205 0.000000
# 2 -0.008687 0.048332 -0.009200 0.000000 -0.000226 0.000000
# 3 -0.002541 -0.009200 0.008638 0.000000 0.000247 0.000000
# 4 0.000000 0.000000 0.000000 0.026468 0.000000 0.003059
# 5 -0.000205 -0.000226 0.000247 0.000000 0.022242 0.000000
# 6 0.000000 0.000000 0.000000 0.003059 0.000000 0.036268
#
#
# Mechanical properties :
#
#
# Convention : Reuss Voigt Hill
#
# Bulk Modulus (GPa) = 40.88009 120.40627 80.64318
# Shear Modulus (GPa) = 25.08661 37.65030 31.36846
#
# Velocity S-wave (km/s) = 3.63679 4.45535 4.06672
# Velocity P-wave (km/s) = 6.26003 9.48408 8.03541
#
# Compressibility (1/GPa) = 0.02446179
#
# Stress axis : x y z
#
# Youngs Moduli (GPa) = 119.75764 20.69032 115.77039
#
# Poissons Ratio (x) = 0.17974 0.29422
# Poissons Ratio (y) = 1.04035 1.06514
# Poissons Ratio (z) = 0.30435 0.19036
#
# Static dielectric constant tensor:
#      x y z
#    x 1.627730 0.000000 0.004270 
#    y 0.000000 1.643450 0.000000 
#    z 0.004270 0.000000 1.619580 
# 
# From -- ./inp_files/28563.got.cif
#   From: 2010.05.17/outbox.cif.g08.bks.cpg/sg11_15_cif.got.tgz:28563.got - 2010.06.03 12:22:45.
