data_PCOD9165492
_publ_section_title
;
Structure prediction by ZEFSAII (Michael W. Deem and Ramdas Pophale) SiO2 
 PCOD9165492
Probable space group: P 21/M
;
_chemical_formula_sum "Si O2"
_cell_formula_units_Z 28
_cell_length_a 11.746526
_cell_length_b 9.045443
_cell_length_c 13.483475
_cell_angle_alpha 90.000000
_cell_angle_beta 77.689535
_cell_angle_gamma 90.000000
_cell_volume 1399.711848
_symmetry_space_group_name_H-M "P 21/M"
_symmetry_group_IT_number 11
_symmetry_cell_setting 'monoclinic'
loop_
_space_group_symop_operation_xyz
x,y,z
-x,1/2+y,-z
-x,-y,-z
x,1/2-y,z
loop_
_atom_site_type_symbol
_atom_site_label
_atom_site_fract_x
_atom_site_fract_y
_atom_site_fract_z
Si Si1 0.119211 0.924809 0.944914
Si Si2 0.471795 0.079624 0.160418
Si Si3 0.731013 0.573139 0.653587
Si Si4 0.818990 0.927944 0.274570
Si Si5 0.374855 0.426918 0.538420
Si Si6 0.329480 0.418098 0.981048
Si Si7 0.971652 0.073582 0.610957
O O1 0.106712 0.750000 0.943324
O O2 0.158686 0.989451 0.831729
O O3 0.220276 0.973975 0.001580
O O4 0.000000 0.000000 0.000000
O O5 0.510039 0.250000 0.170344
O O6 0.384669 0.033370 0.263495
O O7 0.580359 0.974529 0.119027
O O8 0.396279 0.078741 0.073180
O O9 0.748327 0.750000 0.662280
O O10 0.704569 0.542125 0.543410
O O11 0.846270 0.489236 0.666633
O O12 0.815989 0.750000 0.259952
O O13 0.699128 0.973068 0.351634
O O14 0.926349 0.959214 0.329415
O O15 0.500000 0.500000 0.500000
O O16 0.390086 0.250000 0.539798
O O17 0.292288 0.250000 0.968160
O O18 0.966640 0.250000 0.599937
O O19 0.000000 0.000000 0.500000
#
# Coordination Sequence:
#
# PCOD9165492 Si02
#       7
#     4   4   4   4   4   4   4
#     4  12  27  45  66  91 123 164 210 259 315 377
#     4   9  20  38  63  92 123 161 203 251 307 367
#     4  10  21  39  61  90 124 159 203 252 305 361
#     4  10  23  44  64  90 126 164 206 260 313 364
#     4  10  22  40  61  89 129 166 204 253 303 361
#     4  10  21  40  63  91 125 160 204 256 310 365
#     4  11  22  39  63  90 122 159 202 249 303 362
#
# _framework density 20.004117999999998
#
# number of rings (size 3 to 8) (size 9 to 14) (size 15 to 20)
#    0.000    1.714    1.429    2.143    4.000    3.429 
#    0.000    0.000    0.000    0.000    0.000    0.000 
#    0.000    0.000    0.000    0.000    0.000    0.000 
#
# Total GULP energy -156529.085797 kJ/mol
# GULP energy per Si atom -5590.324493 kJ/mol
# Density = 1.995859 g / cm^3
# Si number density = 20.004118 Si / 1000 Ang^3
#
#
#
# Elastic Constant Matrix: (Units=GPa)
#
#
# Indices 1 2 3 4 5 6 
#
# 1 84.3809 35.5840 11.8619 0.0000 -19.6248 0.0000
# 2 35.5840 72.1633 30.8653 0.0000 -10.7133 0.0000
# 3 11.8619 30.8653 83.6859 0.0000 -25.6477 0.0000
# 4 0.0000 0.0000 0.0000 31.7862 0.0000 -5.1817
# 5 -19.6248 -10.7133 -25.6477 0.0000 30.6448 0.0000
# 6 0.0000 0.0000 0.0000 -5.1817 0.0000 38.6320
#
#
#
# Elastic Compliance Matrix: (Units=1/GPa)
#
#
# Indices 1 2 3 4 5 6 
#
# 1 0.017753 -0.008869 0.004423 0.000000 0.011971 0.000000
# 2 -0.008869 0.020902 -0.008007 0.000000 -0.005074 0.000000
# 3 0.004423 -0.008007 0.019214 0.000000 0.016115 0.000000
# 4 0.000000 0.000000 0.000000 0.032163 0.000000 0.004314
# 5 0.011971 -0.005074 0.016115 0.000000 0.052011 0.000000
# 6 0.000000 0.000000 0.000000 0.004314 0.000000 0.026464
#
#
# Mechanical properties :
#
#
# Convention : Reuss Voigt Hill
#
# Bulk Modulus (GPa) = 30.33550 44.09472 37.21511
# Shear Modulus (GPa) = 24.46154 31.00719 27.73437
#
# Velocity S-wave (km/s) = 3.50069 3.94133 3.72752
# Velocity P-wave (km/s) = 5.61581 6.54238 6.09672
#
# Compressibility (1/GPa) = 0.03296468
#
# Stress axis : x y z
#
# Youngs Moduli (GPa) = 56.32712 47.84152 52.04426
#
# Poissons Ratio (x) = 0.42431 -0.23021
# Poissons Ratio (y) = 0.49957 0.41672
# Poissons Ratio (z) = -0.24916 0.38307
#
# Static dielectric constant tensor:
#      x y z
#    x 1.708150 0.000000 0.007780 
#    y 0.000000 1.672130 0.000000 
#    z 0.007780 0.000000 1.708740 
# 
# From -- ./inp_files/48902.got.cif
#   From: 2010.05.17/outbox.cif.g08.bks.cpg/sg11_25_cif.got.tgz:48902.got - 2010.06.03 12:22:45.
