data_PCOD9165042
_publ_section_title
;
Structure prediction by ZEFSAII (Michael W. Deem and Ramdas Pophale) SiO2 
 PCOD9165042
Probable space group: P 21/M
;
_chemical_formula_sum "Si O2"
_cell_formula_units_Z 28
_cell_length_a 20.735132
_cell_length_b 14.242197
_cell_length_c 9.184033
_cell_angle_alpha 90.000000
_cell_angle_beta 147.416092
_cell_angle_gamma 90.000000
_cell_volume 1460.597255
_symmetry_space_group_name_H-M "P 21/M"
_symmetry_group_IT_number 11
_symmetry_cell_setting 'monoclinic'
loop_
_space_group_symop_operation_xyz
x,y,z
-x,1/2+y,-z
-x,-y,-z
x,1/2-y,z
loop_
_atom_site_type_symbol
_atom_site_label
_atom_site_fract_x
_atom_site_fract_y
_atom_site_fract_z
Si Si1 0.603907 0.547941 0.103708
Si Si2 0.031226 0.361900 0.955240
Si Si3 0.692275 0.859047 0.548576
Si Si4 0.439163 0.973051 0.535686
Si Si5 0.174029 0.534623 0.615914
Si Si6 0.030776 0.140404 0.297194
Si Si7 0.216389 0.639314 0.999607
O O1 0.660953 0.625496 0.318015
O O2 0.708184 0.475089 0.259121
O O3 0.500000 0.500000 0.000000
O O4 0.537559 0.574199 0.828372
O O5 0.014706 0.250000 0.908718
O O6 0.932480 0.413488 0.671793
O O7 0.167281 0.383540 0.166638
O O8 0.019407 0.384096 0.104376
O O9 0.673632 0.750000 0.551817
O O10 0.612491 0.931916 0.487930
O O11 0.500000 0.000000 0.500000
O O12 0.328120 0.904780 0.296376
O O13 0.127512 0.428576 0.551712
O O14 0.202031 0.586430 0.818956
O O15 0.064527 0.250000 0.371381
O O16 0.904479 0.127153 0.136906
O O17 0.233667 0.750000 0.007652
#
# Coordination Sequence:
#
# PCOD9165042 Si02
#       7
#     4   4   4   4   4   4   4
#     4  10  23  39  62  91 121 161 215 257 305 373
#     4  10  21  37  62  96 124 157 210 259 316 381
#     4  10  22  42  66  94 126 160 208 265 318 376
#     4  11  23  44  63  90 126 169 216 259 309 375
#     4  12  21  39  65  90 126 169 199 260 322 371
#     4  10  22  38  61  93 124 160 208 260 316 376
#     4  11  25  42  61  90 128 166 211 260 312 376
#
# _framework density 19.17024
#
# number of rings (size 3 to 8) (size 9 to 14) (size 15 to 20)
#    0.000    1.429    2.857    2.143    4.000    1.143 
#    0.000    2.857    0.000    0.000    0.000    0.000 
#    0.000    0.000    0.000    0.000    0.000    0.000 
#
# Total GULP energy -156416.002998 kJ/mol
# GULP energy per Si atom -5586.285821 kJ/mol
# Density = 1.912661 g / cm^3
# Si number density = 19.170240 Si / 1000 Ang^3
#
#
#
# Elastic Constant Matrix: (Units=GPa)
#
#
# Indices 1 2 3 4 5 6 
#
# 1 90.9854 34.5409 32.7005 0.0000 2.9501 0.0000
# 2 34.5409 70.0412 48.6017 0.0000 -1.1050 0.0000
# 3 32.7005 48.6017 123.6450 0.0000 3.0120 0.0000
# 4 0.0000 0.0000 0.0000 17.9908 0.0000 -4.9127
# 5 2.9501 -1.1050 3.0120 0.0000 28.7005 0.0000
# 6 0.0000 0.0000 0.0000 -4.9127 0.0000 30.1504
#
#
#
# Elastic Compliance Matrix: (Units=1/GPa)
#
#
# Indices 1 2 3 4 5 6 
#
# 1 0.013744 -0.005919 -0.001271 0.000000 -0.001507 0.000000
# 2 -0.005919 0.022252 -0.007236 0.000000 0.002225 0.000000
# 3 -0.001271 -0.007236 0.011301 0.000000 -0.001334 0.000000
# 4 0.000000 0.000000 0.000000 0.058172 0.000000 0.009478
# 5 -0.001507 0.002225 -0.001334 0.000000 0.035223 0.000000
# 6 0.000000 0.000000 0.000000 0.009478 0.000000 0.034711
#
#
# Mechanical properties :
#
#
# Convention : Reuss Voigt Hill
#
# Bulk Modulus (GPa) = 54.21786 57.37310 55.79548
# Shear Modulus (GPa) = 23.76384 26.62357 25.19371
#
# Velocity S-wave (km/s) = 3.52465 3.73070 3.62914
# Velocity P-wave (km/s) = 6.70133 6.96783 6.83588
#
# Compressibility (1/GPa) = 0.01844411
#
# Stress axis : x y z
#
# Youngs Moduli (GPa) = 72.76042 44.93923 88.49164
#
# Poissons Ratio (x) = 0.26601 0.11250
# Poissons Ratio (y) = 0.43069 0.64028
# Poissons Ratio (z) = 0.09250 0.32516
#
# Static dielectric constant tensor:
#      x y z
#    x 1.663970 0.000000 -0.002550 
#    y 0.000000 1.667910 0.000000 
#    z -0.002550 0.000000 1.665570 
# 
# From -- ./inp_files/22092.got.cif
#   From: 2010.05.17/outbox.cif.g08.bks.cpg/sg11_12_cif.got.tgz:22092.got - 2010.06.03 12:22:45.
