data_PCOD9166815
_publ_section_title
;
Structure prediction by ZEFSAII (Michael W. Deem and Ramdas Pophale) SiO2 
 PCOD9166815
Probable space group: P 21/M
;
_chemical_formula_sum "Si O2"
_cell_formula_units_Z 26
_cell_length_a 28.224330
_cell_length_b 8.781246
_cell_length_c 8.062870
_cell_angle_alpha 90.000000
_cell_angle_beta 144.363365
_cell_angle_gamma 90.000000
_cell_volume 1164.318474
_symmetry_space_group_name_H-M "P 21/M"
_symmetry_group_IT_number 11
_symmetry_cell_setting 'monoclinic'
loop_
_space_group_symop_operation_xyz
x,y,z
-x,1/2+y,-z
-x,-y,-z
x,1/2-y,z
loop_
_atom_site_type_symbol
_atom_site_label
_atom_site_fract_x
_atom_site_fract_y
_atom_site_fract_z
Si Si1 0.823158 0.425627 0.693798
Si Si2 0.563683 0.750000 0.641538
Si Si3 0.009000 0.433482 0.709009
Si Si4 0.832213 0.075040 0.327401
Si Si5 0.553972 0.250000 0.382920
Si Si6 0.333324 0.464239 0.258512
Si Si7 0.340254 0.076534 0.659137
Si Si8 0.562377 0.250000 0.025229
O O1 0.816275 0.250000 0.733196
O O2 0.813274 0.426019 0.467806
O O3 0.752228 0.527193 0.568217
O O4 0.911571 0.491125 0.986597
O O5 0.512114 0.750000 0.660397
O O6 0.625540 0.613472 0.783298
O O7 0.501129 0.750000 0.306492
O O8 0.017044 0.250000 0.731222
O O9 0.924801 0.473906 0.561911
O O10 0.000000 0.500000 0.500000
O O11 0.825684 0.250000 0.248051
O O12 0.762609 0.980155 0.039218
O O13 0.615103 0.114638 0.585075
O O14 0.526263 0.250000 0.111035
O O15 0.349491 0.403744 0.488270
O O16 0.353068 0.250000 0.765646
O O17 0.390508 0.917685 0.850882
#
# Coordination Sequence:
#
# PCOD9166815 Si02
#       8
#     4   2   4   4   2   4   4   2
#     4  11  23  42  68 106 141 188 234 292 356 426
#     4  12  26  48  68 105 146 178 245 306 375 443
#     4  11  23  42  68 101 139 186 236 293 352 422
#     4  10  23  43  70  95 139 189 238 290 358 428
#     4  10  24  44  76  98 135 188 238 302 371 444
#     4  11  23  46  64 100 135 182 237 297 356 431
#     4  11  23  45  70 105 143 186 247 294 356 443
#     4  10  26  48  76 103 145 196 235 308 386 425
#
# _framework density 22.330660999999999
#
# number of rings (size 3 to 8) (size 9 to 14) (size 15 to 20)
#    0.000    1.231    2.308    2.769    2.154    3.692 
#    9.692    0.000    0.000    0.000    0.000    0.000 
#    0.000    0.000    0.000    0.000    0.000    0.000 
#
# Total GULP energy -145144.173141 kJ/mol
# GULP energy per Si atom -5582.468198 kJ/mol
# Density = 2.227984 g / cm^3
# Si number density = 22.330661 Si / 1000 Ang^3
#
#
#
# Elastic Constant Matrix: (Units=GPa)
#
#
# Indices 1 2 3 4 5 6 
#
# 1 105.1949 47.5832 17.7975 0.0000 28.8295 0.0000
# 2 47.5832 141.1022 47.3532 0.0000 14.9810 0.0000
# 3 17.7975 47.3532 110.8358 0.0000 14.6986 0.0000
# 4 0.0000 0.0000 0.0000 32.0373 0.0000 2.5985
# 5 28.8295 14.9810 14.6986 0.0000 31.6597 0.0000
# 6 0.0000 0.0000 0.0000 2.5985 0.0000 37.4783
#
#
#
# Elastic Compliance Matrix: (Units=1/GPa)
#
#
# Indices 1 2 3 4 5 6 
#
# 1 0.014290 -0.003892 0.000905 0.000000 -0.011591 0.000000
# 2 -0.003892 0.009512 -0.003529 0.000000 0.000682 0.000000
# 3 0.000905 -0.003529 0.010947 0.000000 -0.004237 0.000000
# 4 0.000000 0.000000 0.000000 0.031390 0.000000 -0.002176
# 5 -0.011591 0.000682 -0.004237 0.000000 0.043785 0.000000
# 6 0.000000 0.000000 0.000000 -0.002176 0.000000 0.026833
#
#
# Mechanical properties :
#
#
# Convention : Reuss Voigt Hill
#
# Bulk Modulus (GPa) = 46.04771 64.73340 55.39056
# Shear Modulus (GPa) = 31.84153 36.52834 34.18494
#
# Velocity S-wave (km/s) = 3.78022 4.04888 3.91685
# Velocity P-wave (km/s) = 6.30230 7.13508 6.73158
#
# Compressibility (1/GPa) = 0.02171661
#
# Stress axis : x y z
#
# Youngs Moduli (GPa) = 69.97767 105.13511 91.35253
#
# Poissons Ratio (x) = 0.40921 -0.08272
# Poissons Ratio (y) = 0.27237 0.32240
# Poissons Ratio (z) = -0.06336 0.37104
#
# Static dielectric constant tensor:
#      x y z
#    x 1.803100 0.000000 -0.003140 
#    y 0.000000 1.862740 0.000000 
#    z -0.003140 0.000000 1.807450 
# 
# From -- ./inp_files/28195.got.cif
#   From: 2010.05.17/outbox.cif.g08.bks.cpg/sg11_15_cif.got.tgz:28195.got - 2010.06.03 12:22:45.
