data_PCOD9166627
_publ_section_title
;
Structure prediction by ZEFSAII (Michael W. Deem and Ramdas Pophale) SiO2 
 PCOD9166627
Probable space group: P 21/M
;
_chemical_formula_sum "Si O2"
_cell_formula_units_Z 24
_cell_length_a 8.636834
_cell_length_b 15.115707
_cell_length_c 13.649744
_cell_angle_alpha 90.000000
_cell_angle_beta 146.850130
_cell_angle_gamma 90.000000
_cell_volume 974.452316
_symmetry_space_group_name_H-M "P 21/M"
_symmetry_group_IT_number 11
_symmetry_cell_setting 'monoclinic'
loop_
_space_group_symop_operation_xyz
x,y,z
-x,1/2+y,-z
-x,-y,-z
x,1/2-y,z
loop_
_atom_site_type_symbol
_atom_site_label
_atom_site_fract_x
_atom_site_fract_y
_atom_site_fract_z
Si Si1 0.335842 0.250000 0.622365
Si Si2 0.343214 0.396388 0.776701
Si Si3 0.276085 0.093320 0.163945
Si Si4 0.657680 0.250000 0.283184
Si Si5 0.679442 0.250000 0.606469
Si Si6 0.704770 0.750000 0.084975
Si Si7 0.086267 0.518985 0.889907
Si Si8 0.770014 0.435953 0.539982
O O1 0.435218 0.337127 0.733684
O O2 0.450026 0.250000 0.571827
O O3 0.995503 0.250000 0.463866
O O4 0.025752 0.431291 0.597760
O O5 0.297807 0.332723 0.845516
O O6 0.579982 0.463522 0.938320
O O7 0.490903 0.167563 0.241567
O O8 0.497625 0.027464 0.337594
O O9 0.051450 0.105664 0.132036
O O10 0.095426 0.058233 0.976756
O O11 0.571442 0.250000 0.125081
O O12 0.677378 0.340145 0.538966
O O13 0.002053 0.250000 0.819715
O O14 0.907280 0.492880 0.700523
#
# Coordination Sequence:
#
# PCOD9166627 Si02
#       8
#     2   4   4   2   2   2   4   4
#     4  11  24  41  69  98 128 170 235 276 330 391
#     4  10  22  44  66  98 135 176 223 275 333 396
#     4  11  25  43  68 101 136 177 224 276 335 398
#     4  12  23  45  67  98 130 175 228 278 332 394
#     4  10  23  40  72  99 129 175 224 285 325 392
#     4   9  22  40  70  93 131 176 221 275 339 387
#     4  11  26  42  66 105 138 177 222 269 342 407
#     4  11  22  46  68  97 139 179 220 277 337 393
#
# _framework density 24.629218999999999
#
# number of rings (size 3 to 8) (size 9 to 14) (size 15 to 20)
#    0.000    1.333    1.667    4.000    7.000    2.667 
#    3.000    0.000    0.000    0.000    0.000    0.000 
#    0.000    0.000    0.000    0.000    0.000    0.000 
#
# Total GULP energy -133937.701599 kJ/mol
# GULP energy per Si atom -5580.737567 kJ/mol
# Density = 2.457316 g / cm^3
# Si number density = 24.629219 Si / 1000 Ang^3
#
#
#
# Elastic Constant Matrix: (Units=GPa)
#
#
# Indices 1 2 3 4 5 6 
#
# 1 93.0400 40.4861 4.2268 0.0000 2.5309 0.0000
# 2 40.4861 57.0292 14.7137 0.0000 -0.0231 0.0000
# 3 4.2268 14.7137 138.1937 0.0000 -12.3966 0.0000
# 4 0.0000 0.0000 0.0000 29.9243 0.0000 3.1024
# 5 2.5309 -0.0231 -12.3966 0.0000 39.6877 0.0000
# 6 0.0000 0.0000 0.0000 3.1024 0.0000 25.8865
#
#
#
# Elastic Compliance Matrix: (Units=1/GPa)
#
#
# Indices 1 2 3 4 5 6 
#
# 1 0.015647 -0.011276 0.000650 0.000000 -0.000801 0.000000
# 2 -0.011276 0.026171 -0.002444 0.000000 -0.000029 0.000000
# 3 0.000650 -0.002444 0.007688 0.000000 0.002359 0.000000
# 4 0.000000 0.000000 0.000000 0.033838 0.000000 -0.004055
# 5 -0.000801 -0.000029 0.002359 0.000000 0.025984 0.000000
# 6 0.000000 0.000000 0.000000 -0.004055 0.000000 0.039116
#
#
# Mechanical properties :
#
#
# Convention : Reuss Voigt Hill
#
# Bulk Modulus (GPa) = 42.79826 45.23512 44.01669
# Shear Modulus (GPa) = 27.41621 34.35546 30.88583
#
# Velocity S-wave (km/s) = 3.34002 3.73890 3.54507
# Velocity P-wave (km/s) = 5.68235 6.08650 5.88789
#
# Compressibility (1/GPa) = 0.02336543
#
# Stress axis : x y z
#
# Youngs Moduli (GPa) = 63.90934 38.21064 130.07054
#
# Poissons Ratio (x) = 0.43087 -0.08456
# Poissons Ratio (y) = 0.72066 0.31791
# Poissons Ratio (z) = -0.04155 0.09339
#
# Static dielectric constant tensor:
#      x y z
#    x 2.014750 0.000000 0.032890 
#    y 0.000000 2.078650 0.000000 
#    z 0.032890 0.000000 1.958860 
# 
# From -- ./inp_files/48081.got.cif
#   From: 2010.05.17/outbox.cif.g08.bks.cpg/sg11_25_cif.got.tgz:48081.got - 2010.06.03 12:22:45.
