data_PCOD9166483
_publ_section_title
;
Structure prediction by ZEFSAII (Michael W. Deem and Ramdas Pophale) SiO2 
 PCOD9166483
Probable space group: P 21/M
;
_chemical_formula_sum "Si O2"
_cell_formula_units_Z 32
_cell_length_a 5.370849
_cell_length_b 28.766934
_cell_length_c 9.081858
_cell_angle_alpha 90.000000
_cell_angle_beta 98.149097
_cell_angle_gamma 90.000000
_cell_volume 1389.004561
_symmetry_space_group_name_H-M "P 21/M"
_symmetry_group_IT_number 11
_symmetry_cell_setting 'monoclinic'
loop_
_space_group_symop_operation_xyz
x,y,z
-x,1/2+y,-z
-x,-y,-z
x,1/2-y,z
loop_
_atom_site_type_symbol
_atom_site_label
_atom_site_fract_x
_atom_site_fract_y
_atom_site_fract_z
Si Si1 0.113853 0.353418 0.134951
Si Si2 0.229974 0.979034 0.111635
Si Si3 0.254378 0.306171 0.691997
Si Si4 0.203515 0.693512 0.133304
Si Si5 0.233337 0.972927 0.449893
Si Si6 0.205426 0.883035 0.639078
Si Si7 0.531084 0.924824 0.923480
Si Si8 0.440762 0.304375 0.388043
O O1 0.230500 0.391772 0.034549
O O2 0.296274 0.314708 0.222305
O O3 0.038225 0.380826 0.278020
O O4 0.889479 0.328362 0.028701
O O5 0.172538 0.969237 0.273530
O O6 0.417603 0.022948 0.126592
O O7 0.353441 0.934295 0.046323
O O8 0.000000 0.000000 0.000000
O O9 0.248777 0.250000 0.693164
O O10 0.513788 0.320181 0.796384
O O11 0.287266 0.319413 0.522742
O O12 0.004658 0.320537 0.760322
O O13 0.198608 0.750000 0.121611
O O14 0.223229 0.921714 0.517469
O O15 0.500000 0.000000 0.500000
O O16 0.000000 0.000000 0.500000
O O17 0.402917 0.899269 0.778502
O O18 0.301638 0.833358 0.593129
O O19 0.492025 0.250000 0.405760
#
# Coordination Sequence:
#
# PCOD9166483 Si02
#       8
#     4   4   4   4   4   4   4   4
#     4  11  24  41  67  98 140 180 238 293 348 423
#     4  11  23  43  73 101 134 183 231 287 359 423
#     4   9  21  42  65  95 133 177 232 291 353 415
#     4  10  22  41  67  95 132 180 228 285 349 414
#     4  12  26  47  76 105 147 191 235 296 366 434
#     4  11  25  45  68 102 143 187 239 297 357 435
#     4  10  22  42  65  96 138 174 230 286 349 415
#     4  10  24  44  69  99 140 189 239 299 361 427
#
# _framework density 23.038081999999999
#
# number of rings (size 3 to 8) (size 9 to 14) (size 15 to 20)
#    0.000    1.500    1.250    2.625    8.750    2.000 
#    2.250    0.000    0.000    0.000    0.000    0.000 
#    0.000    0.000    0.000    0.000    0.000    0.000 
#
# Total GULP energy -178808.022873 kJ/mol
# GULP energy per Si atom -5587.750715 kJ/mol
# Density = 2.298565 g / cm^3
# Si number density = 23.038082 Si / 1000 Ang^3
#
#
#
# Elastic Constant Matrix: (Units=GPa)
#
#
# Indices 1 2 3 4 5 6 
#
# 1 96.9792 22.2904 29.2645 0.0000 -13.2583 0.0000
# 2 22.2904 75.2040 25.2216 0.0000 -5.6411 0.0000
# 3 29.2645 25.2216 126.2757 0.0000 -12.3604 0.0000
# 4 0.0000 0.0000 0.0000 29.9839 0.0000 -13.6637
# 5 -13.2583 -5.6411 -12.3604 0.0000 37.2407 0.0000
# 6 0.0000 0.0000 0.0000 -13.6637 0.0000 21.8438
#
#
#
# Elastic Compliance Matrix: (Units=1/GPa)
#
#
# Indices 1 2 3 4 5 6 
#
# 1 0.011941 -0.002653 -0.001923 0.000000 0.003211 0.000000
# 2 -0.002653 0.014898 -0.002307 0.000000 0.000546 0.000000
# 3 -0.001923 -0.002307 0.009017 0.000000 0.001959 0.000000
# 4 0.000000 0.000000 0.000000 0.046648 0.000000 0.029180
# 5 0.003211 0.000546 0.001959 0.000000 0.028728 0.000000
# 6 0.000000 0.000000 0.000000 0.029180 0.000000 0.064032
#
#
# Mechanical properties :
#
#
# Convention : Reuss Voigt Hill
#
# Bulk Modulus (GPa) = 45.27134 50.22354 47.74744
# Shear Modulus (GPa) = 25.45879 32.59249 29.02564
#
# Velocity S-wave (km/s) = 3.32787 3.76536 3.55336
# Velocity P-wave (km/s) = 5.87023 6.38369 6.13234
#
# Compressibility (1/GPa) = 0.02208903
#
# Stress axis : x y z
#
# Youngs Moduli (GPa) = 83.74777 67.12112 110.89647
#
# Poissons Ratio (x) = 0.17810 0.21325
# Poissons Ratio (y) = 0.22222 0.25587
# Poissons Ratio (z) = 0.16104 0.15487
#
# Static dielectric constant tensor:
#      x y z
#    x 2.410800 0.000000 -0.223280 
#    y 0.000000 1.765700 0.000000 
#    z -0.223280 0.000000 1.979530 
# 
# From -- ./inp_files/10851.got.cif
#   From: 2010.05.17/outbox.cif.g08.bks.cpg/sg11_6_cif.got.tgz:10851.got - 2010.06.03 12:22:45.
