data_PCOD9166298
_publ_section_title
;
Structure prediction by ZEFSAII (Michael W. Deem and Ramdas Pophale) SiO2 
 PCOD9166298
Probable space group: P 21/M
;
_chemical_formula_sum "Si O2"
_cell_formula_units_Z 20
_cell_length_a 9.120980
_cell_length_b 8.743587
_cell_length_c 26.297712
_cell_angle_alpha 90.000000
_cell_angle_beta 150.032329
_cell_angle_gamma 90.000000
_cell_volume 1047.597355
_symmetry_space_group_name_H-M "P 21/M"
_symmetry_group_IT_number 11
_symmetry_cell_setting 'monoclinic'
loop_
_space_group_symop_operation_xyz
x,y,z
-x,1/2+y,-z
-x,-y,-z
x,1/2-y,z
loop_
_atom_site_type_symbol
_atom_site_label
_atom_site_fract_x
_atom_site_fract_y
_atom_site_fract_z
Si Si1 0.672689 0.567280 0.903125
Si Si2 0.652022 0.566010 0.095932
Si Si3 0.340752 0.932891 0.501524
Si Si4 0.346237 0.065345 0.707264
Si Si5 0.659758 0.433938 0.695828
O O1 0.684782 0.750000 0.909597
O O2 0.505209 0.501463 0.901813
O O3 0.502149 0.513881 0.801516
O O4 0.000000 0.500000 0.000000
O O5 0.628414 0.750000 0.089076
O O6 0.996800 0.525213 0.200023
O O7 0.500000 0.500000 0.000000
O O8 0.358442 0.750000 0.505162
O O9 0.996985 0.975505 0.398139
O O10 0.500000 0.000000 0.500000
O O11 0.497261 0.992347 0.599274
O O12 0.369411 0.250000 0.720289
O O13 0.505164 0.023098 0.702343
O O14 0.639684 0.250000 0.684887
#
# Coordination Sequence:
#
# PCOD9166298 Si02
#       5
#     4   4   4   4   4
#     4  12  25  41  63  90 121 159 201 249 301 360
#     4  11  23  40  63  91 122 159 202 251 304 360
#     4  11  23  38  60  88 121 159 200 246 296 353
#     4  10  22  41  62  88 121 157 199 249 301 356
#     4  10  22  40  62  87 119 156 197 247 301 355
#
# _framework density 19.091304000000001
#
# number of rings (size 3 to 8) (size 9 to 14) (size 15 to 20)
#    0.000    1.200    0.000    6.000    0.000   10.400 
#    0.000    0.000    0.000    0.000    0.000    0.000 
#    0.000    0.000    0.000    0.000    0.000    0.000 
#
# Total GULP energy -111924.845936 kJ/mol
# GULP energy per Si atom -5596.242297 kJ/mol
# Density = 1.904785 g / cm^3
# Si number density = 19.091304 Si / 1000 Ang^3
#
#
#
# Elastic Constant Matrix: (Units=GPa)
#
#
# Indices 1 2 3 4 5 6 
#
# 1 239.0253 81.7990 144.4243 0.0000 3.5401 0.0000
# 2 81.7990 74.9574 90.8932 0.0000 2.8049 0.0000
# 3 144.4243 90.8932 232.8677 0.0000 -0.1840 0.0000
# 4 0.0000 0.0000 0.0000 40.0051 0.0000 -7.1269
# 5 3.5401 2.8049 -0.1840 0.0000 43.6185 0.0000
# 6 0.0000 0.0000 0.0000 -7.1269 0.0000 35.2252
#
#
#
# Elastic Compliance Matrix: (Units=1/GPa)
#
#
# Indices 1 2 3 4 5 6 
#
# 1 0.007519 -0.004820 -0.002782 0.000000 -0.000312 0.000000
# 2 -0.004820 0.028541 -0.008152 0.000000 -0.001479 0.000000
# 3 -0.002782 -0.008152 0.009202 0.000000 0.000789 0.000000
# 4 0.000000 0.000000 0.000000 0.025932 0.000000 0.005247
# 5 -0.000312 -0.001479 0.000789 0.000000 0.023050 0.000000
# 6 0.000000 0.000000 0.000000 0.005247 0.000000 0.029450
#
#
# Mechanical properties :
#
#
# Convention : Reuss Voigt Hill
#
# Bulk Modulus (GPa) = 72.70505 131.23148 101.96827
# Shear Modulus (GPa) = 31.29171 39.08533 35.18852
#
# Velocity S-wave (km/s) = 4.05292 4.52960 4.29787
# Velocity P-wave (km/s) = 7.75029 9.81043 8.84057
#
# Compressibility (1/GPa) = 0.01375420
#
# Stress axis : x y z
#
# Youngs Moduli (GPa) = 133.00224 35.03699 108.66785
#
# Poissons Ratio (x) = 0.16887 0.30232
# Poissons Ratio (y) = 0.64103 0.88589
# Poissons Ratio (z) = 0.37002 0.28563
#
# Static dielectric constant tensor:
#      x y z
#    x 1.630880 0.000000 0.014490 
#    y 0.000000 1.643690 0.000000 
#    z 0.014490 0.000000 1.622040 
# 
# From -- ./inp_files/15924.got.cif
#   From: 2010.05.17/outbox.cif.g08.bks.cpg/sg11_8_cif.got.tgz:15924.got - 2010.06.03 12:22:45.
