data_PCOD9166334
_publ_section_title
;
Structure prediction by ZEFSAII (Michael W. Deem and Ramdas Pophale) SiO2 
 PCOD9166334
Probable space group: P 21/M
;
_chemical_formula_sum "Si O2"
_cell_formula_units_Z 32
_cell_length_a 26.573183
_cell_length_b 8.830622
_cell_length_c 15.436850
_cell_angle_alpha 90.000000
_cell_angle_beta 153.402328
_cell_angle_gamma 90.000000
_cell_volume 1621.820280
_symmetry_space_group_name_H-M "P 21/M"
_symmetry_group_IT_number 11
_symmetry_cell_setting 'monoclinic'
loop_
_space_group_symop_operation_xyz
x,y,z
-x,1/2+y,-z
-x,-y,-z
x,1/2-y,z
loop_
_atom_site_type_symbol
_atom_site_label
_atom_site_fract_x
_atom_site_fract_y
_atom_site_fract_z
Si Si1 0.457591 0.069709 0.061110
Si Si2 0.084193 0.430941 0.366210
Si Si3 0.294402 0.068876 0.320264
Si Si4 0.731346 0.931463 0.920811
Si Si5 0.071693 0.930590 0.032848
Si Si6 0.320100 0.929840 0.691659
Si Si7 0.980243 0.931013 0.374780
Si Si8 0.548405 0.430587 0.764244
O O1 0.442126 0.250000 0.026209
O O2 0.588936 0.034781 0.243234
O O3 0.425454 0.015983 0.106544
O O4 0.383533 0.982115 0.876625
O O5 0.084301 0.250000 0.375289
O O6 0.202083 0.485343 0.507774
O O7 0.986750 0.475736 0.148287
O O8 0.061454 0.503851 0.424994
O O9 0.280642 0.250000 0.307386
O O10 0.274835 0.027917 0.189717
O O11 0.421119 0.030220 0.541265
O O12 0.198927 0.988489 0.229064
O O13 0.713831 0.750000 0.900887
O O14 0.635183 0.016891 0.825167
O O15 0.853459 0.966515 0.148160
O O16 0.068845 0.750000 0.034375
O O17 0.000000 0.000000 0.000000
O O18 0.300861 0.750000 0.662773
O O19 0.993042 0.750000 0.398237
O O20 0.000000 0.000000 0.500000
O O21 0.555041 0.250000 0.786957
#
# Coordination Sequence:
#
# PCOD9166334 Si02
#       8
#     4   4   4   4   4   4   4   4
#     4  10  22  41  62  89 124 161 204 253 304 366
#     4  11  24  42  65  95 128 165 208 259 316 375
#     4  10  22  43  65  90 123 161 206 257 309 366
#     4  10  22  42  65  88 121 163 204 252 312 368
#     4  11  25  42  65  95 128 168 210 258 312 373
#     4  10  22  40  64  90 121 162 205 251 308 366
#     4  11  24  42  66  93 127 168 210 259 313 375
#     4  11  24  38  62  93 123 159 204 255 308 365
#
# _framework density 19.730917000000002
#
# number of rings (size 3 to 8) (size 9 to 14) (size 15 to 20)
#    0.000    1.500    1.250    2.625    3.500    5.500 
#    0.000    0.000    0.000    0.000    0.000    0.000 
#    0.000    0.000    0.000    0.000    0.000    0.000 
#
# Total GULP energy -178949.909727 kJ/mol
# GULP energy per Si atom -5592.184679 kJ/mol
# Density = 1.968601 g / cm^3
# Si number density = 19.730917 Si / 1000 Ang^3
#
#
#
# Elastic Constant Matrix: (Units=GPa)
#
#
# Indices 1 2 3 4 5 6 
#
# 1 75.2690 15.0516 -13.7185 0.0000 8.9703 0.0000
# 2 15.0516 20.2194 5.1068 0.0000 6.8878 0.0000
# 3 -13.7185 5.1068 25.2021 0.0000 14.4681 0.0000
# 4 0.0000 0.0000 0.0000 30.3662 0.0000 6.3913
# 5 8.9703 6.8878 14.4681 0.0000 34.5170 0.0000
# 6 0.0000 0.0000 0.0000 6.3913 0.0000 34.5700
#
#
#
# Elastic Compliance Matrix: (Units=1/GPa)
#
#
# Indices 1 2 3 4 5 6 
#
# 1 0.022523 -0.018526 0.022719 0.000000 -0.011679 0.000000
# 2 -0.018526 0.069038 -0.024927 0.000000 0.001487 0.000000
# 3 0.022719 -0.024927 0.075894 0.000000 -0.032742 0.000000
# 4 0.000000 0.000000 0.000000 0.034265 0.000000 -0.006335
# 5 -0.011679 0.001487 -0.032742 0.000000 0.045434 0.000000
# 6 0.000000 0.000000 0.000000 -0.006335 0.000000 0.030098
#
#
# Mechanical properties :
#
#
# Convention : Reuss Voigt Hill
#
# Bulk Modulus (GPa) = 7.93738 14.84115 11.38926
# Shear Modulus (GPa) = 13.86140 27.50736 20.68438
#
# Velocity S-wave (km/s) = 2.65339 3.73785 3.24129
# Velocity P-wave (km/s) = 3.66317 5.11535 4.44891
#
# Compressibility (1/GPa) = 0.12598621
#
# Stress axis : x y z
#
# Youngs Moduli (GPa) = 44.39912 14.48487 13.17633
#
# Poissons Ratio (x) = 0.26834 -0.29935
# Poissons Ratio (y) = 0.82253 0.32845
# Poissons Ratio (z) = -1.00871 0.36107
#
# Static dielectric constant tensor:
#      x y z
#    x 1.658250 0.000000 -0.002600 
#    y 0.000000 1.656360 0.000000 
#    z -0.002600 0.000000 1.685840 
# 
# From -- ./inp_files/55748.got.cif
#   From: 2010.05.17/outbox.cif.g08.bks.cpg/sg11_28_cif.got.tgz:55748.got - 2010.06.03 12:22:45.
