data_PCOD9166396
_publ_section_title
;
Structure prediction by ZEFSAII (Michael W. Deem and Ramdas Pophale) SiO2 
 PCOD9166396
Probable space group: P 21/M
;
_chemical_formula_sum "Si O2"
_cell_formula_units_Z 22
_cell_length_a 9.091751
_cell_length_b 24.512648
_cell_length_c 5.103368
_cell_angle_alpha 90.000000
_cell_angle_beta 127.156022
_cell_angle_gamma 90.000000
_cell_volume 906.461918
_symmetry_space_group_name_H-M "P 21/M"
_symmetry_group_IT_number 11
_symmetry_cell_setting 'monoclinic'
loop_
_space_group_symop_operation_xyz
x,y,z
-x,1/2+y,-z
-x,-y,-z
x,1/2-y,z
loop_
_atom_site_type_symbol
_atom_site_label
_atom_site_fract_x
_atom_site_fract_y
_atom_site_fract_z
Si Si1 0.310516 0.947225 0.529805
Si Si2 0.405043 0.336733 0.709840
Si Si3 0.840308 0.750000 0.870970
Si Si4 0.290177 0.440500 0.268221
Si Si5 0.894444 0.849844 0.232676
Si Si6 0.781116 0.379104 0.069460
O O1 0.532415 0.952256 0.726003
O O2 0.264561 0.927563 0.771114
O O3 0.230108 0.004908 0.349696
O O4 0.241618 0.901911 0.246858
O O5 0.295151 0.296441 0.406965
O O6 0.362805 0.397583 0.560916
O O7 0.308375 0.330788 0.885707
O O8 0.624326 0.333438 0.946550
O O9 0.963627 0.799336 0.137482
O O10 0.137484 0.407550 0.941952
O O11 0.021782 0.857780 0.624064
#
# Coordination Sequence:
#
# PCOD9166396 Si02
#       6
#     4   4   2   4   4   4
#     4  10  22  41  62 100 131 177 206 257 309 387
#     4  10  22  44  63  91 124 169 208 271 312 386
#     4  10  24  44  66  90 122 164 218 264 336 366
#     4   9  21  38  67  89 136 170 214 250 321 370
#     4  11  23  42  65  93 123 170 210 273 313 385
#     4  11  25  40  67  96 133 162 217 255 321 374
#
# _framework density 24.270187
#
# number of rings (size 3 to 8) (size 9 to 14) (size 15 to 20)
#    0.000    1.818    1.818    0.545    7.636    4.364 
#    0.000    1.818    0.000    0.000    0.000    0.000 
#    0.000    0.000    0.000    0.000    0.000    0.000 
#
# Total GULP energy -122582.982865 kJ/mol
# GULP energy per Si atom -5571.953767 kJ/mol
# Density = 2.421495 g / cm^3
# Si number density = 24.270187 Si / 1000 Ang^3
#
#
#
# Elastic Constant Matrix: (Units=GPa)
#
#
# Indices 1 2 3 4 5 6 
#
# 1 62.1507 -6.6916 -1.1737 0.0000 4.7412 0.0000
# 2 -6.6916 100.1324 6.7678 0.0000 7.3464 0.0000
# 3 -1.1737 6.7678 70.5671 0.0000 9.2294 0.0000
# 4 0.0000 0.0000 0.0000 11.8575 0.0000 18.3463
# 5 4.7412 7.3464 9.2294 0.0000 30.5791 0.0000
# 6 0.0000 0.0000 0.0000 18.3463 0.0000 -57.7138
#
#
#
# Elastic Compliance Matrix: (Units=1/GPa)
#
#
# Indices 1 2 3 4 5 6 
#
# 1 0.016470 0.001286 0.000547 0.000000 -0.003027 0.000000
# 2 0.001286 0.010298 -0.000642 0.000000 -0.002480 0.000000
# 3 0.000547 -0.000642 0.014817 0.000000 -0.004403 0.000000
# 4 0.000000 0.000000 0.000000 0.056531 0.000000 0.017970
# 5 -0.003027 -0.002480 -0.004403 0.000000 0.035096 0.000000
# 6 0.000000 0.000000 0.000000 0.017970 0.000000 -0.011614
#
#
# Mechanical properties :
#
#
# Convention : Reuss Voigt Hill
#
# Bulk Modulus (GPa) = 22.74491 25.62837 24.18664
# Shear Modulus (GPa) = 37.34919 12.54107 24.94513
#
# Velocity S-wave (km/s) = 3.92713 2.27563 3.20942
# Velocity P-wave (km/s) = 5.47312 4.18177 4.87043
#
# Compressibility (1/GPa) = 0.04396587
#
# Stress axis : x y z
#
# Youngs Moduli (GPa) = 60.71779 97.10614 67.48821
#
# Poissons Ratio (x) = -0.12486 -0.03689
# Poissons Ratio (y) = -0.07807 0.04332
# Poissons Ratio (z) = -0.03319 0.06234
#
# Static dielectric constant tensor:
#      x y z
#    x 2.037720 0.000000 0.003150 
#    y 0.000000 1.899670 0.000000 
#    z 0.003150 0.000000 1.935830 
# 
# From -- ./inp_files/2675.got.cif
#   From: 2010.05.17/outbox.cif.g08.bks.cpg/sg11_2_cif.got.tgz:2675.got - 2010.06.03 12:22:45.
