data_PCOD9166618
_publ_section_title
;
Structure prediction by ZEFSAII (Michael W. Deem and Ramdas Pophale) SiO2 
 PCOD9166618
Probable space group: P 21/M
;
_chemical_formula_sum "Si O2"
_cell_formula_units_Z 28
_cell_length_a 5.975408
_cell_length_b 28.399647
_cell_length_c 8.179613
_cell_angle_alpha 90.000000
_cell_angle_beta 61.136420
_cell_angle_gamma 90.000000
_cell_volume 1215.637516
_symmetry_space_group_name_H-M "P 21/M"
_symmetry_group_IT_number 11
_symmetry_cell_setting 'monoclinic'
loop_
_space_group_symop_operation_xyz
x,y,z
-x,1/2+y,-z
-x,-y,-z
x,1/2-y,z
loop_
_atom_site_type_symbol
_atom_site_label
_atom_site_fract_x
_atom_site_fract_y
_atom_site_fract_z
Si Si1 0.413190 0.088017 0.888505
Si Si2 0.965727 0.750000 0.573888
Si Si3 0.637037 0.368015 0.107784
Si Si4 0.832927 0.453986 0.517924
Si Si5 0.416342 0.250000 0.620581
Si Si6 0.113679 0.352589 0.438091
Si Si7 0.917459 0.456914 0.138914
Si Si8 0.882277 0.662143 0.192061
O O1 0.521456 0.128259 0.967878
O O2 0.261812 0.113647 0.796568
O O3 0.619712 0.054318 0.731868
O O4 0.199812 0.063618 0.076203
O O5 0.748986 0.750000 0.496687
O O6 0.925055 0.804191 0.651610
O O7 0.277910 0.750000 0.469249
O O8 0.876690 0.333223 0.013179
O O9 0.418392 0.359924 0.316342
O O10 0.759433 0.419036 0.093632
O O11 0.970856 0.402134 0.453894
O O12 0.756125 0.465251 0.358562
O O13 0.000000 0.500000 0.500000
O O14 0.313274 0.204254 0.748473
O O15 0.029771 0.340418 0.651456
O O16 0.000000 0.500000 0.000000
#
# Coordination Sequence:
#
# PCOD9166618 Si02
#       8
#     4   2   4   4   2   4   4   4
#     4  11  23  43  66  92 138 177 233 288 355 429
#     4  10  24  45  75 106 139 197 231 306 369 435
#     4  11  23  42  67  99 135 182 232 294 359 423
#     4  12  25  40  70  99 135 189 233 290 362 438
#     4  10  22  43  73 104 143 181 243 298 369 427
#     4  11  23  45  70  99 142 178 241 293 363 435
#     4  11  26  42  64  97 139 184 236 295 357 431
#     4  10  23  42  70  97 131 183 230 292 353 434
#
# _framework density 23.033185
#
# number of rings (size 3 to 8) (size 9 to 14) (size 15 to 20)
#    0.000    1.143    2.857    2.571    6.000    3.429 
#    0.000    0.714    0.000    0.000    0.000    0.000 
#    0.000    0.000    0.000    0.000    0.000    0.000 
#
# Total GULP energy -155928.442726 kJ/mol
# GULP energy per Si atom -5568.872954 kJ/mol
# Density = 2.298076 g / cm^3
# Si number density = 23.033185 Si / 1000 Ang^3
#
#
#
# Elastic Constant Matrix: (Units=GPa)
#
#
# Indices 1 2 3 4 5 6 
#
# 1 58.6023 11.9596 9.5047 0.0000 -22.9041 0.0000
# 2 11.9596 95.0605 1.7899 0.0000 -10.7209 0.0000
# 3 9.5047 1.7899 76.1235 0.0000 -14.1038 0.0000
# 4 0.0000 0.0000 0.0000 6.9059 0.0000 -2.6056
# 5 -22.9041 -10.7209 -14.1038 0.0000 42.2583 0.0000
# 6 0.0000 0.0000 0.0000 -2.6056 0.0000 28.4829
#
#
#
# Elastic Compliance Matrix: (Units=1/GPa)
#
#
# Indices 1 2 3 4 5 6 
#
# 1 0.021870 -0.001468 -0.000606 0.000000 0.011279 0.000000
# 2 -0.001468 0.010933 0.000312 0.000000 0.002082 0.000000
# 3 -0.000606 0.000312 0.014026 0.000000 0.004432 0.000000
# 4 0.000000 0.000000 0.000000 0.149981 0.000000 0.013720
# 5 0.011279 0.002082 0.004432 0.000000 0.031785 0.000000
# 6 0.000000 0.000000 0.000000 0.013720 0.000000 0.036364
#
#
# Mechanical properties :
#
#
# Convention : Reuss Voigt Hill
#
# Bulk Modulus (GPa) = 23.09224 30.69940 26.89582
# Shear Modulus (GPa) = 17.67293 29.29823 23.48558
#
# Velocity S-wave (km/s) = 2.77299 3.57038 3.19665
# Velocity P-wave (km/s) = 4.50556 5.50946 5.03260
#
# Compressibility (1/GPa) = 0.04330458
#
# Stress axis : x y z
#
# Youngs Moduli (GPa) = 45.72385 91.46390 71.29618
#
# Poissons Ratio (x) = 0.13428 0.04324
# Poissons Ratio (y) = 0.06713 -0.02224
# Poissons Ratio (z) = 0.02773 -0.02854
#
# Static dielectric constant tensor:
#      x y z
#    x 2.043710 0.000000 0.087500 
#    y 0.000000 1.726830 0.000000 
#    z 0.087500 0.000000 1.901910 
# 
# From -- ./inp_files/10813.got.cif
#   From: 2010.05.17/outbox.cif.g08.bks.cpg/sg11_6_cif.got.tgz:10813.got - 2010.06.03 12:22:45.
