data_PCOD9166558
_publ_section_title
;
Structure prediction by ZEFSAII (Michael W. Deem and Ramdas Pophale) SiO2 
 PCOD9166558
Probable space group: P 21/M
;
_chemical_formula_sum "Si O2"
_cell_formula_units_Z 30
_cell_length_a 13.361482
_cell_length_b 18.688863
_cell_length_c 11.125193
_cell_angle_alpha 90.000000
_cell_angle_beta 148.437597
_cell_angle_gamma 90.000000
_cell_volume 1454.122857
_symmetry_space_group_name_H-M "P 21/M"
_symmetry_group_IT_number 11
_symmetry_cell_setting 'monoclinic'
loop_
_space_group_symop_operation_xyz
x,y,z
-x,1/2+y,-z
-x,-y,-z
x,1/2-y,z
loop_
_atom_site_type_symbol
_atom_site_label
_atom_site_fract_x
_atom_site_fract_y
_atom_site_fract_z
Si Si1 0.306608 0.834780 0.434838
Si Si2 0.033190 0.112167 0.458641
Si Si3 0.993002 0.878981 0.927972
Si Si4 0.370498 0.063518 0.313412
Si Si5 0.763987 0.466278 0.014992
Si Si6 0.475954 0.424215 0.907708
Si Si7 0.968017 0.750000 0.716481
Si Si8 0.758005 0.336061 0.359056
O O1 0.328471 0.750000 0.456390
O O2 0.115426 0.854664 0.167682
O O3 0.488582 0.870039 0.557841
O O4 0.288363 0.859753 0.553524
O O5 0.255473 0.095793 0.678569
O O6 0.994570 0.185568 0.345208
O O7 0.950808 0.128049 0.505923
O O8 0.914369 0.046905 0.276620
O O9 0.137358 0.925793 0.995070
O O10 0.807042 0.920972 0.781653
O O11 0.937387 0.812332 0.788435
O O12 0.500000 0.000000 0.500000
O O13 0.292276 0.041300 0.101234
O O14 0.571912 0.431730 0.874371
O O15 0.500000 0.500000 0.000000
O O16 0.593979 0.364668 0.101742
O O17 0.770419 0.250000 0.369449
#
# Coordination Sequence:
#
# PCOD9166558 Si02
#       8
#     4   4   4   4   4   4   2   4
#     4  11  25  44  69  99 139 180 223 281 336 407
#     4  10  23  44  72 100 133 180 221 283 345 395
#     4  11  24  44  68  99 136 178 225 274 340 404
#     4  12  26  42  65 100 137 180 226 277 339 404
#     4  10  24  42  67 102 133 176 227 277 335 409
#     4  11  25  44  68 104 136 174 229 284 339 400
#     4  10  22  42  70 100 128 170 230 272 336 408
#     4  10  23  44  68 100 133 175 226 270 338 410
#
# _framework density 20.630994999999999
#
# number of rings (size 3 to 8) (size 9 to 14) (size 15 to 20)
#    0.000    1.333    2.667    1.200    5.600    5.333 
#    0.000    2.667    0.000    0.000    0.000    0.000 
#    0.000    0.000    0.000    0.000    0.000    0.000 
#
# Total GULP energy -167101.396139 kJ/mol
# GULP energy per Si atom -5570.046538 kJ/mol
# Density = 2.058404 g / cm^3
# Si number density = 20.630995 Si / 1000 Ang^3
#
#
#
# Elastic Constant Matrix: (Units=GPa)
#
#
# Indices 1 2 3 4 5 6 
#
# 1 107.0026 23.1702 43.2536 0.0000 21.0649 0.0000
# 2 23.1702 62.6347 26.7327 0.0000 11.6146 0.0000
# 3 43.2536 26.7327 72.9719 0.0000 36.7495 0.0000
# 4 0.0000 0.0000 0.0000 20.3098 0.0000 -2.3378
# 5 21.0649 11.6146 36.7495 0.0000 35.1118 0.0000
# 6 0.0000 0.0000 0.0000 -2.3378 0.0000 49.2680
#
#
#
# Elastic Compliance Matrix: (Units=1/GPa)
#
#
# Indices 1 2 3 4 5 6 
#
# 1 0.012448 -0.001713 -0.006926 0.000000 0.000348 0.000000
# 2 -0.001713 0.019234 -0.007072 0.000000 0.002067 0.000000
# 3 -0.006926 -0.007072 0.036222 0.000000 -0.031417 0.000000
# 4 0.000000 0.000000 0.000000 0.049508 0.000000 0.002349
# 5 0.000348 0.002067 -0.031417 0.000000 0.060470 0.000000
# 6 0.000000 0.000000 0.000000 0.002349 0.000000 0.020409
#
#
# Mechanical properties :
#
#
# Convention : Reuss Voigt Hill
#
# Bulk Modulus (GPa) = 27.41059 47.65803 37.53431
# Shear Modulus (GPa) = 20.67202 30.90142 25.78672
#
# Velocity S-wave (km/s) = 3.16885 3.87436 3.53923
# Velocity P-wave (km/s) = 5.16757 6.56998 5.91052
#
# Compressibility (1/GPa) = 0.03648225
#
# Stress axis : x y z
#
# Youngs Moduli (GPa) = 80.33611 51.99032 27.60778
#
# Poissons Ratio (x) = 0.08907 0.19120
# Poissons Ratio (y) = 0.13764 0.19523
# Poissons Ratio (z) = 0.55639 0.36766
#
# Static dielectric constant tensor:
#      x y z
#    x 1.751960 0.000000 -0.026930 
#    y 0.000000 1.720360 0.000000 
#    z -0.026930 0.000000 1.740470 
# 
# From -- ./inp_files/36466.got.cif
#   From: 2010.05.17/outbox.cif.g08.bks.cpg/sg11_19_cif.got.tgz:36466.got - 2010.06.03 12:22:45.
