data_PCOD9166468
_publ_section_title
;
Structure prediction by ZEFSAII (Michael W. Deem and Ramdas Pophale) SiO2 
 PCOD9166468
Probable space group: P 21/M
;
_chemical_formula_sum "Si O2"
_cell_formula_units_Z 28
_cell_length_a 11.933727
_cell_length_b 8.850334
_cell_length_c 15.755285
_cell_angle_alpha 90.000000
_cell_angle_beta 55.756229
_cell_angle_gamma 90.000000
_cell_volume 1375.574707
_symmetry_space_group_name_H-M "P 21/M"
_symmetry_group_IT_number 11
_symmetry_cell_setting 'monoclinic'
loop_
_space_group_symop_operation_xyz
x,y,z
-x,1/2+y,-z
-x,-y,-z
x,1/2-y,z
loop_
_atom_site_type_symbol
_atom_site_label
_atom_site_fract_x
_atom_site_fract_y
_atom_site_fract_z
Si Si1 0.416323 0.931363 0.614117
Si Si2 0.377060 0.423341 0.167462
Si Si3 0.901813 0.930898 0.469893
Si Si4 0.898422 0.068644 0.290739
Si Si5 0.621753 0.430059 0.651268
Si Si6 0.688915 0.423110 0.974340
Si Si7 0.069709 0.429505 0.051409
O O1 0.431377 0.750000 0.609992
O O2 0.257915 0.965716 0.667308
O O3 0.500000 0.000000 0.500000
O O4 0.485216 0.002093 0.668272
O O5 0.335550 0.250000 0.201949
O O6 0.364964 0.522506 0.256499
O O7 0.299258 0.492184 0.120491
O O8 0.533745 0.423576 0.071115
O O9 0.902603 0.750000 0.475391
O O10 0.940430 0.985120 0.358985
O O11 0.750784 0.995653 0.549782
O O12 0.000000 0.000000 0.500000
O O13 0.907639 0.250000 0.300795
O O14 0.990711 0.027583 0.171237
O O15 0.624606 0.250000 0.639378
O O16 0.732471 0.250000 0.947093
O O17 0.779464 0.508652 0.003522
O O18 0.068244 0.250000 0.045785
O O19 0.000000 0.500000 0.000000
#
# Coordination Sequence:
#
# PCOD9166468 Si02
#       7
#     4   4   4   4   4   4   4
#     4  11  22  40  65  93 126 163 209 259 314 375
#     4  10  22  41  66  94 126 166 212 264 322 379
#     4  12  26  44  68  96 132 172 217 266 322 389
#     4  10  24  45  67  92 129 172 215 267 324 383
#     4  12  25  41  64  96 131 167 213 262 317 382
#     4  10  22  42  66  93 127 165 212 266 323 383
#     4  11  25  44  66  94 129 171 218 267 324 385
#
# _framework density 20.355128000000001
#
# number of rings (size 3 to 8) (size 9 to 14) (size 15 to 20)
#    0.000    1.143    1.429    4.286    4.000    3.429 
#    0.000    0.000    0.000    0.000    0.000    0.000 
#    0.000    0.000    0.000    0.000    0.000    0.000 
#
# Total GULP energy -156677.733740 kJ/mol
# GULP energy per Si atom -5595.633348 kJ/mol
# Density = 2.030880 g / cm^3
# Si number density = 20.355128 Si / 1000 Ang^3
#
#
#
# Elastic Constant Matrix: (Units=GPa)
#
#
# Indices 1 2 3 4 5 6 
#
# 1 101.6633 47.6004 27.7576 0.0000 33.0101 0.0000
# 2 47.6004 124.4512 42.9939 0.0000 14.4892 0.0000
# 3 27.7576 42.9939 48.8673 0.0000 18.3000 0.0000
# 4 0.0000 0.0000 0.0000 34.9387 0.0000 8.6466
# 5 33.0101 14.4892 18.3000 0.0000 32.6099 0.0000
# 6 0.0000 0.0000 0.0000 8.6466 0.0000 36.3517
#
#
#
# Elastic Compliance Matrix: (Units=1/GPa)
#
#
# Indices 1 2 3 4 5 6 
#
# 1 0.016935 -0.004814 0.000297 0.000000 -0.015171 0.000000
# 2 -0.004814 0.012926 -0.010524 0.000000 0.005035 0.000000
# 3 0.000297 -0.010524 0.035343 0.000000 -0.015458 0.000000
# 4 0.000000 0.000000 0.000000 0.030412 0.000000 -0.007234
# 5 -0.015171 0.005035 -0.015458 0.000000 0.052460 0.000000
# 6 0.000000 0.000000 0.000000 -0.007234 0.000000 0.029230
#
#
# Mechanical properties :
#
#
# Convention : Reuss Voigt Hill
#
# Bulk Modulus (GPa) = 28.47162 56.85394 42.66278
# Shear Modulus (GPa) = 22.82133 31.22204 27.02168
#
# Velocity S-wave (km/s) = 3.35200 3.92071 3.64746
# Velocity P-wave (km/s) = 5.38508 6.96330 6.22441
#
# Compressibility (1/GPa) = 0.03512269
#
# Stress axis : x y z
#
# Youngs Moduli (GPa) = 59.04876 77.36490 28.29451
#
# Poissons Ratio (x) = 0.37241 -0.00840
# Poissons Ratio (y) = 0.28424 0.29776
# Poissons Ratio (z) = -0.01753 0.81415
#
# Static dielectric constant tensor:
#      x y z
#    x 1.710170 0.000000 -0.011210 
#    y 0.000000 1.684930 0.000000 
#    z -0.011210 0.000000 1.712220 
# 
# From -- ./inp_files/49171.got.cif
#   From: 2010.05.17/outbox.cif.g08.bks.cpg/sg11_25_cif.got.tgz:49171.got - 2010.06.03 12:22:45.
