data_PCOD9166961
_publ_section_title
;
Structure prediction by ZEFSAII (Michael W. Deem and Ramdas Pophale) SiO2 
 PCOD9166961
Probable space group: P 21/M
;
_chemical_formula_sum "Si O2"
_cell_formula_units_Z 28
_cell_length_a 5.339886
_cell_length_b 27.979712
_cell_length_c 7.785781
_cell_angle_alpha 90.000000
_cell_angle_beta 112.711081
_cell_angle_gamma 90.000000
_cell_volume 1073.066337
_symmetry_space_group_name_H-M "P 21/M"
_symmetry_group_IT_number 11
_symmetry_cell_setting 'monoclinic'
loop_
_space_group_symop_operation_xyz
x,y,z
-x,1/2+y,-z
-x,-y,-z
x,1/2-y,z
loop_
_atom_site_type_symbol
_atom_site_label
_atom_site_fract_x
_atom_site_fract_y
_atom_site_fract_z
Si Si1 0.426115 0.902103 0.232836
Si Si2 0.436057 0.572612 0.849469
Si Si3 0.239919 0.998080 0.199403
Si Si4 0.067270 0.054036 0.469595
Si Si5 0.736313 0.662229 0.900996
Si Si6 0.117986 0.806598 0.691302
Si Si7 0.679613 0.806017 0.276452
O O1 0.442447 0.845045 0.258936
O O2 0.734163 0.918231 0.353248
O O3 0.262781 0.944824 0.284990
O O4 0.347461 0.914720 0.017856
O O5 0.495440 0.517059 0.830865
O O6 0.193854 0.584092 0.655044
O O7 0.701603 0.605357 0.906051
O O8 0.222405 0.039712 0.335361
O O9 0.000000 0.000000 0.000000
O O10 0.000000 0.000000 0.500000
O O11 0.960808 0.674584 0.819654
O O12 0.432469 0.677930 0.761115
O O13 0.765987 0.683238 0.101522
O O14 0.129026 0.750000 0.717833
O O15 0.926264 0.814639 0.474676
O O16 0.597562 0.750000 0.268508
#
# Coordination Sequence:
#
# PCOD9166961 Si02
#       7
#     4   4   4   4   4   4   4
#     4  11  23  43  65  96 136 182 229 290 358 426
#     4  11  25  43  64  98 141 179 232 292 349 438
#     4  12  24  41  68  97 140 180 229 289 354 431
#     4  12  24  40  66  98 139 180 230 284 354 432
#     4  11  26  45  76 107 148 195 245 306 380 438
#     4  11  24  46  74 106 145 192 250 312 371 443
#     4  10  24  45  73 107 144 190 250 309 369 440
#
# _framework density 26.093447000000001
#
# number of rings (size 3 to 8) (size 9 to 14) (size 15 to 20)
#    0.000    0.857    2.857    3.857    4.000    1.143 
#    0.000    2.857    0.000    0.000    0.000    0.000 
#    0.000    0.000    0.000    0.000    0.000    0.000 
#
# Total GULP energy -156552.339074 kJ/mol
# GULP energy per Si atom -5591.154967 kJ/mol
# Density = 2.603406 g / cm^3
# Si number density = 26.093447 Si / 1000 Ang^3
#
#
#
# Elastic Constant Matrix: (Units=GPa)
#
#
# Indices 1 2 3 4 5 6 
#
# 1 62.2048 24.6866 18.3205 0.0000 14.1172 0.0000
# 2 24.6866 157.9816 31.1547 0.0000 5.8233 0.0000
# 3 18.3205 31.1547 136.1409 0.0000 22.8802 0.0000
# 4 0.0000 0.0000 0.0000 40.7332 0.0000 4.7455
# 5 14.1172 5.8233 22.8802 0.0000 39.0280 0.0000
# 6 0.0000 0.0000 0.0000 4.7455 0.0000 34.0887
#
#
#
# Elastic Compliance Matrix: (Units=1/GPa)
#
#
# Indices 1 2 3 4 5 6 
#
# 1 0.018677 -0.002515 -0.000960 0.000000 -0.005818 0.000000
# 2 -0.002515 0.006968 -0.001369 0.000000 0.000673 0.000000
# 3 -0.000960 -0.001369 0.008536 0.000000 -0.004453 0.000000
# 4 0.000000 0.000000 0.000000 0.024955 0.000000 -0.003474
# 5 -0.005818 0.000673 -0.004453 0.000000 0.030237 0.000000
# 6 0.000000 0.000000 0.000000 -0.003474 0.000000 0.029819
#
#
# Mechanical properties :
#
#
# Convention : Reuss Voigt Hill
#
# Bulk Modulus (GPa) = 40.82784 56.07231 48.45007
# Shear Modulus (GPa) = 36.48451 41.58102 39.03276
#
# Velocity S-wave (km/s) = 3.74334 3.99625 3.87186
# Velocity P-wave (km/s) = 5.86210 6.54439 6.21262
#
# Compressibility (1/GPa) = 0.02449309
#
# Stress axis : x y z
#
# Youngs Moduli (GPa) = 53.54178 143.51258 117.14792
#
# Poissons Ratio (x) = 0.36089 0.11248
# Poissons Ratio (y) = 0.13464 0.16040
# Poissons Ratio (z) = 0.05141 0.19650
#
# Static dielectric constant tensor:
#      x y z
#    x 2.324070 0.000000 -0.200070 
#    y 0.000000 2.083890 0.000000 
#    z -0.200070 0.000000 2.155150 
# 
# From -- ./inp_files/10898.got.cif
#   From: 2010.05.17/outbox.cif.g08.bks.cpg/sg11_6_cif.got.tgz:10898.got - 2010.06.03 12:22:45.
