data_PCOD9166882
_publ_section_title
;
Structure prediction by ZEFSAII (Michael W. Deem and Ramdas Pophale) SiO2 
 PCOD9166882
Probable space group: P 21/M
;
_chemical_formula_sum "Si O2"
_cell_formula_units_Z 26
_cell_length_a 16.091731
_cell_length_b 9.460281
_cell_length_c 15.297247
_cell_angle_alpha 90.000000
_cell_angle_beta 34.999361
_cell_angle_gamma 90.000000
_cell_volume 1335.686276
_symmetry_space_group_name_H-M "P 21/M"
_symmetry_group_IT_number 11
_symmetry_cell_setting 'monoclinic'
loop_
_space_group_symop_operation_xyz
x,y,z
-x,1/2+y,-z
-x,-y,-z
x,1/2-y,z
loop_
_atom_site_type_symbol
_atom_site_label
_atom_site_fract_x
_atom_site_fract_y
_atom_site_fract_z
Si Si1 0.992281 0.583606 0.415699
Si Si2 0.105140 0.916268 0.794569
Si Si3 0.321420 0.962395 0.099232
Si Si4 0.519402 0.750000 0.019527
Si Si5 0.463392 0.911917 0.790828
Si Si6 0.180162 0.918779 0.927008
Si Si7 0.752298 0.082365 0.512213
O O1 0.958595 0.750000 0.455752
O O2 0.871754 0.505466 0.462106
O O3 0.000000 0.500000 0.500000
O O4 0.152114 0.569070 0.236692
O O5 0.067629 0.750000 0.829975
O O6 0.175355 0.953295 0.827786
O O7 0.210556 0.937320 0.622243
O O8 0.957598 0.004066 0.912426
O O9 0.392810 0.872873 0.115749
O O10 0.357200 0.125545 0.081081
O O11 0.403601 0.912553 0.940865
O O12 0.506666 0.750000 0.731873
O O13 0.330677 0.956778 0.842991
O O14 0.596071 0.018134 0.667898
O O15 0.163265 0.750000 0.951371
O O16 0.758314 0.250000 0.527014
#
# Coordination Sequence:
#
# PCOD9166882 Si02
#       7
#     4   4   4   2   4   4   4
#     4  12  27  44  65  91 123 162 204 251 304 361
#     4   9  19  39  62  90 124 157 200 250 305 364
#     4  11  24  42  64  89 119 158 197 253 295 367
#     4  10  24  40  68  88 116 156 204 246 304 350
#     4  11  23  40  62  89 121 160 206 253 304 362
#     4   9  19  37  65  91 118 159 203 251 304 365
#     4  11  26  41  59  89 126 163 203 253 304 362
#
# _framework density 19.465651000000001
#
# number of rings (size 3 to 8) (size 9 to 14) (size 15 to 20)
#    0.000    1.538    1.538    1.846    7.538    3.692 
#    0.000    0.000    0.000    0.000    0.000    0.000 
#    0.000    0.000    0.000    0.000    0.000    0.000 
#
# Total GULP energy -144794.988283 kJ/mol
# GULP energy per Si atom -5569.038011 kJ/mol
# Density = 1.942135 g / cm^3
# Si number density = 19.465651 Si / 1000 Ang^3
#
#
#
# Elastic Constant Matrix: (Units=GPa)
#
#
# Indices 1 2 3 4 5 6 
#
# 1 69.6168 36.1367 38.1746 0.0000 -18.9240 0.0000
# 2 36.1367 133.6459 41.8745 0.0000 -12.4978 0.0000
# 3 38.1746 41.8745 111.1526 0.0000 -12.0268 0.0000
# 4 0.0000 0.0000 0.0000 25.6566 0.0000 -13.6428
# 5 -18.9240 -12.4978 -12.0268 0.0000 26.3364 0.0000
# 6 0.0000 0.0000 0.0000 -13.6428 0.0000 16.1039
#
#
#
# Elastic Compliance Matrix: (Units=1/GPa)
#
#
# Indices 1 2 3 4 5 6 
#
# 1 0.022102 -0.003267 -0.005059 0.000000 0.012021 0.000000
# 2 -0.003267 0.009153 -0.002220 0.000000 0.000982 0.000000
# 3 -0.005059 -0.002220 0.011638 0.000000 0.000626 0.000000
# 4 0.000000 0.000000 0.000000 0.070928 0.000000 0.060088
# 5 0.012021 0.000982 0.000626 0.000000 0.047360 0.000000
# 6 0.000000 0.000000 0.000000 0.060088 0.000000 0.113002
#
#
# Mechanical properties :
#
#
# Convention : Reuss Voigt Hill
#
# Bulk Modulus (GPa) = 45.86946 60.75410 53.31178
# Shear Modulus (GPa) = 16.52657 26.83468 21.68062
#
# Velocity S-wave (km/s) = 2.91694 3.71693 3.34097
# Velocity P-wave (km/s) = 5.91271 7.04978 6.50614
#
# Compressibility (1/GPa) = 0.02180100
#
# Stress axis : x y z
#
# Youngs Moduli (GPa) = 45.24470 109.25085 85.92297
#
# Poissons Ratio (x) = 0.35691 0.43472
# Poissons Ratio (y) = 0.14781 0.19075
# Poissons Ratio (z) = 0.22891 0.24254
#
# Static dielectric constant tensor:
#      x y z
#    x 1.699600 0.000000 0.032020 
#    y 0.000000 1.675500 0.000000 
#    z 0.032020 0.000000 1.675280 
# 
# From -- ./inp_files/51909.got.cif
#   From: 2010.05.17/outbox.cif.g08.bks.cpg/sg11_26_cif.got.tgz:51909.got - 2010.06.03 12:22:45.
