data_PCOD9166903
_publ_section_title
;
Structure prediction by ZEFSAII (Michael W. Deem and Ramdas Pophale) SiO2 
 PCOD9166903
Probable space group: P 21/M
;
_chemical_formula_sum "Si O2"
_cell_formula_units_Z 22
_cell_length_a 11.873812
_cell_length_b 12.476932
_cell_length_c 14.638651
_cell_angle_alpha 90.000000
_cell_angle_beta 26.540801
_cell_angle_gamma 90.000000
_cell_volume 969.050055
_symmetry_space_group_name_H-M "P 21/M"
_symmetry_group_IT_number 11
_symmetry_cell_setting 'monoclinic'
loop_
_space_group_symop_operation_xyz
x,y,z
-x,1/2+y,-z
-x,-y,-z
x,1/2-y,z
loop_
_atom_site_type_symbol
_atom_site_label
_atom_site_fract_x
_atom_site_fract_y
_atom_site_fract_z
Si Si1 0.440114 0.250000 0.141534
Si Si2 0.310033 0.372142 0.561410
Si Si3 0.466283 0.368729 0.841165
Si Si4 0.935007 0.873674 0.601239
Si Si5 0.720033 0.953654 0.214667
Si Si6 0.792652 0.450796 0.848735
O O1 0.274537 0.348130 0.321714
O O2 0.615697 0.347056 0.968623
O O3 0.354473 0.250000 0.504556
O O4 0.296309 0.385146 0.681054
O O5 0.531190 0.447380 0.365218
O O6 0.045875 0.412780 0.713737
O O7 0.381932 0.250000 0.930634
O O8 0.374959 0.389101 0.804243
O O9 0.770557 0.369432 0.625469
O O10 0.343786 0.459871 0.990936
O O11 0.855001 0.750000 0.704085
O O12 0.869667 0.979394 0.703994
O O13 0.000000 0.000000 0.000000
#
# Coordination Sequence:
#
# PCOD9166903 Si02
#       6
#     2   4   4   4   4   4
#     4  10  24  42  68  92 124 168 210 270 320 382
#     4  11  24  41  66  97 133 169 215 262 321 385
#     4  11  23  41  65  93 129 169 213 262 314 381
#     4   9  22  43  61  91 124 161 218 259 315 378
#     4  11  23  44  64  95 131 172 213 259 313 388
#     4  12  21  42  67  93 128 167 211 263 325 377
#
# _framework density 22.702646000000001
#
# number of rings (size 3 to 8) (size 9 to 14) (size 15 to 20)
#    0.545    0.727    4.545    1.636    0.000    2.182 
#    1.636    0.909    0.000    0.000    0.000    0.000 
#    0.000    0.000    0.000    0.000    0.000    0.000 
#
# Total GULP energy -122523.583019 kJ/mol
# GULP energy per Si atom -5569.253774 kJ/mol
# Density = 2.265097 g / cm^3
# Si number density = 22.702646 Si / 1000 Ang^3
#
#
#
# Elastic Constant Matrix: (Units=GPa)
#
#
# Indices 1 2 3 4 5 6 
#
# 1 66.3990 36.8899 10.5532 0.0000 -6.0714 0.0000
# 2 36.8899 165.9136 6.3510 0.0000 -5.5984 0.0000
# 3 10.5532 6.3510 59.8368 0.0000 -27.2880 0.0000
# 4 0.0000 0.0000 0.0000 37.2428 0.0000 -15.1188
# 5 -6.0714 -5.5984 -27.2880 0.0000 27.9370 0.0000
# 6 0.0000 0.0000 0.0000 -15.1188 0.0000 9.8018
#
#
#
# Elastic Compliance Matrix: (Units=1/GPa)
#
#
# Indices 1 2 3 4 5 6 
#
# 1 0.017616 -0.003801 -0.002353 0.000000 0.000768 0.000000
# 2 -0.003801 0.006889 0.000346 0.000000 0.000893 0.000000
# 3 -0.002353 0.000346 0.030455 0.000000 0.029305 0.000000
# 4 0.000000 0.000000 0.000000 0.071824 0.000000 0.110785
# 5 0.000768 0.000893 0.029305 0.000000 0.064765 0.000000
# 6 0.000000 0.000000 0.000000 0.110785 0.000000 0.272902
#
#
# Mechanical properties :
#
#
# Convention : Reuss Voigt Hill
#
# Bulk Modulus (GPa) = 23.07077 44.41528 33.74302
# Shear Modulus (GPa) = 10.19336 30.88669 20.54003
#
# Velocity S-wave (km/s) = 2.12125 3.69248 3.01116
# Velocity P-wave (km/s) = 4.02291 6.14700 5.19468
#
# Compressibility (1/GPa) = 0.04334490
#
# Stress axis : x y z
#
# Youngs Moduli (GPa) = 56.76524 145.15454 32.83561
#
# Poissons Ratio (x) = 0.55172 0.07727
# Poissons Ratio (y) = 0.21576 -0.01137
# Poissons Ratio (z) = 0.13357 -0.05026
#
# Static dielectric constant tensor:
#      x y z
#    x 1.869410 0.000000 0.073950 
#    y 0.000000 1.880400 0.000000 
#    z 0.073950 0.000000 1.892400 
# 
# From -- ./inp_files/39155.got.cif
#   From: 2010.05.17/outbox.cif.g08.bks.cpg/sg11_20_cif.got.tgz:39155.got - 2010.06.03 12:22:45.
