data_PCOD9166548
_publ_section_title
;
Structure prediction by ZEFSAII (Michael W. Deem and Ramdas Pophale) SiO2 
 PCOD9166548
Probable space group: P 21/M
;
_chemical_formula_sum "Si O2"
_cell_formula_units_Z 20
_cell_length_a 7.556243
_cell_length_b 23.621749
_cell_length_c 7.818237
_cell_angle_alpha 90.000000
_cell_angle_beta 35.343234
_cell_angle_gamma 90.000000
_cell_volume 807.253830
_symmetry_space_group_name_H-M "P 21/M"
_symmetry_group_IT_number 11
_symmetry_cell_setting 'monoclinic'
loop_
_space_group_symop_operation_xyz
x,y,z
-x,1/2+y,-z
-x,-y,-z
x,1/2-y,z
loop_
_atom_site_type_symbol
_atom_site_label
_atom_site_fract_x
_atom_site_fract_y
_atom_site_fract_z
Si Si1 0.529702 0.250000 0.798206
Si Si2 0.196182 0.057692 0.139287
Si Si3 0.621238 0.346695 0.200737
Si Si4 0.141208 0.564097 0.262136
Si Si5 0.742721 0.849856 0.188523
Si Si6 0.809195 0.750000 0.607482
O O1 0.490933 0.306373 0.717316
O O2 0.824426 0.250000 0.690723
O O3 0.239225 0.250000 0.151451
O O4 0.097319 0.081537 0.403704
O O5 0.053171 0.994983 0.240913
O O6 0.559824 0.050412 0.860522
O O7 0.145819 0.101305 0.027526
O O8 0.440082 0.373776 0.503853
O O9 0.372098 0.303196 0.324955
O O10 0.751650 0.389936 0.957649
O O11 0.941391 0.318752 0.009412
#
# Coordination Sequence:
#
# PCOD9166548 Si02
#       6
#     2   4   4   4   4   2
#     4  12  26  46  70  94 131 180 229 274 332 406
#     4  10  22  42  67  97 135 179 225 269 323 399
#     4  12  25  42  67 101 138 173 221 282 341 394
#     4  10  22  42  67  97 135 179 225 269 323 399
#     4  12  25  42  67 101 138 173 221 282 341 394
#     4  12  26  46  70  94 131 180 229 274 332 406
#
# _framework density 24.775355000000001
#
# number of rings (size 3 to 8) (size 9 to 14) (size 15 to 20)
#    0.000    0.800    0.000    7.200    0.000    4.800 
#    0.000    0.000    0.000    0.000    0.000    0.000 
#    0.000    0.000    0.000    0.000    0.000    0.000 
#
# Total GULP energy -111900.506659 kJ/mol
# GULP energy per Si atom -5595.025333 kJ/mol
# Density = 2.471896 g / cm^3
# Si number density = 24.775355 Si / 1000 Ang^3
#
#
#
# Elastic Constant Matrix: (Units=GPa)
#
#
# Indices 1 2 3 4 5 6 
#
# 1 78.2561 50.3077 26.7522 0.0000 -12.9554 0.0000
# 2 50.3077 127.7835 46.0495 0.0000 24.1688 0.0000
# 3 26.7522 46.0495 154.2059 0.0000 10.7825 0.0000
# 4 0.0000 0.0000 0.0000 28.6964 0.0000 -8.8124
# 5 -12.9554 24.1688 10.7825 0.0000 60.9342 0.0000
# 6 0.0000 0.0000 0.0000 -8.8124 0.0000 -69.7123
#
#
#
# Elastic Compliance Matrix: (Units=1/GPa)
#
#
# Indices 1 2 3 4 5 6 
#
# 1 0.020474 -0.009107 -0.001407 0.000000 0.008214 0.000000
# 2 -0.009107 0.013420 -0.001944 0.000000 -0.006915 0.000000
# 3 -0.001407 -0.001944 0.007368 0.000000 -0.000832 0.000000
# 4 0.000000 0.000000 0.000000 0.033545 0.000000 -0.004240
# 5 0.008214 -0.006915 -0.000832 0.000000 0.021048 0.000000
# 6 0.000000 0.000000 0.000000 -0.004240 0.000000 -0.013809
#
#
# Mechanical properties :
#
#
# Convention : Reuss Voigt Hill
#
# Bulk Modulus (GPa) = 61.17873 67.38494 64.28183
# Shear Modulus (GPa) = 44.48027 19.79274 32.13650
#
# Velocity S-wave (km/s) = 4.24175 2.82953 3.60546
# Velocity P-wave (km/s) = 6.98118 6.15893 6.58290
#
# Compressibility (1/GPa) = 0.01634555
#
# Stress axis : x y z
#
# Youngs Moduli (GPa) = 48.84261 74.51768 135.73071
#
# Poissons Ratio (x) = 0.67865 0.19092
# Poissons Ratio (y) = 0.44482 0.26385
# Poissons Ratio (z) = 0.06870 0.14486
#
# Static dielectric constant tensor:
#      x y z
#    x 2.004650 0.000000 0.004880 
#    y 0.000000 2.030970 0.000000 
#    z 0.004880 0.000000 1.915150 
# 
# From -- ./inp_files/14902.got.cif
#   From: 2010.05.17/outbox.cif.g08.bks.cpg/sg11_8_cif.got.tgz:14902.got - 2010.06.03 12:22:45.
