data_PCOD9166309
_publ_section_title
;
Structure prediction by ZEFSAII (Michael W. Deem and Ramdas Pophale) SiO2 
 PCOD9166309
Probable space group: P 21/M
;
_chemical_formula_sum "Si O2"
_cell_formula_units_Z 24
_cell_length_a 17.006445
_cell_length_b 10.880661
_cell_length_c 10.929852
_cell_angle_alpha 90.000000
_cell_angle_beta 147.777157
_cell_angle_gamma 90.000000
_cell_volume 1078.411018
_symmetry_space_group_name_H-M "P 21/M"
_symmetry_group_IT_number 11
_symmetry_cell_setting 'monoclinic'
loop_
_space_group_symop_operation_xyz
x,y,z
-x,1/2+y,-z
-x,-y,-z
x,1/2-y,z
loop_
_atom_site_type_symbol
_atom_site_label
_atom_site_fract_x
_atom_site_fract_y
_atom_site_fract_z
Si Si1 0.567210 0.750000 0.350575
Si Si2 0.089671 0.250000 0.243765
Si Si3 0.551859 0.750000 0.613340
Si Si4 0.760468 0.983396 0.939662
Si Si5 0.337186 0.613629 0.684870
Si Si6 0.390305 0.981158 0.013811
Si Si7 0.052528 0.515190 0.208977
Si Si8 0.761238 0.250000 0.798929
O O1 0.746221 0.750000 0.597700
O O2 0.512542 0.750000 0.417396
O O3 0.499740 0.867968 0.193376
O O4 0.082074 0.378846 0.302035
O O5 0.928340 0.250000 0.963466
O O6 0.641729 0.622954 0.750992
O O7 0.394684 0.750000 0.475757
O O8 0.733259 0.010184 0.045992
O O9 0.753346 0.116596 0.860537
O O10 0.918809 0.929329 0.109473
O O11 0.316186 0.750000 0.702119
O O12 0.497900 0.594717 0.840084
O O13 0.207370 0.581541 0.421666
O O14 0.329877 0.532277 0.797893
O O15 0.000000 0.500000 0.000000
#
# Coordination Sequence:
#
# PCOD9166309 Si02
#       8
#     2   2   2   4   4   4   4   2
#     4  12  20  42  69  95 139 181 224 280 346 412
#     4  10  22  40  62  93 130 181 219 269 341 410
#     4  12  24  38  67 102 142 172 230 292 344 413
#     4  11  25  43  67 105 134 183 228 287 348 410
#     4  11  26  45  70 100 137 185 237 288 344 414
#     4  11  24  45  70  99 136 184 234 285 342 410
#     4  11  25  44  69 101 141 177 226 287 348 417
#     4  10  22  40  62  90 139 180 229 271 341 415
#
# _framework density 22.254966
#
# number of rings (size 3 to 8) (size 9 to 14) (size 15 to 20)
#    0.000    1.000    4.167    1.500    3.500    2.000 
#    0.000    0.000    0.000    0.000    0.000    0.000 
#    0.000    0.000    0.000    0.000    0.000    0.000 
#
# Total GULP energy -133868.642410 kJ/mol
# GULP energy per Si atom -5577.860100 kJ/mol
# Density = 2.220431 g / cm^3
# Si number density = 22.254966 Si / 1000 Ang^3
#
#
#
# Elastic Constant Matrix: (Units=GPa)
#
#
# Indices 1 2 3 4 5 6 
#
# 1 100.5545 -4.5025 43.8147 0.0000 11.9855 0.0000
# 2 -4.5025 71.5851 20.2734 0.0000 -0.1553 0.0000
# 3 43.8147 20.2734 105.6891 0.0000 13.1695 0.0000
# 4 0.0000 0.0000 0.0000 25.8713 0.0000 -0.1117
# 5 11.9855 -0.1553 13.1695 0.0000 46.1595 0.0000
# 6 0.0000 0.0000 0.0000 -0.1117 0.0000 25.3980
#
#
#
# Elastic Compliance Matrix: (Units=1/GPa)
#
#
# Indices 1 2 3 4 5 6 
#
# 1 0.012640 0.002342 -0.005476 0.000000 -0.001712 0.000000
# 2 0.002342 0.015241 -0.003966 0.000000 0.000575 0.000000
# 3 -0.005476 -0.003966 0.012771 0.000000 -0.002235 0.000000
# 4 0.000000 0.000000 0.000000 0.038654 0.000000 0.000170
# 5 -0.001712 0.000575 -0.002235 0.000000 0.022748 0.000000
# 6 0.000000 0.000000 0.000000 0.000170 0.000000 0.039374
#
#
# Mechanical properties :
#
#
# Convention : Reuss Voigt Hill
#
# Bulk Modulus (GPa) = 37.80406 44.11110 40.95758
# Shear Modulus (GPa) = 30.40527 34.03530 32.22029
#
# Velocity S-wave (km/s) = 3.70026 3.91491 3.80910
# Velocity P-wave (km/s) = 5.93966 6.34817 6.14731
#
# Compressibility (1/GPa) = 0.02645218
#
# Stress axis : x y z
#
# Youngs Moduli (GPa) = 79.11520 65.61164 78.30158
#
# Poissons Ratio (x) = -0.15367 0.42878
# Poissons Ratio (y) = -0.18530 0.31056
# Poissons Ratio (z) = 0.43323 0.26023
#
# Static dielectric constant tensor:
#      x y z
#    x 1.824140 0.000000 0.047600 
#    y 0.000000 1.964460 0.000000 
#    z 0.047600 0.000000 1.838010 
# 
# From -- ./inp_files/41401.got.cif
#   From: 2010.05.17/outbox.cif.g08.bks.cpg/sg11_21_cif.got.tgz:41401.got - 2010.06.03 12:22:45.
