data_PCOD9166625
_publ_section_title
;
Structure prediction by ZEFSAII (Michael W. Deem and Ramdas Pophale) SiO2 
 PCOD9166625
Probable space group: P 21/M
;
_chemical_formula_sum "Si O2"
_cell_formula_units_Z 28
_cell_length_a 5.596203
_cell_length_b 17.359000
_cell_length_c 15.131641
_cell_angle_alpha 90.000000
_cell_angle_beta 77.543431
_cell_angle_gamma 90.000000
_cell_volume 1435.352455
_symmetry_space_group_name_H-M "P 21/M"
_symmetry_group_IT_number 11
_symmetry_cell_setting 'monoclinic'
loop_
_space_group_symop_operation_xyz
x,y,z
-x,1/2+y,-z
-x,-y,-z
x,1/2-y,z
loop_
_atom_site_type_symbol
_atom_site_label
_atom_site_fract_x
_atom_site_fract_y
_atom_site_fract_z
Si Si1 0.625423 0.750000 0.246098
Si Si2 0.625122 0.045697 0.318270
Si Si3 0.928884 0.954010 0.416625
Si Si4 0.321727 0.497697 0.880152
Si Si5 0.206325 0.580555 0.073211
Si Si6 0.464680 0.161400 0.468160
Si Si7 0.624118 0.117379 0.627546
Si Si8 0.812131 0.250000 0.863514
O O1 0.555176 0.674376 0.308445
O O2 0.420413 0.750000 0.184818
O O3 0.911290 0.750000 0.198926
O O4 0.532233 0.123510 0.370095
O O5 0.869163 0.019727 0.350105
O O6 0.642471 0.045264 0.212439
O O7 0.462842 0.971445 0.360278
O O8 0.722096 0.896634 0.469526
O O9 0.109581 0.894177 0.353424
O O10 0.000000 0.000000 0.500000
O O11 0.573857 0.451325 0.881082
O O12 0.072300 0.448008 0.885076
O O13 0.270565 0.549140 0.970537
O O14 0.208669 0.672055 0.079176
O O15 0.392049 0.250000 0.468246
O O16 0.676140 0.151056 0.525428
#
# Coordination Sequence:
#
# PCOD9166625 Si02
#       8
#     2   4   4   4   4   4   4   2
#     4  12  28  36  64  99 131 160 212 266 324 378
#     4  11  22  38  62  88 117 164 220 253 302 386
#     4  11  21  38  60  83 117 168 215 253 312 367
#     4  10  23  41  68  96 120 168 211 263 309 390
#     4  10  22  44  66  93 131 158 205 263 337 377
#     4  11  23  38  54  85 127 165 208 262 312 361
#     4  11  22  38  57  87 125 165 205 261 312 367
#     4  12  24  42  62  99 127 166 196 268 332 388
#
# _framework density 19.507404000000001
#
# number of rings (size 3 to 8) (size 9 to 14) (size 15 to 20)
#    0.000    1.143    3.571    3.429    9.000    0.000 
#    1.286    0.000    0.000    0.000    3.714    0.000 
#    0.000    0.000    0.000    0.000    0.000    0.000 
#
# Total GULP energy -155946.885489 kJ/mol
# GULP energy per Si atom -5569.531625 kJ/mol
# Density = 1.946300 g / cm^3
# Si number density = 19.507404 Si / 1000 Ang^3
#
#
#
# Elastic Constant Matrix: (Units=GPa)
#
#
# Indices 1 2 3 4 5 6 
#
# 1 85.0645 21.4196 19.5023 0.0000 4.4904 0.0000
# 2 21.4196 93.9307 20.7659 0.0000 2.2245 0.0000
# 3 19.5023 20.7659 61.9110 0.0000 9.4535 0.0000
# 4 0.0000 0.0000 0.0000 28.1015 0.0000 -2.9643
# 5 4.4904 2.2245 9.4535 0.0000 23.0624 0.0000
# 6 0.0000 0.0000 0.0000 -2.9643 0.0000 20.7519
#
#
#
# Elastic Compliance Matrix: (Units=1/GPa)
#
#
# Indices 1 2 3 4 5 6 
#
# 1 0.013115 -0.002255 -0.003220 0.000000 -0.001016 0.000000
# 2 -0.002255 0.011892 -0.003382 0.000000 0.000678 0.000000
# 3 -0.003220 -0.003382 0.019368 0.000000 -0.006986 0.000000
# 4 0.000000 0.000000 0.000000 0.036130 0.000000 0.005161
# 5 -0.001016 0.000678 -0.006986 0.000000 0.046357 0.000000
# 6 0.000000 0.000000 0.000000 0.005161 0.000000 0.048925
#
#
# Mechanical properties :
#
#
# Convention : Reuss Voigt Hill
#
# Bulk Modulus (GPa) = 37.50754 40.47577 38.99166
# Shear Modulus (GPa) = 24.70509 26.33107 25.51808
#
# Velocity S-wave (km/s) = 3.56258 3.67795 3.62072
# Velocity P-wave (km/s) = 6.01595 6.23140 6.12462
#
# Compressibility (1/GPa) = 0.02666130
#
# Stress axis : x y z
#
# Youngs Moduli (GPa) = 76.24606 84.09037 51.63268
#
# Poissons Ratio (x) = 0.18961 0.16625
# Poissons Ratio (y) = 0.17193 0.17462
# Poissons Ratio (z) = 0.24551 0.28440
#
# Static dielectric constant tensor:
#      x y z
#    x 2.028400 0.000000 0.077310 
#    y 0.000000 1.704190 0.000000 
#    z 0.077310 0.000000 1.742870 
# 
# From -- ./inp_files/45905.got.cif
#   From: 2010.05.17/outbox.cif.g08.bks.cpg/sg11_23_cif.got.tgz:45905.got - 2010.06.03 12:22:45.
