data_PCOD9166790
_publ_section_title
;
Structure prediction by ZEFSAII (Michael W. Deem and Ramdas Pophale) SiO2 
 PCOD9166790
Probable space group: P 21/M
;
_chemical_formula_sum "Si O2"
_cell_formula_units_Z 20
_cell_length_a 10.861355
_cell_length_b 9.879940
_cell_length_c 23.116123
_cell_angle_alpha 90.000000
_cell_angle_beta 160.693179
_cell_angle_gamma 90.000000
_cell_volume 820.146242
_symmetry_space_group_name_H-M "P 21/M"
_symmetry_group_IT_number 11
_symmetry_cell_setting 'monoclinic'
loop_
_space_group_symop_operation_xyz
x,y,z
-x,1/2+y,-z
-x,-y,-z
x,1/2-y,z
loop_
_atom_site_type_symbol
_atom_site_label
_atom_site_fract_x
_atom_site_fract_y
_atom_site_fract_z
Si Si1 0.630505 0.250000 0.577005
Si Si2 0.669952 0.250000 0.950830
Si Si3 0.563876 0.750000 0.637690
Si Si4 0.290263 0.750000 0.263969
Si Si5 0.605134 0.476460 0.354109
Si Si6 0.448855 0.750000 0.873953
Si Si7 0.778782 0.750000 0.892209
Si Si8 0.245445 0.026016 0.830251
O O1 0.412302 0.250000 0.420091
O O2 0.476533 0.250000 0.573372
O O3 0.883833 0.112852 0.686146
O O4 0.033054 0.250000 0.153565
O O5 0.790936 0.250000 0.937540
O O6 0.450866 0.118947 0.873995
O O7 0.364561 0.883361 0.574847
O O8 0.394998 0.614574 0.276077
O O9 0.851245 0.750000 0.085502
O O10 0.375689 0.383709 0.207911
O O11 0.000000 0.500000 0.500000
O O12 0.612512 0.750000 0.881883
O O13 0.216429 0.618891 0.787819
O O14 0.500000 0.000000 0.000000
#
# Coordination Sequence:
#
# PCOD9166790 Si02
#       8
#     2   2   2   2   4   2   2   4
#     4  11  26  42  65 104 129 178 220 269 325 390
#     4   9  21  44  63  88 136 174 208 274 327 386
#     4  10  23  43  65  92 135 170 217 269 322 387
#     4  12  23  43  71  94 132 173 218 266 329 391
#     4  10  23  45  65  91 131 172 213 269 326 384
#     4  12  23  40  67 101 129 174 220 270 321 392
#     4  10  24  40  63  95 127 169 221 264 322 380
#     4  11  22  43  66  93 139 172 216 269 330 386
#
# _framework density 24.385895999999999
#
# number of rings (size 3 to 8) (size 9 to 14) (size 15 to 20)
#    0.000    1.600    2.000    4.200    2.800    4.000 
#    3.600    0.000    0.000    0.000    0.000    0.000 
#    0.000    0.000    0.000    0.000    0.000    0.000 
#
# Total GULP energy -111990.219776 kJ/mol
# GULP energy per Si atom -5599.510989 kJ/mol
# Density = 2.433039 g / cm^3
# Si number density = 24.385896 Si / 1000 Ang^3
#
#
#
# Elastic Constant Matrix: (Units=GPa)
#
#
# Indices 1 2 3 4 5 6 
#
# 1 137.7954 55.7976 -0.8609 0.0000 -18.5099 0.0000
# 2 55.7976 211.4836 16.8951 0.0000 9.4160 0.0000
# 3 -0.8609 16.8951 35.8864 0.0000 -2.5732 0.0000
# 4 0.0000 0.0000 0.0000 12.3213 0.0000 -10.4558
# 5 -18.5099 9.4160 -2.5732 0.0000 38.6591 0.0000
# 6 0.0000 0.0000 0.0000 -10.4558 0.0000 6.2158
#
#
#
# Elastic Compliance Matrix: (Units=1/GPa)
#
#
# Indices 1 2 3 4 5 6 
#
# 1 0.009086 -0.002778 0.001895 0.000000 0.005153 0.000000
# 2 -0.002778 0.005835 -0.003025 0.000000 -0.002953 0.000000
# 3 0.001895 -0.003025 0.029595 0.000000 0.003614 0.000000
# 4 0.000000 0.000000 0.000000 -0.189870 0.000000 -0.319387
# 5 0.005153 -0.002953 0.003614 0.000000 0.029294 0.000000
# 6 0.000000 0.000000 0.000000 -0.319387 0.000000 -0.376371
#
#
# Mechanical properties :
#
#
# Convention : Reuss Voigt Hill
#
# Bulk Modulus (GPa) = 27.24843 58.75878 43.00361
# Shear Modulus (GPa) = -10.58463 32.32814 10.87175
#
# Velocity S-wave (km/s) = -2.08564 3.64495 2.11374
# Velocity P-wave (km/s) = 2.32341 6.47008 4.86108
#
# Compressibility (1/GPa) = 0.03669936
#
# Stress axis : x y z
#
# Youngs Moduli (GPa) = 110.05736 171.39045 33.78998
#
# Poissons Ratio (x) = 0.47615 -0.06405
# Poissons Ratio (y) = 0.30576 0.10222
# Poissons Ratio (z) = -0.20860 0.51850
#
# Static dielectric constant tensor:
#      x y z
#    x 1.944320 0.000000 -0.012650 
#    y 0.000000 1.964800 0.000000 
#    z -0.012650 0.000000 2.039630 
# 
# From -- ./inp_files/30633.got.cif
#   From: 2010.05.17/outbox.cif.g08.bks.cpg/sg11_16_cif.got.tgz:30633.got - 2010.06.03 12:22:45.
