data_PCOD9166159
_publ_section_title
;
Structure prediction by ZEFSAII (Michael W. Deem and Ramdas Pophale) SiO2 
 PCOD9166159
Probable space group: P 21/M
;
_chemical_formula_sum "Si O2"
_cell_formula_units_Z 32
_cell_length_a 18.607085
_cell_length_b 14.841886
_cell_length_c 11.405325
_cell_angle_alpha 90.000000
_cell_angle_beta 30.188508
_cell_angle_gamma 90.000000
_cell_volume 1583.837437
_symmetry_space_group_name_H-M "P 21/M"
_symmetry_group_IT_number 11
_symmetry_cell_setting 'monoclinic'
loop_
_space_group_symop_operation_xyz
x,y,z
-x,1/2+y,-z
-x,-y,-z
x,1/2-y,z
loop_
_atom_site_type_symbol
_atom_site_label
_atom_site_fract_x
_atom_site_fract_y
_atom_site_fract_z
Si Si1 0.983730 0.409353 0.597533
Si Si2 0.227887 0.984183 0.625584
Si Si3 0.302634 0.144266 0.103929
Si Si4 0.308847 0.645917 0.092311
Si Si5 0.723895 0.642477 0.122110
Si Si6 0.927416 0.491841 0.920963
Si Si7 0.595456 0.140347 0.790598
Si Si8 0.425387 0.357871 0.430296
O O1 0.854729 0.359820 0.714528
O O2 0.934350 0.429037 0.798509
O O3 0.000000 0.500000 0.500000
O O4 0.141659 0.368444 0.374224
O O5 0.322811 0.908770 0.429843
O O6 0.085402 0.997530 0.750031
O O7 0.313333 0.078147 0.520703
O O8 0.173999 0.957731 0.831476
O O9 0.327734 0.250000 0.056368
O O10 0.314047 0.108114 0.954560
O O11 0.428851 0.113686 0.011359
O O12 0.345893 0.750000 0.054022
O O13 0.341372 0.606367 0.174505
O O14 0.418979 0.614182 0.837051
O O15 0.753061 0.750000 0.076374
O O16 0.602505 0.627722 0.391803
O O17 0.861735 0.587350 0.971643
O O18 0.611006 0.250000 0.760758
O O19 0.401020 0.250000 0.444779
#
# Coordination Sequence:
#
# PCOD9166159 Si02
#       8
#     4   4   4   4   4   4   4   4
#     4  12  23  37  59  88 120 157 198 244 306 361
#     4  10  22  40  62  88 127 161 204 252 304 357
#     4  10  22  39  59  87 121 157 202 250 300 361
#     4  10  23  42  61  87 120 156 203 252 300 362
#     4   9  18  37  62  84 116 159 200 247 300 357
#     4  10  22  39  57  93 124 158 204 250 297 371
#     4  10  23  41  63  90 121 162 207 251 302 363
#     4   9  20  38  62  88 116 156 204 251 304 362
#
# _framework density 20.204094000000001
#
# number of rings (size 3 to 8) (size 9 to 14) (size 15 to 20)
#    0.000    2.000    1.250    1.125    3.500    2.000 
#    0.000    7.500    0.000    0.000    0.000    0.000 
#    0.000    0.000    0.000    0.000    0.000    0.000 
#
# Total GULP energy -178520.973013 kJ/mol
# GULP energy per Si atom -5578.780407 kJ/mol
# Density = 2.015811 g / cm^3
# Si number density = 20.204094 Si / 1000 Ang^3
#
#
#
# Elastic Constant Matrix: (Units=GPa)
#
#
# Indices 1 2 3 4 5 6 
#
# 1 116.4219 17.0780 58.8028 0.0000 6.4818 0.0000
# 2 17.0780 39.0966 23.0701 0.0000 10.0252 0.0000
# 3 58.8028 23.0701 124.5405 0.0000 -2.5029 0.0000
# 4 0.0000 0.0000 0.0000 28.0009 0.0000 0.3440
# 5 6.4818 10.0252 -2.5029 0.0000 24.2672 0.0000
# 6 0.0000 0.0000 0.0000 0.3440 0.0000 22.9738
#
#
#
# Elastic Compliance Matrix: (Units=1/GPa)
#
#
# Indices 1 2 3 4 5 6 
#
# 1 0.011633 -0.001101 -0.005353 0.000000 -0.003204 0.000000
# 2 -0.001101 0.033129 -0.005898 0.000000 -0.014001 0.000000
# 3 -0.005353 -0.005898 0.011752 0.000000 0.005079 0.000000
# 4 0.000000 0.000000 0.000000 0.035720 0.000000 -0.000535
# 5 -0.003204 -0.014001 0.005079 0.000000 0.048372 0.000000
# 6 0.000000 0.000000 0.000000 -0.000535 0.000000 0.043536
#
#
# Mechanical properties :
#
#
# Convention : Reuss Voigt Hill
#
# Bulk Modulus (GPa) = 31.43777 53.10676 42.27226
# Shear Modulus (GPa) = 22.78432 27.12226 24.95329
#
# Velocity S-wave (km/s) = 3.36178 3.66787 3.51816
# Velocity P-wave (km/s) = 5.53738 6.65432 6.12138
#
# Compressibility (1/GPa) = 0.03180887
#
# Stress axis : x y z
#
# Youngs Moduli (GPa) = 85.96117 30.18490 85.09394
#
# Poissons Ratio (x) = 0.03324 0.45552
# Poissons Ratio (y) = 0.09465 0.50192
# Poissons Ratio (z) = 0.46016 0.17804
#
# Static dielectric constant tensor:
#      x y z
#    x 1.757530 0.000000 -0.027030 
#    y 0.000000 1.727840 0.000000 
#    z -0.027030 0.000000 1.770170 
# 
# From -- ./inp_files/41615.got.cif
#   From: 2010.05.17/outbox.cif.g08.bks.cpg/sg11_21_cif.got.tgz:41615.got - 2010.06.03 12:22:45.
