data_PCOD9166301
_publ_section_title
;
Structure prediction by ZEFSAII (Michael W. Deem and Ramdas Pophale) SiO2 
 PCOD9166301
Probable space group: P 21/M
;
_chemical_formula_sum "Si O2"
_cell_formula_units_Z 28
_cell_length_a 18.031139
_cell_length_b 8.743083
_cell_length_c 16.304607
_cell_angle_alpha 90.000000
_cell_angle_beta 34.755935
_cell_angle_gamma 90.000000
_cell_volume 1465.329616
_symmetry_space_group_name_H-M "P 21/M"
_symmetry_group_IT_number 11
_symmetry_cell_setting 'monoclinic'
loop_
_space_group_symop_operation_xyz
x,y,z
-x,1/2+y,-z
-x,-y,-z
x,1/2-y,z
loop_
_atom_site_type_symbol
_atom_site_label
_atom_site_fract_x
_atom_site_fract_y
_atom_site_fract_z
Si Si1 0.404532 0.934203 0.654990
Si Si2 0.176533 0.567099 0.143348
Si Si3 0.295091 0.932364 0.364806
Si Si4 0.105258 0.433422 0.676184
Si Si5 0.875553 0.066261 0.159741
Si Si6 0.142528 0.067995 0.352001
Si Si7 0.557771 0.065703 0.192461
O O1 0.411754 0.750000 0.646267
O O2 0.256652 0.977230 0.767525
O O3 0.442422 0.983074 0.712224
O O4 0.500000 0.000000 0.500000
O O5 0.176118 0.750000 0.159888
O O6 0.179937 0.480192 0.226261
O O7 0.042014 0.531639 0.218911
O O8 0.302255 0.531804 0.974404
O O9 0.286418 0.750000 0.371464
O O10 0.203889 0.997797 0.520167
O O11 0.241118 0.999453 0.328913
O O12 0.441057 0.986578 0.250396
O O13 0.120489 0.250000 0.664649
O O14 0.129706 0.501839 0.743486
O O15 0.883589 0.250000 0.154503
O O16 0.000000 0.000000 0.000000
O O17 0.137769 0.250000 0.364748
O O18 0.000000 0.000000 0.500000
O O19 0.539702 0.250000 0.206016
#
# Coordination Sequence:
#
# PCOD9166301 Si02
#       7
#     4   4   4   4   4   4   4
#     4  10  22  40  62  88 121 164 209 256 308 367
#     4  10  22  41  66  92 124 165 209 259 314 372
#     4  12  25  41  63  93 126 162 206 255 306 371
#     4  11  22  39  64  92 123 162 207 258 314 370
#     4  11  23  39  60  90 125 161 207 259 312 373
#     4  12  24  41  66  95 126 162 205 254 309 370
#     4  10  22  42  64  89 123 165 210 257 314 371
#
# _framework density 19.108328
#
# number of rings (size 3 to 8) (size 9 to 14) (size 15 to 20)
#    0.000    1.143    1.429    5.143    0.000    8.000 
#    0.000    1.429    0.000    0.000    0.000    0.000 
#    0.000    0.000    0.000    0.000    0.000    0.000 
#
# Total GULP energy -156662.440767 kJ/mol
# GULP energy per Si atom -5595.087170 kJ/mol
# Density = 1.906484 g / cm^3
# Si number density = 19.108328 Si / 1000 Ang^3
#
#
#
# Elastic Constant Matrix: (Units=GPa)
#
#
# Indices 1 2 3 4 5 6 
#
# 1 101.8262 35.1336 0.3095 0.0000 -1.9937 0.0000
# 2 35.1336 64.1592 23.1305 0.0000 -5.0789 0.0000
# 3 0.3095 23.1305 57.1480 0.0000 -9.5613 0.0000
# 4 0.0000 0.0000 0.0000 33.7803 0.0000 2.4717
# 5 -1.9937 -5.0789 -9.5613 0.0000 37.4232 0.0000
# 6 0.0000 0.0000 0.0000 2.4717 0.0000 34.3846
#
#
#
# Elastic Compliance Matrix: (Units=1/GPa)
#
#
# Indices 1 2 3 4 5 6 
#
# 1 0.012591 -0.008035 0.003253 0.000000 0.000411 0.000000
# 2 -0.008035 0.023390 -0.009364 0.000000 0.000354 0.000000
# 3 0.003253 -0.009364 0.022029 0.000000 0.004531 0.000000
# 4 0.000000 0.000000 0.000000 0.029760 0.000000 -0.002139
# 5 0.000411 0.000354 0.004531 0.000000 0.027949 0.000000
# 6 0.000000 0.000000 0.000000 -0.002139 0.000000 0.029237
#
#
# Mechanical properties :
#
#
# Convention : Reuss Voigt Hill
#
# Bulk Modulus (GPa) = 33.65061 37.80894 35.72978
# Shear Modulus (GPa) = 27.29934 32.08827 29.69381
#
# Velocity S-wave (km/s) = 3.78386 4.10235 3.94632
# Velocity P-wave (km/s) = 6.06126 6.50143 6.28520
#
# Compressibility (1/GPa) = 0.02971714
#
# Stress axis : x y z
#
# Youngs Moduli (GPa) = 79.42054 42.75283 45.39460
#
# Poissons Ratio (x) = 0.34352 -0.14766
# Poissons Ratio (y) = 0.63815 0.42509
# Poissons Ratio (z) = -0.25834 0.40036
#
# Static dielectric constant tensor:
#      x y z
#    x 1.633310 0.000000 0.000350 
#    y 0.000000 1.643730 0.000000 
#    z 0.000350 0.000000 1.622040 
# 
# From -- ./inp_files/51914.got.cif
#   From: 2010.05.17/outbox.cif.g08.bks.cpg/sg11_26_cif.got.tgz:51914.got - 2010.06.03 12:22:45.
