data_PCOD9166669
_publ_section_title
;
Structure prediction by ZEFSAII (Michael W. Deem and Ramdas Pophale) SiO2 
 PCOD9166669
Probable space group: P 21/M
;
_chemical_formula_sum "Si O2"
_cell_formula_units_Z 20
_cell_length_a 6.456118
_cell_length_b 15.722175
_cell_length_c 9.291792
_cell_angle_alpha 90.000000
_cell_angle_beta 76.627717
_cell_angle_gamma 90.000000
_cell_volume 917.585105
_symmetry_space_group_name_H-M "P 21/M"
_symmetry_group_IT_number 11
_symmetry_cell_setting 'monoclinic'
loop_
_space_group_symop_operation_xyz
x,y,z
-x,1/2+y,-z
-x,-y,-z
x,1/2-y,z
loop_
_atom_site_type_symbol
_atom_site_label
_atom_site_fract_x
_atom_site_fract_y
_atom_site_fract_z
Si Si1 0.247961 0.250000 0.019622
Si Si2 0.778483 0.750000 0.311559
Si Si3 0.355296 0.477510 0.385722
Si Si4 0.236805 0.750000 0.898151
Si Si5 0.479396 0.907505 0.925761
Si Si6 0.333502 0.750000 0.559038
Si Si7 0.944376 0.119584 0.572935
O O1 0.285619 0.250000 0.842836
O O2 0.338735 0.339523 0.062045
O O3 0.005856 0.250000 0.100782
O O4 0.565040 0.750000 0.444279
O O5 0.934537 0.672693 0.325699
O O6 0.500000 0.500000 0.500000
O O7 0.496198 0.431186 0.245604
O O8 0.240645 0.559717 0.335459
O O9 0.145888 0.425444 0.465793
O O10 0.285412 0.839324 0.971818
O O11 0.361536 0.750000 0.725803
O O12 0.500000 0.000000 0.000000
O O13 0.188234 0.672599 0.524083
#
# Coordination Sequence:
#
# PCOD9166669 Si02
#       7
#     2   2   4   2   4   2   4
#     4  11  28  47  68  99 146 181 232 277 364 411
#     4  11  24  41  68  98 133 186 225 288 339 410
#     4  11  23  42  67 102 136 173 227 291 348 408
#     4  11  24  47  70  97 136 189 228 283 344 417
#     4  11  27  44  70 100 141 180 230 280 348 420
#     4  11  22  43  70  94 135 178 237 284 343 402
#     4  10  23  38  68  99 132 170 235 282 341 412
#
# _framework density 21.796343
#
# number of rings (size 3 to 8) (size 9 to 14) (size 15 to 20)
#    0.000    1.200    0.000    4.800    8.400    7.200 
#    0.000    0.000    0.000    0.000    0.000    0.000 
#    0.000    0.000    0.000    0.000    0.000    0.000 
#
# Total GULP energy -111489.444344 kJ/mol
# GULP energy per Si atom -5574.472217 kJ/mol
# Density = 2.174673 g / cm^3
# Si number density = 21.796343 Si / 1000 Ang^3
#
#
#
# Elastic Constant Matrix: (Units=GPa)
#
#
# Indices 1 2 3 4 5 6 
#
# 1 92.4296 52.1621 27.7130 0.0000 22.6526 0.0000
# 2 52.1621 157.6695 38.0079 0.0000 16.9327 0.0000
# 3 27.7130 38.0079 91.4434 0.0000 6.2920 0.0000
# 4 0.0000 0.0000 0.0000 -22.9697 0.0000 -23.3339
# 5 22.6526 16.9327 6.2920 0.0000 25.8603 0.0000
# 6 0.0000 0.0000 0.0000 -23.3339 0.0000 -2.9476
#
#
#
# Elastic Compliance Matrix: (Units=1/GPa)
#
#
# Indices 1 2 3 4 5 6 
#
# 1 0.016438 -0.003558 -0.002718 0.000000 -0.011408 0.000000
# 2 -0.003558 0.008243 -0.002228 0.000000 -0.001739 0.000000
# 3 -0.002718 -0.002228 0.012633 0.000000 0.000766 0.000000
# 4 0.000000 0.000000 0.000000 0.006182 0.000000 -0.048942
# 5 -0.011408 -0.001739 0.000766 0.000000 0.049614 0.000000
# 6 0.000000 0.000000 0.000000 -0.048942 0.000000 0.048178
#
#
# Mechanical properties :
#
#
# Convention : Reuss Voigt Hill
#
# Bulk Modulus (GPa) = 49.24729 64.14537 56.69633
# Shear Modulus (GPa) = 30.29100 14.89923 22.59512
#
# Velocity S-wave (km/s) = 3.73195 2.61735 3.22319
# Velocity P-wave (km/s) = 6.41976 6.21509 6.31825
#
# Compressibility (1/GPa) = 0.02030568
#
# Stress axis : x y z
#
# Youngs Moduli (GPa) = 60.83623 121.31009 79.15826
#
# Poissons Ratio (x) = 0.43159 0.21514
# Poissons Ratio (y) = 0.21644 0.17640
# Poissons Ratio (z) = 0.16535 0.27033
#
# Static dielectric constant tensor:
#      x y z
#    x 1.414180 0.000000 0.319410 
#    y 0.000000 1.951050 0.000000 
#    z 0.319410 0.000000 1.491840 
# 
# From -- ./inp_files/10103.got.cif
#   From: 2010.05.17/outbox.cif.g08.bks.cpg/sg11_6_cif.got.tgz:10103.got - 2010.06.03 12:22:45.
