data_PCOD9166589
_publ_section_title
;
Structure prediction by ZEFSAII (Michael W. Deem and Ramdas Pophale) SiO2 
 PCOD9166589
Probable space group: P 21/M
;
_chemical_formula_sum "Si O2"
_cell_formula_units_Z 16
_cell_length_a 10.015563
_cell_length_b 11.777203
_cell_length_c 5.279281
_cell_angle_alpha 90.000000
_cell_angle_beta 79.922045
_cell_angle_gamma 90.000000
_cell_volume 613.111076
_symmetry_space_group_name_H-M "P 21/M"
_symmetry_group_IT_number 11
_symmetry_cell_setting 'monoclinic'
loop_
_space_group_symop_operation_xyz
x,y,z
-x,1/2+y,-z
-x,-y,-z
x,1/2-y,z
loop_
_atom_site_type_symbol
_atom_site_label
_atom_site_fract_x
_atom_site_fract_y
_atom_site_fract_z
Si Si1 0.564317 0.750000 0.931867
Si Si2 0.771079 0.986763 0.486098
Si Si3 0.335926 0.934208 0.975635
Si Si4 0.255646 0.250000 0.628798
Si Si5 0.943138 0.376344 0.114742
O O1 0.463103 0.857134 0.993119
O O2 0.673961 0.750000 0.120568
O O3 0.629043 0.750000 0.629813
O O4 0.827703 0.863696 0.395865
O O5 0.702605 0.984870 0.779964
O O6 0.882394 0.084876 0.409576
O O7 0.659247 0.009160 0.303089
O O8 0.196402 0.864962 0.993570
O O9 0.009625 0.250000 0.100022
O O10 0.000000 0.500000 0.000000
#
# Coordination Sequence:
#
# PCOD9166589 Si02
#       5
#     2   4   4   2   4
#     4  12  24  40  71  98 141 182 234 278 344 406
#     4  10  24  43  67  97 141 177 230 283 339 413
#     4  10  22  43  66  97 136 180 225 277 336 421
#     4  12  26  40  65 106 137 184 228 286 338 398
#     4  10  24  45  75 104 137 183 229 289 352 409
#
# _framework density 26.096413999999999
#
# number of rings (size 3 to 8) (size 9 to 14) (size 15 to 20)
#    1.500    0.000    1.250    3.000    3.500    7.000 
#    2.250    0.000    0.000    0.000    0.000    0.000 
#    0.000    0.000    0.000    0.000    0.000    0.000 
#
# Total GULP energy -89231.506839 kJ/mol
# GULP energy per Si atom -5576.969177 kJ/mol
# Density = 2.603702 g / cm^3
# Si number density = 26.096414 Si / 1000 Ang^3
#
#
#
# Elastic Constant Matrix: (Units=GPa)
#
#
# Indices 1 2 3 4 5 6 
#
# 1 94.8850 50.8817 28.3670 0.0000 6.3572 0.0000
# 2 50.8817 182.5134 20.3439 0.0000 -1.9247 0.0000
# 3 28.3670 20.3439 144.6107 0.0000 11.4866 0.0000
# 4 0.0000 0.0000 0.0000 42.4072 0.0000 -61.0072
# 5 6.3572 -1.9247 11.4866 0.0000 32.2468 0.0000
# 6 0.0000 0.0000 0.0000 -61.0072 0.0000 270.4448
#
#
#
# Elastic Compliance Matrix: (Units=1/GPa)
#
#
# Indices 1 2 3 4 5 6 
#
# 1 0.013111 -0.003464 -0.001917 0.000000 -0.002109 0.000000
# 2 -0.003464 0.006494 -0.000328 0.000000 0.001187 0.000000
# 3 -0.001917 -0.000328 0.007522 0.000000 -0.002321 0.000000
# 4 0.000000 0.000000 0.000000 0.034910 0.000000 0.007875
# 5 -0.002109 0.001187 -0.002321 0.000000 0.032324 0.000000
# 6 0.000000 0.000000 0.000000 0.007875 0.000000 0.005474
#
#
# Mechanical properties :
#
#
# Convention : Reuss Voigt Hill
#
# Bulk Modulus (GPa) = 63.66163 69.02160 66.34162
# Shear Modulus (GPa) = 42.92258 90.51421 66.71839
#
# Velocity S-wave (km/s) = 4.05998 5.89575 5.06178
# Velocity P-wave (km/s) = 6.81363 8.53537 7.72263
#
# Compressibility (1/GPa) = 0.01570805
#
# Stress axis : x y z
#
# Youngs Moduli (GPa) = 76.27283 153.99342 132.94802
#
# Poissons Ratio (x) = 0.53338 0.25487
# Poissons Ratio (y) = 0.26418 0.04367
# Poissons Ratio (z) = 0.14622 0.05058
#
# Static dielectric constant tensor:
#      x y z
#    x 2.044630 0.000000 -0.035300 
#    y 0.000000 2.206400 0.000000 
#    z -0.035300 0.000000 2.020220 
# 
# From -- ./inp_files/3963.got.cif
#   From: 2010.05.17/outbox.cif.g08.bks.cpg/sg11_2_cif.got.tgz:3963.got - 2010.06.03 12:22:45.
