data_PCOD9166042
_publ_section_title
;
Structure prediction by ZEFSAII (Michael W. Deem and Ramdas Pophale) SiO2 
 PCOD9166042
Probable space group: P 21/M
;
_chemical_formula_sum "Si O2"
_cell_formula_units_Z 32
_cell_length_a 10.185022
_cell_length_b 8.970782
_cell_length_c 29.002705
_cell_angle_alpha 90.000000
_cell_angle_beta 34.851991
_cell_angle_gamma 90.000000
_cell_volume 1514.312273
_symmetry_space_group_name_H-M "P 21/M"
_symmetry_group_IT_number 11
_symmetry_cell_setting 'monoclinic'
loop_
_space_group_symop_operation_xyz
x,y,z
-x,1/2+y,-z
-x,-y,-z
x,1/2-y,z
loop_
_atom_site_type_symbol
_atom_site_label
_atom_site_fract_x
_atom_site_fract_y
_atom_site_fract_z
Si Si1 0.762766 0.426846 0.553573
Si Si2 0.997333 0.572954 0.652123
Si Si3 0.818251 0.075606 0.166862
Si Si4 0.918568 0.915556 0.228233
Si Si5 0.602455 0.576892 0.411011
Si Si6 0.319067 0.924930 0.178957
Si Si7 0.355544 0.924725 0.309832
Si Si8 0.165213 0.429552 0.989877
O O1 0.793869 0.250000 0.537639
O O2 0.630884 0.483052 0.545855
O O3 0.617901 0.445136 0.642663
O O4 0.000000 0.500000 0.500000
O O5 0.010329 0.750000 0.645686
O O6 0.821967 0.519420 0.743003
O O7 0.870559 0.507994 0.643625
O O8 0.249410 0.509579 0.593346
O O9 0.773961 0.250000 0.172425
O O10 0.043484 0.030968 0.073181
O O11 0.865962 0.039266 0.206185
O O12 0.586822 0.987393 0.220061
O O13 0.881076 0.750000 0.218284
O O14 0.767362 0.921932 0.318190
O O15 0.176127 0.928498 0.172848
O O16 0.571500 0.750000 0.434041
O O17 0.319720 0.750000 0.193969
O O18 0.575480 0.978105 0.095003
O O19 0.328822 0.750000 0.308530
O O20 0.165935 0.250000 0.986558
O O21 0.000000 0.500000 0.000000
#
# Coordination Sequence:
#
# PCOD9166042 Si02
#       8
#     4   4   4   4   4   4   4   4
#     4  10  22  40  64  91 118 149 189 231 280 338
#     4  11  22  35  57  91 119 147 192 246 290 327
#     4  11  22  34  53  83 114 141 183 244 292 328
#     4   9  17  33  56  79 105 145 193 228 273 341
#     4   9  18  38  61  84 116 156 194 226 273 347
#     4   9  19  37  56  74 107 154 195 231 281 346
#     4  11  22  40  61  84 115 155 195 229 277 349
#     4  10  22  37  51  72 104 144 188 236 289 341
#
# _framework density 21.131706999999999
#
# number of rings (size 3 to 8) (size 9 to 14) (size 15 to 20)
#    0.000    2.000    1.250    3.375    0.000    7.500 
#    0.000    0.625    0.000    0.000    0.000    0.000 
#    0.000    0.000    0.000    0.000    0.000    0.000 
#
# Total GULP energy -178705.512257 kJ/mol
# GULP energy per Si atom -5584.547258 kJ/mol
# Density = 2.108361 g / cm^3
# Si number density = 21.131707 Si / 1000 Ang^3
#
#
#
# Elastic Constant Matrix: (Units=GPa)
#
#
# Indices 1 2 3 4 5 6 
#
# 1 138.7931 42.9793 31.7993 0.0000 -20.1791 0.0000
# 2 42.9793 65.2961 22.2803 0.0000 -2.4729 0.0000
# 3 31.7993 22.2803 79.4530 0.0000 -21.9577 0.0000
# 4 0.0000 0.0000 0.0000 22.5055 0.0000 -5.8900
# 5 -20.1791 -2.4729 -21.9577 0.0000 40.2644 0.0000
# 6 0.0000 0.0000 0.0000 -5.8900 0.0000 36.6334
#
#
#
# Elastic Compliance Matrix: (Units=1/GPa)
#
#
# Indices 1 2 3 4 5 6 
#
# 1 0.009897 -0.005955 -0.001203 0.000000 0.003938 0.000000
# 2 -0.005955 0.020633 -0.004565 0.000000 -0.004207 0.000000
# 3 -0.001203 -0.004565 0.016606 0.000000 0.008173 0.000000
# 4 0.000000 0.000000 0.000000 0.046386 0.000000 0.007458
# 5 0.003938 -0.004207 0.008173 0.000000 0.031008 0.000000
# 6 0.000000 0.000000 0.000000 0.007458 0.000000 0.028497
#
#
# Mechanical properties :
#
#
# Convention : Reuss Voigt Hill
#
# Bulk Modulus (GPa) = 42.21092 53.07334 47.64213
# Shear Modulus (GPa) = 27.11945 32.31286 29.71615
#
# Velocity S-wave (km/s) = 3.58628 3.91464 3.75405
# Velocity P-wave (km/s) = 6.09648 6.75296 6.43310
#
# Compressibility (1/GPa) = 0.02369055
#
# Stress axis : x y z
#
# Youngs Moduli (GPa) = 101.03870 48.46622 60.21820
#
# Poissons Ratio (x) = 0.28861 0.07243
# Poissons Ratio (y) = 0.60168 0.27491
# Poissons Ratio (z) = 0.12153 0.22126
#
# Static dielectric constant tensor:
#      x y z
#    x 1.774860 0.000000 -0.006420 
#    y 0.000000 1.718070 0.000000 
#    z -0.006420 0.000000 1.817580 
# 
# From -- ./inp_files/73081.got.cif
#   From: 2010.05.17/outbox.cif.g08.bks.cpg/sg11_37_cif.got.tgz:73081.got - 2010.06.03 12:22:45.
