data_PCOD9166227
_publ_section_title
;
Structure prediction by ZEFSAII (Michael W. Deem and Ramdas Pophale) SiO2 
 PCOD9166227
Probable space group: P 21/M
;
_chemical_formula_sum "Si O2"
_cell_formula_units_Z 28
_cell_length_a 15.201185
_cell_length_b 8.348589
_cell_length_c 12.001907
_cell_angle_alpha 90.000000
_cell_angle_beta 61.735293
_cell_angle_gamma 90.000000
_cell_volume 1341.537786
_symmetry_space_group_name_H-M "P 21/M"
_symmetry_group_IT_number 11
_symmetry_cell_setting 'monoclinic'
loop_
_space_group_symop_operation_xyz
x,y,z
-x,1/2+y,-z
-x,-y,-z
x,1/2-y,z
loop_
_atom_site_type_symbol
_atom_site_label
_atom_site_fract_x
_atom_site_fract_y
_atom_site_fract_z
Si Si1 0.114446 0.062893 0.429727
Si Si2 0.718266 0.436116 0.506390
Si Si3 0.508762 0.557593 0.623585
Si Si4 0.807314 0.436096 0.846452
Si Si5 0.980597 0.934932 0.887924
Si Si6 0.180519 0.432207 0.754437
Si Si7 0.308586 0.556587 0.875571
O O1 0.112301 0.250000 0.460648
O O2 0.189657 0.973115 0.467862
O O3 0.164045 0.037410 0.278647
O O4 0.000000 0.000000 0.500000
O O5 0.716312 0.250000 0.476968
O O6 0.609808 0.486163 0.615510
O O7 0.733653 0.541665 0.386817
O O8 0.500000 0.500000 0.500000
O O9 0.513097 0.750000 0.619829
O O10 0.413585 0.510980 0.756689
O O11 0.795016 0.250000 0.821514
O O12 0.902868 0.456433 0.869576
O O13 0.715265 0.486378 0.981780
O O14 0.949299 0.750000 0.905453
O O15 0.090406 0.954517 0.770158
O O16 0.000000 0.000000 0.000000
O O17 0.145371 0.250000 0.776101
O O18 0.224228 0.479855 0.847429
O O19 0.298672 0.750000 0.874434
#
# Coordination Sequence:
#
# PCOD9166227 Si02
#       7
#     4   4   4   4   4   4   4
#     4  12  26  47  71  97 129 169 219 271 324 391
#     4  12  25  43  66  94 129 171 220 272 326 386
#     4  11  22  39  64  98 134 173 217 269 328 389
#     4  11  23  42  65  92 128 170 214 266 326 387
#     4  12  23  36  55  86 125 165 208 258 317 384
#     4  12  23  36  59  90 126 166 211 263 323 387
#     4  10  22  39  62  91 130 169 209 260 321 386
#
# _framework density 20.871569999999998
#
# number of rings (size 3 to 8) (size 9 to 14) (size 15 to 20)
#    0.000    0.571    2.857    6.857    0.000    1.143 
#    0.000    0.714    0.000    0.000    0.000    0.000 
#    0.000    0.000    0.000    0.000    0.000    0.000 
#
# Total GULP energy -156542.873422 kJ/mol
# GULP energy per Si atom -5590.816908 kJ/mol
# Density = 2.082407 g / cm^3
# Si number density = 20.871570 Si / 1000 Ang^3
#
#
#
# Elastic Constant Matrix: (Units=GPa)
#
#
# Indices 1 2 3 4 5 6 
#
# 1 75.9358 7.0307 21.9851 0.0000 -17.1547 0.0000
# 2 7.0307 62.1774 9.8572 0.0000 -8.6768 0.0000
# 3 21.9851 9.8572 108.4482 0.0000 -15.0955 0.0000
# 4 0.0000 0.0000 0.0000 32.2718 0.0000 -0.0930
# 5 -17.1547 -8.6768 -15.0955 0.0000 37.3493 0.0000
# 6 0.0000 0.0000 0.0000 -0.0930 0.0000 30.1869
#
#
#
# Elastic Compliance Matrix: (Units=1/GPa)
#
#
# Indices 1 2 3 4 5 6 
#
# 1 0.015205 -0.000537 -0.002203 0.000000 0.005969 0.000000
# 2 -0.000537 0.016750 -0.000960 0.000000 0.003257 0.000000
# 3 -0.002203 -0.000960 0.010154 0.000000 0.002869 0.000000
# 4 0.000000 0.000000 0.000000 0.030987 0.000000 0.000095
# 5 0.005969 0.003257 0.002869 0.000000 0.031432 0.000000
# 6 0.000000 0.000000 0.000000 0.000095 0.000000 0.033127
#
#
# Mechanical properties :
#
#
# Convention : Reuss Voigt Hill
#
# Bulk Modulus (GPa) = 28.81094 36.03414 32.42254
# Shear Modulus (GPa) = 31.92322 33.80750 32.86536
#
# Velocity S-wave (km/s) = 3.91513 4.02902 3.97249
# Velocity P-wave (km/s) = 5.85419 6.24069 6.05053
#
# Compressibility (1/GPa) = 0.03470904
#
# Stress axis : x y z
#
# Youngs Moduli (GPa) = 65.76846 59.69990 98.48135
#
# Poissons Ratio (x) = 0.03207 0.21693
# Poissons Ratio (y) = 0.03533 0.09457
# Poissons Ratio (z) = 0.14487 0.05733
#
# Static dielectric constant tensor:
#      x y z
#    x 1.732640 0.000000 -0.039840 
#    y 0.000000 1.681580 0.000000 
#    z -0.039840 0.000000 1.849930 
# 
# From -- ./inp_files/37877.got.cif
#   From: 2010.05.17/outbox.cif.g08.bks.cpg/sg11_19_cif.got.tgz:37877.got - 2010.06.03 12:22:45.
