data_PCOD9166906
_publ_section_title
;
Structure prediction by ZEFSAII (Michael W. Deem and Ramdas Pophale) SiO2 
 PCOD9166906
Probable space group: P 21/M
;
_chemical_formula_sum "Si O2"
_cell_formula_units_Z 26
_cell_length_a 9.885009
_cell_length_b 9.415789
_cell_length_c 21.014964
_cell_angle_alpha 90.000000
_cell_angle_beta 40.320339
_cell_angle_gamma 90.000000
_cell_volume 1265.631595
_symmetry_space_group_name_H-M "P 21/M"
_symmetry_group_IT_number 11
_symmetry_cell_setting 'monoclinic'
loop_
_space_group_symop_operation_xyz
x,y,z
-x,1/2+y,-z
-x,-y,-z
x,1/2-y,z
loop_
_atom_site_type_symbol
_atom_site_label
_atom_site_fract_x
_atom_site_fract_y
_atom_site_fract_z
Si Si1 0.911690 0.583126 0.092545
Si Si2 0.546505 0.750000 0.458934
Si Si3 0.367245 0.918808 0.101034
Si Si4 0.492877 0.541191 0.593411
Si Si5 0.018395 0.585274 0.802500
Si Si6 0.438586 0.589050 0.219976
Si Si7 0.806691 0.587755 0.595899
O O1 0.976332 0.750000 0.071284
O O2 0.975535 0.497426 0.132556
O O3 0.661108 0.580413 0.174930
O O4 0.000000 0.500000 0.000000
O O5 0.582279 0.627736 0.501664
O O6 0.501823 0.624830 0.422680
O O7 0.349796 0.750000 0.093813
O O8 0.468667 0.935578 0.134123
O O9 0.142138 0.995133 0.182413
O O10 0.500000 0.000000 0.000000
O O11 0.250305 0.583282 0.690290
O O12 0.622838 0.578349 0.609588
O O13 0.951722 0.750000 0.833960
O O14 0.356801 0.750000 0.256410
O O15 0.280264 0.480594 0.308409
O O16 0.866664 0.750000 0.584539
O O17 0.000000 0.500000 0.500000
#
# Coordination Sequence:
#
# PCOD9166906 Si02
#       7
#     4   2   4   4   4   4   4
#     4  11  23  40  69 102 133 176 222 276 344 407
#     4  10  24  42  70  98 138 176 226 286 338 400
#     4  11  25  46  70 102 139 178 226 284 348 411
#     4  11  24  46  69 101 136 179 229 281 337 405
#     4  12  24  42  69  98 137 178 227 282 332 400
#     4  10  24  45  68  97 137 178 224 278 340 409
#     4  12  26  45  69  98 137 181 229 279 337 405
#
# _framework density 20.543102999999999
#
# number of rings (size 3 to 8) (size 9 to 14) (size 15 to 20)
#    0.000    0.923    3.077    2.769    4.308    5.538 
#    2.769    0.000    0.000    0.000    0.000    0.000 
#    0.000    0.000    0.000    0.000    0.000    0.000 
#
# Total GULP energy -144878.462408 kJ/mol
# GULP energy per Si atom -5572.248554 kJ/mol
# Density = 2.049635 g / cm^3
# Si number density = 20.543103 Si / 1000 Ang^3
#
#
#
# Elastic Constant Matrix: (Units=GPa)
#
#
# Indices 1 2 3 4 5 6 
#
# 1 42.9467 9.7832 -8.3494 0.0000 1.4737 0.0000
# 2 9.7832 204.9409 38.2695 0.0000 13.2849 0.0000
# 3 -8.3494 38.2695 52.1800 0.0000 -1.3943 0.0000
# 4 0.0000 0.0000 0.0000 31.6752 0.0000 7.5737
# 5 1.4737 13.2849 -1.3943 0.0000 33.3750 0.0000
# 6 0.0000 0.0000 0.0000 7.5737 0.0000 32.4985
#
#
#
# Elastic Compliance Matrix: (Units=1/GPa)
#
#
# Indices 1 2 3 4 5 6 
#
# 1 0.024888 -0.002241 0.005626 0.000000 0.000028 0.000000
# 2 -0.002241 0.006059 -0.004869 0.000000 -0.002516 0.000000
# 3 0.005626 -0.004869 0.023708 0.000000 0.002680 0.000000
# 4 0.000000 0.000000 0.000000 0.033433 0.000000 -0.007792
# 5 0.000028 -0.002516 0.002680 0.000000 0.031075 0.000000
# 6 0.000000 0.000000 0.000000 -0.007792 0.000000 0.032586
#
#
# Mechanical properties :
#
#
# Convention : Reuss Voigt Hill
#
# Bulk Modulus (GPa) = 19.34714 42.16383 30.75548
# Shear Modulus (GPa) = 29.07904 36.86736 32.97320
#
# Velocity S-wave (km/s) = 3.76641 4.24091 4.01068
# Velocity P-wave (km/s) = 5.32473 6.67454 6.03748
#
# Compressibility (1/GPa) = 0.05168723
#
# Stress axis : x y z
#
# Youngs Moduli (GPa) = 40.18011 165.04948 42.18065
#
# Poissons Ratio (x) = 0.36980 -0.23732
# Poissons Ratio (y) = 0.09002 0.20539
# Poissons Ratio (z) = -0.22607 0.80368
#
# Static dielectric constant tensor:
#      x y z
#    x 1.703070 0.000000 -0.049750 
#    y 0.000000 1.808940 0.000000 
#    z -0.049750 0.000000 1.675220 
# 
# From -- ./inp_files/54162.got.cif
#   From: 2010.05.17/outbox.cif.g08.bks.cpg/sg11_28_cif.got.tgz:54162.got - 2010.06.03 12:22:45.
