data_PCOD9166835
_publ_section_title
;
Structure prediction by ZEFSAII (Michael W. Deem and Ramdas Pophale) SiO2 
 PCOD9166835
Probable space group: P 21/M
;
_chemical_formula_sum "Si O2"
_cell_formula_units_Z 20
_cell_length_a 9.354121
_cell_length_b 18.691408
_cell_length_c 5.251668
_cell_angle_alpha 90.000000
_cell_angle_beta 73.693341
_cell_angle_gamma 90.000000
_cell_volume 881.273358
_symmetry_space_group_name_H-M "P 21/M"
_symmetry_group_IT_number 11
_symmetry_cell_setting 'monoclinic'
loop_
_space_group_symop_operation_xyz
x,y,z
-x,1/2+y,-z
-x,-y,-z
x,1/2-y,z
loop_
_atom_site_type_symbol
_atom_site_label
_atom_site_fract_x
_atom_site_fract_y
_atom_site_fract_z
Si Si1 0.257718 0.106968 0.997701
Si Si2 0.297673 0.943787 0.005870
Si Si3 0.322527 0.674707 0.380112
Si Si4 0.070107 0.831231 0.876400
Si Si5 0.554727 0.880923 0.611692
O O1 0.354768 0.139849 0.180135
O O2 0.099460 0.145206 0.059311
O O3 0.335244 0.108930 0.681455
O O4 0.241937 0.023257 0.079562
O O5 0.165316 0.892778 0.969847
O O6 0.443845 0.945379 0.752582
O O7 0.352810 0.898295 0.218952
O O8 0.348726 0.750000 0.228155
O O9 0.153718 0.671875 0.562812
O O10 0.430817 0.673745 0.569699
O O11 0.080703 0.750000 0.976642
#
# Coordination Sequence:
#
# PCOD9166835 Si02
#       5
#     4   4   4   4   4
#     4  12  26  42  72 104 138 171 225 286 342 389
#     4  11  23  44  73  99 135 180 230 273 336 406
#     4  10  23  44  69  95 134 186 230 269 333 412
#     4  10  25  45  65  97 138 181 226 276 337 405
#     4  11  25  44  68 101 138 174 219 284 338 404
#
# _framework density 22.694434000000001
#
# number of rings (size 3 to 8) (size 9 to 14) (size 15 to 20)
#    0.000    1.200    2.000    2.400    8.400    3.200 
#    0.000    0.000    0.000    0.000    0.000    0.000 
#    0.000    0.000    0.000    0.000    0.000    0.000 
#
# Total GULP energy -111618.807835 kJ/mol
# GULP energy per Si atom -5580.940392 kJ/mol
# Density = 2.264278 g / cm^3
# Si number density = 22.694434 Si / 1000 Ang^3
#
#
#
# Elastic Constant Matrix: (Units=GPa)
#
#
# Indices 1 2 3 4 5 6 
#
# 1 153.8267 17.2992 58.4039 0.0000 -16.6741 0.0000
# 2 17.2992 87.4175 32.7073 0.0000 -17.6424 0.0000
# 3 58.4039 32.7073 108.7490 0.0000 -1.5848 0.0000
# 4 0.0000 0.0000 0.0000 24.0706 0.0000 26.0418
# 5 -16.6741 -17.6424 -1.5848 0.0000 35.2961 0.0000
# 6 0.0000 0.0000 0.0000 26.0418 0.0000 59.6134
#
#
#
# Elastic Compliance Matrix: (Units=1/GPa)
#
#
# Indices 1 2 3 4 5 6 
#
# 1 0.008738 0.001006 -0.004931 0.000000 0.004409 0.000000
# 2 0.001006 0.014561 -0.004810 0.000000 0.007537 0.000000
# 3 -0.004931 -0.004810 0.013230 0.000000 -0.004139 0.000000
# 4 0.000000 0.000000 0.000000 0.078775 0.000000 -0.034412
# 5 0.004409 0.007537 -0.004139 0.000000 0.033996 0.000000
# 6 0.000000 0.000000 0.000000 -0.034412 0.000000 0.031808
#
#
# Mechanical properties :
#
#
# Convention : Reuss Voigt Hill
#
# Bulk Modulus (GPa) = 52.46883 62.97931 57.72407
# Shear Modulus (GPa) = 24.39857 39.90153 32.15005
#
# Velocity S-wave (km/s) = 3.28241 4.19765 3.76792
# Velocity P-wave (km/s) = 6.12663 7.16274 6.66485
#
# Compressibility (1/GPa) = 0.01905893
#
# Stress axis : x y z
#
# Youngs Moduli (GPa) = 114.44602 68.67655 75.58713
#
# Poissons Ratio (x) = -0.06906 0.37270
# Poissons Ratio (y) = -0.11508 0.36354
# Poissons Ratio (z) = 0.56431 0.33030
#
# Static dielectric constant tensor:
#      x y z
#    x 1.833100 0.000000 0.040630 
#    y 0.000000 1.699450 0.000000 
#    z 0.040630 0.000000 1.915970 
# 
# From -- ./inp_files/2312.got.cif
#   From: 2010.05.17/outbox.cif.g08.bks.cpg/sg11_2_cif.got.tgz:2312.got - 2010.06.03 12:22:45.
