data_PCOD9166404
_publ_section_title
;
Structure prediction by ZEFSAII (Michael W. Deem and Ramdas Pophale) SiO2 
 PCOD9166404
Probable space group: P 21/M
;
_chemical_formula_sum "Si O2"
_cell_formula_units_Z 24
_cell_length_a 12.337931
_cell_length_b 13.511918
_cell_length_c 15.450401
_cell_angle_alpha 90.000000
_cell_angle_beta 24.684871
_cell_angle_gamma 90.000000
_cell_volume 1075.691745
_symmetry_space_group_name_H-M "P 21/M"
_symmetry_group_IT_number 11
_symmetry_cell_setting 'monoclinic'
loop_
_space_group_symop_operation_xyz
x,y,z
-x,1/2+y,-z
-x,-y,-z
x,1/2-y,z
loop_
_atom_site_type_symbol
_atom_site_label
_atom_site_fract_x
_atom_site_fract_y
_atom_site_fract_z
Si Si1 0.970489 0.857912 0.069242
Si Si2 0.395223 0.637312 0.572148
Si Si3 0.240470 0.050103 0.942135
Si Si4 0.580485 0.024094 0.844277
Si Si5 0.104228 0.132261 0.496257
Si Si6 0.677941 0.516957 0.507772
O O1 0.085481 0.750000 0.998792
O O2 0.680828 0.859922 0.318989
O O3 0.932361 0.880648 0.994667
O O4 0.127646 0.941088 0.005489
O O5 0.306344 0.750000 0.637770
O O6 0.474031 0.588451 0.606179
O O7 0.232329 0.559645 0.631948
O O8 0.330721 0.065023 0.974045
O O9 0.521098 0.048986 0.689937
O O10 0.818018 0.101506 0.672263
O O11 0.692114 0.926288 0.713534
O O12 0.500000 0.000000 0.000000
O O13 0.143590 0.250000 0.468438
O O14 0.136729 0.085236 0.569357
#
# Coordination Sequence:
#
# PCOD9166404 Si02
#       6
#     4   4   4   4   4   4
#     4   9  18  32  53  80 108 143 189 235 289 355
#     4   9  17  30  52  82 113 153 195 237 298 360
#     4   9  19  35  53  79 112 151 184 240 302 351
#     4  10  23  41  62  90 124 160 203 257 308 361
#     4  10  22  41  63  88 119 162 208 252 306 369
#     4   9  18  33  53  80 117 150 194 247 298 355
#
# _framework density 22.311222999999998
#
# number of rings (size 3 to 8) (size 9 to 14) (size 15 to 20)
#    0.000    2.667    0.000    0.500    2.333    4.667 
#    0.000    8.333    0.000    0.000    0.000    0.000 
#    0.000    0.000    0.000    0.000    0.000    0.000 
#
# Total GULP energy -133990.923376 kJ/mol
# GULP energy per Si atom -5582.955141 kJ/mol
# Density = 2.226044 g / cm^3
# Si number density = 22.311223 Si / 1000 Ang^3
#
#
#
# Elastic Constant Matrix: (Units=GPa)
#
#
# Indices 1 2 3 4 5 6 
#
# 1 161.7997 34.0537 29.3450 0.0000 -5.0341 0.0000
# 2 34.0537 124.4958 8.0071 0.0000 -0.5911 0.0000
# 3 29.3450 8.0071 51.5307 0.0000 -0.1087 0.0000
# 4 0.0000 0.0000 0.0000 24.7147 0.0000 4.8013
# 5 -5.0341 -0.5911 -0.1087 0.0000 46.0107 0.0000
# 6 0.0000 0.0000 0.0000 4.8013 0.0000 18.0172
#
#
#
# Elastic Compliance Matrix: (Units=1/GPa)
#
#
# Indices 1 2 3 4 5 6 
#
# 1 0.007272 -0.001737 -0.003869 0.000000 0.000764 0.000000
# 2 -0.001737 0.008529 -0.000337 0.000000 -0.000081 0.000000
# 3 -0.003869 -0.000337 0.021661 0.000000 -0.000377 0.000000
# 4 0.000000 0.000000 0.000000 0.042671 0.000000 -0.011371
# 5 0.000764 -0.000081 -0.000377 0.000000 0.021816 0.000000
# 6 0.000000 0.000000 0.000000 -0.011371 0.000000 0.058533
#
#
# Mechanical properties :
#
#
# Convention : Reuss Voigt Hill
#
# Bulk Modulus (GPa) = 39.09891 53.40419 46.25155
# Shear Modulus (GPa) = 27.64101 35.50989 31.57545
#
# Velocity S-wave (km/s) = 3.52360 3.99378 3.76603
# Velocity P-wave (km/s) = 5.84095 6.72718 6.29967
#
# Compressibility (1/GPa) = 0.02557616
#
# Stress axis : x y z
#
# Youngs Moduli (GPa) = 137.52279 117.25188 46.16608
#
# Poissons Ratio (x) = 0.20361 0.17864
# Poissons Ratio (y) = 0.23881 0.01554
# Poissons Ratio (z) = 0.53214 0.03946
#
# Static dielectric constant tensor:
#      x y z
#    x 1.819400 0.000000 0.027080 
#    y 0.000000 1.785780 0.000000 
#    z 0.027080 0.000000 1.997310 
# 
# From -- ./inp_files/50316.got.cif
#   From: 2010.05.17/outbox.cif.g08.bks.cpg/sg11_26_cif.got.tgz:50316.got - 2010.06.03 12:22:45.
