data_PCOD9166892
_publ_section_title
;
Structure prediction by ZEFSAII (Michael W. Deem and Ramdas Pophale) SiO2 
 PCOD9166892
Probable space group: P 21/M
;
_chemical_formula_sum "Si O2"
_cell_formula_units_Z 20
_cell_length_a 9.308366
_cell_length_b 18.042786
_cell_length_c 9.204861
_cell_angle_alpha 90.000000
_cell_angle_beta 148.075124
_cell_angle_gamma 90.000000
_cell_volume 817.506815
_symmetry_space_group_name_H-M "P 21/M"
_symmetry_group_IT_number 11
_symmetry_cell_setting 'monoclinic'
loop_
_space_group_symop_operation_xyz
x,y,z
-x,1/2+y,-z
-x,-y,-z
x,1/2-y,z
loop_
_atom_site_type_symbol
_atom_site_label
_atom_site_fract_x
_atom_site_fract_y
_atom_site_fract_z
Si Si1 0.206991 0.579212 0.696847
Si Si2 0.338649 0.333329 0.769344
Si Si3 0.365052 0.873171 0.273597
Si Si4 0.207914 0.333398 0.117521
Si Si5 0.336189 0.018599 0.087992
O O1 0.911648 0.611793 0.423945
O O2 0.646048 0.462462 0.308962
O O3 0.415290 0.645337 0.913874
O O4 0.220463 0.526483 0.850486
O O5 0.246381 0.250000 0.710099
O O6 0.461280 0.344195 0.713673
O O7 0.531228 0.850977 0.558902
O O8 0.330322 0.961152 0.216105
O O9 0.066542 0.838226 0.023252
O O10 0.228472 0.250000 0.074029
O O11 0.191677 0.403826 0.997004
#
# Coordination Sequence:
#
# PCOD9166892 Si02
#       5
#     4   4   4   4   4
#     4  10  24  41  65  95 124 167 216 252 305 377
#     4  11  22  40  65  94 130 166 207 262 311 362
#     4  11  24  42  65  92 125 169 213 251 308 378
#     4  12  25  41  64  95 128 161 206 262 317 370
#     4  10  24  44  66  91 127 167 210 259 309 370
#
# _framework density 24.46463
#
# number of rings (size 3 to 8) (size 9 to 14) (size 15 to 20)
#    0.000    1.200    0.000    6.000    0.000   15.200 
#    0.000    0.000    0.000    0.000    0.000    0.000 
#    0.000    0.000    0.000    0.000    0.000    0.000 
#
# Total GULP energy -112079.899201 kJ/mol
# GULP energy per Si atom -5603.994960 kJ/mol
# Density = 2.440895 g / cm^3
# Si number density = 24.464630 Si / 1000 Ang^3
#
#
#
# Elastic Constant Matrix: (Units=GPa)
#
#
# Indices 1 2 3 4 5 6 
#
# 1 49.4174 38.7026 10.7809 0.0000 11.4692 0.0000
# 2 38.7026 204.9701 29.4468 0.0000 7.0020 0.0000
# 3 10.7809 29.4468 85.0007 0.0000 23.3505 0.0000
# 4 0.0000 0.0000 0.0000 25.8364 0.0000 1.8736
# 5 11.4692 7.0020 23.3505 0.0000 26.6556 0.0000
# 6 0.0000 0.0000 0.0000 1.8736 0.0000 19.7651
#
#
#
# Elastic Compliance Matrix: (Units=1/GPa)
#
#
# Indices 1 2 3 4 5 6 
#
# 1 0.026296 -0.004784 0.001429 0.000000 -0.011309 0.000000
# 2 -0.004784 0.006006 -0.002115 0.000000 0.002333 0.000000
# 3 0.001429 -0.002115 0.016241 0.000000 -0.014286 0.000000
# 4 0.000000 0.000000 0.000000 0.038973 0.000000 -0.003694
# 5 -0.011309 0.002333 -0.014286 0.000000 0.054284 0.000000
# 6 0.000000 0.000000 0.000000 -0.003694 0.000000 0.050944
#
#
# Mechanical properties :
#
#
# Convention : Reuss Voigt Hill
#
# Bulk Modulus (GPa) = 26.59413 55.24988 40.92200
# Shear Modulus (GPa) = 23.12484 31.81527 27.47006
#
# Velocity S-wave (km/s) = 3.07780 3.61010 3.35453
# Velocity P-wave (km/s) = 4.85021 6.32532 5.63623
#
# Compressibility (1/GPa) = 0.03760229
#
# Stress axis : x y z
#
# Youngs Moduli (GPa) = 38.02912 166.49365 61.57398
#
# Poissons Ratio (x) = 0.79653 -0.08799
# Poissons Ratio (y) = 0.18194 0.13023
# Poissons Ratio (z) = -0.05434 0.35213
#
# Static dielectric constant tensor:
#      x y z
#    x 1.957040 0.000000 -0.027170 
#    y 0.000000 1.960190 0.000000 
#    z -0.027170 0.000000 1.898870 
# 
# From -- ./inp_files/52556.got.cif
#   From: 2010.05.17/outbox.cif.g08.bks.cpg/sg11_27_cif.got.tgz:52556.got - 2010.06.03 12:22:45.
