data_PCOD9166520
_publ_section_title
;
Structure prediction by ZEFSAII (Michael W. Deem and Ramdas Pophale) SiO2 
 PCOD9166520
Probable space group: P 21/M
;
_chemical_formula_sum "Si O2"
_cell_formula_units_Z 32
_cell_length_a 5.471250
_cell_length_b 8.920188
_cell_length_c 31.954522
_cell_angle_alpha 90.000000
_cell_angle_beta 84.407985
_cell_angle_gamma 90.000000
_cell_volume 1552.105176
_symmetry_space_group_name_H-M "P 21/M"
_symmetry_group_IT_number 11
_symmetry_cell_setting 'monoclinic'
loop_
_space_group_symop_operation_xyz
x,y,z
-x,1/2+y,-z
-x,-y,-z
x,1/2-y,z
loop_
_atom_site_type_symbol
_atom_site_label
_atom_site_fract_x
_atom_site_fract_y
_atom_site_fract_z
Si Si1 0.301181 0.584502 0.247519
Si Si2 0.482160 0.586686 0.688563
Si Si3 0.088677 0.411326 0.671503
Si Si4 0.360963 0.068525 0.882021
Si Si5 0.738798 0.570735 0.518921
Si Si6 0.887523 0.432404 0.838702
Si Si7 0.260783 0.068831 0.980793
Si Si8 0.264121 0.921183 0.392604
O O1 0.406560 0.750000 0.235814
O O2 0.498616 0.475907 0.264755
O O3 0.156858 0.531288 0.209258
O O4 0.124137 0.599849 0.290328
O O5 0.589392 0.750000 0.684022
O O6 0.200625 0.570155 0.681368
O O7 0.582723 0.484632 0.648954
O O8 0.224747 0.250000 0.675432
O O9 0.002418 0.415386 0.625056
O O10 0.367681 0.250000 0.878185
O O11 0.636413 0.016918 0.865930
O O12 0.293175 0.035004 0.930944
O O13 0.141407 0.013964 0.855238
O O14 0.500000 0.500000 0.500000
O O15 0.742803 0.750000 0.512714
O O16 0.717078 0.526519 0.568049
O O17 0.000000 0.500000 0.500000
O O18 0.896247 0.250000 0.841248
O O19 0.257515 0.250000 0.986235
O O20 0.500000 0.000000 0.000000
O O21 0.000000 0.000000 0.000000
O O22 0.331158 0.750000 0.402497
#
# Coordination Sequence:
#
# PCOD9166520 Si02
#       8
#     4   4   4   4   4   4   4   4
#     4   9  19  34  55  82 109 145 195 248 300 352
#     4  11  22  35  56  84 118 157 198 245 301 367
#     4   9  19  35  57  84 114 149 195 248 302 358
#     4   9  18  32  53  86 118 149 197 254 310 362
#     4  12  27  48  73 103 139 178 221 268 325 393
#     4   9  17  30  53  83 115 149 191 252 308 358
#     4  11  22  38  62  92 125 163 208 264 323 385
#     4  10  22  42  65  90 120 158 205 262 318 369
#
# _framework density 20.617160999999999
#
# number of rings (size 3 to 8) (size 9 to 14) (size 15 to 20)
#    0.000    2.000    0.000    4.500    3.500    4.500 
#    0.000    0.000    0.000    4.500    0.000    0.000 
#    0.000    0.000    0.000    0.000    0.000    0.000 
#
# Total GULP energy -178136.863137 kJ/mol
# GULP energy per Si atom -5566.776973 kJ/mol
# Density = 2.057024 g / cm^3
# Si number density = 20.617161 Si / 1000 Ang^3
#
#
#
# Elastic Constant Matrix: (Units=GPa)
#
#
# Indices 1 2 3 4 5 6 
#
# 1 82.8574 27.3957 26.0302 0.0000 17.1435 0.0000
# 2 27.3957 84.3581 21.8251 0.0000 13.8265 0.0000
# 3 26.0302 21.8251 102.2392 0.0000 22.1851 0.0000
# 4 0.0000 0.0000 0.0000 18.0508 0.0000 -1.6961
# 5 17.1435 13.8265 22.1851 0.0000 30.1123 0.0000
# 6 0.0000 0.0000 0.0000 -1.6961 0.0000 18.7569
#
#
#
# Elastic Compliance Matrix: (Units=1/GPa)
#
#
# Indices 1 2 3 4 5 6 
#
# 1 0.014947 -0.003463 -0.001863 0.000000 -0.005547 0.000000
# 2 -0.003463 0.013886 -0.001341 0.000000 -0.003416 0.000000
# 3 -0.001863 -0.001341 0.012114 0.000000 -0.007249 0.000000
# 4 0.000000 0.000000 0.000000 0.055874 0.000000 0.005052
# 5 -0.005547 -0.003416 -0.007249 0.000000 0.043276 0.000000
# 6 0.000000 0.000000 0.000000 0.005052 0.000000 0.053771
#
#
# Mechanical properties :
#
#
# Convention : Reuss Voigt Hill
#
# Bulk Modulus (GPa) = 36.21412 46.66186 41.43799
# Shear Modulus (GPa) = 23.10474 26.33092 24.71783
#
# Velocity S-wave (km/s) = 3.35125 3.57758 3.46626
# Velocity P-wave (km/s) = 5.70769 6.30453 6.01352
#
# Compressibility (1/GPa) = 0.02761354
#
# Stress axis : x y z
#
# Youngs Moduli (GPa) = 66.90412 72.01621 82.54578
#
# Poissons Ratio (x) = 0.24939 0.15374
# Poissons Ratio (y) = 0.23169 0.11072
# Poissons Ratio (z) = 0.12461 0.09659
#
# Static dielectric constant tensor:
#      x y z
#    x 1.941650 0.000000 0.015730 
#    y 0.000000 1.797280 0.000000 
#    z 0.015730 0.000000 1.701600 
# 
# From -- ./inp_files/72601.got.cif
#   From: 2010.05.17/outbox.cif.g08.bks.cpg/sg11_37_cif.got.tgz:72601.got - 2010.06.03 12:22:45.
