data_PCOD9166620
_publ_section_title
;
Structure prediction by ZEFSAII (Michael W. Deem and Ramdas Pophale) SiO2 
 PCOD9166620
Probable space group: P 21/M
;
_chemical_formula_sum "Si O2"
_cell_formula_units_Z 28
_cell_length_a 6.355445
_cell_length_b 28.575741
_cell_length_c 9.875236
_cell_angle_alpha 90.000000
_cell_angle_beta 53.694862
_cell_angle_gamma 90.000000
_cell_volume 1445.302436
_symmetry_space_group_name_H-M "P 21/M"
_symmetry_group_IT_number 11
_symmetry_cell_setting 'monoclinic'
loop_
_space_group_symop_operation_xyz
x,y,z
-x,1/2+y,-z
-x,-y,-z
x,1/2-y,z
loop_
_atom_site_type_symbol
_atom_site_label
_atom_site_fract_x
_atom_site_fract_y
_atom_site_fract_z
Si Si1 0.004631 0.416485 0.189318
Si Si2 0.892543 0.750000 0.682714
Si Si3 0.266032 0.647261 0.929559
Si Si4 0.239755 0.750000 0.842508
Si Si5 0.483320 0.038894 0.891440
Si Si6 0.873660 0.647515 0.617032
Si Si7 0.030330 0.600267 0.282879
Si Si8 0.275757 0.487823 0.689955
O O1 0.838409 0.390860 0.137712
O O2 0.928160 0.470099 0.244855
O O3 0.980454 0.386891 0.334941
O O4 0.294584 0.420630 0.019151
O O5 0.567690 0.750000 0.759481
O O6 0.975591 0.700466 0.589404
O O7 0.060334 0.750000 0.766702
O O8 0.166576 0.699652 0.932842
O O9 0.577095 0.647280 0.786320
O O10 0.161910 0.631770 0.116115
O O11 0.748315 0.064466 0.749454
O O12 0.369953 0.012119 0.807057
O O13 0.500000 0.000000 0.000000
O O14 0.905236 0.628797 0.453376
O O15 0.824308 0.564419 0.297345
O O16 0.500000 0.500000 0.500000
#
# Coordination Sequence:
#
# PCOD9166620 Si02
#       8
#     4   2   4   2   4   4   4   4
#     4  12  22  40  66  91 131 179 222 282 337 415
#     4  10  22  47  70 107 137 183 230 297 353 425
#     4  11  23  44  68  96 131 175 226 282 348 411
#     4  10  22  43  78 101 139 181 236 287 363 421
#     4  12  24  41  63  92 134 180 225 280 340 407
#     4  11  25  42  71  95 134 175 230 279 355 409
#     4  12  25  42  65  98 133 176 229 279 337 415
#     4  12  26  39  59  94 134 174 227 274 339 408
#
# _framework density 19.373107999999998
#
# number of rings (size 3 to 8) (size 9 to 14) (size 15 to 20)
#    0.000    0.571    5.714    3.000    2.000    1.714 
#    0.000    0.000    0.000    3.429    0.000    0.000 
#    0.000    0.000    0.000    0.000    0.000    0.000 
#
# Total GULP energy -155936.168860 kJ/mol
# GULP energy per Si atom -5569.148888 kJ/mol
# Density = 1.932901 g / cm^3
# Si number density = 19.373108 Si / 1000 Ang^3
#
#
#
# Elastic Constant Matrix: (Units=GPa)
#
#
# Indices 1 2 3 4 5 6 
#
# 1 61.6917 30.2178 29.6140 0.0000 14.8100 0.0000
# 2 30.2178 130.3492 52.8100 0.0000 23.7547 0.0000
# 3 29.6140 52.8100 119.1878 0.0000 17.8166 0.0000
# 4 0.0000 0.0000 0.0000 10.7826 0.0000 11.4380
# 5 14.8100 23.7547 17.8166 0.0000 29.8944 0.0000
# 6 0.0000 0.0000 0.0000 11.4380 0.0000 32.7341
#
#
#
# Elastic Compliance Matrix: (Units=1/GPa)
#
#
# Indices 1 2 3 4 5 6 
#
# 1 0.020356 -0.002302 -0.003078 0.000000 -0.006421 0.000000
# 2 -0.002302 0.010494 -0.003295 0.000000 -0.005235 0.000000
# 3 -0.003078 -0.003295 0.010973 0.000000 -0.002396 0.000000
# 4 0.000000 0.000000 0.000000 0.147363 0.000000 -0.051492
# 5 -0.006421 -0.005235 -0.002396 0.000000 0.042220 0.000000
# 6 0.000000 0.000000 0.000000 -0.051492 0.000000 0.048541
#
#
# Mechanical properties :
#
#
# Convention : Reuss Voigt Hill
#
# Bulk Modulus (GPa) = 40.86102 59.61248 50.23675
# Shear Modulus (GPa) = 16.36895 27.92136 22.14516
#
# Velocity S-wave (km/s) = 2.90992 3.80049 3.38463
# Velocity P-wave (km/s) = 5.69453 7.07784 6.42353
#
# Compressibility (1/GPa) = 0.02447320
#
# Stress axis : x y z
#
# Youngs Moduli (GPa) = 49.12527 95.28893 91.13031
#
# Poissons Ratio (x) = 0.21933 0.28050
# Poissons Ratio (y) = 0.11308 0.30032
# Poissons Ratio (z) = 0.15121 0.31402
#
# Static dielectric constant tensor:
#      x y z
#    x 1.836030 0.000000 -0.059290 
#    y 0.000000 1.639600 0.000000 
#    z -0.059290 0.000000 1.670690 
# 
# From -- ./inp_files/3311.got.cif
#   From: 2010.05.17/outbox.cif.g08.bks.cpg/sg11_2_cif.got.tgz:3311.got - 2010.06.03 12:22:45.
