data_PCOD9166682
_publ_section_title
;
Structure prediction by ZEFSAII (Michael W. Deem and Ramdas Pophale) SiO2 
 PCOD9166682
Probable space group: P 21/M
;
_chemical_formula_sum "Si O2"
_cell_formula_units_Z 28
_cell_length_a 18.021785
_cell_length_b 15.306714
_cell_length_c 5.235700
_cell_angle_alpha 90.000000
_cell_angle_beta 74.005321
_cell_angle_gamma 90.000000
_cell_volume 1388.378009
_symmetry_space_group_name_H-M "P 21/M"
_symmetry_group_IT_number 11
_symmetry_cell_setting 'monoclinic'
loop_
_space_group_symop_operation_xyz
x,y,z
-x,1/2+y,-z
-x,-y,-z
x,1/2-y,z
loop_
_atom_site_type_symbol
_atom_site_label
_atom_site_fract_x
_atom_site_fract_y
_atom_site_fract_z
Si Si1 0.177366 0.011396 0.749358
Si Si2 0.249592 0.846379 0.568169
Si Si3 0.851218 0.648613 0.626166
Si Si4 0.346153 0.889429 0.986702
Si Si5 0.694854 0.915672 0.050074
Si Si6 0.521490 0.250000 0.192508
Si Si7 0.584201 0.750000 0.207805
Si Si8 0.047872 0.472998 0.205658
O O1 0.135698 0.086408 0.629145
O O2 0.260238 0.051878 0.739643
O O3 0.188713 0.923350 0.582986
O O4 0.131336 0.985849 0.050352
O O5 0.215625 0.750000 0.600152
O O6 0.311663 0.854404 0.284333
O O7 0.290150 0.864246 0.802916
O O8 0.850695 0.750000 0.565325
O O9 0.919357 0.624079 0.761234
O O10 0.766671 0.620383 0.812833
O O11 0.424605 0.836490 0.861652
O O12 0.346449 0.995281 0.006266
O O13 0.637259 0.836470 0.151764
O O14 0.468517 0.250000 0.491999
O O15 0.468979 0.250000 0.991618
O O16 0.000000 0.500000 0.500000
O O17 0.000000 0.500000 0.000000
#
# Coordination Sequence:
#
# PCOD9166682 Si02
#       8
#     4   4   4   4   4   2   2   4
#     4  10  23  39  71 100 133 172 224 279 332 390
#     4  11  20  38  67  95 121 165 221 281 326 386
#     4  11  22  41  73 105 132 180 234 269 328 400
#     4  11  22  41  66  89 125 172 220 274 339 406
#     4  10  24  40  64  99 130 174 226 288 333 379
#     4  12  26  42  62  94 128 183 222 268 349 422
#     4  12  28  42  64  92 140 171 218 292 327 404
#     4  11  23  45  67  94 141 180 212 266 328 397
#
# _framework density 20.167418000000001
#
# number of rings (size 3 to 8) (size 9 to 14) (size 15 to 20)
#    0.000    1.143    5.000    0.857    3.000    1.714 
#    0.000    1.429    0.000    0.857    0.000    0.000 
#    0.000    0.000    0.000    0.000    0.000    0.000 
#
# Total GULP energy -156052.215007 kJ/mol
# GULP energy per Si atom -5573.293393 kJ/mol
# Density = 2.012152 g / cm^3
# Si number density = 20.167418 Si / 1000 Ang^3
#
#
#
# Elastic Constant Matrix: (Units=GPa)
#
#
# Indices 1 2 3 4 5 6 
#
# 1 86.8642 62.9761 34.5853 0.0000 -0.8095 0.0000
# 2 62.9761 197.9650 51.9491 0.0000 -11.1071 0.0000
# 3 34.5853 51.9491 126.0208 0.0000 -12.4136 0.0000
# 4 0.0000 0.0000 0.0000 15.6592 0.0000 -4.9193
# 5 -0.8095 -11.1071 -12.4136 0.0000 37.8512 0.0000
# 6 0.0000 0.0000 0.0000 -4.9193 0.0000 32.2018
#
#
#
# Elastic Compliance Matrix: (Units=1/GPa)
#
#
# Indices 1 2 3 4 5 6 
#
# 1 0.015765 -0.004413 -0.002689 0.000000 -0.001839 0.000000
# 2 -0.004413 0.006931 -0.001504 0.000000 0.001446 0.000000
# 3 -0.002689 -0.001504 0.009552 0.000000 0.002634 0.000000
# 4 0.000000 0.000000 0.000000 0.067079 0.000000 0.010247
# 5 -0.001839 0.001446 0.002634 0.000000 0.027668 0.000000
# 6 0.000000 0.000000 0.000000 0.010247 0.000000 0.032620
#
#
# Mechanical properties :
#
#
# Convention : Reuss Voigt Hill
#
# Bulk Modulus (GPa) = 66.49784 78.87454 72.68619
# Shear Modulus (GPa) = 27.49702 34.56507 31.03105
#
# Velocity S-wave (km/s) = 3.69648 4.14443 3.92685
# Velocity P-wave (km/s) = 7.15983 7.88013 7.52860
#
# Compressibility (1/GPa) = 0.01503808
#
# Stress axis : x y z
#
# Youngs Moduli (GPa) = 63.43253 144.28203 104.68609
#
# Poissons Ratio (x) = 0.63667 0.28147
# Poissons Ratio (y) = 0.27991 0.15740
# Poissons Ratio (z) = 0.17055 0.21694
#
# Static dielectric constant tensor:
#      x y z
#    x 1.776680 0.000000 -0.001160 
#    y 0.000000 1.730750 0.000000 
#    z -0.001160 0.000000 1.788690 
# 
# From -- ./inp_files/7897.got.cif
#   From: 2010.05.17/outbox.cif.g08.bks.cpg/sg11_4_cif.got.tgz:7897.got - 2010.06.03 12:22:45.
