data_PCOD9166910
_publ_section_title
;
Structure prediction by ZEFSAII (Michael W. Deem and Ramdas Pophale) SiO2 
 PCOD9166910
Probable space group: P 21/M
;
_chemical_formula_sum "Si O2"
_cell_formula_units_Z 18
_cell_length_a 12.740565
_cell_length_b 9.190812
_cell_length_c 9.179587
_cell_angle_alpha 90.000000
_cell_angle_beta 128.234381
_cell_angle_gamma 90.000000
_cell_volume 844.313976
_symmetry_space_group_name_H-M "P 21/M"
_symmetry_group_IT_number 11
_symmetry_cell_setting 'monoclinic'
loop_
_space_group_symop_operation_xyz
x,y,z
-x,1/2+y,-z
-x,-y,-z
x,1/2-y,z
loop_
_atom_site_type_symbol
_atom_site_label
_atom_site_fract_x
_atom_site_fract_y
_atom_site_fract_z
Si Si1 0.877926 0.574094 0.981091
Si Si2 0.641218 0.079809 0.607391
Si Si3 0.635952 0.042084 0.266994
Si Si4 0.439817 0.250000 0.943378
Si Si5 0.898059 0.083114 0.306411
O O1 0.882983 0.750000 0.982186
O O2 0.745755 0.510412 0.792518
O O3 0.884154 0.513325 0.150199
O O4 0.000000 0.500000 0.000000
O O5 0.636812 0.250000 0.648628
O O6 0.500000 0.000000 0.500000
O O7 0.677972 0.073029 0.468178
O O8 0.610543 0.875544 0.212288
O O9 0.754603 0.090547 0.261594
O O10 0.501318 0.126067 0.108201
O O11 0.941177 0.250000 0.311895
O O12 0.000000 0.000000 0.500000
#
# Coordination Sequence:
#
# PCOD9166910 Si02
#       5
#     4   4   4   2   4
#     4  12  28  49  73 102 141 186 235 290 356 423
#     4  12  27  45  70 105 146 186 234 288 352 419
#     4  11  25  44  70  99 140 176 236 278 346 404
#     4  10  24  42  72  98 136 182 224 286 338 408
#     4  12  26  46  75 103 136 182 235 288 346 415
#
# _framework density 21.319082999999999
#
# number of rings (size 3 to 8) (size 9 to 14) (size 15 to 20)
#    0.000    0.444    2.222    4.667   12.444    0.000 
#    0.000    0.000    0.000    0.000    0.000    0.000 
#    0.000    0.000    0.000    0.000    0.000    0.000 
#
# Total GULP energy -100222.961525 kJ/mol
# GULP energy per Si atom -5567.942307 kJ/mol
# Density = 2.127056 g / cm^3
# Si number density = 21.319083 Si / 1000 Ang^3
#
#
#
# Elastic Constant Matrix: (Units=GPa)
#
#
# Indices 1 2 3 4 5 6 
#
# 1 96.8271 39.5115 52.5420 0.0000 -10.7874 0.0000
# 2 39.5115 286.7330 87.4886 0.0000 5.5435 0.0000
# 3 52.5420 87.4886 167.3020 0.0000 -3.4783 0.0000
# 4 0.0000 0.0000 0.0000 37.6874 0.0000 2.8071
# 5 -10.7874 5.5435 -3.4783 0.0000 37.5187 0.0000
# 6 0.0000 0.0000 0.0000 2.8071 0.0000 30.6755
#
#
#
# Elastic Compliance Matrix: (Units=1/GPa)
#
#
# Indices 1 2 3 4 5 6 
#
# 1 0.012986 -0.000756 -0.003610 0.000000 0.003511 0.000000
# 2 -0.000756 0.004219 -0.001990 0.000000 -0.001025 0.000000
# 3 -0.003610 -0.001990 0.008152 0.000000 0.000012 0.000000
# 4 0.000000 0.000000 0.000000 0.026716 0.000000 -0.002445
# 5 0.003511 -0.001025 0.000012 0.000000 0.027815 0.000000
# 6 0.000000 0.000000 0.000000 -0.002445 0.000000 0.032823
#
#
# Mechanical properties :
#
#
# Convention : Reuss Voigt Hill
#
# Bulk Modulus (GPa) = 79.08387 101.10516 90.09451
# Shear Modulus (GPa) = 38.56876 45.93099 42.24987
#
# Velocity S-wave (km/s) = 4.25799 4.64665 4.45656
# Velocity P-wave (km/s) = 7.83261 8.73591 8.29656
#
# Compressibility (1/GPa) = 0.01264480
#
# Stress axis : x y z
#
# Youngs Moduli (GPa) = 77.00456 237.03653 122.67015
#
# Poissons Ratio (x) = 0.17916 0.44286
# Poissons Ratio (y) = 0.05820 0.24413
# Poissons Ratio (z) = 0.27800 0.47172
#
# Static dielectric constant tensor:
#      x y z
#    x 1.828010 0.000000 0.011800 
#    y 0.000000 1.709760 0.000000 
#    z 0.011800 0.000000 1.747170 
# 
# From -- ./inp_files/16132.got.cif
#   From: 2010.05.17/outbox.cif.g08.bks.cpg/sg11_9_cif.got.tgz:16132.got - 2010.06.03 12:22:45.
