data_PCOD9166296
_publ_section_title
;
Structure prediction by ZEFSAII (Michael W. Deem and Ramdas Pophale) SiO2 
 PCOD9166296
Probable space group: P 21/M
;
_chemical_formula_sum "Si O2"
_cell_formula_units_Z 28
_cell_length_a 7.895784
_cell_length_b 11.065462
_cell_length_c 16.923487
_cell_angle_alpha 90.000000
_cell_angle_beta 110.623085
_cell_angle_gamma 90.000000
_cell_volume 1383.860530
_symmetry_space_group_name_H-M "P 21/M"
_symmetry_group_IT_number 11
_symmetry_cell_setting 'monoclinic'
loop_
_space_group_symop_operation_xyz
x,y,z
-x,1/2+y,-z
-x,-y,-z
x,1/2-y,z
loop_
_atom_site_type_symbol
_atom_site_label
_atom_site_fract_x
_atom_site_fract_y
_atom_site_fract_z
Si Si1 0.596896 0.388006 0.127676
Si Si2 0.374293 0.122884 0.936105
Si Si3 0.060221 0.899491 0.573933
Si Si4 0.836186 0.609439 0.692427
Si Si5 0.223826 0.878477 0.069830
Si Si6 0.462513 0.605458 0.698482
Si Si7 0.931870 0.883767 0.882495
O O1 0.671230 0.250000 0.137606
O O2 0.429123 0.383764 0.037302
O O3 0.568900 0.373595 0.924279
O O4 0.550842 0.419738 0.210036
O O5 0.277386 0.250000 0.906507
O O6 0.175385 0.996438 0.110529
O O7 0.290738 0.001067 0.889105
O O8 0.040816 0.750000 0.555158
O O9 0.271935 0.922512 0.626784
O O10 0.946480 0.931815 0.634462
O O11 0.000000 0.000000 0.500000
O O12 0.801536 0.750000 0.668843
O O13 0.640941 0.554037 0.684502
O O14 0.953493 0.607092 0.791814
O O15 0.186105 0.750000 0.105316
O O16 0.096927 0.879498 0.971299
O O17 0.479763 0.750000 0.698637
O O18 0.839632 0.750000 0.877409
#
# Coordination Sequence:
#
# PCOD9166296 Si02
#       7
#     4   4   4   4   4   4   4
#     4   9  17  29  47  70  99 136 180 220 256 302
#     4   9  17  27  41  66 102 140 177 219 263 303
#     4  10  22  40  62  86 112 138 172 222 278 334
#     4   9  18  33  56  84 109 138 179 224 265 316
#     4   9  17  27  41  66 102 140 177 219 263 303
#     4   9  18  33  56  84 109 138 179 224 265 316
#     4   9  17  29  47  70  99 136 180 220 256 302
#
# _framework density 20.233253999999999
#
# number of rings (size 3 to 8) (size 9 to 14) (size 15 to 20)
#    0.000    2.857    0.000    0.857    2.000    2.286 
#    0.000    1.429    0.000    1.714    0.000    0.000 
#    0.000    0.000    0.000    0.000    0.000    0.000 
#
# Total GULP energy -155901.832747 kJ/mol
# GULP energy per Si atom -5567.922598 kJ/mol
# Density = 2.018720 g / cm^3
# Si number density = 20.233254 Si / 1000 Ang^3
#
#
#
# Elastic Constant Matrix: (Units=GPa)
#
#
# Indices 1 2 3 4 5 6 
#
# 1 74.4200 40.9443 49.0176 0.0000 2.6114 0.0000
# 2 40.9443 148.3110 47.4585 0.0000 -9.2541 0.0000
# 3 49.0176 47.4585 103.9245 0.0000 -7.1048 0.0000
# 4 0.0000 0.0000 0.0000 34.7326 0.0000 -1.3756
# 5 2.6114 -9.2541 -7.1048 0.0000 30.5345 0.0000
# 6 0.0000 0.0000 0.0000 -1.3756 0.0000 15.0735
#
#
#
# Elastic Compliance Matrix: (Units=1/GPa)
#
#
# Indices 1 2 3 4 5 6 
#
# 1 0.021274 -0.003350 -0.008839 0.000000 -0.004891 0.000000
# 2 -0.003350 0.008500 -0.002140 0.000000 0.002365 0.000000
# 3 -0.008839 -0.002140 0.015015 0.000000 0.003601 0.000000
# 4 0.000000 0.000000 0.000000 0.028896 0.000000 0.002637
# 5 -0.004891 0.002365 0.003601 0.000000 0.034723 0.000000
# 6 0.000000 0.000000 0.000000 0.002637 0.000000 0.066582
#
#
# Mechanical properties :
#
#
# Convention : Reuss Voigt Hill
#
# Bulk Modulus (GPa) = 61.99170 66.83294 64.41232
# Shear Modulus (GPa) = 23.92090 28.68379 26.30234
#
# Velocity S-wave (km/s) = 3.44213 3.76926 3.60940
# Velocity P-wave (km/s) = 6.81929 7.21430 7.01957
#
# Compressibility (1/GPa) = 0.01613119
#
# Stress axis : x y z
#
# Youngs Moduli (GPa) = 47.00667 117.65172 66.60192
#
# Poissons Ratio (x) = 0.39412 0.58867
# Poissons Ratio (y) = 0.15747 0.14251
# Poissons Ratio (z) = 0.41547 0.25175
#
# Static dielectric constant tensor:
#      x y z
#    x 1.828230 0.000000 -0.007480 
#    y 0.000000 1.823250 0.000000 
#    z -0.007480 0.000000 1.690290 
# 
# From -- ./inp_files/21183.got.cif
#   From: 2010.05.17/outbox.cif.g08.bks.cpg/sg11_11_cif.got.tgz:21183.got - 2010.06.03 12:22:45.
