data_PCOD9166992
_publ_section_title
;
Structure prediction by ZEFSAII (Michael W. Deem and Ramdas Pophale) SiO2 
 PCOD9166992
Probable space group: P 21/M
;
_chemical_formula_sum "Si O2"
_cell_formula_units_Z 28
_cell_length_a 12.840093
_cell_length_b 8.497642
_cell_length_c 14.765925
_cell_angle_alpha 90.000000
_cell_angle_beta 122.163980
_cell_angle_gamma 90.000000
_cell_volume 1363.856212
_symmetry_space_group_name_H-M "P 21/M"
_symmetry_group_IT_number 11
_symmetry_cell_setting 'monoclinic'
loop_
_space_group_symop_operation_xyz
x,y,z
-x,1/2+y,-z
-x,-y,-z
x,1/2-y,z
loop_
_atom_site_type_symbol
_atom_site_label
_atom_site_fract_x
_atom_site_fract_y
_atom_site_fract_z
Si Si1 0.726831 0.063719 0.210988
Si Si2 0.584054 0.439906 0.620181
Si Si3 0.138487 0.938375 0.298323
Si Si4 0.000472 0.438828 0.398149
Si Si5 0.478363 0.063588 0.764818
Si Si6 0.323944 0.434361 0.006061
Si Si7 0.057962 0.936823 0.934259
O O1 0.722611 0.250000 0.192294
O O2 0.868456 0.018369 0.292800
O O3 0.645532 0.020913 0.260251
O O4 0.671791 0.978550 0.097692
O O5 0.500000 0.500000 0.500000
O O6 0.582873 0.250000 0.619594
O O7 0.725237 0.488196 0.668965
O O8 0.531150 0.492150 0.692763
O O9 0.127498 0.750000 0.282134
O O10 0.106876 0.985261 0.386395
O O11 0.037624 0.022562 0.189255
O O12 0.011894 0.250000 0.402134
O O13 0.000000 0.500000 0.500000
O O14 0.455758 0.250000 0.749090
O O15 0.579756 0.028618 0.888435
O O16 0.347881 0.250000 0.028832
O O17 0.187040 0.479010 0.974924
O O18 0.078420 0.750000 0.948337
O O19 0.000000 0.000000 0.000000
#
# Coordination Sequence:
#
# PCOD9166992 Si02
#       7
#     4   4   4   4   4   4   4
#     4  11  24  43  66  96 133 173 218 270 326 390
#     4  10  25  45  67  95 128 169 214 266 321 379
#     4  11  23  43  68  97 132 169 215 270 326 388
#     4  11  25  43  67  97 132 173 219 272 329 390
#     4  11  24  43  66  95 132 174 219 269 325 390
#     4  12  24  41  66  97 131 172 216 267 327 390
#     4  12  24  40  64  96 132 173 216 266 323 386
#
# _framework density 20.530023
#
# number of rings (size 3 to 8) (size 9 to 14) (size 15 to 20)
#    0.000    0.857    1.429    5.571    2.000    5.143 
#    0.000    0.000    0.000    0.000    0.000    0.000 
#    0.000    0.000    0.000    0.000    0.000    0.000 
#
# Total GULP energy -156758.728103 kJ/mol
# GULP energy per Si atom -5598.526004 kJ/mol
# Density = 2.048330 g / cm^3
# Si number density = 20.530023 Si / 1000 Ang^3
#
#
#
# Elastic Constant Matrix: (Units=GPa)
#
#
# Indices 1 2 3 4 5 6 
#
# 1 133.5725 -3.2679 13.3686 0.0000 -19.1487 0.0000
# 2 -3.2679 19.3903 -3.5103 0.0000 -4.9289 0.0000
# 3 13.3686 -3.5103 58.2799 0.0000 -18.7478 0.0000
# 4 0.0000 0.0000 0.0000 33.9094 0.0000 -1.0913
# 5 -19.1487 -4.9289 -18.7478 0.0000 40.1745 0.0000
# 6 0.0000 0.0000 0.0000 -1.0913 0.0000 35.3703
#
#
#
# Elastic Compliance Matrix: (Units=1/GPa)
#
#
# Indices 1 2 3 4 5 6 
#
# 1 0.008156 0.002296 -0.000461 0.000000 0.003954 0.000000
# 2 0.002296 0.055883 0.006350 0.000000 0.010914 0.000000
# 3 -0.000461 0.006350 0.020975 0.000000 0.010348 0.000000
# 4 0.000000 0.000000 0.000000 0.029520 0.000000 0.000911
# 5 0.003954 0.010914 0.010348 0.000000 0.032944 0.000000
# 6 0.000000 0.000000 0.000000 0.000911 0.000000 0.028300
#
#
# Mechanical properties :
#
#
# Convention : Reuss Voigt Hill
#
# Bulk Modulus (GPa) = 9.86335 24.93596 17.39965
# Shear Modulus (GPa) = 25.87969 35.53434 30.70701
#
# Velocity S-wave (km/s) = 3.55431 4.16486 3.87164
# Velocity P-wave (km/s) = 4.65392 5.94142 5.33664
#
# Compressibility (1/GPa) = 0.10138543
#
# Stress axis : x y z
#
# Youngs Moduli (GPa) = 122.61366 17.89459 47.67479
#
# Poissons Ratio (x) = -0.04109 0.02195
# Poissons Ratio (y) = -0.28155 -0.30273
# Poissons Ratio (z) = 0.05646 -0.11363
#
# Static dielectric constant tensor:
#      x y z
#    x 1.755740 0.000000 -0.033240 
#    y 0.000000 1.694120 0.000000 
#    z -0.033240 0.000000 1.723390 
# 
# From -- ./inp_files/49471.got.cif
#   From: 2010.05.17/outbox.cif.g08.bks.cpg/sg11_25_cif.got.tgz:49471.got - 2010.06.03 12:22:45.
