data_PCOD9166011
_publ_section_title
;
Structure prediction by ZEFSAII (Michael W. Deem and Ramdas Pophale) SiO2 
 PCOD9166011
Probable space group: P 21/M
;
_chemical_formula_sum "Si O2"
_cell_formula_units_Z 28
_cell_length_a 8.997050
_cell_length_b 26.551011
_cell_length_c 9.785554
_cell_angle_alpha 90.000000
_cell_angle_beta 34.467865
_cell_angle_gamma 90.000000
_cell_volume 1322.939606
_symmetry_space_group_name_H-M "P 21/M"
_symmetry_group_IT_number 11
_symmetry_cell_setting 'monoclinic'
loop_
_space_group_symop_operation_xyz
x,y,z
-x,1/2+y,-z
-x,-y,-z
x,1/2-y,z
loop_
_atom_site_type_symbol
_atom_site_label
_atom_site_fract_x
_atom_site_fract_y
_atom_site_fract_z
Si Si1 0.911746 0.695337 0.308148
Si Si2 0.125439 0.309888 0.088219
Si Si3 0.518139 0.552123 0.564462
Si Si4 0.731194 0.398112 0.013293
Si Si5 0.485572 0.842932 0.450156
Si Si6 0.997398 0.551360 0.419452
Si Si7 0.804662 0.848250 0.666684
O O1 0.019280 0.750000 0.186535
O O2 0.619726 0.689644 0.469548
O O3 0.923972 0.688547 0.462039
O O4 0.052912 0.645548 0.144449
O O5 0.106782 0.250000 0.084660
O O6 0.826268 0.331648 0.311454
O O7 0.222442 0.323931 0.166365
O O8 0.341967 0.329305 0.814770
O O9 0.500000 0.500000 0.500000
O O10 0.532920 0.598550 0.449349
O O11 0.761051 0.550622 0.487165
O O12 0.277951 0.567743 0.845694
O O13 0.759446 0.434814 0.861843
O O14 0.469895 0.366236 0.187509
O O15 0.966849 0.599400 0.542370
O O16 0.000000 0.500000 0.500000
#
# Coordination Sequence:
#
# PCOD9166011 Si02
#       7
#     4   4   4   4   4   4   4
#     4  11  22  42  72  98 133 185 231 290 354 422
#     4  12  28  46  70 105 148 192 235 292 360 418
#     4  11  25  43  69 100 134 185 233 292 360 425
#     4  10  21  45  66 100 139 173 241 291 344 431
#     4  12  26  48  68 105 146 182 240 294 351 430
#     4  10  23  42  67 101 131 180 234 293 354 417
#     4  10  24  43  67  98 138 178 237 293 341 430
#
# _framework density 21.164988000000001
#
# number of rings (size 3 to 8) (size 9 to 14) (size 15 to 20)
#    0.000    1.143    4.286    2.571    6.000    5.143 
#    0.000    0.000    0.000    0.000    0.000    0.000 
#    0.000    0.000    0.000    0.000    0.000    0.000 
#
# Total GULP energy -156271.736454 kJ/mol
# GULP energy per Si atom -5581.133445 kJ/mol
# Density = 2.111682 g / cm^3
# Si number density = 21.164988 Si / 1000 Ang^3
#
#
#
# Elastic Constant Matrix: (Units=GPa)
#
#
# Indices 1 2 3 4 5 6 
#
# 1 34.6682 22.9700 19.5746 0.0000 15.7156 0.0000
# 2 22.9700 166.2327 53.1047 0.0000 19.2941 0.0000
# 3 19.5746 53.1047 117.6593 0.0000 22.2120 0.0000
# 4 0.0000 0.0000 0.0000 18.6315 0.0000 4.2507
# 5 15.7156 19.2941 22.2120 0.0000 31.3183 0.0000
# 6 0.0000 0.0000 0.0000 4.2507 0.0000 24.3362
#
#
#
# Elastic Compliance Matrix: (Units=1/GPa)
#
#
# Indices 1 2 3 4 5 6 
#
# 1 0.039429 -0.002842 -0.002162 0.000000 -0.016501 0.000000
# 2 -0.002842 0.007394 -0.002625 0.000000 -0.001267 0.000000
# 3 -0.002162 -0.002625 0.011007 0.000000 -0.005105 0.000000
# 4 0.000000 0.000000 0.000000 0.055900 0.000000 -0.009764
# 5 -0.016501 -0.001267 -0.005105 0.000000 0.044612 0.000000
# 6 0.000000 0.000000 0.000000 -0.009764 0.000000 0.042797
#
#
# Mechanical properties :
#
#
# Convention : Reuss Voigt Hill
#
# Bulk Modulus (GPa) = 23.48970 56.65097 40.07034
# Shear Modulus (GPa) = 21.68372 29.71793 25.70083
#
# Velocity S-wave (km/s) = 3.20427 3.75121 3.48847
# Velocity P-wave (km/s) = 4.98119 6.75178 5.93291
#
# Compressibility (1/GPa) = 0.04257184
#
# Stress axis : x y z
#
# Youngs Moduli (GPa) = 25.36206 135.24211 90.84882
#
# Poissons Ratio (x) = 0.38443 0.19638
# Poissons Ratio (y) = 0.07209 0.23850
# Poissons Ratio (z) = 0.05482 0.35504
#
# Static dielectric constant tensor:
#      x y z
#    x 1.777650 0.000000 -0.039930 
#    y 0.000000 1.762640 0.000000 
#    z -0.039930 0.000000 1.875110 
# 
# From -- ./inp_files/15267.got.cif
#   From: 2010.05.17/outbox.cif.g08.bks.cpg/sg11_8_cif.got.tgz:15267.got - 2010.06.03 12:22:45.
