data_PCOD9166294
_publ_section_title
;
Structure prediction by ZEFSAII (Michael W. Deem and Ramdas Pophale) SiO2 
 PCOD9166294
Probable space group: P 21/M
;
_chemical_formula_sum "Si O2"
_cell_formula_units_Z 32
_cell_length_a 12.207799
_cell_length_b 8.111068
_cell_length_c 29.456987
_cell_angle_alpha 90.000000
_cell_angle_beta 147.677375
_cell_angle_gamma 90.000000
_cell_volume 1559.561903
_symmetry_space_group_name_H-M "P 21/M"
_symmetry_group_IT_number 11
_symmetry_cell_setting 'monoclinic'
loop_
_space_group_symop_operation_xyz
x,y,z
-x,1/2+y,-z
-x,-y,-z
x,1/2-y,z
loop_
_atom_site_type_symbol
_atom_site_label
_atom_site_fract_x
_atom_site_fract_y
_atom_site_fract_z
Si Si1 0.628984 0.048247 0.741555
Si Si2 0.432846 0.445391 0.766146
Si Si3 0.897079 0.553248 0.095550
Si Si4 0.799909 0.442336 0.645230
Si Si5 0.567066 0.051922 0.910584
Si Si6 0.429617 0.451825 0.577355
Si Si7 0.177093 0.557980 0.832630
Si Si8 0.028677 0.442852 0.389363
O O1 0.624857 0.250000 0.739741
O O2 0.522588 0.988496 0.750453
O O3 0.511428 0.994321 0.654957
O O4 0.866602 0.998860 0.823417
O O5 0.473432 0.250000 0.779935
O O6 0.535478 0.511412 0.848216
O O7 0.189572 0.470478 0.684287
O O8 0.892176 0.750000 0.099189
O O9 0.794538 0.475711 0.104261
O O10 0.772097 0.506312 0.007078
O O11 0.775490 0.250000 0.624934
O O12 0.591240 0.504238 0.595224
O O13 0.874198 0.535103 0.626518
O O14 0.980046 0.459102 0.745536
O O15 0.563331 0.250000 0.908719
O O16 0.374889 0.992611 0.873224
O O17 0.431485 0.250000 0.577370
O O18 0.201238 0.505348 0.484680
O O19 0.135583 0.750000 0.810584
O O20 0.993219 0.250000 0.385315
#
# Coordination Sequence:
#
# PCOD9166294 Si02
#       8
#     4   4   4   4   4   4   4   4
#     4   9  19  39  63  85 112 155 203 244 290 346
#     4  10  22  40  62  83 113 159 204 243 288 344
#     4  11  22  39  64  89 117 154 196 241 294 351
#     4  11  20  36  61  87 118 157 194 235 292 355
#     4  11  23  39  59  87 122 156 195 240 292 350
#     4   9  19  36  60  88 119 154 193 240 294 349
#     4  12  23  37  60  90 122 153 191 239 293 352
#     4  11  22  36  58  89 122 155 193 243 294 343
#
# _framework density 20.518583
#
# number of rings (size 3 to 8) (size 9 to 14) (size 15 to 20)
#    0.000    1.500    2.500    3.375    0.000    1.500 
#    0.000    3.125    0.000    0.000    0.000    0.000 
#    0.000    0.000    0.000    0.000    0.000    0.000 
#
# Total GULP energy -178887.095595 kJ/mol
# GULP energy per Si atom -5590.221737 kJ/mol
# Density = 2.047188 g / cm^3
# Si number density = 20.518583 Si / 1000 Ang^3
#
#
#
# Elastic Constant Matrix: (Units=GPa)
#
#
# Indices 1 2 3 4 5 6 
#
# 1 113.1349 -0.5455 8.4423 0.0000 -6.2327 0.0000
# 2 -0.5455 24.9315 -8.6504 0.0000 -2.7395 0.0000
# 3 8.4423 -8.6504 93.3373 0.0000 -21.4718 0.0000
# 4 0.0000 0.0000 0.0000 15.4486 0.0000 -5.3561
# 5 -6.2327 -2.7395 -21.4718 0.0000 13.2047 0.0000
# 6 0.0000 0.0000 0.0000 -5.3561 0.0000 -1.7301
#
#
#
# Elastic Compliance Matrix: (Units=1/GPa)
#
#
# Indices 1 2 3 4 5 6 
#
# 1 0.009098 0.000942 0.000475 0.000000 0.005262 0.000000
# 2 0.000942 0.046775 0.010520 0.000000 0.027255 0.000000
# 3 0.000475 0.010520 0.019490 0.000000 0.034099 0.000000
# 4 0.000000 0.000000 0.000000 0.031221 0.000000 -0.096653
# 5 0.005262 0.027255 0.034099 0.000000 0.139315 0.000000
# 6 0.000000 0.000000 0.000000 -0.096653 0.000000 -0.278773
#
#
# Mechanical properties :
#
#
# Convention : Reuss Voigt Hill
#
# Bulk Modulus (GPa) = 10.07695 25.54404 17.81049
# Shear Modulus (GPa) = -211.25778 20.86180 -95.19799
#
# Velocity S-wave (km/s) = -10.15789 3.19208 -6.81885
# Velocity P-wave (km/s) = 11.51760 5.10510 7.30045
#
# Compressibility (1/GPa) = 0.09923642
#
# Stress axis : x y z
#
# Youngs Moduli (GPa) = 109.91424 21.37885 51.30817
#
# Poissons Ratio (x) = -0.02014 -0.02437
# Poissons Ratio (y) = -0.10354 -0.53974
# Poissons Ratio (z) = -0.05220 -0.22490
#
# Static dielectric constant tensor:
#      x y z
#    x 1.707820 0.000000 -0.021990 
#    y 0.000000 1.727510 0.000000 
#    z -0.021990 0.000000 1.724510 
# 
# From -- ./inp_files/73169.got.cif
#   From: 2010.05.17/outbox.cif.g08.bks.cpg/sg11_37_cif.got.tgz:73169.got - 2010.06.03 12:22:45.
