data_PCOD9166683
_publ_section_title
;
Structure prediction by ZEFSAII (Michael W. Deem and Ramdas Pophale) SiO2 
 PCOD9166683
Probable space group: P 21/M
;
_chemical_formula_sum "Si O2"
_cell_formula_units_Z 26
_cell_length_a 17.088155
_cell_length_b 9.250404
_cell_length_c 7.799405
_cell_angle_alpha 90.000000
_cell_angle_beta 101.046617
_cell_angle_gamma 90.000000
_cell_volume 1210.027082
_symmetry_space_group_name_H-M "P 21/M"
_symmetry_group_IT_number 11
_symmetry_cell_setting 'monoclinic'
loop_
_space_group_symop_operation_xyz
x,y,z
-x,1/2+y,-z
-x,-y,-z
x,1/2-y,z
loop_
_atom_site_type_symbol
_atom_site_label
_atom_site_fract_x
_atom_site_fract_y
_atom_site_fract_z
Si Si1 0.081000 0.504417 0.852250
Si Si2 0.506191 0.079160 0.323832
Si Si3 0.979846 0.750000 0.924155
Si Si4 0.192903 0.918582 0.214812
Si Si5 0.167401 0.423312 0.533669
Si Si6 0.666855 0.923445 0.890107
Si Si7 0.680771 0.075924 0.253726
O O1 0.014260 0.625006 0.809545
O O2 0.117570 0.460772 0.684278
O O3 0.146039 0.571040 0.014400
O O4 0.047378 0.372126 0.946179
O O5 0.505884 0.250000 0.353935
O O6 0.425987 0.046661 0.185290
O O7 0.590122 0.044158 0.271937
O O8 0.500000 0.000000 0.500000
O O9 0.207402 0.750000 0.258838
O O10 0.144567 0.994578 0.348376
O O11 0.274381 0.009289 0.226345
O O12 0.169019 0.250000 0.508537
O O13 0.254920 0.490952 0.607176
O O14 0.679105 0.750000 0.909145
O O15 0.689352 0.008448 0.070121
O O16 0.693512 0.250000 0.262397
#
# Coordination Sequence:
#
# PCOD9166683 Si02
#       7
#     4   4   2   4   4   4   4
#     4  11  24  48  72 101 138 174 222 269 338 398
#     4  10  23  40  58  88 130 174 225 283 334 391
#     4  10  24  46  78  98 134 180 212 274 334 408
#     4  12  26  43  70 103 138 180 228 278 335 401
#     4  12  26  43  70 103 138 180 228 278 335 401
#     4  11  23  40  64  94 131 177 229 280 336 395
#     4  11  23  40  64  94 131 177 229 280 336 395
#
# _framework density 21.487120999999998
#
# number of rings (size 3 to 8) (size 9 to 14) (size 15 to 20)
#    0.000    0.923    3.077    3.231    4.308    4.923 
#    0.000    4.615    0.000    0.000    0.000    0.000 
#    0.000    0.000    0.000    0.000    0.000    0.000 
#
# Total GULP energy -144816.593615 kJ/mol
# GULP energy per Si atom -5569.868985 kJ/mol
# Density = 2.143822 g / cm^3
# Si number density = 21.487121 Si / 1000 Ang^3
#
#
#
# Elastic Constant Matrix: (Units=GPa)
#
#
# Indices 1 2 3 4 5 6 
#
# 1 75.2450 43.4919 19.3007 0.0000 -15.6799 0.0000
# 2 43.4919 117.3670 20.4191 0.0000 -18.1480 0.0000
# 3 19.3007 20.4191 100.9178 0.0000 -28.0029 0.0000
# 4 0.0000 0.0000 0.0000 -0.9513 0.0000 -138.2176
# 5 -15.6799 -18.1480 -28.0029 0.0000 31.8265 0.0000
# 6 0.0000 0.0000 0.0000 -138.2176 0.0000 -517.8300
#
#
#
# Elastic Compliance Matrix: (Units=1/GPa)
#
#
# Indices 1 2 3 4 5 6 
#
# 1 0.017810 -0.005710 -0.000952 0.000000 0.004681 0.000000
# 2 -0.005710 0.011198 -0.000241 0.000000 0.003359 0.000000
# 3 -0.000952 -0.000241 0.013193 0.000000 0.011001 0.000000
# 4 0.000000 0.000000 0.000000 0.027823 0.000000 -0.007426
# 5 0.004681 0.003359 0.011001 0.000000 0.045321 0.000000
# 6 0.000000 0.000000 0.000000 -0.007426 0.000000 0.000051
#
#
# Mechanical properties :
#
#
# Convention : Reuss Voigt Hill
#
# Bulk Modulus (GPa) = 35.22004 51.10589 43.16296
# Shear Modulus (GPa) = 36.05737 -83.36974 -23.65619
#
# Velocity S-wave (km/s) = 4.10090 -6.23571 -3.32165
# Velocity P-wave (km/s) = 6.23297 5.29239 2.32815
#
# Compressibility (1/GPa) = 0.02839293
#
# Stress axis : x y z
#
# Youngs Moduli (GPa) = 56.14782 89.30328 75.80041
#
# Poissons Ratio (x) = 0.50996 0.07216
# Poissons Ratio (y) = 0.32063 0.01830
# Poissons Ratio (z) = 0.05345 0.02156
#
# Static dielectric constant tensor:
#      x y z
#    x 1.881820 0.000000 0.047010 
#    y 0.000000 1.722020 0.000000 
#    z 0.047010 0.000000 1.799360 
# 
# From -- ./inp_files/24096.got.cif
#   From: 2010.05.17/outbox.cif.g08.bks.cpg/sg11_13_cif.got.tgz:24096.got - 2010.06.03 12:22:45.
