data_PCOD9166768
_publ_section_title
;
Structure prediction by ZEFSAII (Michael W. Deem and Ramdas Pophale) SiO2 
 PCOD9166768
Probable space group: P 21/M
;
_chemical_formula_sum "Si O2"
_cell_formula_units_Z 28
_cell_length_a 27.404074
_cell_length_b 8.768431
_cell_length_c 9.478456
_cell_angle_alpha 90.000000
_cell_angle_beta 142.431582
_cell_angle_gamma 90.000000
_cell_volume 1388.662679
_symmetry_space_group_name_H-M "P 21/M"
_symmetry_group_IT_number 11
_symmetry_cell_setting 'monoclinic'
loop_
_space_group_symop_operation_xyz
x,y,z
-x,1/2+y,-z
-x,-y,-z
x,1/2-y,z
loop_
_atom_site_type_symbol
_atom_site_label
_atom_site_fract_x
_atom_site_fract_y
_atom_site_fract_z
Si Si1 0.368602 0.067034 0.549091
Si Si2 0.518503 0.066704 0.697049
Si Si3 0.669218 0.433478 0.230530
Si Si4 0.758126 0.428672 0.957239
Si Si5 0.976701 0.069380 0.798325
Si Si6 0.197422 0.431962 0.647902
Si Si7 0.937136 0.072037 0.248420
O O1 0.366057 0.250000 0.557694
O O2 0.450617 0.024614 0.656178
O O3 0.357536 0.992760 0.677355
O O4 0.299507 0.009130 0.285993
O O5 0.517850 0.250000 0.681877
O O6 0.500000 0.000000 0.500000
O O7 0.602841 0.022143 0.960898
O O8 0.674805 0.250000 0.247014
O O9 0.753135 0.503560 0.371675
O O10 0.736657 0.250000 0.923650
O O11 0.758920 0.508579 0.110831
O O12 0.848261 0.437990 0.104588
O O13 0.967311 0.250000 0.781188
O O14 0.892628 0.997065 0.556654
O O15 0.048079 0.021881 0.858440
O O16 0.000000 0.000000 0.000000
O O17 0.195385 0.250000 0.640288
O O18 0.955904 0.250000 0.267822
O O19 0.000000 0.000000 0.500000
#
# Coordination Sequence:
#
# PCOD9166768 Si02
#       7
#     4   4   4   4   4   4   4
#     4  11  24  42  65  97 132 168 214 264 317 377
#     4  10  23  42  67  97 129 169 213 260 314 378
#     4  11  24  43  66  94 131 171 213 262 321 381
#     4  11  24  42  65  94 129 169 213 263 320 382
#     4  12  26  44  66  93 129 170 215 266 323 383
#     4  12  25  43  66  94 128 168 215 266 320 380
#     4  11  23  41  66  94 127 168 216 266 321 378
#
# _framework density 20.163283
#
# number of rings (size 3 to 8) (size 9 to 14) (size 15 to 20)
#    0.000    0.857    1.429    5.571    2.000    6.286 
#    0.000    0.000    0.000    0.000    0.000    0.000 
#    0.000    0.000    0.000    0.000    0.000    0.000 
#
# Total GULP energy -156671.055614 kJ/mol
# GULP energy per Si atom -5595.394843 kJ/mol
# Density = 2.011739 g / cm^3
# Si number density = 20.163283 Si / 1000 Ang^3
#
#
#
# Elastic Constant Matrix: (Units=GPa)
#
#
# Indices 1 2 3 4 5 6 
#
# 1 111.2886 51.5419 15.8756 0.0000 -17.0703 0.0000
# 2 51.5419 121.4852 24.3691 0.0000 -1.5451 0.0000
# 3 15.8756 24.3691 67.0615 0.0000 -10.6591 0.0000
# 4 0.0000 0.0000 0.0000 34.0985 0.0000 -7.4487
# 5 -17.0703 -1.5451 -10.6591 0.0000 39.4785 0.0000
# 6 0.0000 0.0000 0.0000 -7.4487 0.0000 37.9124
#
#
#
# Elastic Compliance Matrix: (Units=1/GPa)
#
#
# Indices 1 2 3 4 5 6 
#
# 1 0.012111 -0.005025 -0.000251 0.000000 0.004973 0.000000
# 2 -0.005025 0.010975 -0.003213 0.000000 -0.002611 0.000000
# 3 -0.000251 -0.003213 0.016824 0.000000 0.004308 0.000000
# 4 0.000000 0.000000 0.000000 0.030642 0.000000 0.006020
# 5 0.004973 -0.002611 0.004308 0.000000 0.028541 0.000000
# 6 0.000000 0.000000 0.000000 0.006020 0.000000 0.027559
#
#
# Mechanical properties :
#
#
# Convention : Reuss Voigt Hill
#
# Bulk Modulus (GPa) = 43.60857 53.71207 48.66032
# Shear Modulus (GPa) = 33.05253 36.16779 34.61016
#
# Velocity S-wave (km/s) = 4.05315 4.23986 4.14755
# Velocity P-wave (km/s) = 6.60142 7.11793 6.86453
#
# Compressibility (1/GPa) = 0.02293127
#
# Stress axis : x y z
#
# Youngs Moduli (GPa) = 82.56716 91.11843 59.44054
#
# Poissons Ratio (x) = 0.45786 0.01491
# Poissons Ratio (y) = 0.41489 0.19101
# Poissons Ratio (z) = 0.02071 0.29281
#
# Static dielectric constant tensor:
#      x y z
#    x 1.755280 0.000000 0.018800 
#    y 0.000000 1.673200 0.000000 
#    z 0.018800 0.000000 1.715590 
# 
# From -- ./inp_files/28539.got.cif
#   From: 2010.05.17/outbox.cif.g08.bks.cpg/sg11_15_cif.got.tgz:28539.got - 2010.06.03 12:22:45.
