data_PCOD9166340
_publ_section_title
;
Structure prediction by ZEFSAII (Michael W. Deem and Ramdas Pophale) SiO2 
 PCOD9166340
Probable space group: P 21/M
;
_chemical_formula_sum "Si O2"
_cell_formula_units_Z 20
_cell_length_a 5.426855
_cell_length_b 10.949359
_cell_length_c 16.071521
_cell_angle_alpha 90.000000
_cell_angle_beta 71.290445
_cell_angle_gamma 90.000000
_cell_volume 904.515000
_symmetry_space_group_name_H-M "P 21/M"
_symmetry_group_IT_number 11
_symmetry_cell_setting 'monoclinic'
loop_
_space_group_symop_operation_xyz
x,y,z
-x,1/2+y,-z
-x,-y,-z
x,1/2-y,z
loop_
_atom_site_type_symbol
_atom_site_label
_atom_site_fract_x
_atom_site_fract_y
_atom_site_fract_z
Si Si1 0.203134 0.113983 0.316313
Si Si2 0.545607 0.880904 0.937423
Si Si3 0.365864 0.532257 0.600754
Si Si4 0.992021 0.887679 0.251637
Si Si5 0.915461 0.034517 0.102658
O O1 0.234723 0.250000 0.276332
O O2 0.424136 0.096194 0.362031
O O3 0.903464 0.106989 0.382790
O O4 0.195985 0.990912 0.260469
O O5 0.473796 0.750000 0.984713
O O6 0.358409 0.899690 0.879055
O O7 0.852405 0.881809 0.889408
O O8 0.500000 0.000000 0.000000
O O9 0.500000 0.500000 0.500000
O O10 0.255826 0.413965 0.662441
O O11 0.085667 0.750000 0.247793
O O12 0.911548 0.922062 0.166247
O O13 0.000000 0.000000 0.000000
#
# Coordination Sequence:
#
# PCOD9166340 Si02
#       5
#     4   4   4   4   4
#     4  10  23  43  68 100 139 180 223 275 339 408
#     4  10  22  40  64  93 126 167 220 273 333 396
#     4  10  23  45  69 103 137 178 224 274 339 408
#     4  10  26  45  69 102 138 178 230 285 338 400
#     4  10  23  42  63  94 129 175 218 273 333 390
#
# _framework density 22.111297
#
# number of rings (size 3 to 8) (size 9 to 14) (size 15 to 20)
#    1.200    0.800    0.000    1.800    2.800   10.400 
#    0.000    0.000    0.000    0.000    0.000    0.000 
#    0.000    0.000    0.000    0.000    0.000    0.000 
#
# Total GULP energy -111372.096205 kJ/mol
# GULP energy per Si atom -5568.604810 kJ/mol
# Density = 2.206097 g / cm^3
# Si number density = 22.111297 Si / 1000 Ang^3
#
#
#
# Elastic Constant Matrix: (Units=GPa)
#
#
# Indices 1 2 3 4 5 6 
#
# 1 171.6376 38.1518 11.2813 0.0000 21.8330 0.0000
# 2 38.1518 196.9384 45.7175 0.0000 5.5029 0.0000
# 3 11.2813 45.7175 98.0915 0.0000 -2.5055 0.0000
# 4 0.0000 0.0000 0.0000 18.3061 0.0000 4.7894
# 5 21.8330 5.5029 -2.5055 0.0000 31.2240 0.0000
# 6 0.0000 0.0000 0.0000 4.7894 0.0000 16.4330
#
#
#
# Elastic Compliance Matrix: (Units=1/GPa)
#
#
# Indices 1 2 3 4 5 6 
#
# 1 0.006663 -0.001077 -0.000379 0.000000 -0.004500 0.000000
# 2 -0.001077 0.005915 -0.002646 0.000000 -0.000502 0.000000
# 3 -0.000379 -0.002646 0.011513 0.000000 0.001655 0.000000
# 4 0.000000 0.000000 0.000000 0.059136 0.000000 -0.017235
# 5 -0.004500 -0.000502 0.001655 0.000000 0.035394 0.000000
# 6 0.000000 0.000000 0.000000 -0.017235 0.000000 0.065876
#
#
# Mechanical properties :
#
#
# Convention : Reuss Voigt Hill
#
# Bulk Modulus (GPa) = 62.94326 72.99654 67.96990
# Shear Modulus (GPa) = 25.25294 37.96040 31.60667
#
# Velocity S-wave (km/s) = 3.38314 4.14791 3.78489
# Velocity P-wave (km/s) = 6.61734 7.48499 7.06450
#
# Compressibility (1/GPa) = 0.01588733
#
# Stress axis : x y z
#
# Youngs Moduli (GPa) = 150.08429 169.07528 86.85480
#
# Poissons Ratio (x) = 0.18209 0.03294
# Poissons Ratio (y) = 0.16164 0.22978
# Poissons Ratio (z) = 0.05692 0.44729
#
# Static dielectric constant tensor:
#      x y z
#    x 1.766960 0.000000 0.253210 
#    y 0.000000 1.805430 0.000000 
#    z 0.253210 0.000000 1.149370 
# 
# From -- ./inp_files/45614.got.cif
#   From: 2010.05.17/outbox.cif.g08.bks.cpg/sg11_23_cif.got.tgz:45614.got - 2010.06.03 12:22:45.
