data_PCOD9166067
_publ_section_title
;
Structure prediction by ZEFSAII (Michael W. Deem and Ramdas Pophale) SiO2 
 PCOD9166067
Probable space group: P 21/M
;
_chemical_formula_sum "Si O2"
_cell_formula_units_Z 28
_cell_length_a 12.821663
_cell_length_b 8.643057
_cell_length_c 14.753055
_cell_angle_alpha 90.000000
_cell_angle_beta 58.034644
_cell_angle_gamma 90.000000
_cell_volume 1387.005421
_symmetry_space_group_name_H-M "P 21/M"
_symmetry_group_IT_number 11
_symmetry_cell_setting 'monoclinic'
loop_
_space_group_symop_operation_xyz
x,y,z
-x,1/2+y,-z
-x,-y,-z
x,1/2-y,z
loop_
_atom_site_type_symbol
_atom_site_label
_atom_site_fract_x
_atom_site_fract_y
_atom_site_fract_z
Si Si1 0.917838 0.065105 0.119443
Si Si2 0.653386 0.935746 0.187767
Si Si3 0.014461 0.565389 0.265738
Si Si4 0.499960 0.935372 0.898822
Si Si5 0.224171 0.064737 0.282451
Si Si6 0.451138 0.935825 0.428385
Si Si7 0.824031 0.063738 0.500064
O O1 0.923303 0.250000 0.118503
O O2 0.779305 0.009643 0.164041
O O3 0.966704 0.000479 0.192503
O O4 0.000000 0.000000 0.000000
O O5 0.664907 0.750000 0.182863
O O6 0.544295 0.983291 0.306394
O O7 0.609623 0.993020 0.109841
O O8 0.017717 0.750000 0.260468
O O9 0.922803 0.509733 0.387467
O O10 0.147155 0.499726 0.233338
O O11 0.489601 0.750000 0.904339
O O12 0.632170 0.976724 0.793534
O O13 0.500000 0.000000 0.000000
O O14 0.213257 0.250000 0.290647
O O15 0.169016 0.993604 0.399878
O O16 0.451845 0.750000 0.431526
O O17 0.311857 0.983417 0.471872
O O18 0.500000 0.000000 0.500000
O O19 0.835340 0.250000 0.492427
#
# Coordination Sequence:
#
# PCOD9166067 Si02
#       7
#     4   4   4   4   4   4   4
#     4  12  27  48  71  98 131 173 222 273 329 391
#     4  11  23  44  69  98 134 172 218 270 326 390
#     4  12  26  44  67  97 133 177 222 273 330 392
#     4  11  25  43  68  99 133 174 222 274 332 394
#     4  11  24  43  67  98 133 176 222 272 329 394
#     4  10  22  37  61  93 129 171 212 261 319 380
#     4  11  22  41  65  96 133 174 219 271 329 391
#
# _framework density 20.187377000000001
#
# number of rings (size 3 to 8) (size 9 to 14) (size 15 to 20)
#    0.000    0.857    1.429    5.571    2.000    6.286 
#    0.000    0.000    0.000    0.000    0.000    0.000 
#    0.000    0.000    0.000    0.000    0.000    0.000 
#
# Total GULP energy -156755.614376 kJ/mol
# GULP energy per Si atom -5598.414799 kJ/mol
# Density = 2.014143 g / cm^3
# Si number density = 20.187377 Si / 1000 Ang^3
#
#
#
# Elastic Constant Matrix: (Units=GPa)
#
#
# Indices 1 2 3 4 5 6 
#
# 1 153.5641 39.1960 23.7638 0.0000 20.5747 0.0000
# 2 39.1960 84.3178 21.5861 0.0000 1.9720 0.0000
# 3 23.7638 21.5861 68.8998 0.0000 19.6530 0.0000
# 4 0.0000 0.0000 0.0000 34.7444 0.0000 6.1593
# 5 20.5747 1.9720 19.6530 0.0000 41.7068 0.0000
# 6 0.0000 0.0000 0.0000 6.1593 0.0000 40.8916
#
#
#
# Elastic Compliance Matrix: (Units=1/GPa)
#
#
# Indices 1 2 3 4 5 6 
#
# 1 0.007958 -0.003444 -0.000684 0.000000 -0.003440 0.000000
# 2 -0.003444 0.014465 -0.004198 0.000000 0.002993 0.000000
# 3 -0.000684 -0.004198 0.018383 0.000000 -0.008126 0.000000
# 4 0.000000 0.000000 0.000000 0.029571 0.000000 -0.004454
# 5 -0.003440 0.002993 -0.008126 0.000000 0.029362 0.000000
# 6 0.000000 0.000000 0.000000 -0.004454 0.000000 0.025126
#
#
# Mechanical properties :
#
#
# Convention : Reuss Voigt Hill
#
# Bulk Modulus (GPa) = 41.40069 52.87482 47.13776
# Shear Modulus (GPa) = 33.42949 38.28428 35.85689
#
# Velocity S-wave (km/s) = 4.07376 4.35955 4.21907
# Velocity P-wave (km/s) = 6.53300 7.18260 6.86549
#
# Compressibility (1/GPa) = 0.02415418
#
# Stress axis : x y z
#
# Youngs Moduli (GPa) = 125.66385 69.13049 54.39782
#
# Poissons Ratio (x) = 0.23805 0.03723
# Poissons Ratio (y) = 0.43273 0.22836
# Poissons Ratio (z) = 0.08601 0.29021
#
# Static dielectric constant tensor:
#      x y z
#    x 1.718030 0.000000 -0.011500 
#    y 0.000000 1.674840 0.000000 
#    z -0.011500 0.000000 1.697540 
# 
# From -- ./inp_files/49111.got.cif
#   From: 2010.05.17/outbox.cif.g08.bks.cpg/sg11_25_cif.got.tgz:49111.got - 2010.06.03 12:22:45.
