data_PCOD9166219
_publ_section_title
;
Structure prediction by ZEFSAII (Michael W. Deem and Ramdas Pophale) SiO2 
 PCOD9166219
Probable space group: P 21/M
;
_chemical_formula_sum "Si O2"
_cell_formula_units_Z 16
_cell_length_a 5.306891
_cell_length_b 21.482902
_cell_length_c 9.715910
_cell_angle_alpha 90.000000
_cell_angle_beta 127.361059
_cell_angle_gamma 90.000000
_cell_volume 880.418866
_symmetry_space_group_name_H-M "P 21/M"
_symmetry_group_IT_number 11
_symmetry_cell_setting 'monoclinic'
loop_
_space_group_symop_operation_xyz
x,y,z
-x,1/2+y,-z
-x,-y,-z
x,1/2-y,z
loop_
_atom_site_type_symbol
_atom_site_label
_atom_site_fract_x
_atom_site_fract_y
_atom_site_fract_z
Si Si1 0.792309 0.539932 0.540293
Si Si2 0.727907 0.681320 0.087831
Si Si3 0.682279 0.065303 0.062372
Si Si4 0.397494 0.866087 0.233618
O O1 0.500000 0.500000 0.500000
O O2 0.634507 0.598576 0.412576
O O3 0.000000 0.500000 0.500000
O O4 0.015934 0.558823 0.740843
O O5 0.668042 0.750000 0.008733
O O6 0.597318 0.678712 0.200292
O O7 0.099295 0.666186 0.205026
O O8 0.536590 0.623190 0.958430
O O9 0.743692 0.083915 0.923825
O O10 0.500000 0.000000 0.000000
#
# Coordination Sequence:
#
# PCOD9166219 Si02
#       4
#     4   4   4   4
#     4  12  23  36  61  94 126 153 200 248 310 361
#     4  10  22  42  64  84 123 166 204 247 308 362
#     4  10  22  39  65  89 122 155 203 250 306 354
#     4  10  22  39  62  86 122 157 200 247 305 350
#
# _framework density 18.173169000000001
#
# number of rings (size 3 to 8) (size 9 to 14) (size 15 to 20)
#    1.500    0.000    2.500    3.750    3.500    2.000 
#    0.000    2.500    0.000    0.000    0.000    0.000 
#    0.000    0.000    0.000    0.000    0.000    0.000 
#
# Total GULP energy -89114.906828 kJ/mol
# GULP energy per Si atom -5569.681677 kJ/mol
# Density = 1.813181 g / cm^3
# Si number density = 18.173169 Si / 1000 Ang^3
#
#
#
# Elastic Constant Matrix: (Units=GPa)
#
#
# Indices 1 2 3 4 5 6 
#
# 1 105.7294 33.3111 30.4051 0.0000 32.6631 0.0000
# 2 33.3111 135.8474 52.7207 0.0000 17.0594 0.0000
# 3 30.4051 52.7207 152.3364 0.0000 9.2511 0.0000
# 4 0.0000 0.0000 0.0000 7.1973 0.0000 -14.4559
# 5 32.6631 17.0594 9.2511 0.0000 25.6722 0.0000
# 6 0.0000 0.0000 0.0000 -14.4559 0.0000 8.1193
#
#
#
# Elastic Compliance Matrix: (Units=1/GPa)
#
#
# Indices 1 2 3 4 5 6 
#
# 1 0.016250 -0.000854 -0.001765 0.000000 -0.019472 0.000000
# 2 -0.000854 0.009140 -0.002750 0.000000 -0.003995 0.000000
# 3 -0.001765 -0.002750 0.007792 0.000000 0.001266 0.000000
# 4 0.000000 0.000000 0.000000 -0.053936 0.000000 -0.096030
# 5 -0.019472 -0.003995 0.001266 0.000000 0.065925 0.000000
# 6 0.000000 0.000000 0.000000 -0.096030 0.000000 -0.047811
#
#
# Mechanical properties :
#
#
# Convention : Reuss Voigt Hill
#
# Bulk Modulus (GPa) = 44.55871 69.64302 57.10086
# Shear Modulus (GPa) = 320.94289 26.69619 173.81954
#
# Velocity S-wave (km/s) = 13.30361 3.83690 9.79050
# Velocity P-wave (km/s) = 16.14167 7.61801 12.62117
#
# Compressibility (1/GPa) = 0.02244230
#
# Stress axis : x y z
#
# Youngs Moduli (GPa) = 61.53729 109.41352 128.34369
#
# Poissons Ratio (x) = 0.09349 0.22656
# Poissons Ratio (y) = 0.05258 0.35293
# Poissons Ratio (z) = 0.10863 0.30087
#
# Static dielectric constant tensor:
#      x y z
#    x 1.612750 0.000000 0.008290 
#    y 0.000000 1.644940 0.000000 
#    z 0.008290 0.000000 1.571700 
# 
# From -- ./inp_files/645.got.cif
#   From: 2010.05.17/outbox.cif.g08.bks.cpg/sg11_1_cif.got.tgz:645.got - 2010.06.03 12:22:45.
