data_PCOD9166509
_publ_section_title
;
Structure prediction by ZEFSAII (Michael W. Deem and Ramdas Pophale) SiO2 
 PCOD9166509
Probable space group: P 21/M
;
_chemical_formula_sum "Si O2"
_cell_formula_units_Z 32
_cell_length_a 19.051358
_cell_length_b 11.033666
_cell_length_c 14.752267
_cell_angle_alpha 90.000000
_cell_angle_beta 29.799959
_cell_angle_gamma 90.000000
_cell_volume 1541.124154
_symmetry_space_group_name_H-M "P 21/M"
_symmetry_group_IT_number 11
_symmetry_cell_setting 'monoclinic'
loop_
_space_group_symop_operation_xyz
x,y,z
-x,1/2+y,-z
-x,-y,-z
x,1/2-y,z
loop_
_atom_site_type_symbol
_atom_site_label
_atom_site_fract_x
_atom_site_fract_y
_atom_site_fract_z
Si Si1 0.317562 0.113881 0.006119
Si Si2 0.449728 0.891720 0.122605
Si Si3 0.093650 0.388328 0.124259
Si Si4 0.416775 0.892123 0.645681
Si Si5 0.842946 0.522486 0.137287
Si Si6 0.907466 0.617557 0.579680
Si Si7 0.807380 0.503955 0.513865
Si Si8 0.353259 0.391387 0.476610
O O1 0.342817 0.250000 0.942300
O O2 0.222105 0.053061 0.036989
O O3 0.219055 0.116927 0.205927
O O4 0.466383 0.077116 0.878947
O O5 0.482178 0.750000 0.061306
O O6 0.284009 0.905326 0.328200
O O7 0.500000 0.000000 0.000000
O O8 0.074179 0.250000 0.177355
O O9 0.950030 0.455711 0.308976
O O10 0.132666 0.390479 0.975535
O O11 0.449955 0.750000 0.584972
O O12 0.485344 0.910366 0.669144
O O13 0.500000 0.000000 0.500000
O O14 0.253147 0.915910 0.801659
O O15 0.748288 0.571508 0.325613
O O16 0.000000 0.500000 0.000000
O O17 0.978730 0.750000 0.508141
O O18 0.848710 0.601194 0.544127
O O19 0.000000 0.500000 0.500000
O O20 0.708681 0.548064 0.543281
O O21 0.338390 0.250000 0.478112
#
# Coordination Sequence:
#
# PCOD9166509 Si02
#       8
#     4   4   4   4   4   4   4   4
#     4   9  20  40  61  87 124 164 206 261 321 383
#     4  11  24  42  67  97 131 169 215 269 329 397
#     4  11  23  40  63  91 128 172 221 274 329 387
#     4   9  21  42  67  94 128 170 219 272 332 396
#     4  11  22  41  64  96 129 173 224 278 332 387
#     4  11  22  39  65  93 129 170 211 264 327 390
#     4  12  23  39  64  97 130 170 223 267 328 395
#     4  10  22  42  63  91 133 177 220 273 334 395
#
# _framework density 20.764063
#
# number of rings (size 3 to 8) (size 9 to 14) (size 15 to 20)
#    0.000    1.500    3.750    1.125    1.750    2.500 
#    0.000    0.625    0.000    0.000    0.000    0.000 
#    0.000    0.000    0.000    0.000    0.000    0.000 
#
# Total GULP energy -178144.796422 kJ/mol
# GULP energy per Si atom -5567.024888 kJ/mol
# Density = 2.071680 g / cm^3
# Si number density = 20.764063 Si / 1000 Ang^3
#
#
#
# Elastic Constant Matrix: (Units=GPa)
#
#
# Indices 1 2 3 4 5 6 
#
# 1 144.8813 51.4071 38.0544 0.0000 -15.4001 0.0000
# 2 51.4071 115.4096 42.0297 0.0000 -13.6712 0.0000
# 3 38.0544 42.0297 80.7660 0.0000 -17.9542 0.0000
# 4 0.0000 0.0000 0.0000 18.7756 0.0000 -5.3192
# 5 -15.4001 -13.6712 -17.9542 0.0000 41.3706 0.0000
# 6 0.0000 0.0000 0.0000 -5.3192 0.0000 27.5004
#
#
#
# Elastic Compliance Matrix: (Units=1/GPa)
#
#
# Indices 1 2 3 4 5 6 
#
# 1 0.008661 -0.002867 -0.002305 0.000000 0.001276 0.000000
# 2 -0.002867 0.011698 -0.004554 0.000000 0.000822 0.000000
# 3 -0.002305 -0.004554 0.016947 0.000000 0.004992 0.000000
# 4 0.000000 0.000000 0.000000 0.056348 0.000000 0.010899
# 5 0.001276 0.000822 0.004992 0.000000 0.027085 0.000000
# 6 0.000000 0.000000 0.000000 0.010899 0.000000 0.038471
#
#
# Mechanical properties :
#
#
# Convention : Reuss Voigt Hill
#
# Bulk Modulus (GPa) = 56.01102 67.11546 61.56324
# Shear Modulus (GPa) = 27.08384 31.50038 29.29211
#
# Velocity S-wave (km/s) = 3.61551 3.89917 3.76002
# Velocity P-wave (km/s) = 6.66804 7.25703 6.96876
#
# Compressibility (1/GPa) = 0.01785363
#
# Stress axis : x y z
#
# Youngs Moduli (GPa) = 115.46586 85.48743 59.00824
#
# Poissons Ratio (x) = 0.24510 0.13601
# Poissons Ratio (y) = 0.33106 0.26870
# Poissons Ratio (z) = 0.26614 0.38928
#
# Static dielectric constant tensor:
#      x y z
#    x 1.774300 0.000000 -0.041870 
#    y 0.000000 1.758730 0.000000 
#    z -0.041870 0.000000 1.763040 
# 
# From -- ./inp_files/53631.got.cif
#   From: 2010.05.17/outbox.cif.g08.bks.cpg/sg11_27_cif.got.tgz:53631.got - 2010.06.03 12:22:45.
