data_PCOD9166614
_publ_section_title
;
Structure prediction by ZEFSAII (Michael W. Deem and Ramdas Pophale) SiO2 
 PCOD9166614
Probable space group: P 21/M
;
_chemical_formula_sum "Si O2"
_cell_formula_units_Z 20
_cell_length_a 5.164514
_cell_length_b 28.263035
_cell_length_c 5.310916
_cell_angle_alpha 90.000000
_cell_angle_beta 95.897975
_cell_angle_gamma 90.000000
_cell_volume 771.103406
_symmetry_space_group_name_H-M "P 21/M"
_symmetry_group_IT_number 11
_symmetry_cell_setting 'monoclinic'
loop_
_space_group_symop_operation_xyz
x,y,z
-x,1/2+y,-z
-x,-y,-z
x,1/2-y,z
loop_
_atom_site_type_symbol
_atom_site_label
_atom_site_fract_x
_atom_site_fract_y
_atom_site_fract_z
Si Si1 0.365754 0.349302 0.856217
Si Si2 0.180468 0.470377 0.326888
Si Si3 0.030563 0.619623 0.557178
Si Si4 0.134995 0.805055 0.923410
Si Si5 0.615313 0.438938 0.772292
O O1 0.615845 0.315701 0.878526
O O2 0.463430 0.402783 0.939115
O O3 0.234855 0.357710 0.572220
O O4 0.134814 0.325866 0.993935
O O5 0.420560 0.452704 0.523290
O O6 0.271571 0.509889 0.135987
O O7 0.000000 0.500000 0.500000
O O8 0.022957 0.422726 0.250304
O O9 0.165592 0.593584 0.336247
O O10 0.191389 0.662136 0.688437
O O11 0.109073 0.750000 0.868354
#
# Coordination Sequence:
#
# PCOD9166614 Si02
#       5
#     4   4   4   4   4
#     4  11  24  46  68  96 135 173 219 280 336 398
#     4   8  16  32  66 100 133 177 212 263 330 401
#     4  10  22  43  71  96 136 179 217 274 342 393
#     4  12  28  45  66  97 130 172 232 284 332 396
#     4   9  17  38  68  97 135 177 215 265 336 397
#
# _framework density 25.936861
#
# number of rings (size 3 to 8) (size 9 to 14) (size 15 to 20)
#    0.000    2.000    2.000    0.600    5.600    1.600 
#    0.000    2.000    0.000    0.000    0.000    0.000 
#    0.000    0.000    0.000    0.000    0.000    0.000 
#
# Total GULP energy -111854.010422 kJ/mol
# GULP energy per Si atom -5592.700521 kJ/mol
# Density = 2.587783 g / cm^3
# Si number density = 25.936861 Si / 1000 Ang^3
#
#
#
# Elastic Constant Matrix: (Units=GPa)
#
#
# Indices 1 2 3 4 5 6 
#
# 1 140.5126 56.3954 31.1296 0.0000 -8.6946 0.0000
# 2 56.3954 204.4875 46.7510 0.0000 5.3657 0.0000
# 3 31.1296 46.7510 59.7787 0.0000 -6.9173 0.0000
# 4 0.0000 0.0000 0.0000 33.3131 0.0000 4.4112
# 5 -8.6946 5.3657 -6.9173 0.0000 45.6599 0.0000
# 6 0.0000 0.0000 0.0000 4.4112 0.0000 46.2073
#
#
#
# Elastic Compliance Matrix: (Units=1/GPa)
#
#
# Indices 1 2 3 4 5 6 
#
# 1 0.008545 -0.001720 -0.002945 0.000000 0.001383 0.000000
# 2 -0.001720 0.006394 -0.004306 0.000000 -0.001731 0.000000
# 3 -0.002945 -0.004306 0.022009 0.000000 0.003279 0.000000
# 4 0.000000 0.000000 0.000000 0.030403 0.000000 -0.002902
# 5 0.001383 -0.001731 0.003279 0.000000 0.022865 0.000000
# 6 0.000000 0.000000 0.000000 -0.002902 0.000000 0.021919
#
#
# Mechanical properties :
#
#
# Convention : Reuss Voigt Hill
#
# Bulk Modulus (GPa) = 52.61016 74.81453 63.71235
# Shear Modulus (GPa) = 36.65417 43.06957 39.86187
#
# Velocity S-wave (km/s) = 3.76334 4.07941 3.92456
# Velocity P-wave (km/s) = 6.26192 7.14817 6.71967
#
# Compressibility (1/GPa) = 0.01900774
#
# Stress axis : x y z
#
# Youngs Moduli (GPa) = 117.02774 156.38848 45.43661
#
# Poissons Ratio (x) = 0.26893 0.13380
# Poissons Ratio (y) = 0.20124 0.19563
# Poissons Ratio (z) = 0.34463 0.67335
#
# Static dielectric constant tensor:
#      x y z
#    x 2.136050 0.000000 -0.005630 
#    y 0.000000 2.026080 0.000000 
#    z -0.005630 0.000000 2.108440 
# 
# From -- ./inp_files/826.got.cif
#   From: 2010.05.17/outbox.cif.g08.bks.cpg/sg11_1_cif.got.tgz:826.got - 2010.06.03 12:22:45.
