data_PCOD9166502
_publ_section_title
;
Structure prediction by ZEFSAII (Michael W. Deem and Ramdas Pophale) SiO2 
 PCOD9166502
Probable space group: P 21/M
;
_chemical_formula_sum "Si O2"
_cell_formula_units_Z 28
_cell_length_a 27.284589
_cell_length_b 9.138011
_cell_length_c 9.427320
_cell_angle_alpha 90.000000
_cell_angle_beta 141.191182
_cell_angle_gamma 90.000000
_cell_volume 1473.104283
_symmetry_space_group_name_H-M "P 21/M"
_symmetry_group_IT_number 11
_symmetry_cell_setting 'monoclinic'
loop_
_space_group_symop_operation_xyz
x,y,z
-x,1/2+y,-z
-x,-y,-z
x,1/2-y,z
loop_
_atom_site_type_symbol
_atom_site_label
_atom_site_fract_x
_atom_site_fract_y
_atom_site_fract_z
Si Si1 0.018701 0.423952 0.692683
Si Si2 0.433408 0.580528 0.260800
Si Si3 0.710025 0.926261 0.673727
Si Si4 0.466422 0.417937 0.791339
Si Si5 0.154054 0.925758 0.180679
Si Si6 0.728978 0.924872 0.042517
Si Si7 0.862360 0.077545 0.524917
O O1 0.032751 0.250000 0.703679
O O2 0.000000 0.500000 0.500000
O O3 0.944883 0.441351 0.631820
O O4 0.091638 0.499503 0.935063
O O5 0.500000 0.500000 0.500000
O O6 0.425281 0.750000 0.286229
O O7 0.468251 0.576423 0.182139
O O8 0.351919 0.498277 0.092338
O O9 0.716814 0.750000 0.670474
O O10 0.618590 0.969166 0.455421
O O11 0.762202 0.010285 0.677145
O O12 0.739646 0.960391 0.899646
O O13 0.453965 0.250000 0.803369
O O14 0.500000 0.500000 0.000000
O O15 0.152023 0.750000 0.160356
O O16 0.135572 0.961321 0.303666
O O17 0.723069 0.750000 0.040908
O O18 0.798398 0.985609 0.295282
O O19 0.841513 0.250000 0.469380
#
# Coordination Sequence:
#
# PCOD9166502 Si02
#       7
#     4   4   4   4   4   4   4
#     4  11  23  42  68  95 125 161 202 247 299 358
#     4  11  22  40  63  89 121 158 204 256 306 361
#     4  10  22  42  61  86 123 161 205 254 303 360
#     4  10  23  41  60  86 122 159 203 255 307 363
#     4  11  24  41  63  92 126 162 202 248 302 358
#     4  11  23  40  63  90 121 160 205 252 306 362
#     4  10  24  43  62  91 127 161 200 249 301 358
#
# _framework density 19.007480000000001
#
# number of rings (size 3 to 8) (size 9 to 14) (size 15 to 20)
#    0.000    1.429    1.429    3.000    2.000    7.429 
#    0.000    0.000    0.000    0.000    0.000    0.000 
#    0.000    0.000    0.000    0.000    0.000    0.000 
#
# Total GULP energy -156465.402393 kJ/mol
# GULP energy per Si atom -5588.050085 kJ/mol
# Density = 1.896422 g / cm^3
# Si number density = 19.007480 Si / 1000 Ang^3
#
#
#
# Elastic Constant Matrix: (Units=GPa)
#
#
# Indices 1 2 3 4 5 6 
#
# 1 101.2696 51.5507 30.4780 0.0000 -8.1155 0.0000
# 2 51.5507 62.2399 30.9568 0.0000 -10.5554 0.0000
# 3 30.4780 30.9568 67.2863 0.0000 -20.0932 0.0000
# 4 0.0000 0.0000 0.0000 42.1807 0.0000 0.9687
# 5 -8.1155 -10.5554 -20.0932 0.0000 32.4990 0.0000
# 6 0.0000 0.0000 0.0000 0.9687 0.0000 33.7574
#
#
#
# Elastic Compliance Matrix: (Units=1/GPa)
#
#
# Indices 1 2 3 4 5 6 
#
# 1 0.017251 -0.013524 -0.001983 0.000000 -0.001311 0.000000
# 2 -0.013524 0.031465 -0.007735 0.000000 0.002060 0.000000
# 3 -0.001983 -0.007735 0.022592 0.000000 0.010960 0.000000
# 4 0.000000 0.000000 0.000000 0.023723 0.000000 -0.000681
# 5 -0.001311 0.002060 0.010960 0.000000 0.037888 0.000000
# 6 0.000000 0.000000 0.000000 -0.000681 0.000000 0.029643
#
#
# Mechanical properties :
#
#
# Convention : Reuss Voigt Hill
#
# Bulk Modulus (GPa) = 40.28588 50.75183 45.51885
# Shear Modulus (GPa) = 23.00741 29.54144 26.27443
#
# Velocity S-wave (km/s) = 3.48291 3.94661 3.72199
# Velocity P-wave (km/s) = 6.11678 6.89395 6.51696
#
# Compressibility (1/GPa) = 0.02482260
#
# Stress axis : x y z
#
# Youngs Moduli (GPa) = 57.96845 31.78144 44.26324
#
# Poissons Ratio (x) = 0.42981 0.08779
# Poissons Ratio (y) = 0.78396 0.34239
# Poissons Ratio (z) = 0.11497 0.24584
#
# Static dielectric constant tensor:
#      x y z
#    x 1.649310 0.000000 -0.004460 
#    y 0.000000 1.645240 0.000000 
#    z -0.004460 0.000000 1.643010 
# 
# From -- ./inp_files/28379.got.cif
#   From: 2010.05.17/outbox.cif.g08.bks.cpg/sg11_15_cif.got.tgz:28379.got - 2010.06.03 12:22:45.
