data_PCOD9166203
_publ_section_title
;
Structure prediction by ZEFSAII (Michael W. Deem and Ramdas Pophale) SiO2 
 PCOD9166203
Probable space group: P 21/M
;
_chemical_formula_sum "Si O2"
_cell_formula_units_Z 32
_cell_length_a 12.659169
_cell_length_b 13.069468
_cell_length_c 8.500288
_cell_angle_alpha 90.000000
_cell_angle_beta 95.193004
_cell_angle_gamma 90.000000
_cell_volume 1400.588317
_symmetry_space_group_name_H-M "P 21/M"
_symmetry_group_IT_number 11
_symmetry_cell_setting 'monoclinic'
loop_
_space_group_symop_operation_xyz
x,y,z
-x,1/2+y,-z
-x,-y,-z
x,1/2-y,z
loop_
_atom_site_type_symbol
_atom_site_label
_atom_site_fract_x
_atom_site_fract_y
_atom_site_fract_z
Si Si1 0.705939 0.369762 0.994030
Si Si2 0.787188 0.866761 0.563302
Si Si3 0.625804 0.635398 0.799274
Si Si4 0.457218 0.370525 0.877229
Si Si5 0.783406 0.048130 0.332067
Si Si6 0.431696 0.952303 0.627529
Si Si7 0.925684 0.366842 0.876024
Si Si8 0.999946 0.580053 0.761447
O O1 0.713995 0.250000 0.043276
O O2 0.742036 0.436475 0.148130
O O3 0.584261 0.384061 0.923899
O O4 0.798578 0.384898 0.877410
O O5 0.758174 0.750000 0.518752
O O6 0.700897 0.911885 0.676476
O O7 0.795974 0.936336 0.410243
O O8 0.896988 0.870816 0.672033
O O9 0.667174 0.750000 0.817242
O O10 0.506314 0.630530 0.719117
O O11 0.609784 0.601779 0.975749
O O12 0.441104 0.250000 0.839947
O O13 0.423205 0.448908 0.739873
O O14 0.684548 0.091894 0.418582
O O15 0.899539 0.096021 0.338639
O O16 0.500000 0.000000 0.500000
O O17 0.944071 0.250000 0.824743
O O18 0.976769 0.458415 0.782650
O O19 0.972419 0.378111 0.060539
#
# Coordination Sequence:
#
# PCOD9166203 Si02
#       8
#     4   4   4   4   4   4   4   4
#     4   9  19  37  62  90 124 161 207 266 317 371
#     4  11  24  42  62  86 127 171 211 259 320 383
#     4  10  22  40  63  89 120 163 208 253 308 369
#     4  10  22  39  63  95 124 163 212 255 306 376
#     4  11  23  39  62  92 122 165 213 259 315 376
#     4  12  24  39  63  92 130 165 198 255 316 373
#     4   9  19  36  60  90 120 157 209 268 320 372
#     4  10  22  39  61  87 122 165 210 261 317 381
#
# _framework density 22.847542000000001
#
# number of rings (size 3 to 8) (size 9 to 14) (size 15 to 20)
#    0.000    1.750    2.500    1.125    1.750    4.000 
#    0.000    1.875    0.000    0.000    0.000    0.000 
#    0.000    0.000    0.000    0.000    0.000    0.000 
#
# Total GULP energy -178561.461548 kJ/mol
# GULP energy per Si atom -5580.045673 kJ/mol
# Density = 2.279554 g / cm^3
# Si number density = 22.847542 Si / 1000 Ang^3
#
#
#
# Elastic Constant Matrix: (Units=GPa)
#
#
# Indices 1 2 3 4 5 6 
#
# 1 120.6890 4.1608 8.2788 0.0000 -12.1392 0.0000
# 2 4.1608 85.5851 19.0267 0.0000 2.6355 0.0000
# 3 8.2788 19.0267 44.6958 0.0000 -11.5584 0.0000
# 4 0.0000 0.0000 0.0000 17.4654 0.0000 -3.0015
# 5 -12.1392 2.6355 -11.5584 0.0000 28.3580 0.0000
# 6 0.0000 0.0000 0.0000 -3.0015 0.0000 21.2975
#
#
#
# Elastic Compliance Matrix: (Units=1/GPa)
#
#
# Indices 1 2 3 4 5 6 
#
# 1 0.008693 -0.000418 -0.000514 0.000000 0.003550 0.000000
# 2 -0.000418 0.013312 -0.006657 0.000000 -0.004129 0.000000
# 3 -0.000514 -0.006657 0.028399 0.000000 0.011974 0.000000
# 4 0.000000 0.000000 0.000000 0.058677 0.000000 0.008270
# 5 0.003550 -0.004129 0.011974 0.000000 0.042047 0.000000
# 6 0.000000 0.000000 0.000000 0.008270 0.000000 0.048119
#
#
# Mechanical properties :
#
#
# Convention : Reuss Voigt Hill
#
# Bulk Modulus (GPa) = 28.38873 34.87808 31.63340
# Shear Modulus (GPa) = 22.10755 28.05774 25.08264
#
# Velocity S-wave (km/s) = 3.11402 3.50814 3.31694
# Velocity P-wave (km/s) = 5.03803 5.63100 5.34275
#
# Compressibility (1/GPa) = 0.03522525
#
# Stress axis : x y z
#
# Youngs Moduli (GPa) = 115.04144 75.12181 35.21242
#
# Poissons Ratio (x) = 0.03137 0.01811
# Poissons Ratio (y) = 0.04804 0.23442
# Poissons Ratio (z) = 0.05916 0.50010
#
# Static dielectric constant tensor:
#      x y z
#    x 1.925660 0.000000 -0.033880 
#    y 0.000000 1.879790 0.000000 
#    z -0.033880 0.000000 1.875770 
# 
# From -- ./inp_files/18092.got.cif
#   From: 2010.05.17/outbox.cif.g08.bks.cpg/sg11_10_cif.got.tgz:18092.got - 2010.06.03 12:22:45.
