data_PCOD9166854
_publ_section_title
;
Structure prediction by ZEFSAII (Michael W. Deem and Ramdas Pophale) SiO2 
 PCOD9166854
Probable space group: P 21/M
;
_chemical_formula_sum "Si O2"
_cell_formula_units_Z 30
_cell_length_a 14.502863
_cell_length_b 9.199983
_cell_length_c 12.586011
_cell_angle_alpha 90.000000
_cell_angle_beta 61.490258
_cell_angle_gamma 90.000000
_cell_volume 1475.663311
_symmetry_space_group_name_H-M "P 21/M"
_symmetry_group_IT_number 11
_symmetry_cell_setting 'monoclinic'
loop_
_space_group_symop_operation_xyz
x,y,z
-x,1/2+y,-z
-x,-y,-z
x,1/2-y,z
loop_
_atom_site_type_symbol
_atom_site_label
_atom_site_fract_x
_atom_site_fract_y
_atom_site_fract_z
Si Si1 0.808264 0.915781 0.993202
Si Si2 0.340453 0.037178 0.126420
Si Si3 0.602670 0.075489 0.491403
Si Si4 0.000862 0.080745 0.806942
Si Si5 0.723373 0.921791 0.598661
Si Si6 0.941247 0.424461 0.434944
Si Si7 0.462580 0.750000 0.012127
Si Si8 0.760356 0.581253 0.250927
O O1 0.848297 0.750000 0.983190
O O2 0.736199 0.922835 0.928708
O O3 0.742030 0.946646 0.136281
O O4 0.904807 0.025754 0.930497
O O5 0.285545 0.061639 0.270098
O O6 0.377044 0.874612 0.089623
O O7 0.446683 0.128970 0.065741
O O8 0.594119 0.250000 0.503572
O O9 0.500000 0.000000 0.500000
O O10 0.627948 0.001282 0.590876
O O11 0.696436 0.026537 0.360924
O O12 0.987067 0.250000 0.784565
O O13 0.114979 0.067855 0.798154
O O14 0.003379 0.977428 0.702937
O O15 0.727875 0.750000 0.569579
O O16 0.825692 0.005567 0.500621
O O17 0.939032 0.250000 0.444439
O O18 0.000000 0.500000 0.500000
O O19 0.731016 0.750000 0.290981
#
# Coordination Sequence:
#
# PCOD9166854 Si02
#       8
#     4   4   4   4   4   4   2   4
#     4  11  23  42  69 101 137 180 229 278 338 408
#     4  11  24  45  69  99 136 176 226 279 344 405
#     4  12  27  47  71 102 137 184 235 286 344 408
#     4  11  23  41  67  98 139 180 223 279 340 405
#     4  12  24  44  71 101 141 178 225 286 341 409
#     4  12  25  41  67 100 135 182 227 279 345 408
#     4  10  24  44  66  94 134 178 222 278 342 398
#     4  10  23  45  69  99 141 180 227 283 339 403
#
# _framework density 20.329841999999999
#
# number of rings (size 3 to 8) (size 9 to 14) (size 15 to 20)
#    0.000    0.800    2.667    4.400    2.800    3.200 
#    2.400    0.000    0.000    0.000    0.000    0.000 
#    0.000    0.000    0.000    0.000    0.000    0.000 
#
# Total GULP energy -167181.155726 kJ/mol
# GULP energy per Si atom -5572.705191 kJ/mol
# Density = 2.028357 g / cm^3
# Si number density = 20.329842 Si / 1000 Ang^3
#
#
#
# Elastic Constant Matrix: (Units=GPa)
#
#
# Indices 1 2 3 4 5 6 
#
# 1 40.4594 3.0888 21.8651 0.0000 13.8205 0.0000
# 2 3.0888 161.6104 36.2780 0.0000 -4.7689 0.0000
# 3 21.8651 36.2780 75.6770 0.0000 18.8254 0.0000
# 4 0.0000 0.0000 0.0000 38.9716 0.0000 -2.6153
# 5 13.8205 -4.7689 18.8254 0.0000 37.0423 0.0000
# 6 0.0000 0.0000 0.0000 -2.6153 0.0000 44.6079
#
#
#
# Elastic Compliance Matrix: (Units=1/GPa)
#
#
# Indices 1 2 3 4 5 6 
#
# 1 0.031382 0.000867 -0.007552 0.000000 -0.007759 0.000000
# 2 0.000867 0.007253 -0.004440 0.000000 0.002867 0.000000
# 3 -0.007552 -0.004440 0.019421 0.000000 -0.007624 0.000000
# 4 0.000000 0.000000 0.000000 0.025761 0.000000 0.001510
# 5 -0.007759 0.002867 -0.007624 0.000000 0.034135 0.000000
# 6 0.000000 0.000000 0.000000 0.001510 0.000000 0.022506
#
#
# Mechanical properties :
#
#
# Convention : Reuss Voigt Hill
#
# Bulk Modulus (GPa) = 27.93032 44.46785 36.19909
# Shear Modulus (GPa) = 28.62967 38.55868 33.59417
#
# Velocity S-wave (km/s) = 3.75675 4.35978 4.06945
# Velocity P-wave (km/s) = 5.70841 6.87490 6.31863
#
# Compressibility (1/GPa) = 0.03580339
#
# Stress axis : x y z
#
# Youngs Moduli (GPa) = 31.86560 137.88342 51.48997
#
# Poissons Ratio (x) = -0.11949 0.38887
# Poissons Ratio (y) = -0.02762 0.22863
# Poissons Ratio (z) = 0.24066 0.61224
#
# Static dielectric constant tensor:
#      x y z
#    x 1.767610 0.000000 0.009250 
#    y 0.000000 1.706590 0.000000 
#    z 0.009250 0.000000 1.732630 
# 
# From -- ./inp_files/37956.got.cif
#   From: 2010.05.17/outbox.cif.g08.bks.cpg/sg11_19_cif.got.tgz:37956.got - 2010.06.03 12:22:45.
