data_PCOD9166027
_publ_section_title
;
Structure prediction by ZEFSAII (Michael W. Deem and Ramdas Pophale) SiO2 
 PCOD9166027
Probable space group: P 21/M
;
_chemical_formula_sum "Si O2"
_cell_formula_units_Z 28
_cell_length_a 14.326807
_cell_length_b 7.412094
_cell_length_c 16.721266
_cell_angle_alpha 90.000000
_cell_angle_beta 137.930102
_cell_angle_gamma 90.000000
_cell_volume 1189.756485
_symmetry_space_group_name_H-M "P 21/M"
_symmetry_group_IT_number 11
_symmetry_cell_setting 'monoclinic'
loop_
_space_group_symop_operation_xyz
x,y,z
-x,1/2+y,-z
-x,-y,-z
x,1/2-y,z
loop_
_atom_site_type_symbol
_atom_site_label
_atom_site_fract_x
_atom_site_fract_y
_atom_site_fract_z
Si Si1 0.323167 0.470427 0.724122
Si Si2 0.416096 0.536834 0.364488
Si Si3 0.309680 0.470496 0.542224
Si Si4 0.665825 0.963913 0.096616
Si Si5 0.637228 0.045224 0.904437
Si Si6 0.147395 0.458230 0.284009
Si Si7 0.085239 0.532981 0.974430
O O1 0.323324 0.250000 0.728020
O O2 0.257844 0.522148 0.597498
O O3 0.270651 0.528590 0.778276
O O4 0.484017 0.533784 0.817660
O O5 0.500000 0.500000 0.500000
O O6 0.396193 0.750000 0.340950
O O7 0.528632 0.473589 0.370413
O O8 0.264662 0.461077 0.288558
O O9 0.312378 0.250000 0.540161
O O10 0.216170 0.535508 0.408428
O O11 0.687892 0.750000 0.103507
O O12 0.500000 0.000000 0.000000
O O13 0.703694 0.048357 0.035973
O O14 0.611714 0.250000 0.860693
O O15 0.756832 0.962858 0.925713
O O16 0.117856 0.250000 0.283837
O O17 0.008426 0.539015 0.158184
O O18 0.096722 0.750000 0.973125
O O19 0.000000 0.500000 0.000000
#
# Coordination Sequence:
#
# PCOD9166027 Si02
#       7
#     4   4   4   4   4   4   4
#     4   8  14  25  45  72  93 114 151 194 233 285
#     4   9  16  26  44  66  90 123 159 194 235 281
#     4   8  14  25  44  67  90 118 152 190 234 283
#     4   9  16  28  48  72  98 123 153 194 241 289
#     4   9  18  32  49  67  93 127 163 198 239 289
#     4   9  18  32  46  64  93 124 160 201 240 285
#     4  10  22  36  50  69  95 130 168 207 243 285
#
# _framework density 23.534227000000001
#
# number of rings (size 3 to 8) (size 9 to 14) (size 15 to 20)
#    0.000    3.143    0.000    2.571    2.000    1.143 
#    0.000    0.000    0.000   12.857    0.000    0.000 
#    0.000    0.000    0.000    0.000    0.000    0.571 
#
# Total GULP energy -156069.573981 kJ/mol
# GULP energy per Si atom -5573.913356 kJ/mol
# Density = 2.348066 g / cm^3
# Si number density = 23.534227 Si / 1000 Ang^3
#
#
#
# Elastic Constant Matrix: (Units=GPa)
#
#
# Indices 1 2 3 4 5 6 
#
# 1 54.5239 -5.3896 5.9554 0.0000 -28.1662 0.0000
# 2 -5.3896 84.9983 0.4172 0.0000 -0.0854 0.0000
# 3 5.9554 0.4172 76.7705 0.0000 -21.5662 0.0000
# 4 0.0000 0.0000 0.0000 4.8004 0.0000 -4.8267
# 5 -28.1662 -0.0854 -21.5662 0.0000 46.6574 0.0000
# 6 0.0000 0.0000 0.0000 -4.8267 0.0000 14.2747
#
#
#
# Elastic Compliance Matrix: (Units=1/GPa)
#
#
# Indices 1 2 3 4 5 6 
#
# 1 0.027450 0.001744 0.002893 0.000000 0.017911 0.000000
# 2 0.001744 0.011876 0.000117 0.000000 0.001129 0.000000
# 3 0.002893 0.000117 0.015275 0.000000 0.008807 0.000000
# 4 0.000000 0.000000 0.000000 0.315621 0.000000 0.106721
# 5 0.017911 0.001129 0.008807 0.000000 0.036318 0.000000
# 6 0.000000 0.000000 0.000000 0.106721 0.000000 0.106140
#
#
# Mechanical properties :
#
#
# Convention : Reuss Voigt Hill
#
# Bulk Modulus (GPa) = 15.59836 24.25095 19.92466
# Shear Modulus (GPa) = 9.53214 27.50049 18.51632
#
# Velocity S-wave (km/s) = 2.01473 3.42209 2.80801
# Velocity P-wave (km/s) = 3.47196 5.09325 4.35865
#
# Compressibility (1/GPa) = 0.06410929
#
# Stress axis : x y z
#
# Youngs Moduli (GPa) = 36.43032 84.20272 65.46720
#
# Poissons Ratio (x) = -0.14688 -0.18938
# Poissons Ratio (y) = -0.06355 -0.00768
# Poissons Ratio (z) = -0.10538 -0.00988
#
# Static dielectric constant tensor:
#      x y z
#    x 1.896850 0.000000 -0.045050 
#    y 0.000000 1.914000 0.000000 
#    z -0.045050 0.000000 1.939380 
# 
# From -- ./inp_files/60124.got.cif
#   From: 2010.05.17/outbox.cif.g08.bks.cpg/sg11_31_cif.got.tgz:60124.got - 2010.06.03 12:22:45.
