data_PCOD9166523
_publ_section_title
;
Structure prediction by ZEFSAII (Michael W. Deem and Ramdas Pophale) SiO2 
 PCOD9166523
Probable space group: P 21/M
;
_chemical_formula_sum "Si O2"
_cell_formula_units_Z 24
_cell_length_a 14.972758
_cell_length_b 8.443403
_cell_length_c 9.748187
_cell_angle_alpha 90.000000
_cell_angle_beta 81.358066
_cell_angle_gamma 90.000000
_cell_volume 1218.384274
_symmetry_space_group_name_H-M "P 21/M"
_symmetry_group_IT_number 11
_symmetry_cell_setting 'monoclinic'
loop_
_space_group_symop_operation_xyz
x,y,z
-x,1/2+y,-z
-x,-y,-z
x,1/2-y,z
loop_
_atom_site_type_symbol
_atom_site_label
_atom_site_fract_x
_atom_site_fract_y
_atom_site_fract_z
Si Si1 0.764903 0.064796 0.959556
Si Si2 0.426129 0.437056 0.912296
Si Si3 0.462743 0.441279 0.364525
Si Si4 0.914314 0.942093 0.431758
Si Si5 0.255154 0.441076 0.343497
Si Si6 0.079850 0.437691 0.885653
O O1 0.786031 0.250000 0.954092
O O2 0.769952 0.002439 0.802213
O O3 0.664697 0.030680 0.035909
O O4 0.830566 0.979724 0.051174
O O5 0.409938 0.250000 0.933472
O O6 0.470175 0.476974 0.757745
O O7 0.500000 0.500000 0.000000
O O8 0.500000 0.500000 0.500000
O O9 0.467480 0.250000 0.351752
O O10 0.357940 0.487990 0.359554
O O11 0.915279 0.750000 0.430856
O O12 0.821173 0.991680 0.529141
O O13 0.919698 0.998345 0.271943
O O14 0.000000 0.000000 0.500000
O O15 0.254340 0.250000 0.339021
O O16 0.070694 0.250000 0.877874
O O17 0.000000 0.500000 0.000000
#
# Coordination Sequence:
#
# PCOD9166523 Si02
#       6
#     4   4   4   4   4   4
#     4  12  25  41  65  97 129 168 216 265 321 384
#     4  12  24  42  66  94 129 171 218 268 322 383
#     4  11  24  41  64  94 130 172 217 267 323 383
#     4  10  23  42  65  93 124 164 207 255 315 377
#     4  10  22  42  65  90 125 169 213 261 322 383
#     4  11  24  43  67  96 130 167 210 264 320 383
#
# _framework density 19.698217
#
# number of rings (size 3 to 8) (size 9 to 14) (size 15 to 20)
#    0.000    1.000    1.667    5.000    2.333    5.333 
#    0.000    0.000    0.000    0.000    0.000    0.000 
#    0.000    0.000    0.000    0.000    0.000    0.000 
#
# Total GULP energy -134164.500067 kJ/mol
# GULP energy per Si atom -5590.187503 kJ/mol
# Density = 1.965338 g / cm^3
# Si number density = 19.698217 Si / 1000 Ang^3
#
#
#
# Elastic Constant Matrix: (Units=GPa)
#
#
# Indices 1 2 3 4 5 6 
#
# 1 97.2824 -13.4351 57.8077 0.0000 -3.0422 0.0000
# 2 -13.4351 29.4972 6.3481 0.0000 -0.3852 0.0000
# 3 57.8077 6.3481 189.1726 0.0000 2.7233 0.0000
# 4 0.0000 0.0000 0.0000 34.7379 0.0000 1.5956
# 5 -3.0422 -0.3852 2.7233 0.0000 39.8731 0.0000
# 6 0.0000 0.0000 0.0000 1.5956 0.0000 33.8943
#
#
#
# Elastic Compliance Matrix: (Units=1/GPa)
#
#
# Indices 1 2 3 4 5 6 
#
# 1 0.014061 0.007406 -0.004566 0.000000 0.001456 0.000000
# 2 0.007406 0.038056 -0.003557 0.000000 0.001176 0.000000
# 3 -0.004566 -0.003557 0.006813 0.000000 -0.000848 0.000000
# 4 0.000000 0.000000 0.000000 0.028849 0.000000 -0.001358
# 5 0.001456 0.001176 -0.000848 0.000000 0.025260 0.000000
# 6 0.000000 0.000000 0.000000 -0.001358 0.000000 0.029567
#
#
# Mechanical properties :
#
#
# Convention : Reuss Voigt Hill
#
# Bulk Modulus (GPa) = 17.39272 46.37708 31.88490
# Shear Modulus (GPa) = 30.63604 39.38316 35.00960
#
# Velocity S-wave (km/s) = 3.94797 4.47623 4.22037
# Velocity P-wave (km/s) = 5.44341 7.09299 6.32223
#
# Compressibility (1/GPa) = 0.05749533
#
# Stress axis : x y z
#
# Youngs Moduli (GPa) = 71.11804 26.27728 146.77525
#
# Poissons Ratio (x) = -0.19461 0.67022
# Poissons Ratio (y) = -0.52671 0.52210
# Poissons Ratio (z) = 0.32475 0.09347
#
# Static dielectric constant tensor:
#      x y z
#    x 1.627970 0.000000 -0.046060 
#    y 0.000000 1.690710 0.000000 
#    z -0.046060 0.000000 1.570570 
# 
# From -- ./inp_files/20374.got.cif
#   From: 2010.05.17/outbox.cif.g08.bks.cpg/sg11_11_cif.got.tgz:20374.got - 2010.06.03 12:22:45.
