data_PCOD9166569
_publ_section_title
;
Structure prediction by ZEFSAII (Michael W. Deem and Ramdas Pophale) SiO2 
 PCOD9166569
Probable space group: P 21/M
;
_chemical_formula_sum "Si O2"
_cell_formula_units_Z 30
_cell_length_a 11.630675
_cell_length_b 16.733018
_cell_length_c 14.095876
_cell_angle_alpha 90.000000
_cell_angle_beta 31.468093
_cell_angle_gamma 90.000000
_cell_volume 1432.060808
_symmetry_space_group_name_H-M "P 21/M"
_symmetry_group_IT_number 11
_symmetry_cell_setting 'monoclinic'
loop_
_space_group_symop_operation_xyz
x,y,z
-x,1/2+y,-z
-x,-y,-z
x,1/2-y,z
loop_
_atom_site_type_symbol
_atom_site_label
_atom_site_fract_x
_atom_site_fract_y
_atom_site_fract_z
Si Si1 0.747667 0.571764 0.757140
Si Si2 0.070474 0.132558 0.696036
Si Si3 0.441684 0.250000 0.395257
Si Si4 0.181733 0.438543 0.940498
Si Si5 0.621929 0.660921 0.034396
Si Si6 0.242292 0.009496 0.696929
Si Si7 0.137715 0.886620 0.354900
Si Si8 0.355632 0.613678 0.885531
O O1 0.784129 0.476773 0.725645
O O2 0.548490 0.597001 0.827125
O O3 0.971675 0.609741 0.559177
O O4 0.699167 0.602265 0.896203
O O5 0.289365 0.182195 0.557444
O O6 0.137684 0.042018 0.673416
O O7 0.998289 0.145356 0.638905
O O8 0.857201 0.147808 0.909952
O O9 0.562185 0.178035 0.248352
O O10 0.301064 0.373760 0.919861
O O11 0.209302 0.429318 0.808549
O O12 0.285847 0.526363 0.892721
O O13 0.923567 0.439880 0.151983
O O14 0.706710 0.750000 0.957528
O O15 0.358293 0.660930 0.217638
O O16 0.500000 0.000000 0.500000
#
# Coordination Sequence:
#
# PCOD9166569 Si02
#       8
#     4   4   2   4   4   4   4   4
#     4  11  22  38  62  91 127 177 219 262 323 390
#     4  11  23  38  61  98 128 166 214 270 334 391
#     4  12  24  36  58  96 132 170 214 278 328 384
#     4  10  23  45  67 100 127 174 228 268 332 402
#     4  12  26  41  67  98 142 179 215 270 334 402
#     4  10  22  42  75  93 123 169 224 281 329 394
#     4  11  23  39  65  98 129 172 220 266 324 402
#     4  11  21  38  65  89 134 172 212 275 324 387
#
# _framework density 20.948831999999999
#
# number of rings (size 3 to 8) (size 9 to 14) (size 15 to 20)
#    0.000    1.067    4.000    3.200    1.867    1.600 
#    1.200    0.000   11.733    0.000    0.000    0.000 
#    0.000    0.000    0.000    0.000    0.000    0.000 
#
# Total GULP energy -167042.416045 kJ/mol
# GULP energy per Si atom -5568.080535 kJ/mol
# Density = 2.090115 g / cm^3
# Si number density = 20.948832 Si / 1000 Ang^3
#
#
#
# Elastic Constant Matrix: (Units=GPa)
#
#
# Indices 1 2 3 4 5 6 
#
# 1 62.9199 -9.1797 -4.8992 0.0000 -10.8841 0.0000
# 2 -9.1797 33.2448 20.9907 0.0000 -4.2842 0.0000
# 3 -4.8992 20.9907 104.1280 0.0000 -1.9166 0.0000
# 4 0.0000 0.0000 0.0000 10.4657 0.0000 3.7967
# 5 -10.8841 -4.2842 -1.9166 0.0000 19.7542 0.0000
# 6 0.0000 0.0000 0.0000 3.7967 0.0000 2.4199
#
#
#
# Elastic Compliance Matrix: (Units=1/GPa)
#
#
# Indices 1 2 3 4 5 6 
#
# 1 0.018946 0.006951 -0.000290 0.000000 0.011918 0.000000
# 2 0.006951 0.037957 -0.007115 0.000000 0.011371 0.000000
# 3 -0.000290 -0.007115 0.011013 0.000000 -0.000635 0.000000
# 4 0.000000 0.000000 0.000000 0.221788 0.000000 -0.347972
# 5 0.011918 0.011371 -0.000635 0.000000 0.059593 0.000000
# 6 0.000000 0.000000 0.000000 -0.347972 0.000000 0.959183
#
#
# Mechanical properties :
#
#
# Convention : Reuss Voigt Hill
#
# Bulk Modulus (GPa) = 14.92392 23.79069 19.35731
# Shear Modulus (GPa) = 3.75453 19.42002 11.58728
#
# Velocity S-wave (km/s) = 1.34020 3.04801 2.35441
# Velocity P-wave (km/s) = 3.08776 4.87528 4.08060
#
# Compressibility (1/GPa) = 0.06700651
#
# Stress axis : x y z
#
# Youngs Moduli (GPa) = 52.78052 26.34540 90.80538
#
# Poissons Ratio (x) = -0.18312 0.02637
# Poissons Ratio (y) = -0.36687 0.64611
# Poissons Ratio (z) = 0.01533 0.18746
#
# Static dielectric constant tensor:
#      x y z
#    x 1.758170 0.000000 -0.018880 
#    y 0.000000 1.529150 0.000000 
#    z -0.018880 0.000000 1.746230 
# 
# From -- ./inp_files/50587.got.cif
#   From: 2010.05.17/outbox.cif.g08.bks.cpg/sg11_26_cif.got.tgz:50587.got - 2010.06.03 12:22:45.
