data_PCOD9166080
_publ_section_title
;
Structure prediction by ZEFSAII (Michael W. Deem and Ramdas Pophale) SiO2 
 PCOD9166080
Probable space group: P 21/M
;
_chemical_formula_sum "Si O2"
_cell_formula_units_Z 24
_cell_length_a 7.061384
_cell_length_b 9.219631
_cell_length_c 17.482831
_cell_angle_alpha 90.000000
_cell_angle_beta 91.455992
_cell_angle_gamma 90.000000
_cell_volume 1137.823469
_symmetry_space_group_name_H-M "P 21/M"
_symmetry_group_IT_number 11
_symmetry_cell_setting 'monoclinic'
loop_
_space_group_symop_operation_xyz
x,y,z
-x,1/2+y,-z
-x,-y,-z
x,1/2-y,z
loop_
_atom_site_type_symbol
_atom_site_label
_atom_site_fract_x
_atom_site_fract_y
_atom_site_fract_z
Si Si1 0.695912 0.583025 0.634428
Si Si2 0.794856 0.424383 0.488897
Si Si3 0.850311 0.415587 0.322200
Si Si4 0.647233 0.080165 0.785008
Si Si5 0.390180 0.419558 0.932337
Si Si6 0.925080 0.924032 0.172652
O O1 0.640902 0.750000 0.621706
O O2 0.674254 0.491167 0.556652
O O3 0.606275 0.514534 0.709674
O O4 0.923935 0.581212 0.654821
O O5 0.810281 0.250000 0.496899
O O6 0.743699 0.454643 0.399825
O O7 0.000000 0.500000 0.500000
O O8 0.803425 0.250000 0.301223
O O9 0.829772 0.517197 0.249179
O O10 0.656325 0.250000 0.761800
O O11 0.507484 0.068043 0.854653
O O12 0.854856 0.037128 0.819044
O O13 0.377240 0.250000 0.952779
O O14 0.183612 0.476148 0.904278
O O15 0.500000 0.500000 0.000000
O O16 0.910421 0.750000 0.172830
#
# Coordination Sequence:
#
# PCOD9166080 Si02
#       6
#     4   4   4   4   4   4
#     4   9  16  26  43  70 101 133 172 212 250 296
#     4   9  15  23  38  65 101 137 174 214 252 293
#     4   8  15  26  42  68 100 133 169 207 247 290
#     4   9  18  34  54  74 101 135 166 203 252 298
#     4  10  22  38  55  78 103 128 163 204 250 306
#     4   9  18  33  53  75 100 132 168 204 246 298
#
# _framework density 21.092905999999999
#
# number of rings (size 3 to 8) (size 9 to 14) (size 15 to 20)
#    0.000    3.000    0.000    2.000    0.000    6.667 
#    0.000    0.000    0.000    1.000    0.000    0.000 
#    0.000    0.000    0.000    0.000    0.000    0.000 
#
# Total GULP energy -133959.473895 kJ/mol
# GULP energy per Si atom -5581.644746 kJ/mol
# Density = 2.104490 g / cm^3
# Si number density = 21.092906 Si / 1000 Ang^3
#
#
#
# Elastic Constant Matrix: (Units=GPa)
#
#
# Indices 1 2 3 4 5 6 
#
# 1 53.4734 9.4886 4.2895 0.0000 15.6416 0.0000
# 2 9.4886 42.8809 23.6546 0.0000 15.5575 0.0000
# 3 4.2895 23.6546 50.7266 0.0000 33.3668 0.0000
# 4 0.0000 0.0000 0.0000 41.3867 0.0000 -1.2205
# 5 15.6416 15.5575 33.3668 0.0000 34.3631 0.0000
# 6 0.0000 0.0000 0.0000 -1.2205 0.0000 10.9409
#
#
#
# Elastic Compliance Matrix: (Units=1/GPa)
#
#
# Indices 1 2 3 4 5 6 
#
# 1 0.026239 -0.006171 0.018482 0.000000 -0.027096 0.000000
# 2 -0.006171 0.032848 -0.018990 0.000000 0.006377 0.000000
# 3 0.018482 -0.018990 0.074412 0.000000 -0.072069 0.000000
# 4 0.000000 0.000000 0.000000 0.024242 0.000000 0.002704
# 5 -0.027096 0.006377 -0.072069 0.000000 0.108527 0.000000
# 6 0.000000 0.000000 0.000000 0.002704 0.000000 0.091701
#
#
# Mechanical properties :
#
#
# Convention : Reuss Voigt Hill
#
# Bulk Modulus (GPa) = 8.32363 24.66069 16.49216
# Shear Modulus (GPa) = 12.15437 24.64803 18.40120
#
# Velocity S-wave (km/s) = 2.40308 3.42211 2.95683
# Velocity P-wave (km/s) = 3.41387 5.22793 4.41507
#
# Compressibility (1/GPa) = 0.12013986
#
# Stress axis : x y z
#
# Youngs Moduli (GPa) = 38.11094 30.44328 13.43877
#
# Poissons Ratio (x) = 0.18786 -0.24837
# Poissons Ratio (y) = 0.23517 0.25521
# Poissons Ratio (z) = -0.70436 0.57813
#
# Static dielectric constant tensor:
#      x y z
#    x 1.872570 0.000000 0.013720 
#    y 0.000000 1.704570 0.000000 
#    z 0.013720 0.000000 1.724370 
# 
# From -- ./inp_files/25514.got.cif
#   From: 2010.05.17/outbox.cif.g08.bks.cpg/sg11_13_cif.got.tgz:25514.got - 2010.06.03 12:22:45.
