data_PCOD9166541
_publ_section_title
;
Structure prediction by ZEFSAII (Michael W. Deem and Ramdas Pophale) SiO2 
 PCOD9166541
Probable space group: P 21/M
;
_chemical_formula_sum "Si O2"
_cell_formula_units_Z 18
_cell_length_a 5.509502
_cell_length_b 22.816379
_cell_length_c 8.250322
_cell_angle_alpha 90.000000
_cell_angle_beta 40.418584
_cell_angle_gamma 90.000000
_cell_volume 672.435733
_symmetry_space_group_name_H-M "P 21/M"
_symmetry_group_IT_number 11
_symmetry_cell_setting 'monoclinic'
loop_
_space_group_symop_operation_xyz
x,y,z
-x,1/2+y,-z
-x,-y,-z
x,1/2-y,z
loop_
_atom_site_type_symbol
_atom_site_label
_atom_site_fract_x
_atom_site_fract_y
_atom_site_fract_z
Si Si1 0.490196 0.966459 0.835609
Si Si2 0.363572 0.077475 0.732005
Si Si3 0.607741 0.250000 0.141703
Si Si4 0.445462 0.811366 0.161254
Si Si5 0.376778 0.144578 0.391357
O O1 0.714127 0.907128 0.690626
O O2 0.576099 0.016891 0.660567
O O3 0.069048 0.941443 0.036056
O O4 0.500000 0.000000 0.000000
O O5 0.422757 0.127704 0.835118
O O6 0.442022 0.107279 0.521109
O O7 0.690979 0.195125 0.220910
O O8 0.495165 0.299832 0.059087
O O9 0.559371 0.750000 0.191629
O O10 0.993366 0.815585 0.404480
#
# Coordination Sequence:
#
# PCOD9166541 Si02
#       5
#     4   4   2   4   4
#     4  11  26  47  71 103 142 181 230 290 350 407
#     4  11  25  44  70 106 137 180 234 287 341 419
#     4  10  22  42  66  96 138 182 220 280 342 406
#     4  10  25  46  66 101 140 181 227 283 344 412
#     4  12  23  44  72 100 135 183 230 282 348 406
#
# _framework density 26.768355
#
# number of rings (size 3 to 8) (size 9 to 14) (size 15 to 20)
#    0.667    0.444    1.111    4.667    1.556    8.889 
#    2.000    0.000    0.000    0.000    0.000    0.000 
#    0.000    0.000    0.000    0.000    0.000    0.000 
#
# Total GULP energy -100249.936103 kJ/mol
# GULP energy per Si atom -5569.440895 kJ/mol
# Density = 2.670743 g / cm^3
# Si number density = 26.768355 Si / 1000 Ang^3
#
#
#
# Elastic Constant Matrix: (Units=GPa)
#
#
# Indices 1 2 3 4 5 6 
#
# 1 -14.5222 36.1292 41.0952 0.0000 -22.5145 0.0000
# 2 36.1292 316.0449 73.1063 0.0000 17.1894 0.0000
# 3 41.0952 73.1063 18.3114 0.0000 35.0761 0.0000
# 4 0.0000 0.0000 0.0000 84.0654 0.0000 10.3715
# 5 -22.5145 17.1894 35.0761 0.0000 24.5718 0.0000
# 6 0.0000 0.0000 0.0000 10.3715 0.0000 76.0381
#
#
#
# Elastic Compliance Matrix: (Units=1/GPa)
#
#
# Indices 1 2 3 4 5 6 
#
# 1 0.015941 -0.006906 0.026198 0.000000 -0.017961 0.000000
# 2 -0.006906 0.005635 -0.007306 0.000000 0.000160 0.000000
# 3 0.026198 -0.007306 0.017751 0.000000 0.003777 0.000000
# 4 0.000000 0.000000 0.000000 0.012099 0.000000 -0.001650
# 5 -0.017961 0.000160 0.003777 0.000000 0.018736 0.000000
# 6 0.000000 0.000000 0.000000 -0.001650 0.000000 0.013376
#
#
# Mechanical properties :
#
#
# Convention : Reuss Voigt Hill
#
# Bulk Modulus (GPa) = 15.79805 68.94397 42.37101
# Shear Modulus (GPa) = 61.98446 48.23527 55.10986
#
# Velocity S-wave (km/s) = 4.81728 4.24954 4.54229
# Velocity P-wave (km/s) = 6.07092 7.06328 6.58582
#
# Compressibility (1/GPa) = 0.06329895
#
# Stress axis : x y z
#
# Youngs Moduli (GPa) = 62.73137 177.46663 56.33633
#
# Poissons Ratio (x) = 1.22550 -1.47590
# Poissons Ratio (y) = 0.43319 0.41161
# Poissons Ratio (z) = -1.64344 1.29662
#
# Static dielectric constant tensor:
#      x y z
#    x 2.188370 0.000000 -0.143630 
#    y 0.000000 1.992060 0.000000 
#    z -0.143630 0.000000 2.425070 
# 
# From -- ./inp_files/2496.got.cif
#   From: 2010.05.17/outbox.cif.g08.bks.cpg/sg11_2_cif.got.tgz:2496.got - 2010.06.03 12:22:45.
