data_PCOD9166966
_publ_section_title
;
Structure prediction by ZEFSAII (Michael W. Deem and Ramdas Pophale) SiO2 
 PCOD9166966
Probable space group: P 21/M
;
_chemical_formula_sum "Si O2"
_cell_formula_units_Z 32
_cell_length_a 11.699946
_cell_length_b 18.738371
_cell_length_c 14.160574
_cell_angle_alpha 90.000000
_cell_angle_beta 147.536780
_cell_angle_gamma 90.000000
_cell_volume 1666.384255
_symmetry_space_group_name_H-M "P 21/M"
_symmetry_group_IT_number 11
_symmetry_cell_setting 'monoclinic'
loop_
_space_group_symop_operation_xyz
x,y,z
-x,1/2+y,-z
-x,-y,-z
x,1/2-y,z
loop_
_atom_site_type_symbol
_atom_site_label
_atom_site_fract_x
_atom_site_fract_y
_atom_site_fract_z
Si Si1 0.516626 0.833898 0.267095
Si Si2 0.702583 0.570775 0.959906
Si Si3 0.129768 0.397070 0.621591
Si Si4 0.009208 0.831241 0.290687
Si Si5 0.275951 0.333174 0.392360
Si Si6 0.492827 0.333527 0.339672
Si Si7 0.836885 0.086140 0.084607
Si Si8 0.268576 0.944762 0.774045
O O1 0.543829 0.750000 0.270035
O O2 0.692419 0.876026 0.329432
O O3 0.561259 0.847801 0.408407
O O4 0.291861 0.859006 0.070219
O O5 0.616907 0.611805 0.808426
O O6 0.500381 0.564562 0.890065
O O7 0.887841 0.617478 0.135229
O O8 0.795520 0.491649 0.011240
O O9 0.103932 0.340827 0.687125
O O10 0.194278 0.472771 0.713234
O O11 0.906308 0.404034 0.411099
O O12 0.997209 0.750000 0.249292
O O13 0.256492 0.850081 0.477091
O O14 0.204132 0.250000 0.353536
O O15 0.388211 0.339130 0.369715
O O16 0.077971 0.386840 0.260395
O O17 0.472975 0.250000 0.294497
O O18 0.744687 0.081046 0.127283
#
# Coordination Sequence:
#
# PCOD9166966 Si02
#       8
#     4   4   4   4   4   4   4   4
#     4  11  23  40  64  94 124 164 213 258 310 377
#     4  12  23  40  67  95 128 166 207 256 317 379
#     4  11  20  39  65  89 127 171 203 251 312 378
#     4  11  23  40  64  94 124 164 213 258 310 377
#     4  10  24  46  66  89 125 166 210 263 315 364
#     4  10  24  46  66  89 125 166 210 263 315 364
#     4  12  23  40  67  95 128 166 207 256 317 379
#     4  11  22  38  64  93 134 169 198 249 321 376
#
# _framework density 19.203254000000001
#
# number of rings (size 3 to 8) (size 9 to 14) (size 15 to 20)
#    0.000    1.000    5.000    2.250    0.000    2.500 
#    0.000    5.625    0.000    0.000    0.000    0.000 
#    0.000    0.000    0.000    0.000    0.000    0.000 
#
# Total GULP energy -178854.520588 kJ/mol
# GULP energy per Si atom -5589.203768 kJ/mol
# Density = 1.915955 g / cm^3
# Si number density = 19.203254 Si / 1000 Ang^3
#
#
#
# Elastic Constant Matrix: (Units=GPa)
#
#
# Indices 1 2 3 4 5 6 
#
# 1 66.2002 13.2197 15.3737 0.0000 -14.4252 0.0000
# 2 13.2197 21.5080 19.4326 0.0000 2.8321 0.0000
# 3 15.3737 19.4326 75.8478 0.0000 -16.1534 0.0000
# 4 0.0000 0.0000 0.0000 37.9648 0.0000 -1.8893
# 5 -14.4252 2.8321 -16.1534 0.0000 3.6888 0.0000
# 6 0.0000 0.0000 0.0000 -1.8893 0.0000 16.1407
#
#
#
# Elastic Compliance Matrix: (Units=1/GPa)
#
#
# Indices 1 2 3 4 5 6 
#
# 1 0.007032 0.012653 -0.013051 0.000000 -0.039366 0.000000
# 2 0.012653 0.017179 0.011323 0.000000 0.085877 0.000000
# 3 -0.013051 0.011323 0.003083 0.000000 -0.046230 0.000000
# 4 0.000000 0.000000 0.000000 0.026495 0.000000 0.003101
# 5 -0.039366 0.085877 -0.046230 0.000000 -0.151227 0.000000
# 6 0.000000 0.000000 0.000000 0.003101 0.000000 0.062318
#
#
# Mechanical properties :
#
#
# Convention : Reuss Voigt Hill
#
# Bulk Modulus (GPa) = 20.34818 28.84532 24.59675
# Shear Modulus (GPa) = -123.18322 19.26084 -51.96119
#
# Velocity S-wave (km/s) = -8.01787 3.17045 -5.20743
# Velocity P-wave (km/s) = 8.66579 5.33442 4.82907
#
# Compressibility (1/GPa) = 0.04914445
#
# Stress axis : x y z
#
# Youngs Moduli (GPa) = 142.20952 58.21176 324.37590
#
# Poissons Ratio (x) = -0.73654 4.23336
# Poissons Ratio (y) = -1.79936 -3.67306
# Poissons Ratio (z) = 1.85595 -0.65916
#
# Static dielectric constant tensor:
#      x y z
#    x 1.642630 0.000000 -0.005520 
#    y 0.000000 1.659060 0.000000 
#    z -0.005520 0.000000 1.658970 
# 
# From -- ./inp_files/50699.got.cif
#   From: 2010.05.17/outbox.cif.g08.bks.cpg/sg11_26_cif.got.tgz:50699.got - 2010.06.03 12:22:45.
