data_PCOD9166379
_publ_section_title
;
Structure prediction by ZEFSAII (Michael W. Deem and Ramdas Pophale) SiO2 
 PCOD9166379
Probable space group: P 21/M
;
_chemical_formula_sum "Si O2"
_cell_formula_units_Z 22
_cell_length_a 13.919276
_cell_length_b 8.737714
_cell_length_c 7.138030
_cell_angle_alpha 90.000000
_cell_angle_beta 88.770583
_cell_angle_gamma 90.000000
_cell_volume 867.946296
_symmetry_space_group_name_H-M "P 21/M"
_symmetry_group_IT_number 11
_symmetry_cell_setting 'monoclinic'
loop_
_space_group_symop_operation_xyz
x,y,z
-x,1/2+y,-z
-x,-y,-z
x,1/2-y,z
loop_
_atom_site_type_symbol
_atom_site_label
_atom_site_fract_x
_atom_site_fract_y
_atom_site_fract_z
Si Si1 0.072482 0.074055 0.230126
Si Si2 0.121792 0.425612 0.671668
Si Si3 0.553039 0.250000 0.507721
Si Si4 0.331191 0.533940 0.760029
Si Si5 0.457325 0.250000 0.869752
Si Si6 0.624472 0.750000 0.734368
Si Si7 0.731283 0.077211 0.826931
O O1 0.075721 0.250000 0.167042
O O2 0.095575 0.073385 0.452811
O O3 0.158548 0.974485 0.143718
O O4 0.966497 0.004267 0.217978
O O5 0.132429 0.250000 0.730990
O O6 0.224166 0.504494 0.692040
O O7 0.608954 0.112967 0.406768
O O8 0.549491 0.250000 0.732545
O O9 0.442612 0.250000 0.443776
O O10 0.394883 0.391183 0.809784
O O11 0.317251 0.599448 0.968969
O O12 0.454967 0.250000 0.093811
O O13 0.683744 0.587007 0.748582
O O14 0.737735 0.250000 0.734336
#
# Coordination Sequence:
#
# PCOD9166379 Si02
#       7
#     4   4   2   4   2   2   4
#     4  10  22  40  69 107 138 184 233 284 362 432
#     4  10  22  42  68  98 144 183 231 293 354 435
#     4  12  26  48  69 104 142 184 247 302 363 433
#     4  11  24  45  63  99 136 178 238 294 351 429
#     4  10  24  46  72  99 134 191 240 296 372 413
#     4  10  26  48  75 101 148 191 237 314 353 428
#     4  11  23  45  69 104 141 184 238 288 362 432
#
# _framework density 25.347190999999999
#
# number of rings (size 3 to 8) (size 9 to 14) (size 15 to 20)
#    0.000    1.455    2.727    1.091    3.818    4.364 
#    4.909    0.000    0.000    0.000    0.000    0.000 
#    0.000    0.000    0.000    0.000    0.000    0.000 
#
# Total GULP energy -122999.734119 kJ/mol
# GULP energy per Si atom -5590.897005 kJ/mol
# Density = 2.528950 g / cm^3
# Si number density = 25.347191 Si / 1000 Ang^3
#
#
#
# Elastic Constant Matrix: (Units=GPa)
#
#
# Indices 1 2 3 4 5 6 
#
# 1 132.2306 42.7433 16.1392 0.0000 -3.5570 0.0000
# 2 42.7433 169.5999 19.8045 0.0000 -8.8397 0.0000
# 3 16.1392 19.8045 107.3157 0.0000 -14.9185 0.0000
# 4 0.0000 0.0000 0.0000 29.0784 0.0000 -18.9563
# 5 -3.5570 -8.8397 -14.9185 0.0000 47.4965 0.0000
# 6 0.0000 0.0000 0.0000 -18.9563 0.0000 20.7897
#
#
#
# Elastic Compliance Matrix: (Units=1/GPa)
#
#
# Indices 1 2 3 4 5 6 
#
# 1 0.008314 -0.001993 -0.000886 0.000000 -0.000027 0.000000
# 2 -0.001993 0.006534 -0.000792 0.000000 0.000818 0.000000
# 3 -0.000886 -0.000792 0.010005 0.000000 0.002929 0.000000
# 4 0.000000 0.000000 0.000000 0.084790 0.000000 0.077313
# 5 -0.000027 0.000818 0.002929 0.000000 0.022124 0.000000
# 6 0.000000 0.000000 0.000000 0.077313 0.000000 0.118595
#
#
# Mechanical properties :
#
#
# Convention : Reuss Voigt Hill
#
# Bulk Modulus (GPa) = 57.11253 62.94667 60.02960
# Shear Modulus (GPa) = 18.97224 41.50354 30.23789
#
# Velocity S-wave (km/s) = 2.73883 4.05087 3.45766
# Velocity P-wave (km/s) = 5.70812 6.83865 6.29880
#
# Compressibility (1/GPa) = 0.01750929
#
# Stress axis : x y z
#
# Youngs Moduli (GPa) = 120.27418 153.05172 99.95071
#
# Poissons Ratio (x) = 0.30508 0.08858
# Poissons Ratio (y) = 0.23974 0.07919
# Poissons Ratio (z) = 0.10659 0.12126
#
# Static dielectric constant tensor:
#      x y z
#    x 1.936960 0.000000 0.020320 
#    y 0.000000 2.030040 0.000000 
#    z 0.020320 0.000000 2.036370 
# 
# From -- ./inp_files/20455.got.cif
#   From: 2010.05.17/outbox.cif.g08.bks.cpg/sg11_11_cif.got.tgz:20455.got - 2010.06.03 12:22:45.
