data_PCOD9166699
_publ_section_title
;
Structure prediction by ZEFSAII (Michael W. Deem and Ramdas Pophale) SiO2 
 PCOD9166699
Probable space group: P 21/M
;
_chemical_formula_sum "Si O2"
_cell_formula_units_Z 28
_cell_length_a 9.041540
_cell_length_b 13.662436
_cell_length_c 12.429672
_cell_angle_alpha 90.000000
_cell_angle_beta 64.966210
_cell_angle_gamma 90.000000
_cell_volume 1391.189861
_symmetry_space_group_name_H-M "P 21/M"
_symmetry_group_IT_number 11
_symmetry_cell_setting 'monoclinic'
loop_
_space_group_symop_operation_xyz
x,y,z
-x,1/2+y,-z
-x,-y,-z
x,1/2-y,z
loop_
_atom_site_type_symbol
_atom_site_label
_atom_site_fract_x
_atom_site_fract_y
_atom_site_fract_z
Si Si1 0.313168 0.030604 0.570771
Si Si2 0.057699 0.636808 0.699311
Si Si3 0.588298 0.041326 0.822799
Si Si4 0.625233 0.366080 0.036871
Si Si5 0.839020 0.551600 0.594793
Si Si6 0.965890 0.367960 0.048628
Si Si7 0.729322 0.632739 0.187791
O O1 0.203904 0.932483 0.614762
O O2 0.500000 0.000000 0.500000
O O3 0.256315 0.088054 0.481079
O O4 0.282138 0.090001 0.689102
O O5 0.108364 0.750000 0.687952
O O6 0.011737 0.602999 0.834139
O O7 0.906099 0.624514 0.664844
O O8 0.430603 0.098009 0.827195
O O9 0.522997 0.933621 0.876714
O O10 0.722778 0.025873 0.690414
O O11 0.655860 0.097858 0.905723
O O12 0.591593 0.250000 0.050462
O O13 0.784973 0.387293 0.059433
O O14 0.000000 0.500000 0.500000
O O15 0.980697 0.250000 0.043852
O O16 0.108927 0.403040 0.925512
O O17 0.732690 0.750000 0.191279
#
# Coordination Sequence:
#
# PCOD9166699 Si02
#       7
#     4   4   4   4   4   4   4
#     4  11  23  43  65  94 130 168 225 273 319 387
#     4  10  23  43  67  93 129 173 215 268 330 390
#     4  11  23  40  65  94 128 173 209 277 330 381
#     4  10  23  40  62  96 132 168 214 265 332 398
#     4  10  24  43  61  91 127 171 223 263 316 391
#     4   9  21  40  64  96 125 161 211 261 321 392
#     4  11  24  42  67  98 130 168 214 268 333 393
#
# _framework density 20.126656000000001
#
# number of rings (size 3 to 8) (size 9 to 14) (size 15 to 20)
#    0.000    1.714    1.429    1.286    8.000    2.857 
#    0.000    0.714    0.000    0.000    0.000    0.000 
#    0.000    0.000    0.000    0.000    0.000    0.000 
#
# Total GULP energy -156418.769589 kJ/mol
# GULP energy per Si atom -5586.384628 kJ/mol
# Density = 2.008085 g / cm^3
# Si number density = 20.126656 Si / 1000 Ang^3
#
#
#
# Elastic Constant Matrix: (Units=GPa)
#
#
# Indices 1 2 3 4 5 6 
#
# 1 88.7414 22.3905 59.4262 0.0000 17.7279 0.0000
# 2 22.3905 103.5183 25.8329 0.0000 5.4609 0.0000
# 3 59.4262 25.8329 129.8644 0.0000 13.2920 0.0000
# 4 0.0000 0.0000 0.0000 22.6381 0.0000 5.2776
# 5 17.7279 5.4609 13.2920 0.0000 48.2662 0.0000
# 6 0.0000 0.0000 0.0000 5.2776 0.0000 33.6952
#
#
#
# Elastic Compliance Matrix: (Units=1/GPa)
#
#
# Indices 1 2 3 4 5 6 
#
# 1 0.017342 -0.001743 -0.007159 0.000000 -0.004201 0.000000
# 2 -0.001743 0.010357 -0.001243 0.000000 -0.000189 0.000000
# 3 -0.007159 -0.001243 0.011257 0.000000 -0.000330 0.000000
# 4 0.000000 0.000000 0.000000 0.045847 0.000000 -0.007181
# 5 -0.004201 -0.000189 -0.000330 0.000000 0.022374 0.000000
# 6 0.000000 0.000000 0.000000 -0.007181 0.000000 0.030803
#
#
# Mechanical properties :
#
#
# Convention : Reuss Voigt Hill
#
# Bulk Modulus (GPa) = 53.57303 59.71369 56.64336
# Shear Modulus (GPa) = 30.39654 35.21819 32.80737
#
# Velocity S-wave (km/s) = 3.89043 4.18763 4.04176
# Velocity P-wave (km/s) = 6.84517 7.28801 7.07005
#
# Compressibility (1/GPa) = 0.01866611
#
# Stress axis : x y z
#
# Youngs Moduli (GPa) = 57.66471 96.54956 88.83045
#
# Poissons Ratio (x) = 0.16827 0.63593
# Poissons Ratio (y) = 0.10050 0.11045
# Poissons Ratio (z) = 0.41282 0.12005
#
# Static dielectric constant tensor:
#      x y z
#    x 1.674250 0.000000 0.016450 
#    y 0.000000 1.736100 0.000000 
#    z 0.016450 0.000000 1.708340 
# 
# From -- ./inp_files/31798.got.cif
#   From: 2010.05.17/outbox.cif.g08.bks.cpg/sg11_16_cif.got.tgz:31798.got - 2010.06.03 12:22:45.
