data_PCOD9166907
_publ_section_title
;
Structure prediction by ZEFSAII (Michael W. Deem and Ramdas Pophale) SiO2 
 PCOD9166907
Probable space group: P 21/M
;
_chemical_formula_sum "Si O2"
_cell_formula_units_Z 26
_cell_length_a 23.769977
_cell_length_b 9.254707
_cell_length_c 11.675735
_cell_angle_alpha 90.000000
_cell_angle_beta 150.321306
_cell_angle_gamma 90.000000
_cell_volume 1271.744417
_symmetry_space_group_name_H-M "P 21/M"
_symmetry_group_IT_number 11
_symmetry_cell_setting 'monoclinic'
loop_
_space_group_symop_operation_xyz
x,y,z
-x,1/2+y,-z
-x,-y,-z
x,1/2-y,z
loop_
_atom_site_type_symbol
_atom_site_label
_atom_site_fract_x
_atom_site_fract_y
_atom_site_fract_z
Si Si1 0.333972 0.412063 0.456517
Si Si2 0.527724 0.575800 0.927211
Si Si3 0.884229 0.082206 0.316758
Si Si4 0.505282 0.250000 0.456501
Si Si5 0.880130 0.577466 0.764068
Si Si6 0.338697 0.018225 0.201019
Si Si7 0.237296 0.919674 0.658157
O O1 0.370355 0.250000 0.558376
O O2 0.424297 0.528299 0.661807
O O3 0.210292 0.439443 0.292062
O O4 0.330066 0.414263 0.312888
O O5 0.534848 0.750000 0.947796
O O6 0.500000 0.500000 0.000000
O O7 0.646735 0.501987 0.104506
O O8 0.895093 0.250000 0.303589
O O9 0.846609 0.075686 0.382504
O O10 0.783519 0.011707 0.066051
O O11 0.000000 0.000000 0.500000
O O12 0.591302 0.373338 0.658254
O O13 0.413398 0.375037 0.257615
O O14 0.895695 0.750000 0.773239
O O15 0.819551 0.501442 0.549091
O O16 0.000000 0.500000 0.000000
O O17 0.260383 0.750000 0.671974
#
# Coordination Sequence:
#
# PCOD9166907 Si02
#       7
#     4   4   4   2   4   4   4
#     4  11  25  43  68 100 139 180 220 280 341 407
#     4  12  25  41  67 102 140 177 223 275 340 408
#     4  11  28  48  70 100 141 184 234 285 342 414
#     4  10  24  42  70  98 138 178 230 284 344 410
#     4  11  25  46  69  96 133 179 230 277 340 406
#     4  11  24  45  69 103 138 180 232 283 349 409
#     4  11  25  46  71  99 137 181 224 283 344 403
#
# _framework density 20.444358999999999
#
# number of rings (size 3 to 8) (size 9 to 14) (size 15 to 20)
#    0.000    0.923    3.077    2.308    8.615    1.846 
#    0.000    0.000    0.000    0.000    0.000    0.000 
#    0.000    0.000    0.000    0.000    0.000    0.000 
#
# Total GULP energy -144920.281079 kJ/mol
# GULP energy per Si atom -5573.856965 kJ/mol
# Density = 2.039783 g / cm^3
# Si number density = 20.444359 Si / 1000 Ang^3
#
#
#
# Elastic Constant Matrix: (Units=GPa)
#
#
# Indices 1 2 3 4 5 6 
#
# 1 55.9393 41.6375 16.9564 0.0000 9.4686 0.0000
# 2 41.6375 184.0489 64.7373 0.0000 26.4768 0.0000
# 3 16.9564 64.7373 117.6265 0.0000 27.4030 0.0000
# 4 0.0000 0.0000 0.0000 -48.0003 0.0000 -28.8191
# 5 9.4686 26.4768 27.4030 0.0000 37.8627 0.0000
# 6 0.0000 0.0000 0.0000 -28.8191 0.0000 3.8836
#
#
#
# Elastic Compliance Matrix: (Units=1/GPa)
#
#
# Indices 1 2 3 4 5 6 
#
# 1 0.021663 -0.004550 -0.000118 0.000000 -0.002150 0.000000
# 2 -0.004550 0.007886 -0.003205 0.000000 -0.002057 0.000000
# 3 -0.000118 -0.003205 0.011731 0.000000 -0.006220 0.000000
# 4 0.000000 0.000000 0.000000 -0.003819 0.000000 -0.028339
# 5 -0.002150 -0.002057 -0.006220 0.000000 0.032889 0.000000
# 6 0.000000 0.000000 0.000000 -0.028339 0.000000 0.047200
#
#
# Mechanical properties :
#
#
# Convention : Reuss Voigt Hill
#
# Bulk Modulus (GPa) = 39.16210 67.14188 53.15199
# Shear Modulus (GPa) = 35.25906 14.36811 24.81359
#
# Velocity S-wave (km/s) = 4.15738 2.65390 3.48762
# Velocity P-wave (km/s) = 6.49939 6.50411 6.50175
#
# Compressibility (1/GPa) = 0.02553489
#
# Stress axis : x y z
#
# Youngs Moduli (GPa) = 46.16177 126.80778 85.24142
#
# Poissons Ratio (x) = 0.57699 0.01003
# Poissons Ratio (y) = 0.21004 0.27320
# Poissons Ratio (z) = 0.00543 0.40642
#
# Static dielectric constant tensor:
#      x y z
#    x 1.757270 0.000000 -0.019870 
#    y 0.000000 1.699850 0.000000 
#    z -0.019870 0.000000 1.673420 
# 
# From -- ./inp_files/44050.got.cif
#   From: 2010.05.17/outbox.cif.g08.bks.cpg/sg11_23_cif.got.tgz:44050.got - 2010.06.03 12:22:45.
