data_PCOD9166853
_publ_section_title
;
Structure prediction by ZEFSAII (Michael W. Deem and Ramdas Pophale) SiO2 
 PCOD9166853
Probable space group: P 21/M
;
_chemical_formula_sum "Si O2"
_cell_formula_units_Z 28
_cell_length_a 14.072179
_cell_length_b 17.652604
_cell_length_c 9.645083
_cell_angle_alpha 90.000000
_cell_angle_beta 29.114240
_cell_angle_gamma 90.000000
_cell_volume 1165.751096
_symmetry_space_group_name_H-M "P 21/M"
_symmetry_group_IT_number 11
_symmetry_cell_setting 'monoclinic'
loop_
_space_group_symop_operation_xyz
x,y,z
-x,1/2+y,-z
-x,-y,-z
x,1/2-y,z
loop_
_atom_site_type_symbol
_atom_site_label
_atom_site_fract_x
_atom_site_fract_y
_atom_site_fract_z
Si Si1 0.972661 0.048573 0.230356
Si Si2 0.963478 0.660115 0.599043
Si Si3 0.991923 0.130341 0.770001
Si Si4 0.705281 0.132931 0.384798
Si Si5 0.467626 0.165145 0.936271
Si Si6 0.601511 0.921517 0.411050
Si Si7 0.561117 0.663502 0.736658
O O1 0.957980 0.103289 0.383187
O O2 0.800823 0.058176 0.335155
O O3 0.168726 0.076081 0.902381
O O4 0.997251 0.961284 0.240005
O O5 0.970915 0.750000 0.630328
O O6 0.058444 0.653370 0.323966
O O7 0.735889 0.634053 0.864396
O O8 0.205677 0.161913 0.532651
O O9 0.851037 0.155528 0.075767
O O10 0.644441 0.171777 0.605087
O O11 0.497406 0.132791 0.574748
O O12 0.410395 0.250000 0.050413
O O13 0.525929 0.130720 0.009448
O O14 0.531020 0.892358 0.648202
O O15 0.500000 0.000000 0.500000
O O16 0.498974 0.750000 0.783681
#
# Coordination Sequence:
#
# PCOD9166853 Si02
#       7
#     4   4   4   4   4   4   4
#     4  12  24  44  70 102 142 180 229 285 349 408
#     4  10  23  45  68  97 140 183 228 289 348 406
#     4  11  22  43  71 103 135 180 233 281 341 414
#     4  12  24  40  68 103 134 177 231 284 332 413
#     4   9  21  42  66  97 136 181 231 278 343 414
#     4  12  24  44  71 100 142 180 230 285 344 406
#     4  10  23  46  71 100 144 186 225 286 348 403
#
# _framework density 24.018847999999998
#
# number of rings (size 3 to 8) (size 9 to 14) (size 15 to 20)
#    0.000    1.143    4.286    3.000    0.000    4.000 
#    2.571    3.571    0.000    0.000    0.000    0.000 
#    0.000    0.000    0.000    0.000    0.000    0.000 
#
# Total GULP energy -156264.364359 kJ/mol
# GULP energy per Si atom -5580.870156 kJ/mol
# Density = 2.396418 g / cm^3
# Si number density = 24.018848 Si / 1000 Ang^3
#
#
#
# Elastic Constant Matrix: (Units=GPa)
#
#
# Indices 1 2 3 4 5 6 
#
# 1 117.9467 36.1727 36.8988 0.0000 33.8786 0.0000
# 2 36.1727 82.7965 42.0729 0.0000 15.7031 0.0000
# 3 36.8988 42.0729 161.3686 0.0000 45.8430 0.0000
# 4 0.0000 0.0000 0.0000 25.7618 0.0000 17.3760
# 5 33.8786 15.7031 45.8430 0.0000 51.3292 0.0000
# 6 0.0000 0.0000 0.0000 17.3760 0.0000 87.9042
#
#
#
# Elastic Compliance Matrix: (Units=1/GPa)
#
#
# Indices 1 2 3 4 5 6 
#
# 1 0.011497 -0.003903 0.000275 0.000000 -0.006640 0.000000
# 2 -0.003903 0.015319 -0.003353 0.000000 0.000884 0.000000
# 3 0.000275 -0.003353 0.009070 0.000000 -0.007256 0.000000
# 4 0.000000 0.000000 0.000000 0.044789 0.000000 -0.008853
# 5 -0.006640 0.000884 -0.007256 0.000000 0.030074 0.000000
# 6 0.000000 0.000000 0.000000 -0.008853 0.000000 0.013126
#
#
# Mechanical properties :
#
#
# Convention : Reuss Voigt Hill
#
# Bulk Modulus (GPa) = 45.61303 65.82227 55.71765
# Shear Modulus (GPa) = 34.44857 49.46352 41.95604
#
# Velocity S-wave (km/s) = 3.79123 4.54294 4.18400
# Velocity P-wave (km/s) = 6.18032 7.41496 6.82561
#
# Compressibility (1/GPa) = 0.02192356
#
# Stress axis : x y z
#
# Youngs Moduli (GPa) = 86.98267 65.27813 110.25846
#
# Poissons Ratio (x) = 0.25479 -0.03033
# Poissons Ratio (y) = 0.33951 0.36966
# Poissons Ratio (z) = -0.02393 0.21886
#
# Static dielectric constant tensor:
#      x y z
#    x 2.049700 0.000000 -0.026450 
#    y 0.000000 1.965710 0.000000 
#    z -0.026450 0.000000 1.947130 
# 
# From -- ./inp_files/23168.got.cif
#   From: 2010.05.17/outbox.cif.g08.bks.cpg/sg11_12_cif.got.tgz:23168.got - 2010.06.03 12:22:45.
