data_PCOD9166064
_publ_section_title
;
Structure prediction by ZEFSAII (Michael W. Deem and Ramdas Pophale) SiO2 
 PCOD9166064
Probable space group: P 21/M
;
_chemical_formula_sum "Si O2"
_cell_formula_units_Z 24
_cell_length_a 15.312267
_cell_length_b 13.801668
_cell_length_c 11.633627
_cell_angle_alpha 90.000000
_cell_angle_beta 27.184595
_cell_angle_gamma 90.000000
_cell_volume 1123.228658
_symmetry_space_group_name_H-M "P 21/M"
_symmetry_group_IT_number 11
_symmetry_cell_setting 'monoclinic'
loop_
_space_group_symop_operation_xyz
x,y,z
-x,1/2+y,-z
-x,-y,-z
x,1/2-y,z
loop_
_atom_site_type_symbol
_atom_site_label
_atom_site_fract_x
_atom_site_fract_y
_atom_site_fract_z
Si Si1 0.330516 0.363582 0.188509
Si Si2 0.029996 0.948999 0.261116
Si Si3 0.962867 0.362227 0.999968
Si Si4 0.446182 0.935184 0.453980
Si Si5 0.434688 0.536784 0.896349
Si Si6 0.864817 0.861303 0.961418
O O1 0.326480 0.250000 0.162499
O O2 0.476478 0.385167 0.122189
O O3 0.127489 0.401801 0.473733
O O4 0.391108 0.438290 0.018154
O O5 0.025905 0.065858 0.251948
O O6 0.011452 0.910700 0.153250
O O7 0.240636 0.927585 0.063732
O O8 0.005633 0.250000 0.933023
O O9 0.744281 0.376905 0.296368
O O10 0.090608 0.393995 0.959274
O O11 0.422295 0.004908 0.372210
O O12 0.500000 0.000000 0.500000
O O13 0.638025 0.872902 0.207124
O O14 0.923679 0.750000 0.879821
#
# Coordination Sequence:
#
# PCOD9166064 Si02
#       6
#     4   4   4   4   4   4
#     4  11  25  44  67  92 123 168 213 259 312 370
#     4  11  22  41  64  91 129 161 208 261 312 366
#     4  11  22  35  58  93 128 165 206 253 313 373
#     4  11  21  40  64  90 126 166 201 261 312 372
#     4  10  24  44  64  92 126 165 212 261 310 368
#     4  10  22  37  60  93 129 169 208 249 311 377
#
# _framework density 21.366976999999999
#
# number of rings (size 3 to 8) (size 9 to 14) (size 15 to 20)
#    0.000    1.333    3.333    3.000    2.333    4.667 
#    0.000    5.000    0.000    0.000    0.000    0.000 
#    0.000    0.000    0.000    0.000    0.000    0.000 
#
# Total GULP energy -134180.652887 kJ/mol
# GULP energy per Si atom -5590.860537 kJ/mol
# Density = 2.131834 g / cm^3
# Si number density = 21.366977 Si / 1000 Ang^3
#
#
#
# Elastic Constant Matrix: (Units=GPa)
#
#
# Indices 1 2 3 4 5 6 
#
# 1 63.1970 -18.2292 4.6722 0.0000 -7.7508 0.0000
# 2 -18.2292 56.2720 1.1783 0.0000 7.7415 0.0000
# 3 4.6722 1.1783 47.4498 0.0000 7.8992 0.0000
# 4 0.0000 0.0000 0.0000 28.5362 0.0000 -2.6943
# 5 -7.7508 7.7415 7.8992 0.0000 27.9502 0.0000
# 6 0.0000 0.0000 0.0000 -2.6943 0.0000 20.5557
#
#
#
# Elastic Compliance Matrix: (Units=1/GPa)
#
#
# Indices 1 2 3 4 5 6 
#
# 1 0.018078 0.005322 -0.002625 0.000000 0.004281 0.000000
# 2 0.005322 0.020049 -0.000360 0.000000 -0.003975 0.000000
# 3 -0.002625 -0.000360 0.022506 0.000000 -0.006989 0.000000
# 4 0.000000 0.000000 0.000000 0.035482 0.000000 0.004651
# 5 0.004281 -0.003975 -0.006989 0.000000 0.040041 0.000000
# 6 0.000000 0.000000 0.000000 0.004651 0.000000 0.049258
#
#
# Mechanical properties :
#
#
# Convention : Reuss Voigt Hill
#
# Bulk Modulus (GPa) = 15.31211 15.79568 15.55390
# Shear Modulus (GPa) = 24.69026 27.36160 26.02593
#
# Velocity S-wave (km/s) = 3.40300 3.58237 3.49384
# Velocity P-wave (km/s) = 4.75630 4.95174 4.85500
#
# Compressibility (1/GPa) = 0.06530778
#
# Stress axis : x y z
#
# Youngs Moduli (GPa) = 55.31628 49.87664 44.43315
#
# Poissons Ratio (x) = -0.26546 0.11663
# Poissons Ratio (y) = -0.29441 0.01600
# Poissons Ratio (z) = 0.14520 0.01796
#
# Static dielectric constant tensor:
#      x y z
#    x 1.790110 0.000000 -0.007220 
#    y 0.000000 1.771420 0.000000 
#    z -0.007220 0.000000 1.770790 
# 
# From -- ./inp_files/39550.got.cif
#   From: 2010.05.17/outbox.cif.g08.bks.cpg/sg11_20_cif.got.tgz:39550.got - 2010.06.03 12:22:45.
