data_PCOD9166216
_publ_section_title
;
Structure prediction by ZEFSAII (Michael W. Deem and Ramdas Pophale) SiO2 
 PCOD9166216
Probable space group: P 21/M
;
_chemical_formula_sum "Si O2"
_cell_formula_units_Z 24
_cell_length_a 5.633696
_cell_length_b 14.937704
_cell_length_c 12.626082
_cell_angle_alpha 90.000000
_cell_angle_beta 67.073573
_cell_angle_gamma 90.000000
_cell_volume 978.606829
_symmetry_space_group_name_H-M "P 21/M"
_symmetry_group_IT_number 11
_symmetry_cell_setting 'monoclinic'
loop_
_space_group_symop_operation_xyz
x,y,z
-x,1/2+y,-z
-x,-y,-z
x,1/2-y,z
loop_
_atom_site_type_symbol
_atom_site_label
_atom_site_fract_x
_atom_site_fract_y
_atom_site_fract_z
Si Si1 0.483676 0.250000 0.447767
Si Si2 0.769913 0.351826 0.664382
Si Si3 0.587410 0.900605 0.864712
Si Si4 0.263049 0.064922 0.563124
Si Si5 0.798212 0.403551 0.894158
Si Si6 0.717653 0.976574 0.218780
Si Si7 0.105695 0.250000 0.303666
O O1 0.397936 0.162237 0.528137
O O2 0.297046 0.250000 0.374551
O O3 0.794501 0.250000 0.373796
O O4 0.753992 0.250000 0.630464
O O5 0.836441 0.348883 0.779263
O O6 0.511682 0.408653 0.714100
O O7 0.984466 0.407777 0.561784
O O8 0.800136 0.835406 0.781540
O O9 0.695804 0.996420 0.884575
O O10 0.390873 0.932069 0.806592
O O11 0.408103 0.862992 0.989848
O O12 0.158037 0.016781 0.687952
O O13 0.500000 0.000000 0.500000
O O14 0.081508 0.425091 0.891382
#
# Coordination Sequence:
#
# PCOD9166216 Si02
#       7
#     2   4   4   4   4   4   2
#     4  12  30  50  69 104 141 186 242 294 350 418
#     4  10  22  39  61  99 134 170 231 290 346 418
#     4  10  22  44  66  98 137 181 227 285 350 422
#     4  11  25  42  68  93 133 182 231 289 351 408
#     4   9  21  41  69  96 134 177 229 283 351 417
#     4  10  22  39  68  95 130 176 230 289 343 419
#     4  12  30  46  71 100 147 184 232 290 348 428
#
# _framework density 24.524661999999999
#
# number of rings (size 3 to 8) (size 9 to 14) (size 15 to 20)
#    0.000    1.667    0.833    1.500   14.000    1.333 
#    0.000    0.000    0.000    0.000    0.000    0.000 
#    0.000    0.000    0.000    0.000    0.000    0.000 
#
# Total GULP energy -133735.331274 kJ/mol
# GULP energy per Si atom -5572.305470 kJ/mol
# Density = 2.446884 g / cm^3
# Si number density = 24.524662 Si / 1000 Ang^3
#
#
#
# Elastic Constant Matrix: (Units=GPa)
#
#
# Indices 1 2 3 4 5 6 
#
# 1 72.3006 6.8846 30.5852 0.0000 -30.1688 0.0000
# 2 6.8846 103.1594 25.4631 0.0000 -4.3055 0.0000
# 3 30.5852 25.4631 110.6600 0.0000 -31.9048 0.0000
# 4 0.0000 0.0000 0.0000 31.3083 0.0000 0.3804
# 5 -30.1688 -4.3055 -31.9048 0.0000 40.0721 0.0000
# 6 0.0000 0.0000 0.0000 0.3804 0.0000 16.5429
#
#
#
# Elastic Compliance Matrix: (Units=1/GPa)
#
#
# Indices 1 2 3 4 5 6 
#
# 1 0.020390 -0.000409 -0.001464 0.000000 0.014141 0.000000
# 2 -0.000409 0.010317 -0.002635 0.000000 -0.001297 0.000000
# 3 -0.001464 -0.002635 0.012523 0.000000 0.008585 0.000000
# 4 0.000000 0.000000 0.000000 0.031949 0.000000 -0.000735
# 5 0.014141 -0.001297 0.008585 0.000000 0.042297 0.000000
# 6 0.000000 0.000000 0.000000 -0.000735 0.000000 0.060466
#
#
# Mechanical properties :
#
#
# Convention : Reuss Voigt Hill
#
# Bulk Modulus (GPa) = 29.22832 45.77617 37.50224
# Shear Modulus (GPa) = 25.20616 32.46380 28.83498
#
# Velocity S-wave (km/s) = 3.20939 3.64224 3.43265
# Velocity P-wave (km/s) = 5.06729 6.03273 5.57096
#
# Compressibility (1/GPa) = 0.03421339
#
# Stress axis : x y z
#
# Youngs Moduli (GPa) = 49.04301 96.92457 79.85368
#
# Poissons Ratio (x) = 0.03965 0.11694
# Poissons Ratio (y) = 0.02006 0.21042
# Poissons Ratio (z) = 0.07182 0.25540
#
# Static dielectric constant tensor:
#      x y z
#    x 2.201040 0.000000 0.042710 
#    y 0.000000 1.993020 0.000000 
#    z 0.042710 0.000000 2.046230 
# 
# From -- ./inp_files/45717.got.cif
#   From: 2010.05.17/outbox.cif.g08.bks.cpg/sg11_23_cif.got.tgz:45717.got - 2010.06.03 12:22:45.
