data_PCOD9166263
_publ_section_title
;
Structure prediction by ZEFSAII (Michael W. Deem and Ramdas Pophale) SiO2 
 PCOD9166263
Probable space group: P 21/M
;
_chemical_formula_sum "Si O2"
_cell_formula_units_Z 24
_cell_length_a 15.091216
_cell_length_b 8.705501
_cell_length_c 9.611244
_cell_angle_alpha 90.000000
_cell_angle_beta 80.034693
_cell_angle_gamma 90.000000
_cell_volume 1243.641921
_symmetry_space_group_name_H-M "P 21/M"
_symmetry_group_IT_number 11
_symmetry_cell_setting 'monoclinic'
loop_
_space_group_symop_operation_xyz
x,y,z
-x,1/2+y,-z
-x,-y,-z
x,1/2-y,z
loop_
_atom_site_type_symbol
_atom_site_label
_atom_site_fract_x
_atom_site_fract_y
_atom_site_fract_z
Si Si1 0.081823 0.064866 0.069987
Si Si2 0.920369 0.066993 0.616753
Si Si3 0.571540 0.427102 0.584019
Si Si4 0.551460 0.925955 0.112948
Si Si5 0.745988 0.936909 0.161213
Si Si6 0.238580 0.433137 0.521760
O O1 0.077009 0.250000 0.074636
O O2 0.077967 0.001677 0.228045
O O3 0.174972 0.020556 0.966883
O O4 0.000000 0.000000 0.000000
O O5 0.928642 0.250000 0.623688
O O6 0.830243 0.018846 0.560062
O O7 0.000000 0.000000 0.500000
O O8 0.500000 0.500000 0.500000
O O9 0.592541 0.250000 0.541666
O O10 0.519806 0.428208 0.743283
O O11 0.661247 0.526640 0.554703
O O12 0.571179 0.750000 0.069587
O O13 0.647551 0.992762 0.137738
O O14 0.500000 0.000000 0.000000
O O15 0.742103 0.750000 0.167517
O O16 0.767751 0.983611 0.314259
O O17 0.222232 0.250000 0.519536
#
# Coordination Sequence:
#
# PCOD9166263 Si02
#       6
#     4   4   4   4   4   4
#     4  11  23  42  68  96 128 169 212 260 320 381
#     4  12  26  45  67  97 130 164 211 263 319 385
#     4  11  22  39  62  91 126 166 214 264 315 375
#     4  10  22  40  59  87 123 164 211 261 310 368
#     4   9  20  40  63  88 122 164 208 255 313 375
#     4  11  22  41  67  94 127 167 210 263 320 378
#
# _framework density 19.298159999999999
#
# number of rings (size 3 to 8) (size 9 to 14) (size 15 to 20)
#    0.000    1.333    1.667    4.000    2.333    2.667 
#    0.000    3.333    0.000    0.000    0.000    0.000 
#    0.000    0.000    0.000    0.000    0.000    0.000 
#
# Total GULP energy -134087.353290 kJ/mol
# GULP energy per Si atom -5586.973054 kJ/mol
# Density = 1.925424 g / cm^3
# Si number density = 19.298160 Si / 1000 Ang^3
#
#
#
# Elastic Constant Matrix: (Units=GPa)
#
#
# Indices 1 2 3 4 5 6 
#
# 1 136.0452 27.6199 87.4238 0.0000 5.9125 0.0000
# 2 27.6199 80.7139 57.5108 0.0000 5.1920 0.0000
# 3 87.4238 57.5108 146.1053 0.0000 20.3751 0.0000
# 4 0.0000 0.0000 0.0000 33.1643 0.0000 3.8496
# 5 5.9125 5.1920 20.3751 0.0000 39.0499 0.0000
# 6 0.0000 0.0000 0.0000 3.8496 0.0000 35.8318
#
#
#
# Elastic Compliance Matrix: (Units=1/GPa)
#
#
# Indices 1 2 3 4 5 6 
#
# 1 0.012236 0.001540 -0.008240 0.000000 0.002242 0.000000
# 2 0.001540 0.017478 -0.008029 0.000000 0.001632 0.000000
# 3 -0.008240 -0.008029 0.015759 0.000000 -0.005908 0.000000
# 4 0.000000 0.000000 0.000000 0.030534 0.000000 -0.003280
# 5 0.002242 0.001632 -0.005908 0.000000 0.028134 0.000000
# 6 0.000000 0.000000 0.000000 -0.003280 0.000000 0.028261
#
#
# Mechanical properties :
#
#
# Convention : Reuss Voigt Hill
#
# Bulk Modulus (GPa) = 62.44180 78.66371 70.55275
# Shear Modulus (GPa) = 29.90454 34.29652 32.10053
#
# Velocity S-wave (km/s) = 3.94077 4.22025 4.08290
# Velocity P-wave (km/s) = 7.28923 8.03729 7.67238
#
# Compressibility (1/GPa) = 0.01601491
#
# Stress axis : x y z
#
# Youngs Moduli (GPa) = 81.72842 57.21353 63.45422
#
# Poissons Ratio (x) = -0.08812 0.52288
# Poissons Ratio (y) = -0.12588 0.50949
# Poissons Ratio (z) = 0.67347 0.45938
#
# Static dielectric constant tensor:
#      x y z
#    x 1.586800 0.000000 -0.069790 
#    y 0.000000 1.680060 0.000000 
#    z -0.069790 0.000000 1.573100 
# 
# From -- ./inp_files/20393.got.cif
#   From: 2010.05.17/outbox.cif.g08.bks.cpg/sg11_11_cif.got.tgz:20393.got - 2010.06.03 12:22:45.
