data_PCOD9166014
_publ_section_title
;
Structure prediction by ZEFSAII (Michael W. Deem and Ramdas Pophale) SiO2 
 PCOD9166014
Probable space group: P 21/M
;
_chemical_formula_sum "Si O2"
_cell_formula_units_Z 26
_cell_length_a 5.210040
_cell_length_b 19.546578
_cell_length_c 11.982472
_cell_angle_alpha 90.000000
_cell_angle_beta 62.297760
_cell_angle_gamma 90.000000
_cell_volume 1080.402782
_symmetry_space_group_name_H-M "P 21/M"
_symmetry_group_IT_number 11
_symmetry_cell_setting 'monoclinic'
loop_
_space_group_symop_operation_xyz
x,y,z
-x,1/2+y,-z
-x,-y,-z
x,1/2-y,z
loop_
_atom_site_type_symbol
_atom_site_label
_atom_site_fract_x
_atom_site_fract_y
_atom_site_fract_z
Si Si1 0.217063 0.621296 0.735112
Si Si2 0.073639 0.993741 0.615110
Si Si3 0.368025 0.128435 0.629680
Si Si4 0.327638 0.109485 0.003852
Si Si5 0.497621 0.250000 0.423663
Si Si6 0.468658 0.514050 0.847812
Si Si7 0.261953 0.672404 0.242903
O O1 0.129763 0.586260 0.634786
O O2 0.401544 0.689006 0.684132
O O3 0.371111 0.557266 0.762144
O O4 0.941287 0.634747 0.869941
O O5 0.312975 0.052083 0.593551
O O6 0.000000 0.000000 0.500000
O O7 0.796482 0.008639 0.752452
O O8 0.423589 0.188547 0.529116
O O9 0.613369 0.132362 0.674510
O O10 0.048282 0.148439 0.738858
O O11 0.523185 0.067633 0.052434
O O12 0.506162 0.165601 0.902295
O O13 0.272186 0.049985 0.922589
O O14 0.235311 0.750000 0.287412
#
# Coordination Sequence:
#
# PCOD9166014 Si02
#       7
#     4   4   4   4   2   4   4
#     4  11  26  46  70 108 151 203 241 316 383 459
#     4  11  25  43  75 109 144 196 263 311 372 445
#     4  12  27  49  76 109 147 198 251 317 370 442
#     4  10  23  41  74 106 147 187 253 305 381 443
#     4  12  28  50  68 102 156 198 248 302 394 454
#     4  10  21  45  70 109 140 193 244 319 377 437
#     4  12  25  47  76 110 146 199 252 311 374 443
#
# _framework density 24.065100000000001
#
# number of rings (size 3 to 8) (size 9 to 14) (size 15 to 20)
#    0.000    0.923    3.077    2.308    5.385    1.231 
#    6.923    0.000    0.000    0.000    0.000    0.000 
#    0.000    0.000    0.000    0.000    0.000    0.000 
#
# Total GULP energy -144884.043812 kJ/mol
# GULP energy per Si atom -5572.463224 kJ/mol
# Density = 2.401033 g / cm^3
# Si number density = 24.065100 Si / 1000 Ang^3
#
#
#
# Elastic Constant Matrix: (Units=GPa)
#
#
# Indices 1 2 3 4 5 6 
#
# 1 40.5764 11.6566 1.0316 0.0000 6.3987 0.0000
# 2 11.6566 103.3686 18.5423 0.0000 17.3548 0.0000
# 3 1.0316 18.5423 101.0246 0.0000 -0.1342 0.0000
# 4 0.0000 0.0000 0.0000 65.7775 0.0000 -10.0984
# 5 6.3987 17.3548 -0.1342 0.0000 31.5083 0.0000
# 6 0.0000 0.0000 0.0000 -10.0984 0.0000 16.2487
#
#
#
# Elastic Compliance Matrix: (Units=1/GPa)
#
#
# Indices 1 2 3 4 5 6 
#
# 1 0.025928 -0.002277 0.000148 0.000000 -0.004011 0.000000
# 2 -0.002277 0.011264 -0.002052 0.000000 -0.005751 0.000000
# 3 0.000148 -0.002052 0.010275 0.000000 0.001144 0.000000
# 4 0.000000 0.000000 0.000000 0.016806 0.000000 0.010445
# 5 -0.004011 -0.005751 0.001144 0.000000 0.035725 0.000000
# 6 0.000000 0.000000 0.000000 0.010445 0.000000 0.068035
#
#
# Mechanical properties :
#
#
# Convention : Reuss Voigt Hill
#
# Bulk Modulus (GPa) = 25.57197 34.15893 29.86545
# Shear Modulus (GPa) = 26.39492 36.95617 31.67554
#
# Velocity S-wave (km/s) = 3.31541 3.92302 3.63194
# Velocity P-wave (km/s) = 5.03042 5.89452 5.47953
#
# Compressibility (1/GPa) = 0.03910532
#
# Stress axis : x y z
#
# Youngs Moduli (GPa) = 38.56882 88.77470 97.32176
#
# Poissons Ratio (x) = 0.20214 -0.01439
# Poissons Ratio (y) = 0.08782 0.19969
# Poissons Ratio (z) = -0.00570 0.18216
#
# Static dielectric constant tensor:
#      x y z
#    x 2.006680 0.000000 -0.013960 
#    y 0.000000 1.875770 0.000000 
#    z -0.013960 0.000000 1.943950 
# 
# From -- ./inp_files/5002.got.cif
#   From: 2010.05.17/outbox.cif.g08.bks.cpg/sg11_3_cif.got.tgz:5002.got - 2010.06.03 12:22:45.
