data_PCOD9166310
_publ_section_title
;
Structure prediction by ZEFSAII (Michael W. Deem and Ramdas Pophale) SiO2 
 PCOD9166310
Probable space group: P 21/M
;
_chemical_formula_sum "Si O2"
_cell_formula_units_Z 28
_cell_length_a 5.467138
_cell_length_b 26.331107
_cell_length_c 9.334103
_cell_angle_alpha 90.000000
_cell_angle_beta 66.398315
_cell_angle_gamma 90.000000
_cell_volume 1231.299151
_symmetry_space_group_name_H-M "P 21/M"
_symmetry_group_IT_number 11
_symmetry_cell_setting 'monoclinic'
loop_
_space_group_symop_operation_xyz
x,y,z
-x,1/2+y,-z
-x,-y,-z
x,1/2-y,z
loop_
_atom_site_type_symbol
_atom_site_label
_atom_site_fract_x
_atom_site_fract_y
_atom_site_fract_z
Si Si1 0.166394 0.192327 0.246629
Si Si2 0.463726 0.602452 0.795151
Si Si3 0.655810 0.309829 0.557782
Si Si4 0.491815 0.446452 0.915085
Si Si5 0.059947 0.366349 0.007845
Si Si6 0.314858 0.001866 0.400967
Si Si7 0.955358 0.811957 0.282554
O O1 0.250864 0.250000 0.255804
O O2 0.360810 0.151775 0.272929
O O3 0.192697 0.177667 0.073901
O O4 0.867013 0.187295 0.378806
O O5 0.600889 0.554880 0.691197
O O6 0.159357 0.612241 0.828948
O O7 0.425669 0.590663 0.974341
O O8 0.619182 0.250000 0.593755
O O9 0.352402 0.328921 0.612023
O O10 0.825361 0.330207 0.653517
O O11 0.630530 0.458818 0.732317
O O12 0.500000 0.500000 0.000000
O O13 0.222236 0.417254 0.932384
O O14 0.979253 0.336210 0.885407
O O15 0.500000 0.000000 0.500000
O O16 0.000000 0.000000 0.500000
O O17 0.963254 0.750000 0.278722
#
# Coordination Sequence:
#
# PCOD9166310 Si02
#       7
#     4   4   4   4   4   4   4
#     4  10  23  42  65  97 140 187 233 286 345 411
#     4  10  25  44  68  99 139 183 232 284 351 429
#     4   9  21  40  61  87 128 175 219 274 334 388
#     4   9  23  45  67  91 134 173 216 275 350 408
#     4  11  24  40  67  98 130 180 230 283 336 421
#     4  11  27  46  75 106 138 179 232 299 358 426
#     4  10  22  40  62  92 130 173 222 274 332 399
#
# _framework density 22.740206000000001
#
# number of rings (size 3 to 8) (size 9 to 14) (size 15 to 20)
#    0.000    2.000    0.000    0.429   14.000    4.571 
#    0.000    0.000    0.000    0.000    0.000    0.000 
#    0.000    0.000    0.000    0.000    0.000    0.000 
#
# Total GULP energy -156014.290838 kJ/mol
# GULP energy per Si atom -5571.938959 kJ/mol
# Density = 2.268845 g / cm^3
# Si number density = 22.740206 Si / 1000 Ang^3
#
#
#
# Elastic Constant Matrix: (Units=GPa)
#
#
# Indices 1 2 3 4 5 6 
#
# 1 87.7415 35.4437 55.0102 0.0000 -7.0520 0.0000
# 2 35.4437 108.9229 47.9806 0.0000 -15.2837 0.0000
# 3 55.0102 47.9806 108.7878 0.0000 7.9491 0.0000
# 4 0.0000 0.0000 0.0000 41.1932 0.0000 -7.4114
# 5 -7.0520 -15.2837 7.9491 0.0000 42.4130 0.0000
# 6 0.0000 0.0000 0.0000 -7.4114 0.0000 21.7751
#
#
#
# Elastic Compliance Matrix: (Units=1/GPa)
#
#
# Indices 1 2 3 4 5 6 
#
# 1 0.017696 -0.001385 -0.008634 0.000000 0.004062 0.000000
# 2 -0.001385 0.012715 -0.005298 0.000000 0.005345 0.000000
# 3 -0.008634 -0.005298 0.016364 0.000000 -0.006412 0.000000
# 4 0.000000 0.000000 0.000000 0.025859 0.000000 0.008802
# 5 0.004062 0.005345 -0.006412 0.000000 0.027381 0.000000
# 6 0.000000 0.000000 0.000000 0.008802 0.000000 0.048920
#
#
# Mechanical properties :
#
#
# Convention : Reuss Voigt Hill
#
# Bulk Modulus (GPa) = 61.95782 64.70234 63.33008
# Shear Modulus (GPa) = 27.03426 32.21078 29.62252
#
# Velocity S-wave (km/s) = 3.45168 3.76768 3.61314
# Velocity P-wave (km/s) = 6.57195 6.88780 6.73173
#
# Compressibility (1/GPa) = 0.01614001
#
# Stress axis : x y z
#
# Youngs Moduli (GPa) = 56.50849 78.64521 61.11136
#
# Poissons Ratio (x) = 0.10893 0.52766
# Poissons Ratio (y) = 0.07827 0.32378
# Poissons Ratio (z) = 0.48791 0.41668
#
# Static dielectric constant tensor:
#      x y z
#    x 2.177340 0.000000 0.037990 
#    y 0.000000 1.830220 0.000000 
#    z 0.037990 0.000000 1.899370 
# 
# From -- ./inp_files/10791.got.cif
#   From: 2010.05.17/outbox.cif.g08.bks.cpg/sg11_6_cif.got.tgz:10791.got - 2010.06.03 12:22:45.
