data_PCOD9166531
_publ_section_title
;
Structure prediction by ZEFSAII (Michael W. Deem and Ramdas Pophale) SiO2 
 PCOD9166531
Probable space group: P 21/M
;
_chemical_formula_sum "Si O2"
_cell_formula_units_Z 20
_cell_length_a 24.734231
_cell_length_b 8.371634
_cell_length_c 9.304713
_cell_angle_alpha 90.000000
_cell_angle_beta 31.344885
_cell_angle_gamma 90.000000
_cell_volume 1002.241152
_symmetry_space_group_name_H-M "P 21/M"
_symmetry_group_IT_number 11
_symmetry_cell_setting 'monoclinic'
loop_
_space_group_symop_operation_xyz
x,y,z
-x,1/2+y,-z
-x,-y,-z
x,1/2-y,z
loop_
_atom_site_type_symbol
_atom_site_label
_atom_site_fract_x
_atom_site_fract_y
_atom_site_fract_z
Si Si1 0.100722 0.935212 0.688652
Si Si2 0.175167 0.750000 0.930381
Si Si3 0.323800 0.510775 0.141567
Si Si4 0.039732 0.436608 0.258534
Si Si5 0.696173 0.250000 0.075249
Si Si6 0.505776 0.750000 0.261222
Si Si7 0.624732 0.250000 0.725990
O O1 0.123786 0.750000 0.677594
O O2 0.206828 0.035605 0.458028
O O3 0.058718 0.933716 0.622530
O O4 0.000000 0.000000 0.000000
O O5 0.213302 0.750000 0.010641
O O6 0.274249 0.750000 0.603369
O O7 0.115559 0.581916 0.037462
O O8 0.369298 0.605123 0.175499
O O9 0.302029 0.606266 0.043313
O O10 0.416024 0.394492 0.892861
O O11 0.079242 0.250000 0.174094
O O12 0.000000 0.500000 0.500000
O O13 0.590827 0.250000 0.409942
O O14 0.466410 0.750000 0.184799
#
# Coordination Sequence:
#
# PCOD9166531 Si02
#       7
#     4   2   4   4   2   2   2
#     4  11  24  40  63  93 128 167 211 258 316 386
#     4  11  22  43  64  89 134 173 208 267 330 368
#     4  11  22  42  66  92 128 166 208 265 322 379
#     4  11  23  38  62  93 127 170 220 261 314 386
#     4  10  22  44  67  87 130 167 211 260 331 379
#     4  11  24  39  67  99 118 163 217 267 317 392
#     4  10  22  42  66  85 128 169 202 262 330 381
#
# _framework density 19.955278
#
# number of rings (size 3 to 8) (size 9 to 14) (size 15 to 20)
#    0.000    1.200    3.000    3.600    2.800    0.000 
#    7.200    0.000    8.800    0.000    0.000    0.000 
#    0.000    0.000    0.000    0.000    0.000    0.000 
#
# Total GULP energy -111429.274313 kJ/mol
# GULP energy per Si atom -5571.463716 kJ/mol
# Density = 1.990986 g / cm^3
# Si number density = 19.955278 Si / 1000 Ang^3
#
#
#
# Elastic Constant Matrix: (Units=GPa)
#
#
# Indices 1 2 3 4 5 6 
#
# 1 119.1476 26.6847 13.5017 0.0000 -4.0452 0.0000
# 2 26.6847 93.5849 27.0464 0.0000 -15.1454 0.0000
# 3 13.5017 27.0464 100.5583 0.0000 -12.4015 0.0000
# 4 0.0000 0.0000 0.0000 2.2807 0.0000 -28.3158
# 5 -4.0452 -15.1454 -12.4015 0.0000 40.2000 0.0000
# 6 0.0000 0.0000 0.0000 -28.3158 0.0000 59.4292
#
#
#
# Elastic Compliance Matrix: (Units=1/GPa)
#
#
# Indices 1 2 3 4 5 6 
#
# 1 0.008996 -0.002429 -0.000578 0.000000 -0.000188 0.000000
# 2 -0.002429 0.012747 -0.002641 0.000000 0.003743 0.000000
# 3 -0.000578 -0.002641 0.011022 0.000000 0.002347 0.000000
# 4 0.000000 0.000000 0.000000 -0.089200 0.000000 -0.042501
# 5 -0.000188 0.003743 0.002347 0.000000 0.026991 0.000000
# 6 0.000000 0.000000 0.000000 -0.042501 0.000000 -0.003423
#
#
# Mechanical properties :
#
#
# Convention : Reuss Voigt Hill
#
# Bulk Modulus (GPa) = 46.57556 49.75071 48.16314
# Shear Modulus (GPa) = -346.82223 36.78584 -155.01819
#
# Velocity S-wave (km/s) = -13.19762 4.29816 -8.82335
# Velocity P-wave (km/s) = 14.45149 7.04396 8.92267
#
# Compressibility (1/GPa) = 0.02147049
#
# Stress axis : x y z
#
# Youngs Moduli (GPa) = 111.16116 78.45013 90.72938
#
# Poissons Ratio (x) = 0.19052 0.05243
# Poissons Ratio (y) = 0.26996 0.23959
# Poissons Ratio (z) = 0.06424 0.20716
#
# Static dielectric constant tensor:
#      x y z
#    x 1.732640 0.000000 0.012200 
#    y 0.000000 2.117360 0.000000 
#    z 0.012200 0.000000 1.710220 
# 
# From -- ./inp_files/26029.got.cif
#   From: 2010.05.17/outbox.cif.g08.bks.cpg/sg11_14_cif.got.tgz:26029.got - 2010.06.03 12:22:45.
