data_PCOD9166107
_publ_section_title
;
Structure prediction by ZEFSAII (Michael W. Deem and Ramdas Pophale) SiO2 
 PCOD9166107
Probable space group: P 21/M
;
_chemical_formula_sum "Si O2"
_cell_formula_units_Z 28
_cell_length_a 11.745025
_cell_length_b 19.773726
_cell_length_c 17.710735
_cell_angle_alpha 90.000000
_cell_angle_beta 159.918437
_cell_angle_gamma 90.000000
_cell_volume 1412.295472
_symmetry_space_group_name_H-M "P 21/M"
_symmetry_group_IT_number 11
_symmetry_cell_setting 'monoclinic'
loop_
_space_group_symop_operation_xyz
x,y,z
-x,1/2+y,-z
-x,-y,-z
x,1/2-y,z
loop_
_atom_site_type_symbol
_atom_site_label
_atom_site_fract_x
_atom_site_fract_y
_atom_site_fract_z
Si Si1 0.088760 0.170718 0.269877
Si Si2 0.874463 0.930773 0.959713
Si Si3 0.093774 0.111969 0.433738
Si Si4 0.778177 0.330459 0.923022
Si Si5 0.864186 0.532323 0.241808
Si Si6 0.873568 0.427781 0.450448
Si Si7 0.304929 0.928902 0.377400
O O1 0.163060 0.250000 0.312939
O O2 0.989189 0.151811 0.293345
O O3 0.413426 0.128330 0.448285
O O4 0.814558 0.156079 0.034979
O O5 0.923964 0.869166 0.932828
O O6 0.099574 0.920720 0.173124
O O7 0.496926 0.933689 0.750419
O O8 0.000000 0.000000 0.000000
O O9 0.454108 0.136651 0.684187
O O10 0.888645 0.117604 0.384251
O O11 0.081682 0.034166 0.398689
O O12 0.780429 0.250000 0.912062
O O13 0.890629 0.582814 0.329841
O O14 0.039579 0.567290 0.280047
O O15 0.500000 0.500000 0.000000
O O16 0.000000 0.500000 0.500000
O O17 0.500000 0.000000 0.500000
#
# Coordination Sequence:
#
# PCOD9166107 Si02
#       7
#     4   4   4   4   4   4   4
#     4  11  24  41  67  97 130 172 225 277 329 397
#     4  12  23  39  65  96 133 167 216 274 331 392
#     4  11  22  41  64  91 135 173 214 266 329 401
#     4  11  24  43  68  94 127 173 228 277 329 397
#     4  11  23  38  62  98 137 168 214 274 334 396
#     4  10  22  38  58  94 130 167 208 262 326 391
#     4  12  21  37  64  97 127 168 217 272 326 388
#
# _framework density 19.825880999999999
#
# number of rings (size 3 to 8) (size 9 to 14) (size 15 to 20)
#    0.000    0.857    2.857    6.429    2.000    0.000 
#    0.000    1.429    0.000    6.857    0.000    0.000 
#    0.000    0.000    0.000    0.000    0.000    0.000 
#
# Total GULP energy -156303.091298 kJ/mol
# GULP energy per Si atom -5582.253261 kJ/mol
# Density = 1.978076 g / cm^3
# Si number density = 19.825881 Si / 1000 Ang^3
#
#
#
# Elastic Constant Matrix: (Units=GPa)
#
#
# Indices 1 2 3 4 5 6 
#
# 1 175.1249 44.5384 58.8332 0.0000 -11.1650 0.0000
# 2 44.5384 75.5645 39.5716 0.0000 -5.8669 0.0000
# 3 58.8332 39.5716 94.4733 0.0000 -11.1537 0.0000
# 4 0.0000 0.0000 0.0000 24.2793 0.0000 -7.2985
# 5 -11.1650 -5.8669 -11.1537 0.0000 50.8425 0.0000
# 6 0.0000 0.0000 0.0000 -7.2985 0.0000 27.8126
#
#
#
# Elastic Compliance Matrix: (Units=1/GPa)
#
#
# Indices 1 2 3 4 5 6 
#
# 1 0.007606 -0.002553 -0.003598 0.000000 0.000586 0.000000
# 2 -0.002553 0.017818 -0.005848 0.000000 0.000212 0.000000
# 3 -0.003598 -0.005848 0.015504 0.000000 0.001936 0.000000
# 4 0.000000 0.000000 0.000000 0.044715 0.000000 0.011734
# 5 0.000586 0.000212 0.001936 0.000000 0.020247 0.000000
# 6 0.000000 0.000000 0.000000 0.011734 0.000000 0.039034
#
#
# Mechanical properties :
#
#
# Convention : Reuss Voigt Hill
#
# Bulk Modulus (GPa) = 59.07089 70.11655 64.59372
# Shear Modulus (GPa) = 28.64295 34.06820 31.35558
#
# Velocity S-wave (km/s) = 3.80508 4.14982 3.98118
# Velocity P-wave (km/s) = 7.01173 7.64227 7.33378
#
# Compressibility (1/GPa) = 0.01692881
#
# Stress axis : x y z
#
# Youngs Moduli (GPa) = 131.48239 56.12419 64.50113
#
# Poissons Ratio (x) = 0.14330 0.23205
# Poissons Ratio (y) = 0.33571 0.37721
# Poissons Ratio (z) = 0.47303 0.32822
#
# Static dielectric constant tensor:
#      x y z
#    x 1.763330 0.000000 -0.038420 
#    y 0.000000 1.664890 0.000000 
#    z -0.038420 0.000000 1.705770 
# 
# From -- ./inp_files/59720.got.cif
#   From: 2010.05.17/outbox.cif.g08.bks.cpg/sg11_30_cif.got.tgz:59720.got - 2010.06.03 12:22:45.
