data_PCOD9166154
_publ_section_title
;
Structure prediction by ZEFSAII (Michael W. Deem and Ramdas Pophale) SiO2 
 PCOD9166154
Probable space group: P 21/M
;
_chemical_formula_sum "Si O2"
_cell_formula_units_Z 28
_cell_length_a 7.245961
_cell_length_b 14.765760
_cell_length_c 12.052077
_cell_angle_alpha 90.000000
_cell_angle_beta 105.271700
_cell_angle_gamma 90.000000
_cell_volume 1243.942790
_symmetry_space_group_name_H-M "P 21/M"
_symmetry_group_IT_number 11
_symmetry_cell_setting 'monoclinic'
loop_
_space_group_symop_operation_xyz
x,y,z
-x,1/2+y,-z
-x,-y,-z
x,1/2-y,z
loop_
_atom_site_type_symbol
_atom_site_label
_atom_site_fract_x
_atom_site_fract_y
_atom_site_fract_z
Si Si1 0.042656 0.354881 0.369320
Si Si2 0.836487 0.353924 0.655347
Si Si3 0.622062 0.354974 0.420827
Si Si4 0.489822 0.511834 0.775001
Si Si5 0.757143 0.859830 0.377495
Si Si6 0.858068 0.084706 0.898651
Si Si7 0.133984 0.940248 0.865894
O O1 0.074617 0.250000 0.347131
O O2 0.199643 0.381181 0.486331
O O3 0.835066 0.359645 0.398271
O O4 0.014420 0.409916 0.252573
O O5 0.841099 0.250000 0.619503
O O6 0.665594 0.391216 0.551820
O O7 0.817210 0.356488 0.783487
O O8 0.044219 0.388760 0.651853
O O9 0.557881 0.250000 0.411039
O O10 0.492975 0.416304 0.321970
O O11 0.399456 0.420814 0.706901
O O12 0.686560 0.487992 0.864922
O O13 0.337567 0.549834 0.839580
O O14 0.727451 0.750000 0.363240
O O15 0.860533 0.122407 0.023450
O O16 0.056537 0.034841 0.902036
#
# Coordination Sequence:
#
# PCOD9166154 Si02
#       7
#     4   4   4   4   4   4   4
#     4   8  16  33  58  81 106 148 190 227 281 342
#     4   9  18  35  56  81 117 150 184 234 287 342
#     4   8  17  33  56  86 115 147 187 234 291 348
#     4  11  21  36  63  83 114 152 187 239 296 332
#     4   9  18  34  58  89 117 145 187 237 292 346
#     4  11  23  36  55  84 110 149 197 229 280 344
#     4  10  22  39  55  78 114 149 191 239 271 335
#
# _framework density 22.509074999999999
#
# number of rings (size 3 to 8) (size 9 to 14) (size 15 to 20)
#    0.000    2.571    1.429    2.143    2.000    3.429 
#    0.000    0.714    0.000    3.429    0.000    0.000 
#    0.000    0.000    0.000    0.000    0.000    0.000 
#
# Total GULP energy -156304.303088 kJ/mol
# GULP energy per Si atom -5582.296539 kJ/mol
# Density = 2.245784 g / cm^3
# Si number density = 22.509075 Si / 1000 Ang^3
#
#
#
# Elastic Constant Matrix: (Units=GPa)
#
#
# Indices 1 2 3 4 5 6 
#
# 1 66.8776 3.5941 29.5007 0.0000 -0.8425 0.0000
# 2 3.5941 45.1854 38.3464 0.0000 -1.1382 0.0000
# 3 29.5007 38.3464 174.4801 0.0000 -14.6797 0.0000
# 4 0.0000 0.0000 0.0000 13.3291 0.0000 -10.2166
# 5 -0.8425 -1.1382 -14.6797 0.0000 41.0629 0.0000
# 6 0.0000 0.0000 0.0000 -10.2166 0.0000 -2.0384
#
#
#
# Elastic Compliance Matrix: (Units=1/GPa)
#
#
# Indices 1 2 3 4 5 6 
#
# 1 0.016239 0.001318 -0.003097 0.000000 -0.000738 0.000000
# 2 0.001318 0.027393 -0.006369 0.000000 -0.001490 0.000000
# 3 -0.003097 -0.006369 0.007871 0.000000 0.002574 0.000000
# 4 0.000000 0.000000 0.000000 0.015495 0.000000 -0.077664
# 5 -0.000738 -0.001490 0.002574 0.000000 0.025217 0.000000
# 6 0.000000 0.000000 0.000000 -0.077664 0.000000 -0.101325
#
#
# Mechanical properties :
#
#
# Convention : Reuss Voigt Hill
#
# Bulk Modulus (GPa) = 28.40260 47.71392 38.05826
# Shear Modulus (GPa) = 264.24396 24.81087 144.52742
#
# Velocity S-wave (km/s) = 10.84662 3.32363 8.02171
# Velocity P-wave (km/s) = 13.01965 5.99770 10.13617
#
# Compressibility (1/GPa) = 0.03520804
#
# Stress axis : x y z
#
# Youngs Moduli (GPa) = 61.58069 36.50517 127.04476
#
# Poissons Ratio (x) = -0.04813 0.39351
# Poissons Ratio (y) = -0.08119 0.80911
# Poissons Ratio (z) = 0.19074 0.23249
#
# Static dielectric constant tensor:
#      x y z
#    x 1.866180 0.000000 -0.024700 
#    y 0.000000 1.852480 0.000000 
#    z -0.024700 0.000000 1.877750 
# 
# From -- ./inp_files/31727.got.cif
#   From: 2010.05.17/outbox.cif.g08.bks.cpg/sg11_16_cif.got.tgz:31727.got - 2010.06.03 12:22:45.
