data_PCOD9166330
_publ_section_title
;
Structure prediction by ZEFSAII (Michael W. Deem and Ramdas Pophale) SiO2 
 PCOD9166330
Probable space group: P 21/M
;
_chemical_formula_sum "Si O2"
_cell_formula_units_Z 20
_cell_length_a 5.454946
_cell_length_b 30.782283
_cell_length_c 4.813571
_cell_angle_alpha 90.000000
_cell_angle_beta 98.521173
_cell_angle_gamma 90.000000
_cell_volume 799.351706
_symmetry_space_group_name_H-M "P 21/M"
_symmetry_group_IT_number 11
_symmetry_cell_setting 'monoclinic'
loop_
_space_group_symop_operation_xyz
x,y,z
-x,1/2+y,-z
-x,-y,-z
x,1/2-y,z
loop_
_atom_site_type_symbol
_atom_site_label
_atom_site_fract_x
_atom_site_fract_y
_atom_site_fract_z
Si Si1 0.887444 0.570173 0.109569
Si Si2 0.544754 0.702260 0.217786
Si Si3 0.230422 0.701947 0.660644
Si Si4 0.233246 0.993840 0.316923
Si Si5 0.836925 0.629827 0.603755
O O1 0.837473 0.587454 0.408132
O O2 0.176420 0.554263 0.180766
O O3 0.776399 0.527808 0.939828
O O4 0.798877 0.609245 0.898191
O O5 0.661361 0.750000 0.279814
O O6 0.285711 0.703303 0.342697
O O7 0.680520 0.664090 0.398515
O O8 0.482483 0.697911 0.884626
O O9 0.130247 0.750000 0.723730
O O10 0.082907 0.658425 0.689738
O O11 0.500000 0.000000 0.500000
O O12 0.000000 0.000000 0.500000
#
# Coordination Sequence:
#
# PCOD9166330 Si02
#       5
#     4   4   4   4   4
#     4  11  26  44  69 108 132 184 235 292 360 431
#     4  10  22  40  63  94 135 185 230 278 342 411
#     4  10  22  40  63  94 135 185 230 278 342 411
#     4  11  26  54  77 105 145 190 236 292 365 441
#     4  12  23  43  64 104 134 178 228 293 349 408
#
# _framework density 25.020278999999999
#
# number of rings (size 3 to 8) (size 9 to 14) (size 15 to 20)
#    0.000    1.200    2.000    3.000    0.000    8.000 
#    7.200    8.000    0.000    0.000    0.000    0.000 
#    0.000    0.000    0.000    0.000    0.000    0.000 
#
# Total GULP energy -111459.805160 kJ/mol
# GULP energy per Si atom -5572.990258 kJ/mol
# Density = 2.496333 g / cm^3
# Si number density = 25.020279 Si / 1000 Ang^3
#
#
#
# Elastic Constant Matrix: (Units=GPa)
#
#
# Indices 1 2 3 4 5 6 
#
# 1 55.7432 13.6411 15.4812 0.0000 26.5560 0.0000
# 2 13.6411 86.3711 19.0607 0.0000 -1.8274 0.0000
# 3 15.4812 19.0607 140.9317 0.0000 10.9378 0.0000
# 4 0.0000 0.0000 0.0000 51.1925 0.0000 14.2048
# 5 26.5560 -1.8274 10.9378 0.0000 32.8490 0.0000
# 6 0.0000 0.0000 0.0000 14.2048 0.0000 31.4869
#
#
#
# Elastic Compliance Matrix: (Units=1/GPa)
#
#
# Indices 1 2 3 4 5 6 
#
# 1 0.031697 -0.005381 -0.000762 0.000000 -0.025671 0.000000
# 2 -0.005381 0.012897 -0.001587 0.000000 0.005596 0.000000
# 3 -0.000762 -0.001587 0.007548 0.000000 -0.001986 0.000000
# 4 0.000000 0.000000 0.000000 0.022329 0.000000 -0.010073
# 5 -0.025671 0.005596 -0.001986 0.000000 0.052168 0.000000
# 6 0.000000 0.000000 0.000000 -0.010073 0.000000 0.036304
#
#
# Mechanical properties :
#
#
# Convention : Reuss Voigt Hill
#
# Bulk Modulus (GPa) = 27.26193 42.15688 34.70941
# Shear Modulus (GPa) = 26.22876 38.76321 32.49598
#
# Velocity S-wave (km/s) = 3.24126 3.94035 3.60778
# Velocity P-wave (km/s) = 4.99272 6.13086 5.59083
#
# Compressibility (1/GPa) = 0.03668119
#
# Stress axis : x y z
#
# Youngs Moduli (GPa) = 31.54848 77.54017 132.48300
#
# Poissons Ratio (x) = 0.41725 0.10092
# Poissons Ratio (y) = 0.16977 0.21031
# Poissons Ratio (z) = 0.02403 0.12309
#
# Static dielectric constant tensor:
#      x y z
#    x 2.103500 0.000000 -0.017780 
#    y 0.000000 2.028790 0.000000 
#    z -0.017780 0.000000 1.923850 
# 
# From -- ./inp_files/830.got.cif
#   From: 2010.05.17/outbox.cif.g08.bks.cpg/sg11_1_cif.got.tgz:830.got - 2010.06.03 12:22:45.
