data_PCOD9166318
_publ_section_title
;
Structure prediction by ZEFSAII (Michael W. Deem and Ramdas Pophale) SiO2 
 PCOD9166318
Probable space group: P 21/M
;
_chemical_formula_sum "Si O2"
_cell_formula_units_Z 20
_cell_length_a 5.140166
_cell_length_b 13.588266
_cell_length_c 10.631366
_cell_angle_alpha 90.000000
_cell_angle_beta 85.810097
_cell_angle_gamma 90.000000
_cell_volume 740.573199
_symmetry_space_group_name_H-M "P 21/M"
_symmetry_group_IT_number 11
_symmetry_cell_setting 'monoclinic'
loop_
_space_group_symop_operation_xyz
x,y,z
-x,1/2+y,-z
-x,-y,-z
x,1/2-y,z
loop_
_atom_site_type_symbol
_atom_site_label
_atom_site_fract_x
_atom_site_fract_y
_atom_site_fract_z
Si Si1 0.259735 0.867370 0.669905
Si Si2 0.098969 0.504487 0.169173
Si Si3 0.790342 0.632782 0.510598
Si Si4 0.445606 0.862742 0.291737
Si Si5 0.243819 0.138211 0.978673
O O1 0.226877 0.750000 0.696259
O O2 0.559083 0.882552 0.620918
O O3 0.138795 0.933142 0.784293
O O4 0.069916 0.894256 0.558258
O O5 0.207567 0.563975 0.283684
O O6 0.010600 0.588290 0.074344
O O7 0.304086 0.432321 0.093263
O O8 0.811917 0.750000 0.491543
O O9 0.657306 0.600043 0.384639
O O10 0.370175 0.750000 0.326746
O O11 0.564986 0.860731 0.147263
O O12 0.205361 0.250000 0.021628
#
# Coordination Sequence:
#
# PCOD9166318 Si02
#       5
#     4   4   4   4   4
#     4  10  22  41  64  96 133 172 212 262 318 376
#     4  11  23  38  66  91 124 162 217 265 318 382
#     4   9  21  40  64  93 133 174 211 257 318 379
#     4  10  22  40  63  90 126 167 209 262 318 382
#     4  10  23  43  62  89 123 164 213 267 325 381
#
# _framework density 27.006107
#
# number of rings (size 3 to 8) (size 9 to 14) (size 15 to 20)
#    0.000    2.000    0.000    1.800    5.600    1.600 
#    0.000    0.000    0.000    0.000    0.000    0.000 
#    0.000    0.000    0.000    0.000    0.000    0.000 
#
# Total GULP energy -112063.830443 kJ/mol
# GULP energy per Si atom -5603.191522 kJ/mol
# Density = 2.694464 g / cm^3
# Si number density = 27.006107 Si / 1000 Ang^3
#
#
#
# Elastic Constant Matrix: (Units=GPa)
#
#
# Indices 1 2 3 4 5 6 
#
# 1 101.9689 28.0699 21.9862 0.0000 8.0608 0.0000
# 2 28.0699 155.3953 19.2630 0.0000 7.7473 0.0000
# 3 21.9862 19.2630 92.7678 0.0000 0.3922 0.0000
# 4 0.0000 0.0000 0.0000 39.8178 0.0000 10.0057
# 5 8.0608 7.7473 0.3922 0.0000 48.2812 0.0000
# 6 0.0000 0.0000 0.0000 10.0057 0.0000 24.9648
#
#
#
# Elastic Compliance Matrix: (Units=1/GPa)
#
#
# Indices 1 2 3 4 5 6 
#
# 1 0.010852 -0.001607 -0.002232 0.000000 -0.001536 0.000000
# 2 -0.001607 0.006897 -0.001048 0.000000 -0.000830 0.000000
# 3 -0.002232 -0.001048 0.011524 0.000000 0.000447 0.000000
# 4 0.000000 0.000000 0.000000 0.027927 0.000000 -0.011193
# 5 -0.001536 -0.000830 0.000447 0.000000 0.021098 0.000000
# 6 0.000000 0.000000 0.000000 -0.011193 0.000000 0.044542
#
#
# Mechanical properties :
#
#
# Convention : Reuss Voigt Hill
#
# Bulk Modulus (GPa) = 51.28235 54.30778 52.79507
# Shear Modulus (GPa) = 35.94197 41.33363 38.63780
#
# Velocity S-wave (km/s) = 3.65208 3.91644 3.78657
# Velocity P-wave (km/s) = 6.06746 6.37216 6.22167
#
# Compressibility (1/GPa) = 0.01949989
#
# Stress axis : x y z
#
# Youngs Moduli (GPa) = 92.14977 144.99621 86.77396
#
# Poissons Ratio (x) = 0.23301 0.19366
# Poissons Ratio (y) = 0.14809 0.09091
# Poissons Ratio (z) = 0.20565 0.15191
#
# Static dielectric constant tensor:
#      x y z
#    x 2.105080 0.000000 -0.024610 
#    y 0.000000 2.081600 0.000000 
#    z -0.024610 0.000000 2.142970 
# 
# From -- ./inp_files/4163.got.cif
#   From: 2010.05.17/outbox.cif.g08.bks.cpg/sg11_3_cif.got.tgz:4163.got - 2010.06.03 12:22:45.
