data_PCOD9166526
_publ_section_title
;
Structure prediction by ZEFSAII (Michael W. Deem and Ramdas Pophale) SiO2 
 PCOD9166526
Probable space group: P 21/M
;
_chemical_formula_sum "Si O2"
_cell_formula_units_Z 24
_cell_length_a 17.407072
_cell_length_b 8.398722
_cell_length_c 13.987545
_cell_angle_alpha 90.000000
_cell_angle_beta 36.322248
_cell_angle_gamma 90.000000
_cell_volume 1211.270893
_symmetry_space_group_name_H-M "P 21/M"
_symmetry_group_IT_number 11
_symmetry_cell_setting 'monoclinic'
loop_
_space_group_symop_operation_xyz
x,y,z
-x,1/2+y,-z
-x,-y,-z
x,1/2-y,z
loop_
_atom_site_type_symbol
_atom_site_label
_atom_site_fract_x
_atom_site_fract_y
_atom_site_fract_z
Si Si1 0.242457 0.060735 0.828152
Si Si2 0.102658 0.441310 0.319597
Si Si3 0.526778 0.944011 0.263037
Si Si4 0.603463 0.942090 0.972992
Si Si5 0.757908 0.061038 0.385319
Si Si6 0.027701 0.937205 0.185023
O O1 0.252928 0.250000 0.800727
O O2 0.366737 0.006239 0.765651
O O3 0.235793 0.974062 0.733744
O O4 0.116123 0.026641 0.018569
O O5 0.100089 0.250000 0.318228
O O6 0.249487 0.492587 0.197299
O O7 0.067648 0.506538 0.250252
O O8 0.000000 0.500000 0.500000
O O9 0.528927 0.750000 0.260936
O O10 0.382025 0.994050 0.435819
O O11 0.567023 0.996826 0.116668
O O12 0.601359 0.750000 0.975931
O O13 0.500000 0.000000 0.000000
O O14 0.769037 0.250000 0.390879
O O15 0.877899 0.976122 0.315706
O O16 0.050735 0.750000 0.151881
#
# Coordination Sequence:
#
# PCOD9166526 Si02
#       6
#     4   4   4   4   4   4
#     4  11  21  41  66  90 124 165 208 259 313 368
#     4  11  24  44  68  94 127 163 205 256 311 368
#     4   9  20  40  64  89 124 164 204 252 312 370
#     4  10  22  42  65  93 124 162 203 251 308 367
#     4  11  23  39  62  94 127 165 208 256 310 370
#     4  12  25  42  63  92 126 165 212 257 307 368
#
# _framework density 19.8139
#
# number of rings (size 3 to 8) (size 9 to 14) (size 15 to 20)
#    0.000    1.333    1.667    4.000    2.333    1.333 
#    0.000    3.333    0.000    0.000    0.000    0.000 
#    0.000    0.000    0.000    0.000    0.000    0.000 
#
# Total GULP energy -134236.476259 kJ/mol
# GULP energy per Si atom -5593.186511 kJ/mol
# Density = 1.976880 g / cm^3
# Si number density = 19.813900 Si / 1000 Ang^3
#
#
#
# Elastic Constant Matrix: (Units=GPa)
#
#
# Indices 1 2 3 4 5 6 
#
# 1 107.0074 33.2225 32.7136 0.0000 -17.7444 0.0000
# 2 33.2225 -28.1733 18.6611 0.0000 -9.5393 0.0000
# 3 32.7136 18.6611 118.9990 0.0000 -11.5450 0.0000
# 4 0.0000 0.0000 0.0000 14.0343 0.0000 3.3816
# 5 -17.7444 -9.5393 -11.5450 0.0000 37.7088 0.0000
# 6 0.0000 0.0000 0.0000 3.3816 0.0000 37.4259
#
#
#
# Elastic Compliance Matrix: (Units=1/GPa)
#
#
# Indices 1 2 3 4 5 6 
#
# 1 0.008982 0.006865 -0.003058 0.000000 0.005027 0.000000
# 2 0.006865 -0.025305 0.001828 0.000000 -0.002612 0.000000
# 3 -0.003058 0.001828 0.009134 0.000000 0.001820 0.000000
# 4 0.000000 0.000000 0.000000 0.072840 0.000000 -0.006581
# 5 0.005027 -0.002612 0.001820 0.000000 0.028781 0.000000
# 6 0.000000 0.000000 0.000000 -0.006581 0.000000 0.027314
#
#
# Mechanical properties :
#
#
# Convention : Reuss Voigt Hill
#
# Bulk Modulus (GPa) = 245.09714 40.78081 142.93898
# Shear Modulus (GPa) = 44.70738 25.38286 35.04512
#
# Velocity S-wave (km/s) = 4.75527 3.58308 4.21017
# Velocity P-wave (km/s) = 12.41444 6.14366 9.79446
#
# Compressibility (1/GPa) = 0.00408001
#
# Stress axis : x y z
#
# Youngs Moduli (GPa) = 111.32843 -39.51812 109.48044
#
# Poissons Ratio (x) = 0.27127 0.33480
# Poissons Ratio (y) = -0.76422 -0.20010
# Poissons Ratio (z) = 0.34045 0.07223
#
# Static dielectric constant tensor:
#      x y z
#    x 1.653930 0.000000 -0.011080 
#    y 0.000000 1.677900 0.000000 
#    z -0.011080 0.000000 1.671790 
# 
# From -- ./inp_files/53160.got.cif
#   From: 2010.05.17/outbox.cif.g08.bks.cpg/sg11_27_cif.got.tgz:53160.got - 2010.06.03 12:22:45.
