data_PCOD9166149
_publ_section_title
;
Structure prediction by ZEFSAII (Michael W. Deem and Ramdas Pophale) SiO2 
 PCOD9166149
Probable space group: P 21/M
;
_chemical_formula_sum "Si O2"
_cell_formula_units_Z 16
_cell_length_a 6.303716
_cell_length_b 18.783700
_cell_length_c 8.217246
_cell_angle_alpha 90.000000
_cell_angle_beta 124.187025
_cell_angle_gamma 90.000000
_cell_volume 804.856977
_symmetry_space_group_name_H-M "P 21/M"
_symmetry_group_IT_number 11
_symmetry_cell_setting 'monoclinic'
loop_
_space_group_symop_operation_xyz
x,y,z
-x,1/2+y,-z
-x,-y,-z
x,1/2-y,z
loop_
_atom_site_type_symbol
_atom_site_label
_atom_site_fract_x
_atom_site_fract_y
_atom_site_fract_z
Si Si1 0.207875 0.077077 0.619503
Si Si2 0.342740 0.834081 0.292286
Si Si3 0.120588 0.068693 0.962788
Si Si4 0.648343 0.421757 0.371802
O O1 0.410176 0.140259 0.701537
O O2 0.155604 0.056402 0.784805
O O3 0.932034 0.096229 0.424354
O O4 0.324462 0.006885 0.585203
O O5 0.326433 0.750000 0.300336
O O6 0.378440 0.872993 0.481539
O O7 0.084300 0.867924 0.107502
O O8 0.398925 0.086273 0.154343
O O9 0.000000 0.000000 0.000000
#
# Coordination Sequence:
#
# PCOD9166149 Si02
#       4
#     4   4   4   4
#     4  10  22  38  66  97 122 159 211 260 308 365
#     4  11  25  42  60  91 133 167 201 256 318 373
#     4  11  23  39  69  96 123 158 216 264 305 362
#     4  10  22  39  66  94 120 161 210 257 304 368
#
# _framework density 19.879308999999999
#
# number of rings (size 3 to 8) (size 9 to 14) (size 15 to 20)
#    0.000    1.500    2.500    1.500    7.000    5.000 
#    0.000    0.000    0.000    0.000    0.000    0.000 
#    0.000    0.000    0.000    0.000    0.000    0.000 
#
# Total GULP energy -89330.919439 kJ/mol
# GULP energy per Si atom -5583.182465 kJ/mol
# Density = 1.983406 g / cm^3
# Si number density = 19.879309 Si / 1000 Ang^3
#
#
#
# Elastic Constant Matrix: (Units=GPa)
#
#
# Indices 1 2 3 4 5 6 
#
# 1 110.6777 67.0992 64.4720 0.0000 22.8955 0.0000
# 2 67.0992 155.6219 51.2934 0.0000 3.6682 0.0000
# 3 64.4720 51.2934 133.9717 0.0000 49.6273 0.0000
# 4 0.0000 0.0000 0.0000 20.9002 0.0000 6.9689
# 5 22.8955 3.6682 49.6273 0.0000 47.5935 0.0000
# 6 0.0000 0.0000 0.0000 6.9689 0.0000 20.6719
#
#
#
# Elastic Compliance Matrix: (Units=1/GPa)
#
#
# Indices 1 2 3 4 5 6 
#
# 1 0.015175 -0.004970 -0.004624 0.000000 -0.002096 0.000000
# 2 -0.004970 0.009444 -0.002998 0.000000 0.004789 0.000000
# 3 -0.004624 -0.002998 0.016176 0.000000 -0.014412 0.000000
# 4 0.000000 0.000000 0.000000 0.053906 0.000000 -0.018173
# 5 -0.002096 0.004789 -0.014412 0.000000 0.036678 0.000000
# 6 0.000000 0.000000 0.000000 -0.018173 0.000000 0.054501
#
#
# Mechanical properties :
#
#
# Convention : Reuss Voigt Hill
#
# Bulk Modulus (GPa) = 64.05504 85.11118 74.58311
# Shear Modulus (GPa) = 23.11955 32.32689 27.72322
#
# Velocity S-wave (km/s) = 3.41397 4.03694 3.73845
# Velocity P-wave (km/s) = 6.91608 8.03966 7.49894
#
# Compressibility (1/GPa) = 0.01561157
#
# Stress axis : x y z
#
# Youngs Moduli (GPa) = 65.89738 105.88802 61.82058
#
# Poissons Ratio (x) = 0.52622 0.28584
# Poissons Ratio (y) = 0.32749 0.18536
# Poissons Ratio (z) = 0.30469 0.31748
#
# Static dielectric constant tensor:
#      x y z
#    x 1.771020 0.000000 0.003650 
#    y 0.000000 1.660400 0.000000 
#    z 0.003650 0.000000 1.717010 
# 
# From -- ./inp_files/1652.got.cif
#   From: 2010.05.17/outbox.cif.g08.bks.cpg/sg11_1_cif.got.tgz:1652.got - 2010.06.03 12:22:45.
