data_PCOD9166650
_publ_section_title
;
Structure prediction by ZEFSAII (Michael W. Deem and Ramdas Pophale) SiO2 
 PCOD9166650
Probable space group: P 21/M
;
_chemical_formula_sum "Si O2"
_cell_formula_units_Z 24
_cell_length_a 5.074823
_cell_length_b 24.240227
_cell_length_c 9.048360
_cell_angle_alpha 90.000000
_cell_angle_beta 107.444767
_cell_angle_gamma 90.000000
_cell_volume 1061.888055
_symmetry_space_group_name_H-M "P 21/M"
_symmetry_group_IT_number 11
_symmetry_cell_setting 'monoclinic'
loop_
_space_group_symop_operation_xyz
x,y,z
-x,1/2+y,-z
-x,-y,-z
x,1/2-y,z
loop_
_atom_site_type_symbol
_atom_site_label
_atom_site_fract_x
_atom_site_fract_y
_atom_site_fract_z
Si Si1 0.869325 0.250000 0.963136
Si Si2 0.728534 0.750000 0.244556
Si Si3 0.815333 0.855517 0.912954
Si Si4 0.286916 0.140676 0.559162
Si Si5 0.319385 0.625408 0.648464
Si Si6 0.700213 0.572011 0.154973
Si Si7 0.822427 0.046817 0.135711
O O1 0.541745 0.250000 0.903442
O O2 0.004438 0.250000 0.818901
O O3 0.983193 0.304374 0.061140
O O4 0.698904 0.696605 0.344015
O O5 0.518096 0.841873 0.794860
O O6 0.932137 0.910567 0.853566
O O7 0.797861 0.875155 0.078811
O O8 0.529131 0.131111 0.482357
O O9 0.298704 0.090016 0.676312
O O10 0.994086 0.143407 0.426619
O O11 0.303484 0.565947 0.727706
O O12 0.882855 0.517760 0.154741
O O13 0.404296 0.557558 0.030993
#
# Coordination Sequence:
#
# PCOD9166650 Si02
#       7
#     2   2   4   4   4   4   4
#     4  12  26  42  79  99 132 175 232 284 329 402
#     4  12  26  46  69 107 130 177 228 288 333 402
#     4  11  23  46  68 104 136 178 232 277 341 402
#     4  12  25  46  68 101 138 181 225 279 344 402
#     4  11  26  45  67 100 143 176 222 278 342 415
#     4  10  23  40  75  97 137 183 229 292 331 396
#     4  10  22  46  67 105 135 182 232 282 340 403
#
# _framework density 22.601254000000001
#
# number of rings (size 3 to 8) (size 9 to 14) (size 15 to 20)
#    0.000    1.000    3.333    2.500    4.667    2.667 
#    0.000    0.833    0.000    0.000    0.000    0.000 
#    0.000    0.000    0.000    0.000    0.000    0.000 
#
# Total GULP energy -134179.691011 kJ/mol
# GULP energy per Si atom -5590.820459 kJ/mol
# Density = 2.254981 g / cm^3
# Si number density = 22.601254 Si / 1000 Ang^3
#
#
#
# Elastic Constant Matrix: (Units=GPa)
#
#
# Indices 1 2 3 4 5 6 
#
# 1 59.5737 3.9445 -7.5550 0.0000 -10.0099 0.0000
# 2 3.9445 84.0181 26.4430 0.0000 15.0774 0.0000
# 3 -7.5550 26.4430 53.6673 0.0000 -10.6898 0.0000
# 4 0.0000 0.0000 0.0000 10.0673 0.0000 1.3859
# 5 -10.0099 15.0774 -10.6898 0.0000 45.5263 0.0000
# 6 0.0000 0.0000 0.0000 1.3859 0.0000 24.0238
#
#
#
# Elastic Compliance Matrix: (Units=1/GPa)
#
#
# Indices 1 2 3 4 5 6 
#
# 1 0.018984 -0.004036 0.006041 0.000000 0.006929 0.000000
# 2 -0.004036 0.017131 -0.010822 0.000000 -0.009102 0.000000
# 3 0.006041 -0.010822 0.027060 0.000000 0.011266 0.000000
# 4 0.000000 0.000000 0.000000 0.100126 0.000000 -0.005776
# 5 0.006929 -0.009102 0.011266 0.000000 0.029149 0.000000
# 6 0.000000 0.000000 0.000000 -0.005776 0.000000 0.041959
#
#
# Mechanical properties :
#
#
# Convention : Reuss Voigt Hill
#
# Bulk Modulus (GPa) = 21.95822 26.99158 24.47490
# Shear Modulus (GPa) = 18.71102 27.55194 23.13148
#
# Velocity S-wave (km/s) = 2.88040 3.49527 3.20263
# Velocity P-wave (km/s) = 4.56058 5.31579 4.95260
#
# Compressibility (1/GPa) = 0.04554103
#
# Stress axis : x y z
#
# Youngs Moduli (GPa) = 52.67719 58.37341 36.95482
#
# Poissons Ratio (x) = 0.23560 -0.22325
# Poissons Ratio (y) = 0.21261 0.39993
# Poissons Ratio (z) = -0.31824 0.63172
#
# Static dielectric constant tensor:
#      x y z
#    x 1.861600 0.000000 -0.043730 
#    y 0.000000 1.811710 0.000000 
#    z -0.043730 0.000000 1.846530 
# 
# From -- ./inp_files/10474.got.cif
#   From: 2010.05.17/outbox.cif.g08.bks.cpg/sg11_6_cif.got.tgz:10474.got - 2010.06.03 12:22:45.
