data_PCOD9166371
_publ_section_title
;
Structure prediction by ZEFSAII (Michael W. Deem and Ramdas Pophale) SiO2 
 PCOD9166371
Probable space group: P 21/M
;
_chemical_formula_sum "Si O2"
_cell_formula_units_Z 22
_cell_length_a 11.345550
_cell_length_b 9.510001
_cell_length_c 10.667749
_cell_angle_alpha 90.000000
_cell_angle_beta 120.898832
_cell_angle_gamma 90.000000
_cell_volume 987.652901
_symmetry_space_group_name_H-M "P 21/M"
_symmetry_group_IT_number 11
_symmetry_cell_setting 'monoclinic'
loop_
_space_group_symop_operation_xyz
x,y,z
-x,1/2+y,-z
-x,-y,-z
x,1/2-y,z
loop_
_atom_site_type_symbol
_atom_site_label
_atom_site_fract_x
_atom_site_fract_y
_atom_site_fract_z
Si Si1 0.403065 0.910346 0.036028
Si Si2 0.869231 0.415201 0.479444
Si Si3 0.814357 0.592712 0.969400
Si Si4 0.542704 0.750000 0.555395
Si Si5 0.583157 0.981423 0.367532
Si Si6 0.132465 0.596148 0.221711
O O1 0.387965 0.750000 0.986814
O O2 0.259238 0.989766 0.974575
O O3 0.473774 0.918154 0.210976
O O4 0.500000 0.000000 0.000000
O O5 0.874934 0.250000 0.446583
O O6 0.723937 0.486784 0.368668
O O7 0.868035 0.421433 0.630687
O O8 0.000000 0.500000 0.500000
O O9 0.755154 0.750000 0.938783
O O10 0.801210 0.526393 0.823958
O O11 0.974397 0.600950 0.090868
O O12 0.471538 0.626649 0.604743
O O13 0.600984 0.627452 0.490185
O O14 0.197046 0.750000 0.228216
#
# Coordination Sequence:
#
# PCOD9166371 Si02
#       6
#     4   4   4   2   4   4
#     4  12  28  45  67  95 136 181 223 280 338 406
#     4  11  26  43  66  96 137 179 222 276 333 403
#     4  10  22  40  67  98 129 171 220 269 324 393
#     4  10  24  44  74 102 140 168 222 298 336 412
#     4  11  25  45  71 106 134 179 228 281 349 401
#     4   9  21  42  65  94 131 172 218 269 323 387
#
# _framework density 22.275033000000001
#
# number of rings (size 3 to 8) (size 9 to 14) (size 15 to 20)
#    0.000    1.455    1.818    1.091   11.455    1.455 
#    0.000    0.000    0.000    0.000    0.000    0.000 
#    0.000    0.000    0.000    0.000    0.000    0.000 
#
# Total GULP energy -122579.929844 kJ/mol
# GULP energy per Si atom -5571.814993 kJ/mol
# Density = 2.222433 g / cm^3
# Si number density = 22.275033 Si / 1000 Ang^3
#
#
#
# Elastic Constant Matrix: (Units=GPa)
#
#
# Indices 1 2 3 4 5 6 
#
# 1 96.8052 44.3509 -11.9050 0.0000 -5.9642 0.0000
# 2 44.3509 191.1650 -1.1684 0.0000 -14.0404 0.0000
# 3 -11.9050 -1.1684 32.2096 0.0000 2.3975 0.0000
# 4 0.0000 0.0000 0.0000 23.6026 0.0000 -16.6339
# 5 -5.9642 -14.0404 2.3975 0.0000 21.8828 0.0000
# 6 0.0000 0.0000 0.0000 -16.6339 0.0000 40.8312
#
#
#
# Elastic Compliance Matrix: (Units=1/GPa)
#
#
# Indices 1 2 3 4 5 6 
#
# 1 0.012174 -0.002717 0.004319 0.000000 0.001101 0.000000
# 2 -0.002717 0.006096 -0.001028 0.000000 0.003284 0.000000
# 3 0.004319 -0.001028 0.032835 0.000000 -0.003079 0.000000
# 4 0.000000 0.000000 0.000000 0.059431 0.000000 0.024211
# 5 0.001101 0.003284 -0.003079 0.000000 0.048442 0.000000
# 6 0.000000 0.000000 0.000000 0.024211 0.000000 0.034354
#
#
# Mechanical properties :
#
#
# Convention : Reuss Voigt Hill
#
# Bulk Modulus (GPa) = 19.13728 42.52608 30.83168
# Shear Modulus (GPa) = 23.85473 36.52345 30.18909
#
# Velocity S-wave (km/s) = 3.27604 4.05366 3.68542
# Velocity P-wave (km/s) = 4.78747 6.40643 5.65519
#
# Compressibility (1/GPa) = 0.05225403
#
# Stress axis : x y z
#
# Youngs Moduli (GPa) = 82.14331 164.03294 30.45533
#
# Poissons Ratio (x) = 0.44569 -0.13154
# Poissons Ratio (y) = 0.22319 0.03129
# Poissons Ratio (z) = -0.35478 0.16855
#
# Static dielectric constant tensor:
#      x y z
#    x 1.819020 0.000000 0.055570 
#    y 0.000000 1.805270 0.000000 
#    z 0.055570 0.000000 1.890090 
# 
# From -- ./inp_files/33895.got.cif
#   From: 2010.05.17/outbox.cif.g08.bks.cpg/sg11_17_cif.got.tgz:33895.got - 2010.06.03 12:22:45.
