data_PCOD9166495
_publ_section_title
;
Structure prediction by ZEFSAII (Michael W. Deem and Ramdas Pophale) SiO2 
 PCOD9166495
Probable space group: P 21/M
;
_chemical_formula_sum "Si O2"
_cell_formula_units_Z 32
_cell_length_a 14.621075
_cell_length_b 15.641129
_cell_length_c 10.939087
_cell_angle_alpha 90.000000
_cell_angle_beta 150.520539
_cell_angle_gamma 90.000000
_cell_volume 1231.096280
_symmetry_space_group_name_H-M "P 21/M"
_symmetry_group_IT_number 11
_symmetry_cell_setting 'monoclinic'
loop_
_space_group_symop_operation_xyz
x,y,z
-x,1/2+y,-z
-x,-y,-z
x,1/2-y,z
loop_
_atom_site_type_symbol
_atom_site_label
_atom_site_fract_x
_atom_site_fract_y
_atom_site_fract_z
Si Si1 0.039084 0.147852 0.516087
Si Si2 0.604489 0.388531 0.522630
Si Si3 0.050890 0.350262 0.792953
Si Si4 0.630018 0.595226 0.248095
Si Si5 0.738393 0.919568 0.733921
Si Si6 0.057456 0.845456 0.950811
Si Si7 0.693067 0.147359 0.978330
Si Si8 0.379632 0.607967 0.732626
O O1 0.032292 0.250000 0.519280
O O2 0.115577 0.116293 0.734409
O O3 0.164542 0.125506 0.545847
O O4 0.829813 0.117662 0.246433
O O5 0.443134 0.366744 0.432264
O O6 0.663715 0.487048 0.613387
O O7 0.796889 0.340095 0.767703
O O8 0.536779 0.377222 0.305359
O O9 0.102856 0.250000 0.874383
O O10 0.827368 0.354486 0.517771
O O11 0.130275 0.409121 0.993043
O O12 0.637217 0.493251 0.261793
O O13 0.514360 0.620266 0.233403
O O14 0.510914 0.636318 0.996731
O O15 0.874909 0.892113 0.784051
O O16 0.003734 0.750000 0.850701
O O17 0.195284 0.884568 0.009763
O O18 0.692852 0.250000 0.971479
#
# Coordination Sequence:
#
# PCOD9166495 Si02
#       8
#     4   4   4   4   4   4   4   4
#     4  10  22  41  69  99 130 179 225 277 346 403
#     4  11  26  45  69  99 137 179 230 279 343 404
#     4  11  23  44  72 102 135 176 230 287 345 402
#     4  11  24  43  66 100 140 175 230 279 340 407
#     4  11  25  44  69  98 135 181 224 279 341 406
#     4  11  25  44  69 102 135 177 230 281 340 410
#     4  10  23  42  66  98 136 177 225 281 339 404
#     4  11  25  43  66 104 133 179 228 280 339 404
#
# _framework density 25.993093999999999
#
# number of rings (size 3 to 8) (size 9 to 14) (size 15 to 20)
#    0.000    1.250    2.500    1.875    5.250    2.000 
#    0.000    2.500    0.000    0.000    0.000    0.000 
#    0.000    0.000    0.000    0.000    0.000    0.000 
#
# Total GULP energy -179055.790620 kJ/mol
# GULP energy per Si atom -5595.493457 kJ/mol
# Density = 2.593393 g / cm^3
# Si number density = 25.993094 Si / 1000 Ang^3
#
#
#
# Elastic Constant Matrix: (Units=GPa)
#
#
# Indices 1 2 3 4 5 6 
#
# 1 181.5044 22.0418 36.8957 0.0000 18.1073 0.0000
# 2 22.0418 46.9340 -2.1112 0.0000 8.1879 0.0000
# 3 36.8957 -2.1112 115.4354 0.0000 18.2635 0.0000
# 4 0.0000 0.0000 0.0000 46.3158 0.0000 6.9263
# 5 18.1073 8.1879 18.2635 0.0000 56.9341 0.0000
# 6 0.0000 0.0000 0.0000 6.9263 0.0000 27.0713
#
#
#
# Elastic Compliance Matrix: (Units=1/GPa)
#
#
# Indices 1 2 3 4 5 6 
#
# 1 0.006351 -0.002898 -0.001927 0.000000 -0.000985 0.000000
# 2 -0.002898 0.023275 0.001828 0.000000 -0.003012 0.000000
# 3 -0.001927 0.001828 0.009752 0.000000 -0.002778 0.000000
# 4 0.000000 0.000000 0.000000 0.022450 0.000000 -0.005744
# 5 -0.000985 -0.003012 -0.002778 0.000000 0.019202 0.000000
# 6 0.000000 0.000000 0.000000 -0.005744 0.000000 0.038409
#
#
# Mechanical properties :
#
#
# Convention : Reuss Voigt Hill
#
# Bulk Modulus (GPa) = 29.95319 50.83626 40.39472
# Shear Modulus (GPa) = 36.61381 45.20075 40.90728
#
# Velocity S-wave (km/s) = 3.75720 4.17460 3.97139
# Velocity P-wave (km/s) = 5.51095 6.54495 6.05008
#
# Compressibility (1/GPa) = 0.03338543
#
# Stress axis : x y z
#
# Youngs Moduli (GPa) = 157.44485 42.96438 102.54488
#
# Poissons Ratio (x) = 0.12450 0.19762
# Poissons Ratio (y) = 0.45622 -0.18750
# Poissons Ratio (z) = 0.30343 -0.07856
#
# Static dielectric constant tensor:
#      x y z
#    x 2.120490 0.000000 -0.074530 
#    y 0.000000 1.954560 0.000000 
#    z -0.074530 0.000000 2.071990 
# 
# From -- ./inp_files/40046.got.cif
#   From: 2010.05.17/outbox.cif.g08.bks.cpg/sg11_21_cif.got.tgz:40046.got - 2010.06.03 12:22:45.
