data_PCOD9166441
_publ_section_title
;
Structure prediction by ZEFSAII (Michael W. Deem and Ramdas Pophale) SiO2 
 PCOD9166441
Probable space group: P 21/M
;
_chemical_formula_sum "Si O2"
_cell_formula_units_Z 32
_cell_length_a 15.118639
_cell_length_b 18.631785
_cell_length_c 12.122057
_cell_angle_alpha 90.000000
_cell_angle_beta 28.224031
_cell_angle_gamma 90.000000
_cell_volume 1614.847421
_symmetry_space_group_name_H-M "P 21/M"
_symmetry_group_IT_number 11
_symmetry_cell_setting 'monoclinic'
loop_
_space_group_symop_operation_xyz
x,y,z
-x,1/2+y,-z
-x,-y,-z
x,1/2-y,z
loop_
_atom_site_type_symbol
_atom_site_label
_atom_site_fract_x
_atom_site_fract_y
_atom_site_fract_z
Si Si1 0.127207 0.328027 0.589693
Si Si2 0.154322 0.668002 0.303200
Si Si3 0.269057 0.018719 0.463335
Si Si4 0.297962 0.423237 0.811554
Si Si5 0.956915 0.668374 0.058666
Si Si6 0.731303 0.051367 0.311577
Si Si7 0.629508 0.025290 0.958173
Si Si8 0.946368 0.572412 0.701921
O O1 0.220644 0.250000 0.468554
O O2 0.243630 0.400311 0.449846
O O3 0.958631 0.332743 0.688007
O O4 0.063031 0.330032 0.787189
O O5 0.213859 0.750000 0.259245
O O6 0.016789 0.638584 0.550548
O O7 0.315065 0.608199 0.115817
O O8 0.491064 0.007263 0.210982
O O9 0.215452 0.002733 0.647884
O O10 0.132241 0.968259 0.542126
O O11 0.256257 0.504118 0.812918
O O12 0.522200 0.420478 0.563389
O O13 0.183487 0.409426 0.049791
O O14 0.220024 0.366943 0.807427
O O15 0.983429 0.750000 0.991633
O O16 0.129001 0.617235 0.841354
O O17 0.500000 0.000000 0.000000
O O18 0.818760 0.980613 0.768291
#
# Coordination Sequence:
#
# PCOD9166441 Si02
#       8
#     4   4   4   4   4   4   4   4
#     4  10  22  41  64  95 130 170 214 265 326 379
#     4  11  25  44  65  92 132 173 211 265 325 381
#     4  12  21  39  71  94 128 166 213 268 317 381
#     4  11  23  39  68  96 129 164 215 265 314 381
#     4  11  23  40  64  92 132 174 209 262 325 384
#     4  11  23  40  64 101 128 166 216 263 320 379
#     4  12  24  40  67  99 123 166 220 266 322 381
#     4  12  23  42  67  96 125 167 217 264 318 383
#
# _framework density 19.816113000000001
#
# number of rings (size 3 to 8) (size 9 to 14) (size 15 to 20)
#    0.000    0.750    6.250    2.250    0.000    1.500 
#    0.000    0.625    0.000    0.000    0.000    0.000 
#    0.000    0.000    0.000    0.000    0.000    0.000 
#
# Total GULP energy -178669.409944 kJ/mol
# GULP energy per Si atom -5583.419061 kJ/mol
# Density = 1.977101 g / cm^3
# Si number density = 19.816113 Si / 1000 Ang^3
#
#
#
# Elastic Constant Matrix: (Units=GPa)
#
#
# Indices 1 2 3 4 5 6 
#
# 1 91.0432 31.4939 19.4513 0.0000 2.0678 0.0000
# 2 31.4939 95.2120 6.4316 0.0000 -6.7561 0.0000
# 3 19.4513 6.4316 61.7423 0.0000 -3.2851 0.0000
# 4 0.0000 0.0000 0.0000 21.2619 0.0000 -2.2083
# 5 2.0678 -6.7561 -3.2851 0.0000 35.7120 0.0000
# 6 0.0000 0.0000 0.0000 -2.2083 0.0000 18.2946
#
#
#
# Elastic Compliance Matrix: (Units=1/GPa)
#
#
# Indices 1 2 3 4 5 6 
#
# 1 0.013335 -0.004288 -0.003858 0.000000 -0.001938 0.000000
# 2 -0.004288 0.012087 0.000228 0.000000 0.002556 0.000000
# 3 -0.003858 0.000228 0.017488 0.000000 0.001875 0.000000
# 4 0.000000 0.000000 0.000000 0.047630 0.000000 0.005749
# 5 -0.001938 0.002556 0.001875 0.000000 0.028770 0.000000
# 6 0.000000 0.000000 0.000000 0.005749 0.000000 0.055355
#
#
# Mechanical properties :
#
#
# Convention : Reuss Voigt Hill
#
# Bulk Modulus (GPa) = 36.93499 40.30568 38.62034
# Shear Modulus (GPa) = 25.05949 27.76174 26.41061
#
# Velocity S-wave (km/s) = 3.55998 3.74701 3.65469
# Velocity P-wave (km/s) = 5.96467 6.25333 6.11070
#
# Compressibility (1/GPa) = 0.02707460
#
# Stress axis : x y z
#
# Youngs Moduli (GPa) = 74.98901 82.73208 57.18304
#
# Poissons Ratio (x) = 0.35475 0.22059
# Poissons Ratio (y) = 0.32155 -0.01302
# Poissons Ratio (z) = 0.28928 -0.01884
#
# Static dielectric constant tensor:
#      x y z
#    x 1.723370 0.000000 0.040970 
#    y 0.000000 1.697040 0.000000 
#    z 0.040970 0.000000 1.755530 
# 
# From -- ./inp_files/39953.got.cif
#   From: 2010.05.17/outbox.cif.g08.bks.cpg/sg11_20_cif.got.tgz:39953.got - 2010.06.03 12:22:45.
