data_PCOD9166609
_publ_section_title
;
Structure prediction by ZEFSAII (Michael W. Deem and Ramdas Pophale) SiO2 
 PCOD9166609
Probable space group: P 21/M
;
_chemical_formula_sum "Si O2"
_cell_formula_units_Z 20
_cell_length_a 7.451514
_cell_length_b 19.683298
_cell_length_c 5.370959
_cell_angle_alpha 90.000000
_cell_angle_beta 103.463481
_cell_angle_gamma 90.000000
_cell_volume 766.111718
_symmetry_space_group_name_H-M "P 21/M"
_symmetry_group_IT_number 11
_symmetry_cell_setting 'monoclinic'
loop_
_space_group_symop_operation_xyz
x,y,z
-x,1/2+y,-z
-x,-y,-z
x,1/2-y,z
loop_
_atom_site_type_symbol
_atom_site_label
_atom_site_fract_x
_atom_site_fract_y
_atom_site_fract_z
Si Si1 0.379746 0.175365 0.835324
Si Si2 0.325443 0.671520 0.451118
Si Si3 0.032256 0.322779 0.394048
Si Si4 0.445385 0.057746 0.184152
Si Si5 0.076788 0.467389 0.272346
O O1 0.364326 0.250000 0.945897
O O2 0.584472 0.164217 0.791262
O O3 0.240698 0.175770 0.559084
O O4 0.329003 0.113075 0.989276
O O5 0.379040 0.750000 0.542992
O O6 0.106775 0.671147 0.416577
O O7 0.406862 0.609080 0.640948
O O8 0.994690 0.250000 0.259278
O O9 0.006742 0.390306 0.235886
O O10 0.300503 0.028601 0.337876
O O11 0.500000 0.000000 0.000000
O O12 0.000000 0.500000 0.500000
O O13 0.000000 0.500000 0.000000
#
# Coordination Sequence:
#
# PCOD9166609 Si02
#       5
#     4   4   4   4   4
#     4  10  22  44  72 102 140 189 244 307 373 445
#     4  10  22  43  70 102 138 180 241 307 367 442
#     4  10  22  45  75 104 142 191 248 305 372 448
#     4  12  26  43  70 104 146 194 244 306 375 447
#     4  12  27  47  72 107 152 197 249 307 375 452
#
# _framework density 26.105851999999999
#
# number of rings (size 3 to 8) (size 9 to 14) (size 15 to 20)
#    0.000    1.200    2.000    3.000    2.800    1.600 
#    3.600    1.000    0.000    0.000    0.000    0.000 
#    0.000    0.000    0.000    0.000    0.000    0.000 
#
# Total GULP energy -111924.395040 kJ/mol
# GULP energy per Si atom -5596.219752 kJ/mol
# Density = 2.604643 g / cm^3
# Si number density = 26.105852 Si / 1000 Ang^3
#
#
#
# Elastic Constant Matrix: (Units=GPa)
#
#
# Indices 1 2 3 4 5 6 
#
# 1 107.8690 31.1389 10.2309 0.0000 -45.8988 0.0000
# 2 31.1389 217.9622 70.0629 0.0000 -19.3403 0.0000
# 3 10.2309 70.0629 78.9922 0.0000 -25.8239 0.0000
# 4 0.0000 0.0000 0.0000 34.0030 0.0000 -0.3787
# 5 -45.8988 -19.3403 -25.8239 0.0000 41.6345 0.0000
# 6 0.0000 0.0000 0.0000 -0.3787 0.0000 34.2365
#
#
#
# Elastic Compliance Matrix: (Units=1/GPa)
#
#
# Indices 1 2 3 4 5 6 
#
# 1 0.021087 -0.003613 0.009438 0.000000 0.027422 0.000000
# 2 -0.003613 0.007053 -0.007549 0.000000 -0.005390 0.000000
# 3 0.009438 -0.007549 0.025574 0.000000 0.022761 0.000000
# 4 0.000000 0.000000 0.000000 0.029413 0.000000 0.000325
# 5 0.027422 -0.005390 0.022761 0.000000 0.065863 0.000000
# 6 0.000000 0.000000 0.000000 0.000325 0.000000 0.029212
#
#
# Mechanical properties :
#
#
# Convention : Reuss Voigt Hill
#
# Bulk Modulus (GPa) = 19.89463 69.74320 44.81891
# Shear Modulus (GPa) = 25.20105 41.53418 33.36762
#
# Velocity S-wave (km/s) = 3.11036 3.99305 3.57902
# Velocity P-wave (km/s) = 4.53172 6.93057 5.85531
#
# Compressibility (1/GPa) = 0.05026483
#
# Stress axis : x y z
#
# Youngs Moduli (GPa) = 47.42344 141.79104 39.10235
#
# Poissons Ratio (x) = 0.51232 -0.36907
# Poissons Ratio (y) = 0.17135 0.29520
# Poissons Ratio (z) = -0.44761 1.07044
#
# Static dielectric constant tensor:
#      x y z
#    x 2.128040 0.000000 -0.099440 
#    y 0.000000 2.017150 0.000000 
#    z -0.099440 0.000000 2.275110 
# 
# From -- ./inp_files/1937.got.cif
#   From: 2010.05.17/outbox.cif.g08.bks.cpg/sg11_1_cif.got.tgz:1937.got - 2010.06.03 12:22:45.
