data_PCOD9166857
_publ_section_title
;
Structure prediction by ZEFSAII (Michael W. Deem and Ramdas Pophale) SiO2 
 PCOD9166857
Probable space group: P 21/M
;
_chemical_formula_sum "Si O2"
_cell_formula_units_Z 22
_cell_length_a 9.661539
_cell_length_b 22.096482
_cell_length_c 4.946282
_cell_angle_alpha 90.000000
_cell_angle_beta 57.532531
_cell_angle_gamma 90.000000
_cell_volume 890.911370
_symmetry_space_group_name_H-M "P 21/M"
_symmetry_group_IT_number 11
_symmetry_cell_setting 'monoclinic'
loop_
_space_group_symop_operation_xyz
x,y,z
-x,1/2+y,-z
-x,-y,-z
x,1/2-y,z
loop_
_atom_site_type_symbol
_atom_site_label
_atom_site_fract_x
_atom_site_fract_y
_atom_site_fract_z
Si Si1 0.621604 0.467931 0.085405
Si Si2 0.705960 0.654919 0.739506
Si Si3 0.814397 0.135534 0.535861
Si Si4 0.105394 0.448400 0.251504
Si Si5 0.512472 0.139469 0.510579
Si Si6 0.997796 0.250000 0.571556
O O1 0.715602 0.413720 0.819907
O O2 0.760216 0.513399 0.051904
O O3 0.500000 0.500000 0.000000
O O4 0.468049 0.568490 0.583464
O O5 0.788594 0.588724 0.639300
O O6 0.562742 0.667638 0.679031
O O7 0.856144 0.699072 0.544578
O O8 0.620549 0.654546 0.121318
O O9 0.691697 0.156410 0.428391
O O10 0.868386 0.195226 0.637290
O O11 0.978347 0.100092 0.258843
O O12 0.000000 0.500000 0.500000
#
# Coordination Sequence:
#
# PCOD9166857 Si02
#       6
#     4   4   4   4   4   2
#     4  11  21  43  75 109 149 190 241 298 364 440
#     4  11  25  48  71 100 139 189 243 291 358 429
#     4  10  23  45  72 106 148 189 245 301 364 431
#     4   9  20  43  65 106 142 188 227 294 356 420
#     4  12  24  47  71 107 138 183 240 292 361 429
#     4  10  26  54  70 104 140 198 242 308 360 434
#
# _framework density 24.693814
#
# number of rings (size 3 to 8) (size 9 to 14) (size 15 to 20)
#    0.000    1.455    3.636    0.000    0.000    5.818 
#   22.909    0.909    0.000    0.000    0.000    0.000 
#    0.000    0.000    0.000    0.000    0.000    0.000 
#
# Total GULP energy -122472.296058 kJ/mol
# GULP energy per Si atom -5566.922548 kJ/mol
# Density = 2.463761 g / cm^3
# Si number density = 24.693814 Si / 1000 Ang^3
#
#
#
# Elastic Constant Matrix: (Units=GPa)
#
#
# Indices 1 2 3 4 5 6 
#
# 1 133.6228 32.3463 18.9638 0.0000 -20.6036 0.0000
# 2 32.3463 113.2969 -2.3621 0.0000 -10.3636 0.0000
# 3 18.9638 -2.3621 50.6731 0.0000 5.7309 0.0000
# 4 0.0000 0.0000 0.0000 -4.4076 0.0000 -22.9463
# 5 -20.6036 -10.3636 5.7309 0.0000 25.9947 0.0000
# 6 0.0000 0.0000 0.0000 -22.9463 0.0000 59.4097
#
#
#
# Elastic Compliance Matrix: (Units=1/GPa)
#
#
# Indices 1 2 3 4 5 6 
#
# 1 0.009925 -0.002197 -0.004725 0.000000 0.008032 0.000000
# 2 -0.002197 0.009647 0.001060 0.000000 0.001871 0.000000
# 3 -0.004725 0.001060 0.022489 0.000000 -0.008280 0.000000
# 4 0.000000 0.000000 0.000000 -0.075356 0.000000 -0.029105
# 5 0.008032 0.001871 -0.008280 0.000000 0.047407 0.000000
# 6 0.000000 0.000000 0.000000 -0.029105 0.000000 0.005591
#
#
# Mechanical properties :
#
#
# Convention : Reuss Voigt Hill
#
# Bulk Modulus (GPa) = 32.96374 43.94320 38.45347
# Shear Modulus (GPa) = 120.37174 32.77567 76.57370
#
# Velocity S-wave (km/s) = 6.98939 3.64714 5.57464
# Velocity P-wave (km/s) = 8.86078 5.96401 7.55257
#
# Compressibility (1/GPa) = 0.03033636
#
# Stress axis : x y z
#
# Youngs Moduli (GPa) = 100.75837 103.65999 44.46712
#
# Poissons Ratio (x) = 0.22777 0.21011
# Poissons Ratio (y) = 0.22140 -0.04715
# Poissons Ratio (z) = 0.47609 -0.10993
#
# Static dielectric constant tensor:
#      x y z
#    x 1.977780 0.000000 -0.044630 
#    y 0.000000 2.002540 0.000000 
#    z -0.044630 0.000000 2.122010 
# 
# From -- ./inp_files/2670.got.cif
#   From: 2010.05.17/outbox.cif.g08.bks.cpg/sg11_2_cif.got.tgz:2670.got - 2010.06.03 12:22:45.
