data_PCOD9166264
_publ_section_title
;
Structure prediction by ZEFSAII (Michael W. Deem and Ramdas Pophale) SiO2 
 PCOD9166264
Probable space group: P 21/M
;
_chemical_formula_sum "Si O2"
_cell_formula_units_Z 32
_cell_length_a 15.536507
_cell_length_b 12.294890
_cell_length_c 18.450388
_cell_angle_alpha 90.000000
_cell_angle_beta 154.526431
_cell_angle_gamma 90.000000
_cell_volume 1515.819913
_symmetry_space_group_name_H-M "P 21/M"
_symmetry_group_IT_number 11
_symmetry_cell_setting 'monoclinic'
loop_
_space_group_symop_operation_xyz
x,y,z
-x,1/2+y,-z
-x,-y,-z
x,1/2-y,z
loop_
_atom_site_type_symbol
_atom_site_label
_atom_site_fract_x
_atom_site_fract_y
_atom_site_fract_z
Si Si1 0.760391 0.037592 0.044438
Si Si2 0.352314 0.367312 0.682401
Si Si3 0.290555 0.973899 0.261453
Si Si4 0.063970 0.622731 0.964032
Si Si5 0.325345 0.623496 0.443439
Si Si6 0.221445 0.424341 0.732865
Si Si7 0.907697 0.478503 0.605376
Si Si8 0.511259 0.372498 0.082381
O O1 0.572351 0.114638 0.883677
O O2 0.889853 0.049574 0.070788
O O3 0.646914 0.926580 0.981422
O O4 0.917521 0.056942 0.228867
O O5 0.342350 0.250000 0.639470
O O6 0.212345 0.373028 0.647027
O O7 0.277691 0.457708 0.570007
O O8 0.500933 0.034088 0.413364
O O9 0.240417 0.899689 0.154897
O O10 0.267738 0.901494 0.316407
O O11 0.133049 0.073039 0.148974
O O12 0.044862 0.750000 0.931652
O O13 0.385478 0.750000 0.495857
O O14 0.161323 0.596252 0.380259
O O15 0.299395 0.547730 0.778592
O O16 0.019915 0.417499 0.625498
O O17 0.396352 0.376585 0.917596
O O18 0.560928 0.250000 0.139239
#
# Coordination Sequence:
#
# PCOD9166264 Si02
#       8
#     4   4   4   4   4   4   4   4
#     4  10  22  40  59  95 127 158 209 263 301 384
#     4  11  23  39  61  88 124 169 208 256 318 368
#     4  10  23  42  64  96 124 159 218 260 310 398
#     4  11  21  40  66  92 128 168 206 263 324 375
#     4  11  23  43  66  91 127 166 205 264 326 374
#     4   9  20  37  58  88 128 159 212 265 301 378
#     4  11  23  41  61  93 125 162 210 268 305 385
#     4   9  18  36  63  90 125 170 207 256 319 366
#
# _framework density 21.110686999999999
#
# number of rings (size 3 to 8) (size 9 to 14) (size 15 to 20)
#    0.000    1.750    1.250    3.375    0.000    4.000 
#    0.000    8.750    0.000    0.000    0.000    0.000 
#    0.000    0.000    0.000    0.000    0.000    0.000 
#
# Total GULP energy -178508.665740 kJ/mol
# GULP energy per Si atom -5578.395804 kJ/mol
# Density = 2.106264 g / cm^3
# Si number density = 21.110687 Si / 1000 Ang^3
#
#
#
# Elastic Constant Matrix: (Units=GPa)
#
#
# Indices 1 2 3 4 5 6 
#
# 1 73.9052 19.9048 0.9688 0.0000 -2.3828 0.0000
# 2 19.9048 77.5488 -14.5518 0.0000 3.5525 0.0000
# 3 0.9688 -14.5518 34.4442 0.0000 -3.6259 0.0000
# 4 0.0000 0.0000 0.0000 7.8326 0.0000 -1.3282
# 5 -2.3828 3.5525 -3.6259 0.0000 29.1215 0.0000
# 6 0.0000 0.0000 0.0000 -1.3282 0.0000 11.2214
#
#
#
# Elastic Compliance Matrix: (Units=1/GPa)
#
#
# Indices 1 2 3 4 5 6 
#
# 1 0.014746 -0.004237 -0.002050 0.000000 0.001468 0.000000
# 2 -0.004237 0.015251 0.006414 0.000000 -0.001408 0.000000
# 3 -0.002050 0.006414 0.032121 0.000000 0.003049 0.000000
# 4 0.000000 0.000000 0.000000 0.130286 0.000000 0.015421
# 5 0.001468 -0.001408 0.003049 0.000000 0.035010 0.000000
# 6 0.000000 0.000000 0.000000 0.015421 0.000000 0.090940
#
#
# Mechanical properties :
#
#
# Convention : Reuss Voigt Hill
#
# Bulk Modulus (GPa) = 16.03300 22.06020 19.04660
# Shear Modulus (GPa) = 14.75397 21.60688 18.18042
#
# Velocity S-wave (km/s) = 2.64651 3.20270 2.93780
# Velocity P-wave (km/s) = 4.11703 4.91414 4.53314
#
# Compressibility (1/GPa) = 0.06237136
#
# Stress axis : x y z
#
# Youngs Moduli (GPa) = 67.81419 65.57079 31.13239
#
# Poissons Ratio (x) = 0.27782 0.06383
# Poissons Ratio (y) = 0.28732 -0.19968
# Poissons Ratio (z) = 0.13903 -0.42057
#
# Static dielectric constant tensor:
#      x y z
#    x 1.781750 0.000000 0.025620 
#    y 0.000000 1.744070 0.000000 
#    z 0.025620 0.000000 1.799080 
# 
# From -- ./inp_files/60420.got.cif
#   From: 2010.05.17/outbox.cif.g08.bks.cpg/sg11_31_cif.got.tgz:60420.got - 2010.06.03 12:22:45.
