data_PCOD9166009
_publ_section_title
;
Structure prediction by ZEFSAII (Michael W. Deem and Ramdas Pophale) SiO2 
 PCOD9166009
Probable space group: P 21/M
;
_chemical_formula_sum "Si O2"
_cell_formula_units_Z 22
_cell_length_a 10.540959
_cell_length_b 13.386124
_cell_length_c 9.097686
_cell_angle_alpha 90.000000
_cell_angle_beta 109.922725
_cell_angle_gamma 90.000000
_cell_volume 1206.881056
_symmetry_space_group_name_H-M "P 21/M"
_symmetry_group_IT_number 11
_symmetry_cell_setting 'monoclinic'
loop_
_space_group_symop_operation_xyz
x,y,z
-x,1/2+y,-z
-x,-y,-z
x,1/2-y,z
loop_
_atom_site_type_symbol
_atom_site_label
_atom_site_fract_x
_atom_site_fract_y
_atom_site_fract_z
Si Si1 0.199721 0.250000 0.919996
Si Si2 0.129115 0.054371 0.394429
Si Si3 0.853215 0.951644 0.935558
Si Si4 0.365166 0.565617 0.958317
Si Si5 0.770115 0.750000 0.398792
Si Si6 0.161077 0.627488 0.628678
Si Si7 0.519777 0.750000 0.119623
O O1 0.155631 0.250000 0.731475
O O2 0.363902 0.250000 0.963331
O O3 0.148344 0.344669 0.987330
O O4 0.182463 0.053609 0.250087
O O5 0.194710 0.147018 0.507966
O O6 0.970814 0.086968 0.334787
O O7 0.153777 0.947037 0.483738
O O8 0.746593 0.012476 0.988488
O O9 0.000000 0.000000 0.000000
O O10 0.421901 0.658765 0.066926
O O11 0.500000 0.500000 0.000000
O O12 0.292986 0.599439 0.777806
O O13 0.612267 0.750000 0.298887
O O14 0.153808 0.750000 0.604422
#
# Coordination Sequence:
#
# PCOD9166009 Si02
#       7
#     2   4   4   4   2   4   2
#     4  10  23  42  67  96 129 176 219 267 339 396
#     4  11  23  40  65  99 137 172 221 281 342 395
#     4  12  25  40  67 106 133 169 224 287 331 391
#     4  12  22  44  69  94 132 178 230 265 334 412
#     4  10  21  44  69  96 127 185 223 264 349 413
#     4  11  23  40  66  97 133 182 222 274 337 404
#     4  10  22  40  72  92 120 187 224 261 320 423
#
# _framework density 18.228807
#
# number of rings (size 3 to 8) (size 9 to 14) (size 15 to 20)
#    0.545    0.364    5.455    2.727    2.545    0.727 
#    1.636    3.636    0.000    0.000    0.000    0.000 
#    0.000    0.000    0.000    0.000    0.000    0.000 
#
# Total GULP energy -122596.574837 kJ/mol
# GULP energy per Si atom -5572.571583 kJ/mol
# Density = 1.818732 g / cm^3
# Si number density = 18.228807 Si / 1000 Ang^3
#
#
#
# Elastic Constant Matrix: (Units=GPa)
#
#
# Indices 1 2 3 4 5 6 
#
# 1 101.2468 69.6401 37.1404 0.0000 9.3322 0.0000
# 2 69.6401 175.9323 64.3235 0.0000 -3.8473 0.0000
# 3 37.1404 64.3235 114.5905 0.0000 -4.2278 0.0000
# 4 0.0000 0.0000 0.0000 41.3120 0.0000 15.7499
# 5 9.3322 -3.8473 -4.2278 0.0000 43.8608 0.0000
# 6 0.0000 0.0000 0.0000 15.7499 0.0000 36.5797
#
#
#
# Elastic Compliance Matrix: (Units=1/GPa)
#
#
# Indices 1 2 3 4 5 6 
#
# 1 0.014429 -0.005074 -0.001965 0.000000 -0.003705 0.000000
# 2 -0.005074 0.008939 -0.003316 0.000000 0.001544 0.000000
# 3 -0.001965 -0.003316 0.011270 0.000000 0.001214 0.000000
# 4 0.000000 0.000000 0.000000 0.028960 0.000000 -0.012469
# 5 -0.003705 0.001544 0.001214 0.000000 0.023840 0.000000
# 6 0.000000 0.000000 0.000000 -0.012469 0.000000 0.032706
#
#
# Mechanical properties :
#
#
# Convention : Reuss Voigt Hill
#
# Bulk Modulus (GPa) = 71.80184 81.55306 76.67745
# Shear Modulus (GPa) = 34.36499 39.06153 36.71326
#
# Velocity S-wave (km/s) = 4.34660 4.63411 4.49266
# Velocity P-wave (km/s) = 8.04148 8.57141 8.31067
#
# Compressibility (1/GPa) = 0.01392722
#
# Stress axis : x y z
#
# Youngs Moduli (GPa) = 69.30337 111.87347 88.73263
#
# Poissons Ratio (x) = 0.56766 0.17437
# Poissons Ratio (y) = 0.35166 0.29424
# Poissons Ratio (z) = 0.13619 0.37097
#
# Static dielectric constant tensor:
#      x y z
#    x 1.597270 0.000000 0.021190 
#    y 0.000000 1.577790 0.000000 
#    z 0.021190 0.000000 1.641010 
# 
# From -- ./inp_files/17047.got.cif
#   From: 2010.05.17/outbox.cif.g08.bks.cpg/sg11_9_cif.got.tgz:17047.got - 2010.06.03 12:22:45.
