data_PCOD9166136
_publ_section_title
;
Structure prediction by ZEFSAII (Michael W. Deem and Ramdas Pophale) SiO2 
 PCOD9166136
Probable space group: P 21/M
;
_chemical_formula_sum "Si O2"
_cell_formula_units_Z 32
_cell_length_a 24.189051
_cell_length_b 15.282931
_cell_length_c 8.184455
_cell_angle_alpha 90.000000
_cell_angle_beta 147.886793
_cell_angle_gamma 90.000000
_cell_volume 1608.404134
_symmetry_space_group_name_H-M "P 21/M"
_symmetry_group_IT_number 11
_symmetry_cell_setting 'monoclinic'
loop_
_space_group_symop_operation_xyz
x,y,z
-x,1/2+y,-z
-x,-y,-z
x,1/2-y,z
loop_
_atom_site_type_symbol
_atom_site_label
_atom_site_fract_x
_atom_site_fract_y
_atom_site_fract_z
Si Si1 0.764801 0.526569 0.219792
Si Si2 0.630244 0.008949 0.161904
Si Si3 0.953472 0.402361 0.683212
Si Si4 0.062701 0.153524 0.270694
Si Si5 0.842140 0.508940 0.886697
Si Si6 0.260193 0.350501 0.154143
Si Si7 0.930195 0.154481 0.267072
Si Si8 0.468427 0.352315 0.884330
O O1 0.659733 0.500634 0.047060
O O2 0.839186 0.443203 0.383709
O O3 0.842016 0.588541 0.518208
O O4 0.742597 0.585545 0.007202
O O5 0.743459 0.015386 0.530783
O O6 0.573524 0.919753 0.081221
O O7 0.563989 0.093822 0.045269
O O8 0.967267 0.351058 0.547098
O O9 0.974778 0.357327 0.910624
O O10 0.044215 0.476137 0.906625
O O11 0.106257 0.250000 0.358897
O O12 0.017996 0.147718 0.344134
O O13 0.812260 0.600311 0.896598
O O14 0.858893 0.429557 0.054863
O O15 0.229192 0.250000 0.043379
O O16 0.374772 0.349496 0.519151
O O17 0.880617 0.250000 0.117725
O O18 0.489294 0.250000 0.983055
#
# Coordination Sequence:
#
# PCOD9166136 Si02
#       8
#     4   4   4   4   4   4   4   4
#     4  12  21  37  60  90 125 159 205 250 305 365
#     4  10  22  38  67  93 116 157 201 256 314 373
#     4  12  22  39  58  86 133 177 202 252 303 356
#     4  11  23  36  55  86 123 169 218 257 295 349
#     4  11  20  40  60  85 126 168 205 245 301 365
#     4  10  22  38  63  91 117 155 205 260 313 363
#     4  11  23  38  57  85 125 177 220 246 291 358
#     4   9  21  44  65  89 119 151 199 257 322 380
#
# _framework density 19.895496999999999
#
# number of rings (size 3 to 8) (size 9 to 14) (size 15 to 20)
#    0.000    1.250    3.750    3.000    0.000    4.000 
#    0.000    1.250    0.000    0.000    0.000    0.000 
#    0.000    0.000    0.000    0.000    0.000    0.000 
#
# Total GULP energy -178384.735176 kJ/mol
# GULP energy per Si atom -5574.522974 kJ/mol
# Density = 1.985021 g / cm^3
# Si number density = 19.895497 Si / 1000 Ang^3
#
#
#
# Elastic Constant Matrix: (Units=GPa)
#
#
# Indices 1 2 3 4 5 6 
#
# 1 79.8044 24.1008 32.0043 0.0000 6.2975 0.0000
# 2 24.1008 98.8890 27.9076 0.0000 12.9759 0.0000
# 3 32.0043 27.9076 37.5125 0.0000 9.1461 0.0000
# 4 0.0000 0.0000 0.0000 27.2720 0.0000 1.7408
# 5 6.2975 12.9759 9.1461 0.0000 28.1594 0.0000
# 6 0.0000 0.0000 0.0000 1.7408 0.0000 9.0966
#
#
#
# Elastic Compliance Matrix: (Units=1/GPa)
#
#
# Indices 1 2 3 4 5 6 
#
# 1 0.019082 -0.000162 -0.016439 0.000000 0.001146 0.000000
# 2 -0.000162 0.013046 -0.008809 0.000000 -0.003115 0.000000
# 3 -0.016439 -0.008809 0.049250 0.000000 -0.008261 0.000000
# 4 0.000000 0.000000 0.000000 0.037121 0.000000 -0.007104
# 5 0.001146 -0.003115 -0.008261 0.000000 0.039374 0.000000
# 6 0.000000 0.000000 0.000000 -0.007104 0.000000 0.111290
#
#
# Mechanical properties :
#
#
# Convention : Reuss Voigt Hill
#
# Bulk Modulus (GPa) = 32.72274 42.69238 37.70756
# Shear Modulus (GPa) = 15.14376 21.71848 18.43112
#
# Velocity S-wave (km/s) = 2.76192 3.30756 3.04698
# Velocity P-wave (km/s) = 5.16274 6.00762 5.60114
#
# Compressibility (1/GPa) = 0.03055978
#
# Stress axis : x y z
#
# Youngs Moduli (GPa) = 52.40655 76.64998 20.30442
#
# Poissons Ratio (x) = 0.01239 0.33378
# Poissons Ratio (y) = 0.00847 0.17885
# Poissons Ratio (z) = 0.86151 0.67518
#
# Static dielectric constant tensor:
#      x y z
#    x 1.759400 0.000000 -0.031470 
#    y 0.000000 1.718960 0.000000 
#    z -0.031470 0.000000 1.697410 
# 
# From -- ./inp_files/27824.got.cif
#   From: 2010.05.17/outbox.cif.g08.bks.cpg/sg11_14_cif.got.tgz:27824.got - 2010.06.03 12:22:45.
