data_PCOD9166398
_publ_section_title
;
Structure prediction by ZEFSAII (Michael W. Deem and Ramdas Pophale) SiO2 
 PCOD9166398
Probable space group: P 21/M
;
_chemical_formula_sum "Si O2"
_cell_formula_units_Z 28
_cell_length_a 9.601019
_cell_length_b 14.366726
_cell_length_c 12.333887
_cell_angle_alpha 90.000000
_cell_angle_beta 123.774755
_cell_angle_gamma 90.000000
_cell_volume 1414.151862
_symmetry_space_group_name_H-M "P 21/M"
_symmetry_group_IT_number 11
_symmetry_cell_setting 'monoclinic'
loop_
_space_group_symop_operation_xyz
x,y,z
-x,1/2+y,-z
-x,-y,-z
x,1/2-y,z
loop_
_atom_site_type_symbol
_atom_site_label
_atom_site_fract_x
_atom_site_fract_y
_atom_site_fract_z
Si Si1 0.300850 0.144205 0.415971
Si Si2 0.164781 0.953191 0.308300
Si Si3 0.643082 0.357980 0.422484
Si Si4 0.454555 0.361020 0.133075
Si Si5 0.543816 0.140261 0.705267
Si Si6 0.126568 0.024504 0.958351
Si Si7 0.361542 0.858651 0.012016
O O1 0.237718 0.250000 0.384290
O O2 0.469246 0.138765 0.415610
O O3 0.372526 0.121472 0.566862
O O4 0.177911 0.064513 0.323550
O O5 0.219639 0.910938 0.447185
O O6 0.307464 0.918049 0.285804
O O7 0.984996 0.927164 0.182892
O O8 0.693482 0.250000 0.435380
O O9 0.588765 0.393914 0.281045
O O10 0.433462 0.250000 0.141107
O O11 0.277783 0.411943 0.066110
O O12 0.525215 0.376741 0.043547
O O13 0.580893 0.250000 0.700944
O O14 0.541383 0.126020 0.832407
O O15 0.209134 0.930090 0.949745
O O16 0.000000 0.000000 0.000000
O O17 0.309781 0.750000 0.986795
#
# Coordination Sequence:
#
# PCOD9166398 Si02
#       7
#     4   4   4   4   4   4   4
#     4   9  18  31  52  82 115 151 198 241 285 346
#     4  11  20  32  56  87 123 147 187 247 305 342
#     4   9  18  34  57  83 110 152 198 240 288 348
#     4  10  23  42  64  86 117 161 205 242 288 357
#     4   9  17  32  57  85 110 150 200 245 288 341
#     4  12  24  37  58  95 125 152 194 249 309 350
#     4  10  22  41  62  84 118 163 204 241 289 355
#
# _framework density 19.799852999999999
#
# number of rings (size 3 to 8) (size 9 to 14) (size 15 to 20)
#    0.000    2.000    1.429    4.286    2.000    2.286 
#    0.000    0.714    0.000    0.000    0.000    0.000 
#    0.000    0.000    0.000    0.000    0.000    0.000 
#
# Total GULP energy -156354.952733 kJ/mol
# GULP energy per Si atom -5584.105455 kJ/mol
# Density = 1.975479 g / cm^3
# Si number density = 19.799853 Si / 1000 Ang^3
#
#
#
# Elastic Constant Matrix: (Units=GPa)
#
#
# Indices 1 2 3 4 5 6 
#
# 1 55.0220 24.3755 29.2200 0.0000 -11.1584 0.0000
# 2 24.3755 61.0710 36.2798 0.0000 0.4019 0.0000
# 3 29.2200 36.2798 128.2983 0.0000 -17.7082 0.0000
# 4 0.0000 0.0000 0.0000 21.6578 0.0000 -7.4443
# 5 -11.1584 0.4019 -17.7082 0.0000 25.1603 0.0000
# 6 0.0000 0.0000 0.0000 -7.4443 0.0000 10.2610
#
#
#
# Elastic Compliance Matrix: (Units=1/GPa)
#
#
# Indices 1 2 3 4 5 6 
#
# 1 0.025171 -0.009052 -0.001786 0.000000 0.010051 0.000000
# 2 -0.009052 0.023448 -0.005731 0.000000 -0.008423 0.000000
# 3 -0.001786 -0.005731 0.010771 0.000000 0.006881 0.000000
# 4 0.000000 0.000000 0.000000 0.061512 0.000000 0.044627
# 5 0.010051 -0.008423 0.006881 0.000000 0.049180 0.000000
# 6 0.000000 0.000000 0.000000 0.044627 0.000000 0.129834
#
#
# Mechanical properties :
#
#
# Convention : Reuss Voigt Hill
#
# Bulk Modulus (GPa) = 38.09235 47.12687 42.60961
# Shear Modulus (GPa) = 14.62819 21.71688 18.17254
#
# Velocity S-wave (km/s) = 2.72104 3.31542 3.03283
# Velocity P-wave (km/s) = 5.39931 6.20559 5.81644
#
# Compressibility (1/GPa) = 0.02625199
#
# Stress axis : x y z
#
# Youngs Moduli (GPa) = 39.72759 42.64827 92.83787
#
# Poissons Ratio (x) = 0.38605 0.16579
# Poissons Ratio (y) = 0.35962 0.53209
# Poissons Ratio (z) = 0.07095 0.24443
#
# Static dielectric constant tensor:
#      x y z
#    x 1.645310 0.000000 -0.027220 
#    y 0.000000 1.728060 0.000000 
#    z -0.027220 0.000000 1.742290 
# 
# From -- ./inp_files/31956.got.cif
#   From: 2010.05.17/outbox.cif.g08.bks.cpg/sg11_16_cif.got.tgz:31956.got - 2010.06.03 12:22:45.
