data_PCOD9166173
_publ_section_title
;
Structure prediction by ZEFSAII (Michael W. Deem and Ramdas Pophale) SiO2 
 PCOD9166173
Probable space group: P 21/M
;
_chemical_formula_sum "Si O2"
_cell_formula_units_Z 24
_cell_length_a 18.260874
_cell_length_b 8.735910
_cell_length_c 15.803721
_cell_angle_alpha 90.000000
_cell_angle_beta 29.996230
_cell_angle_gamma 90.000000
_cell_volume 1260.403412
_symmetry_space_group_name_H-M "P 21/M"
_symmetry_group_IT_number 11
_symmetry_cell_setting 'monoclinic'
loop_
_space_group_symop_operation_xyz
x,y,z
-x,1/2+y,-z
-x,-y,-z
x,1/2-y,z
loop_
_atom_site_type_symbol
_atom_site_label
_atom_site_fract_x
_atom_site_fract_y
_atom_site_fract_z
Si Si1 0.586600 0.066267 0.333241
Si Si2 0.918769 0.934615 0.662946
Si Si3 0.421856 0.433992 0.995225
Si Si4 0.908077 0.065355 0.341173
Si Si5 0.086899 0.066188 0.992905
Si Si6 0.582371 0.933267 0.670420
O O1 0.591614 0.250000 0.334431
O O2 0.502347 0.024730 0.331037
O O3 0.500000 0.000000 0.500000
O O4 0.750081 0.000490 0.167987
O O5 0.922381 0.750000 0.655388
O O6 0.002915 0.981513 0.664093
O O7 0.748747 0.981415 0.835242
O O8 0.000000 0.000000 0.500000
O O9 0.428486 0.250000 0.990591
O O10 0.502665 0.493622 0.830795
O O11 0.500000 0.500000 0.000000
O O12 0.891515 0.250000 0.359510
O O13 0.748780 0.990711 0.499244
O O14 0.000073 0.025592 0.165521
O O15 0.093801 0.250000 0.980034
O O16 0.000000 0.000000 0.000000
O O17 0.580119 0.750000 0.681004
#
# Coordination Sequence:
#
# PCOD9166173 Si02
#       6
#     4   4   4   4   4   4
#     4  11  24  41  62  89 122 160 203 251 303 361
#     4  10  22  39  59  85 115 150 192 237 287 344
#     4  11  23  40  62  88 120 157 198 244 296 356
#     4  10  22  40  61  85 116 156 197 239 294 357
#     4  11  23  40  63  90 121 158 201 248 301 361
#     4  11  24  40  60  89 121 155 198 247 298 353
#
# _framework density 19.041523000000002
#
# number of rings (size 3 to 8) (size 9 to 14) (size 15 to 20)
#    0.000    1.333    0.000    5.000    0.000   12.667 
#    0.000    0.000    0.000    0.000    0.000    0.000 
#    0.000    0.000    0.000    0.000    0.000    0.000 
#
# Total GULP energy -134275.985817 kJ/mol
# GULP energy per Si atom -5594.832742 kJ/mol
# Density = 1.899818 g / cm^3
# Si number density = 19.041523 Si / 1000 Ang^3
#
#
#
# Elastic Constant Matrix: (Units=GPa)
#
#
# Indices 1 2 3 4 5 6 
#
# 1 237.0231 73.0499 145.3329 0.0000 -1.5134 0.0000
# 2 73.0499 48.8668 69.9056 0.0000 1.7846 0.0000
# 3 145.3329 69.9056 229.7994 0.0000 -2.4340 0.0000
# 4 0.0000 0.0000 0.0000 39.1095 0.0000 -0.9259
# 5 -1.5134 1.7846 -2.4340 0.0000 46.4605 0.0000
# 6 0.0000 0.0000 0.0000 -0.9259 0.0000 34.7944
#
#
#
# Elastic Compliance Matrix: (Units=1/GPa)
#
#
# Indices 1 2 3 4 5 6 
#
# 1 0.008709 -0.009144 -0.002721 0.000000 0.000492 0.000000
# 2 -0.009144 0.046013 -0.008241 0.000000 -0.002497 0.000000
# 3 -0.002721 -0.008241 0.008586 0.000000 0.000678 0.000000
# 4 0.000000 0.000000 0.000000 0.025585 0.000000 0.000681
# 5 0.000492 -0.002497 0.000678 0.000000 0.021671 0.000000
# 6 0.000000 0.000000 0.000000 0.000681 0.000000 0.028758
#
#
# Mechanical properties :
#
#
# Convention : Reuss Voigt Hill
#
# Bulk Modulus (GPa) = 43.29617 121.36290 82.32953
# Shear Modulus (GPa) = 26.70479 39.23294 32.96886
#
# Velocity S-wave (km/s) = 3.74899 4.54407 4.16555
# Velocity P-wave (km/s) = 6.44415 9.56064 8.15269
#
# Compressibility (1/GPa) = 0.02309673
#
# Stress axis : x y z
#
# Youngs Moduli (GPa) = 114.82944 21.73308 116.46498
#
# Poissons Ratio (x) = 0.19873 0.31687
# Poissons Ratio (y) = 1.05002 0.95974
# Poissons Ratio (z) = 0.31242 0.17909
#
# Static dielectric constant tensor:
#      x y z
#    x 1.632440 0.000000 -0.001360 
#    y 0.000000 1.645330 0.000000 
#    z -0.001360 0.000000 1.613500 
# 
# From -- ./inp_files/53158.got.cif
#   From: 2010.05.17/outbox.cif.g08.bks.cpg/sg11_27_cif.got.tgz:53158.got - 2010.06.03 12:22:45.
