data_PCOD9166764
_publ_section_title
;
Structure prediction by ZEFSAII (Michael W. Deem and Ramdas Pophale) SiO2 
 PCOD9166764
Probable space group: P 21/M
;
_chemical_formula_sum "Si O2"
_cell_formula_units_Z 28
_cell_length_a 11.975951
_cell_length_b 14.698594
_cell_length_c 8.238260
_cell_angle_alpha 90.000000
_cell_angle_beta 58.540476
_cell_angle_gamma 90.000000
_cell_volume 1237.014941
_symmetry_space_group_name_H-M "P 21/M"
_symmetry_group_IT_number 11
_symmetry_cell_setting 'monoclinic'
loop_
_space_group_symop_operation_xyz
x,y,z
-x,1/2+y,-z
-x,-y,-z
x,1/2-y,z
loop_
_atom_site_type_symbol
_atom_site_label
_atom_site_fract_x
_atom_site_fract_y
_atom_site_fract_z
Si Si1 0.699300 0.510645 0.662528
Si Si2 0.991848 0.606487 0.967284
Si Si3 0.849190 0.644775 0.737849
Si Si4 0.882606 0.146118 0.616126
Si Si5 0.248947 0.649727 0.931522
Si Si6 0.565658 0.979921 0.274888
Si Si7 0.737222 0.852044 0.335231
O O1 0.735922 0.572141 0.790305
O O2 0.802704 0.428740 0.576877
O O3 0.553630 0.470611 0.760014
O O4 0.715803 0.580456 0.500986
O O5 0.136902 0.644182 0.879910
O O6 0.928379 0.625600 0.841878
O O7 0.000000 0.500000 0.000000
O O8 0.889050 0.648003 0.171856
O O9 0.806218 0.750000 0.766133
O O10 0.962298 0.630206 0.515911
O O11 0.860411 0.250000 0.576413
O O12 0.828190 0.139183 0.839955
O O13 0.311301 0.750000 0.881558
O O14 0.348488 0.567599 0.834838
O O15 0.500000 0.000000 0.500000
O O16 0.658078 0.893923 0.241967
O O17 0.693645 0.750000 0.405664
#
# Coordination Sequence:
#
# PCOD9166764 Si02
#       7
#     4   4   4   4   4   4   4
#     4  11  23  43  67  94 134 179 219 266 336 397
#     4  12  22  40  70  99 135 171 220 283 336 388
#     4  11  23  39  64 102 134 169 220 276 337 396
#     4  10  23  42  66  99 134 171 220 278 337 392
#     4  11  23  43  68  97 131 177 225 271 329 398
#     4  10  25  43  65  95 127 175 225 270 323 391
#     4  11  23  43  67  97 132 175 225 276 334 397
#
# _framework density 22.635134000000001
#
# number of rings (size 3 to 8) (size 9 to 14) (size 15 to 20)
#    0.000    1.143    1.429    4.714    2.000    5.143 
#    0.000    0.000    0.000    0.000    0.000    0.000 
#    0.000    0.000    0.000    0.000    0.000    0.000 
#
# Total GULP energy -156709.802795 kJ/mol
# GULP energy per Si atom -5596.778671 kJ/mol
# Density = 2.258362 g / cm^3
# Si number density = 22.635134 Si / 1000 Ang^3
#
#
#
# Elastic Constant Matrix: (Units=GPa)
#
#
# Indices 1 2 3 4 5 6 
#
# 1 110.4202 52.8452 -5.6518 0.0000 3.6000 0.0000
# 2 52.8452 150.9898 6.9095 0.0000 5.4045 0.0000
# 3 -5.6518 6.9095 53.5817 0.0000 7.5738 0.0000
# 4 0.0000 0.0000 0.0000 28.7846 0.0000 8.0804
# 5 3.6000 5.4045 7.5738 0.0000 27.8984 0.0000
# 6 0.0000 0.0000 0.0000 8.0804 0.0000 -2.7346
#
#
#
# Elastic Compliance Matrix: (Units=1/GPa)
#
#
# Indices 1 2 3 4 5 6 
#
# 1 0.011061 -0.003914 0.001836 0.000000 -0.001168 0.000000
# 2 -0.003914 0.008080 -0.001357 0.000000 -0.000692 0.000000
# 3 0.001836 -0.001357 0.019787 0.000000 -0.005346 0.000000
# 4 0.000000 0.000000 0.000000 0.018989 0.000000 0.056111
# 5 -0.001168 -0.000692 -0.005346 0.000000 0.037580 0.000000
# 6 0.000000 0.000000 0.000000 0.056111 0.000000 -0.199881
#
#
# Mechanical properties :
#
#
# Convention : Reuss Voigt Hill
#
# Bulk Modulus (GPa) = 31.19124 47.02195 39.10660
# Shear Modulus (GPa) = -57.58527 28.18226 -14.70150
#
# Velocity S-wave (km/s) = -5.04935 3.53238 -2.55129
# Velocity P-wave (km/s) = 4.49273 6.12012 2.93865
#
# Compressibility (1/GPa) = 0.03206028
#
# Stress axis : x y z
#
# Youngs Moduli (GPa) = 90.40461 123.76912 50.53712
#
# Poissons Ratio (x) = 0.48439 -0.09281
# Poissons Ratio (y) = 0.35381 0.06857
# Poissons Ratio (z) = -0.16603 0.16794
#
# Static dielectric constant tensor:
#      x y z
#    x 1.853090 0.000000 0.037870 
#    y 0.000000 1.847480 0.000000 
#    z 0.037870 0.000000 1.898820 
# 
# From -- ./inp_files/17967.got.cif
#   From: 2010.05.17/outbox.cif.g08.bks.cpg/sg11_9_cif.got.tgz:17967.got - 2010.06.03 12:22:45.
