data_PCOD9166474
_publ_section_title
;
Structure prediction by ZEFSAII (Michael W. Deem and Ramdas Pophale) SiO2 
 PCOD9166474
Probable space group: P 21/M
;
_chemical_formula_sum "Si O2"
_cell_formula_units_Z 20
_cell_length_a 14.286777
_cell_length_b 10.909883
_cell_length_c 16.636635
_cell_angle_alpha 90.000000
_cell_angle_beta 19.531759
_cell_angle_gamma 90.000000
_cell_volume 866.950505
_symmetry_space_group_name_H-M "P 21/M"
_symmetry_group_IT_number 11
_symmetry_cell_setting 'monoclinic'
loop_
_space_group_symop_operation_xyz
x,y,z
-x,1/2+y,-z
-x,-y,-z
x,1/2-y,z
loop_
_atom_site_type_symbol
_atom_site_label
_atom_site_fract_x
_atom_site_fract_y
_atom_site_fract_z
Si Si1 0.596320 0.616435 0.012471
Si Si2 0.375389 0.887764 0.547882
Si Si3 0.816348 0.531550 0.070647
Si Si4 0.067935 0.960549 0.354967
Si Si5 0.518494 0.382749 0.190678
O O1 0.587942 0.750000 0.056895
O O2 0.357721 0.610335 0.135906
O O3 0.563100 0.501635 0.098731
O O4 0.880558 0.583924 0.736528
O O5 0.440774 0.750000 0.525194
O O6 0.538295 0.901066 0.330527
O O7 0.500000 0.000000 0.500000
O O8 0.038028 0.904055 0.830185
O O9 0.702500 0.410168 0.119538
O O10 0.000000 0.500000 0.000000
O O11 0.813121 0.887125 0.524054
O O12 0.000000 0.000000 0.500000
O O13 0.587680 0.250000 0.099326
#
# Coordination Sequence:
#
# PCOD9166474 Si02
#       5
#     4   4   4   4   4
#     4  10  22  41  67 100 139 178 223 284 355 426
#     4  10  22  42  69  98 132 175 230 289 354 420
#     4  10  24  44  67 100 137 186 233 294 354 414
#     4   9  21  40  65  98 135 178 222 277 344 422
#     4  11  25  43  67  99 134 180 237 293 351 422
#
# _framework density 23.069368999999998
#
# number of rings (size 3 to 8) (size 9 to 14) (size 15 to 20)
#    0.000    2.000    0.000    1.200    2.800   19.200 
#    0.000    0.000    0.000    0.000    0.000    0.000 
#    0.000    0.000    0.000    0.000    0.000    0.000 
#
# Total GULP energy -111394.107260 kJ/mol
# GULP energy per Si atom -5569.705363 kJ/mol
# Density = 2.301686 g / cm^3
# Si number density = 23.069369 Si / 1000 Ang^3
#
#
#
# Elastic Constant Matrix: (Units=GPa)
#
#
# Indices 1 2 3 4 5 6 
#
# 1 66.5731 36.9233 30.1075 0.0000 -24.1445 0.0000
# 2 36.9233 202.4519 41.9457 0.0000 -2.1101 0.0000
# 3 30.1075 41.9457 134.5352 0.0000 19.4941 0.0000
# 4 0.0000 0.0000 0.0000 12.3729 0.0000 6.8550
# 5 -24.1445 -2.1101 19.4941 0.0000 33.9619 0.0000
# 6 0.0000 0.0000 0.0000 6.8550 0.0000 28.6049
#
#
#
# Elastic Compliance Matrix: (Units=1/GPa)
#
#
# Indices 1 2 3 4 5 6 
#
# 1 0.031654 -0.003388 -0.010098 0.000000 0.028089 0.000000
# 2 -0.003388 0.005704 -0.000788 0.000000 -0.001602 0.000000
# 3 -0.010098 -0.000788 0.011982 0.000000 -0.014106 0.000000
# 4 0.000000 0.000000 0.000000 0.093196 0.000000 -0.022334
# 5 0.028089 -0.001602 -0.014106 0.000000 0.057411 0.000000
# 6 0.000000 0.000000 0.000000 -0.022334 0.000000 0.040311
#
#
# Mechanical properties :
#
#
# Convention : Reuss Voigt Hill
#
# Bulk Modulus (GPa) = 48.09359 69.05702 58.57531
# Shear Modulus (GPa) = 18.13317 34.62685 26.38001
#
# Velocity S-wave (km/s) = 2.80666 3.87846 3.38525
# Velocity P-wave (km/s) = 5.60319 7.07503 6.38169
#
# Compressibility (1/GPa) = 0.02079279
#
# Stress axis : x y z
#
# Youngs Moduli (GPa) = 31.59126 175.31669 83.45637
#
# Poissons Ratio (x) = 0.59402 0.84271
# Poissons Ratio (y) = 0.10704 0.06576
# Poissons Ratio (z) = 0.31900 0.13815
#
# Static dielectric constant tensor:
#      x y z
#    x 1.881820 0.000000 0.037360 
#    y 0.000000 1.857220 0.000000 
#    z 0.037360 0.000000 2.004950 
# 
# From -- ./inp_files/60298.got.cif
#   From: 2010.05.17/outbox.cif.g08.bks.cpg/sg11_31_cif.got.tgz:60298.got - 2010.06.03 12:22:45.
