data_PCOD9166228
_publ_section_title
;
Structure prediction by ZEFSAII (Michael W. Deem and Ramdas Pophale) SiO2 
 PCOD9166228
Probable space group: P 21/M
;
_chemical_formula_sum "Si O2"
_cell_formula_units_Z 28
_cell_length_a 6.326027
_cell_length_b 17.397062
_cell_length_c 13.291812
_cell_angle_alpha 90.000000
_cell_angle_beta 62.093609
_cell_angle_gamma 90.000000
_cell_volume 1292.714432
_symmetry_space_group_name_H-M "P 21/M"
_symmetry_group_IT_number 11
_symmetry_cell_setting 'monoclinic'
loop_
_space_group_symop_operation_xyz
x,y,z
-x,1/2+y,-z
-x,-y,-z
x,1/2-y,z
loop_
_atom_site_type_symbol
_atom_site_label
_atom_site_fract_x
_atom_site_fract_y
_atom_site_fract_z
Si Si1 0.603497 0.659449 0.121241
Si Si2 0.818253 0.446955 0.821991
Si Si3 0.015555 0.163955 0.285851
Si Si4 0.017727 0.916713 0.913414
Si Si5 0.435620 0.916026 0.552361
Si Si6 0.266037 0.161532 0.682701
Si Si7 0.550704 0.574438 0.761512
O O1 0.603855 0.750000 0.096730
O O2 0.393387 0.613926 0.110785
O O3 0.584268 0.652126 0.246780
O O4 0.852960 0.619476 0.035298
O O5 0.708314 0.501560 0.759701
O O6 0.897739 0.507077 0.891044
O O7 0.048326 0.398560 0.736938
O O8 0.946736 0.250000 0.326442
O O9 0.976228 0.145527 0.177796
O O10 0.843949 0.106332 0.385285
O O11 0.292472 0.147306 0.242419
O O12 0.295252 0.932217 0.872923
O O13 0.577442 0.857368 0.449778
O O14 0.508159 0.917672 0.652850
O O15 0.500000 0.000000 0.500000
O O16 0.180321 0.250000 0.699807
#
# Coordination Sequence:
#
# PCOD9166228 Si02
#       7
#     4   4   4   4   4   4   4
#     4  11  24  41  62  90 126 165 202 247 306 366
#     4  11  22  41  64  91 122 159 209 253 301 363
#     4  10  22  39  62  92 120 152 198 252 309 362
#     4  10  22  41  65  92 123 157 202 256 304 358
#     4  11  22  41  63  87 121 159 204 253 300 359
#     4  11  25  41  60  91 129 166 203 248 304 366
#     4  10  23  40  64  91 117 157 203 253 307 359
#
# _framework density 21.659849999999999
#
# number of rings (size 3 to 8) (size 9 to 14) (size 15 to 20)
#    0.000    1.429    0.000    6.000    0.000   11.429 
#    0.000    1.429    0.000    0.000    0.000    0.000 
#    0.000    0.000    0.000    0.000    0.000    0.000 
#
# Total GULP energy -156537.915428 kJ/mol
# GULP energy per Si atom -5590.639837 kJ/mol
# Density = 2.161055 g / cm^3
# Si number density = 21.659850 Si / 1000 Ang^3
#
#
#
# Elastic Constant Matrix: (Units=GPa)
#
#
# Indices 1 2 3 4 5 6 
#
# 1 88.7525 44.5634 22.1064 0.0000 -20.7571 0.0000
# 2 44.5634 132.6333 31.9963 0.0000 -10.6285 0.0000
# 3 22.1064 31.9963 91.9805 0.0000 -9.5043 0.0000
# 4 0.0000 0.0000 0.0000 34.0689 0.0000 -7.5973
# 5 -20.7571 -10.6285 -9.5043 0.0000 20.4919 0.0000
# 6 0.0000 0.0000 0.0000 -7.5973 0.0000 18.4820
#
#
#
# Elastic Compliance Matrix: (Units=1/GPa)
#
#
# Indices 1 2 3 4 5 6 
#
# 1 0.017123 -0.004317 -0.001106 0.000000 0.014593 0.000000
# 2 -0.004317 0.009509 -0.002324 0.000000 -0.000519 0.000000
# 3 -0.001106 -0.002324 0.012295 0.000000 0.003377 0.000000
# 4 0.000000 0.000000 0.000000 0.032314 0.000000 0.013283
# 5 0.014593 -0.000519 0.003377 0.000000 0.064879 0.000000
# 6 0.000000 0.000000 0.000000 0.013283 0.000000 0.059567
#
#
# Mechanical properties :
#
#
# Convention : Reuss Voigt Hill
#
# Bulk Modulus (GPa) = 42.67317 56.74429 49.70873
# Shear Modulus (GPa) = 22.83182 28.92189 25.87685
#
# Velocity S-wave (km/s) = 3.25022 3.65811 3.46018
# Velocity P-wave (km/s) = 5.81632 6.64057 6.24206
#
# Compressibility (1/GPa) = 0.02343393
#
# Stress axis : x y z
#
# Youngs Moduli (GPa) = 58.39999 105.16207 81.33412
#
# Poissons Ratio (x) = 0.45399 0.08994
# Poissons Ratio (y) = 0.25212 0.18901
# Poissons Ratio (z) = 0.06458 0.24438
#
# Static dielectric constant tensor:
#      x y z
#    x 1.825400 0.000000 0.025000 
#    y 0.000000 1.808270 0.000000 
#    z 0.025000 0.000000 1.798370 
# 
# From -- ./inp_files/45981.got.cif
#   From: 2010.05.17/outbox.cif.g08.bks.cpg/sg11_23_cif.got.tgz:45981.got - 2010.06.03 12:22:45.
