data_PCOD9166875
_publ_section_title
;
Structure prediction by ZEFSAII (Michael W. Deem and Ramdas Pophale) SiO2 
 PCOD9166875
Probable space group: P 21/M
;
_chemical_formula_sum "Si O2"
_cell_formula_units_Z 26
_cell_length_a 8.969336
_cell_length_b 18.938644
_cell_length_c 12.100618
_cell_angle_alpha 90.000000
_cell_angle_beta 39.380426
_cell_angle_gamma 90.000000
_cell_volume 1304.143593
_symmetry_space_group_name_H-M "P 21/M"
_symmetry_group_IT_number 11
_symmetry_cell_setting 'monoclinic'
loop_
_space_group_symop_operation_xyz
x,y,z
-x,1/2+y,-z
-x,-y,-z
x,1/2-y,z
loop_
_atom_site_type_symbol
_atom_site_label
_atom_site_fract_x
_atom_site_fract_y
_atom_site_fract_z
Si Si1 0.967379 0.750000 0.786819
Si Si2 0.897666 0.523106 0.441025
Si Si3 0.648278 0.464585 0.195823
Si Si4 0.681407 0.881652 0.267425
Si Si5 0.221052 0.601576 0.657624
Si Si6 0.451974 0.750000 0.016796
Si Si7 0.844684 0.116196 0.881376
Si Si8 0.412576 0.250000 0.821186
O O1 0.112252 0.678000 0.695288
O O2 0.735793 0.750000 0.841063
O O3 0.847629 0.750000 0.976406
O O4 0.628804 0.545116 0.620697
O O5 0.888762 0.457747 0.359435
O O6 0.000000 0.500000 0.500000
O O7 0.055639 0.581393 0.288123
O O8 0.705069 0.546668 0.184303
O O9 0.790306 0.421021 0.208110
O O10 0.717369 0.439963 0.034387
O O11 0.495875 0.898529 0.469486
O O12 0.568151 0.820056 0.260502
O O13 0.925732 0.859683 0.181678
O O14 0.330238 0.680462 0.039935
O O15 0.421090 0.750000 0.167686
#
# Coordination Sequence:
#
# PCOD9166875 Si02
#       8
#     2   4   4   4   4   2   4   2
#     4  10  25  42  65  94 138 182 227 277 343 412
#     4  11  26  42  68 107 142 178 227 281 348 413
#     4  11  24  43  73 107 133 177 236 285 336 404
#     4  11  21  43  71 104 130 180 233 286 336 397
#     4  11  22  46  70 100 137 176 236 287 331 410
#     4  10  29  44  60 103 142 178 232 274 348 433
#     4  12  24  45  71  99 142 180 224 287 341 403
#     4  10  24  40  63  93 138 178 229 265 345 413
#
# _framework density 19.936454000000001
#
# number of rings (size 3 to 8) (size 9 to 14) (size 15 to 20)
#    0.462    0.615    3.077    3.231    8.615    1.231 
#    0.000    0.769    0.000    0.000    0.000    0.000 
#    0.000    0.000    0.000    0.000    0.000    0.000 
#
# Total GULP energy -145226.411293 kJ/mol
# GULP energy per Si atom -5585.631204 kJ/mol
# Density = 1.989108 g / cm^3
# Si number density = 19.936454 Si / 1000 Ang^3
#
#
#
# Elastic Constant Matrix: (Units=GPa)
#
#
# Indices 1 2 3 4 5 6 
#
# 1 120.8733 49.3207 32.9875 0.0000 1.1143 0.0000
# 2 49.3207 97.2342 20.2415 0.0000 -11.2721 0.0000
# 3 32.9875 20.2415 92.0777 0.0000 3.5313 0.0000
# 4 0.0000 0.0000 0.0000 37.9150 0.0000 4.7752
# 5 1.1143 -11.2721 3.5313 0.0000 29.4781 0.0000
# 6 0.0000 0.0000 0.0000 4.7752 0.0000 33.3099
#
#
#
# Elastic Compliance Matrix: (Units=1/GPa)
#
#
# Indices 1 2 3 4 5 6 
#
# 1 0.011240 -0.005376 -0.002763 0.000000 -0.002149 0.000000
# 2 -0.005376 0.013955 -0.001361 0.000000 0.005703 0.000000
# 3 -0.002763 -0.001361 0.012221 0.000000 -0.001880 0.000000
# 4 0.000000 0.000000 0.000000 0.026860 0.000000 -0.003851
# 5 -0.002149 0.005703 -0.001880 0.000000 0.036411 0.000000
# 6 0.000000 0.000000 0.000000 -0.003851 0.000000 0.030573
#
#
# Mechanical properties :
#
#
# Convention : Reuss Voigt Hill
#
# Bulk Modulus (GPa) = 54.29141 57.25384 55.77262
# Shear Modulus (GPa) = 31.96961 33.98296 32.97628
#
# Velocity S-wave (km/s) = 4.00881 4.13312 4.07144
# Velocity P-wave (km/s) = 6.97988 7.18035 7.08082
#
# Compressibility (1/GPa) = 0.01841912
#
# Stress axis : x y z
#
# Youngs Moduli (GPa) = 88.96515 71.65639 81.82359
#
# Poissons Ratio (x) = 0.38519 0.22606
# Poissons Ratio (y) = 0.47824 0.11134
# Poissons Ratio (z) = 0.24579 0.09750
#
# Static dielectric constant tensor:
#      x y z
#    x 1.685360 0.000000 -0.011830 
#    y 0.000000 1.690580 0.000000 
#    z -0.011830 0.000000 1.713320 
# 
# From -- ./inp_files/32789.got.cif
#   From: 2010.05.17/outbox.cif.g08.bks.cpg/sg11_17_cif.got.tgz:32789.got - 2010.06.03 12:22:45.
