data_PCOD9166896
_publ_section_title
;
Structure prediction by ZEFSAII (Michael W. Deem and Ramdas Pophale) SiO2 
 PCOD9166896
Probable space group: P 21/M
;
_chemical_formula_sum "Si O2"
_cell_formula_units_Z 32
_cell_length_a 25.577465
_cell_length_b 8.653725
_cell_length_c 19.890758
_cell_angle_alpha 90.000000
_cell_angle_beta 21.579470
_cell_angle_gamma 90.000000
_cell_volume 1619.248350
_symmetry_space_group_name_H-M "P 21/M"
_symmetry_group_IT_number 11
_symmetry_cell_setting 'monoclinic'
loop_
_space_group_symop_operation_xyz
x,y,z
-x,1/2+y,-z
-x,-y,-z
x,1/2-y,z
loop_
_atom_site_type_symbol
_atom_site_label
_atom_site_fract_x
_atom_site_fract_y
_atom_site_fract_z
Si Si1 0.297637 0.065873 0.421146
Si Si2 0.932739 0.933109 0.512660
Si Si3 0.967398 0.064617 0.846220
Si Si4 0.524511 0.563989 0.254174
Si Si5 0.154160 0.065938 0.143144
Si Si6 0.645307 0.434189 0.795381
Si Si7 0.430913 0.564234 0.514343
Si Si8 0.879597 0.935230 0.095188
O O1 0.308882 0.250000 0.399506
O O2 0.134896 0.030336 0.635898
O O3 0.404052 0.010514 0.352024
O O4 0.334676 0.988513 0.305610
O O5 0.916185 0.750000 0.537795
O O6 0.781043 0.005639 0.674940
O O7 0.000000 0.000000 0.500000
O O8 0.043581 0.976103 0.321650
O O9 0.948664 0.250000 0.864668
O O10 0.882531 0.980024 0.888848
O O11 0.912805 0.001309 0.981985
O O12 0.509483 0.750000 0.268748
O O13 0.509419 0.520337 0.350889
O O14 0.681844 0.524502 0.039813
O O15 0.136594 0.250000 0.173931
O O16 0.641977 0.250000 0.801548
O O17 0.500000 0.500000 0.000000
O O18 0.500000 0.500000 0.500000
O O19 0.428374 0.750000 0.521367
O O20 0.272529 0.497758 0.699587
O O21 0.880015 0.750000 0.094192
O O22 0.000000 0.000000 0.000000
#
# Coordination Sequence:
#
# PCOD9166896 Si02
#       8
#     4   4   4   4   4   4   4   4
#     4  11  24  42  66  97 132 169 218 270 326 392
#     4  12  26  46  70 100 136 176 223 271 324 387
#     4  11  23  41  66  95 128 168 217 272 329 394
#     4  10  24  42  63  93 130 172 219 268 325 392
#     4  11  23  42  67  97 131 171 219 268 326 389
#     4  12  26  46  72 100 135 176 218 268 329 391
#     4  11  23  42  66  95 131 173 221 272 333 397
#     4  12  25  41  63  93 129 170 219 275 334 394
#
# _framework density 19.762255
#
# number of rings (size 3 to 8) (size 9 to 14) (size 15 to 20)
#    0.000    0.750    1.250    6.375    1.750    6.500 
#    0.000    0.000    0.000    0.000    0.000    0.000 
#    0.000    0.000    0.000    0.000    0.000    0.000 
#
# Total GULP energy -179136.670614 kJ/mol
# GULP energy per Si atom -5598.020957 kJ/mol
# Density = 1.971728 g / cm^3
# Si number density = 19.762255 Si / 1000 Ang^3
#
#
#
# Elastic Constant Matrix: (Units=GPa)
#
#
# Indices 1 2 3 4 5 6 
#
# 1 88.8979 14.2878 14.7341 0.0000 -9.0536 0.0000
# 2 14.2878 85.2361 39.1344 0.0000 -6.7576 0.0000
# 3 14.7341 39.1344 109.3028 0.0000 -8.4344 0.0000
# 4 0.0000 0.0000 0.0000 33.5719 0.0000 -0.3037
# 5 -9.0536 -6.7576 -8.4344 0.0000 40.7899 0.0000
# 6 0.0000 0.0000 0.0000 -0.3037 0.0000 41.5531
#
#
#
# Elastic Compliance Matrix: (Units=1/GPa)
#
#
# Indices 1 2 3 4 5 6 
#
# 1 0.011851 -0.001384 -0.000932 0.000000 0.002208 0.000000
# 2 -0.001384 0.014271 -0.004841 0.000000 0.001056 0.000000
# 3 -0.000932 -0.004841 0.011107 0.000000 0.001288 0.000000
# 4 0.000000 0.000000 0.000000 0.029789 0.000000 0.000218
# 5 0.002208 0.001056 0.001288 0.000000 0.025447 0.000000
# 6 0.000000 0.000000 0.000000 0.000218 0.000000 0.024067
#
#
# Mechanical properties :
#
#
# Convention : Reuss Voigt Hill
#
# Bulk Modulus (GPa) = 43.63945 46.63885 45.13915
# Shear Modulus (GPa) = 36.10538 37.53499 36.82019
#
# Velocity S-wave (km/s) = 4.27896 4.36286 4.32111
# Velocity P-wave (km/s) = 6.82223 7.00218 6.91279
#
# Compressibility (1/GPa) = 0.02291505
#
# Stress axis : x y z
#
# Youngs Moduli (GPa) = 84.38417 70.07408 90.03114
#
# Poissons Ratio (x) = 0.09696 0.08388
# Poissons Ratio (y) = 0.11676 0.43588
# Poissons Ratio (z) = 0.07862 0.33926
#
# Static dielectric constant tensor:
#      x y z
#    x -1.696860 0.000000 -1.130260 
#    y 0.000000 1.656660 0.000000 
#    z -1.130260 0.000000 1.272720 
# 
# From -- ./inp_files/66963.got.cif
#   From: 2010.05.17/outbox.cif.g08.bks.cpg/sg11_34_cif.got.tgz:66963.got - 2010.06.03 12:22:45.
