data_PCOD9166102
_publ_section_title
;
Structure prediction by ZEFSAII (Michael W. Deem and Ramdas Pophale) SiO2 
 PCOD9166102
Probable space group: P 21/M
;
_chemical_formula_sum "Si O2"
_cell_formula_units_Z 24
_cell_length_a 8.077439
_cell_length_b 10.217143
_cell_length_c 18.704310
_cell_angle_alpha 90.000000
_cell_angle_beta 125.413492
_cell_angle_gamma 90.000000
_cell_volume 1258.049871
_symmetry_space_group_name_H-M "P 21/M"
_symmetry_group_IT_number 11
_symmetry_cell_setting 'monoclinic'
loop_
_space_group_symop_operation_xyz
x,y,z
-x,1/2+y,-z
-x,-y,-z
x,1/2-y,z
loop_
_atom_site_type_symbol
_atom_site_label
_atom_site_fract_x
_atom_site_fract_y
_atom_site_fract_z
Si Si1 0.411369 0.022856 0.627766
Si Si2 0.813540 0.750000 0.349764
Si Si3 0.751199 0.250000 0.467620
Si Si4 0.170072 0.500040 0.883690
Si Si5 0.999488 0.750000 0.241002
Si Si6 0.423985 0.093447 0.083639
Si Si7 0.739820 0.599706 0.802932
Si Si8 0.559500 0.250000 0.574188
O O1 0.306067 0.118891 0.658529
O O2 0.439845 0.118406 0.566788
O O3 0.294625 0.886947 0.583865
O O4 0.628299 0.980879 0.713466
O O5 0.869800 0.750000 0.281256
O O6 0.018341 0.750000 0.447790
O O7 0.613839 0.250000 0.504865
O O8 0.065299 0.374368 0.821779
O O9 0.342871 0.554650 0.873709
O O10 0.981346 0.592220 0.855418
O O11 0.287613 0.465007 0.986018
O O12 0.232858 0.750000 0.326457
O O13 0.407665 0.250000 0.075925
O O14 0.338307 0.051055 0.139279
O O15 0.673284 0.750000 0.779582
#
# Coordination Sequence:
#
# PCOD9166102 Si02
#       8
#     4   2   2   4   2   4   4   2
#     4  11  21  40  61  88 119 155 198 245 306 364
#     4  10  24  38  62  88 118 156 197 251 300 361
#     4  11  22  40  63  87 120 153 193 246 306 369
#     4  11  21  38  60  85 120 160 203 245 300 355
#     4  11  20  38  59  83 114 156 200 244 297 351
#     4  10  22  38  58  86 120 159 200 252 298 354
#     4  11  22  38  61  88 122 156 202 250 303 357
#     4  10  22  38  62  86 116 151 196 249 295 361
#
# _framework density 19.077145000000002
#
# number of rings (size 3 to 8) (size 9 to 14) (size 15 to 20)
#    0.000    1.333    3.333    3.000    0.000    0.000 
#    0.000    0.000    0.000    0.000    0.000    0.000 
#    0.000    0.000    0.000    0.000    0.000    0.000 
#
# Total GULP energy -133963.894272 kJ/mol
# GULP energy per Si atom -5581.828928 kJ/mol
# Density = 1.903372 g / cm^3
# Si number density = 19.077145 Si / 1000 Ang^3
#
#
#
# Elastic Constant Matrix: (Units=GPa)
#
#
# Indices 1 2 3 4 5 6 
#
# 1 64.9940 18.2848 2.2412 0.0000 5.6187 0.0000
# 2 18.2848 96.2318 20.0025 0.0000 -4.2769 0.0000
# 3 2.2412 20.0025 39.9641 0.0000 4.7452 0.0000
# 4 0.0000 0.0000 0.0000 43.1904 0.0000 25.8487
# 5 5.6187 -4.2769 4.7452 0.0000 23.8711 0.0000
# 6 0.0000 0.0000 0.0000 25.8487 0.0000 43.7898
#
#
#
# Elastic Compliance Matrix: (Units=1/GPa)
#
#
# Indices 1 2 3 4 5 6 
#
# 1 0.016808 -0.003726 0.001507 0.000000 -0.004923 0.000000
# 2 -0.003726 0.012685 -0.006672 0.000000 0.004476 0.000000
# 3 0.001507 -0.006672 0.029149 0.000000 -0.007344 0.000000
# 4 0.000000 0.000000 0.000000 0.035801 0.000000 -0.021133
# 5 -0.004923 0.004476 -0.007344 0.000000 0.045312 0.000000
# 6 0.000000 0.000000 0.000000 -0.021133 0.000000 0.035311
#
#
# Mechanical properties :
#
#
# Convention : Reuss Voigt Hill
#
# Bulk Modulus (GPa) = 24.47310 31.36076 27.91693
# Shear Modulus (GPa) = 24.21683 32.88102 28.54893
#
# Velocity S-wave (km/s) = 3.56675 4.15611 3.87266
# Velocity P-wave (km/s) = 5.46064 6.28535 5.88745
#
# Compressibility (1/GPa) = 0.04086118
#
# Stress axis : x y z
#
# Youngs Moduli (GPa) = 59.49610 78.83240 34.30623
#
# Poissons Ratio (x) = 0.29370 -0.05169
# Poissons Ratio (y) = 0.22166 0.22888
# Poissons Ratio (z) = -0.08964 0.52594
#
# Static dielectric constant tensor:
#      x y z
#    x 1.667110 0.000000 0.005250 
#    y 0.000000 1.657180 0.000000 
#    z 0.005250 0.000000 1.633230 
# 
# From -- ./inp_files/63317.got.cif
#   From: 2010.05.17/outbox.cif.g08.bks.cpg/sg11_32_cif.got.tgz:63317.got - 2010.06.03 12:22:45.
