data_PCOD9166825
_publ_section_title
;
Structure prediction by ZEFSAII (Michael W. Deem and Ramdas Pophale) SiO2 
 PCOD9166825
Probable space group: P 21/M
;
_chemical_formula_sum "Si O2"
_cell_formula_units_Z 32
_cell_length_a 15.325088
_cell_length_b 14.859538
_cell_length_c 22.393766
_cell_angle_alpha 90.000000
_cell_angle_beta 18.579476
_cell_angle_gamma 90.000000
_cell_volume 1624.830876
_symmetry_space_group_name_H-M "P 21/M"
_symmetry_group_IT_number 11
_symmetry_cell_setting 'monoclinic'
loop_
_space_group_symop_operation_xyz
x,y,z
-x,1/2+y,-z
-x,-y,-z
x,1/2-y,z
loop_
_atom_site_type_symbol
_atom_site_label
_atom_site_fract_x
_atom_site_fract_y
_atom_site_fract_z
Si Si1 0.799066 0.361893 0.597061
Si Si2 0.246923 0.993610 0.258832
Si Si3 0.809296 0.380479 0.251022
Si Si4 0.823623 0.655614 0.326399
Si Si5 0.716508 0.583228 0.275427
Si Si6 0.177739 0.974794 0.172200
Si Si7 0.908807 0.351143 0.318646
Si Si8 0.733957 0.850300 0.140004
O O1 0.839927 0.250000 0.576327
O O2 0.739781 0.417157 0.697635
O O3 0.535813 0.373632 0.723812
O O4 0.048511 0.423172 0.407663
O O5 0.160644 0.945814 0.252256
O O6 0.540441 0.033610 0.047372
O O7 0.502397 0.343541 0.451905
O O8 0.761432 0.486267 0.274604
O O9 0.959160 0.355500 0.215151
O O10 0.004837 0.349576 0.071929
O O11 0.945140 0.750000 0.268363
O O12 0.858895 0.645884 0.232267
O O13 0.951111 0.574543 0.280097
O O14 0.399357 0.611808 0.476594
O O15 0.805441 0.587774 0.149677
O O16 0.111925 0.080802 0.217959
O O17 0.926854 0.250000 0.329251
O O18 0.686865 0.750000 0.195410
#
# Coordination Sequence:
#
# PCOD9166825 Si02
#       8
#     4   4   4   4   4   4   4   4
#     4  10  23  44  66  89 118 160 207 256 314 360
#     4  10  24  42  66  88 122 156 202 272 304 358
#     4  11  20  36  56  87 125 161 194 239 291 362
#     4  11  22  38  58  85 126 163 192 234 293 369
#     4  11  20  36  56  87 125 161 194 239 291 362
#     4  11  22  41  62  94 120 157 208 249 316 354
#     4  11  20  36  62  89 120 155 198 248 297 353
#     4  11  22  36  59  90 119 155 204 251 295 351
#
# _framework density 19.694357
#
# number of rings (size 3 to 8) (size 9 to 14) (size 15 to 20)
#    0.000    1.250    2.500    5.625    0.000    4.000 
#    0.000    2.500    0.000    1.500    0.000    0.000 
#    0.000    0.000    0.000    0.000    0.000    0.000 
#
# Total GULP energy -178349.859311 kJ/mol
# GULP energy per Si atom -5573.433103 kJ/mol
# Density = 1.964953 g / cm^3
# Si number density = 19.694357 Si / 1000 Ang^3
#
#
#
# Elastic Constant Matrix: (Units=GPa)
#
#
# Indices 1 2 3 4 5 6 
#
# 1 81.1194 21.1797 19.9069 0.0000 9.6648 0.0000
# 2 21.1797 120.0450 17.5089 0.0000 -2.7594 0.0000
# 3 19.9069 17.5089 45.6189 0.0000 13.4115 0.0000
# 4 0.0000 0.0000 0.0000 20.6274 0.0000 -1.6928
# 5 9.6648 -2.7594 13.4115 0.0000 32.8896 0.0000
# 6 0.0000 0.0000 0.0000 -1.6928 0.0000 11.9442
#
#
#
# Elastic Compliance Matrix: (Units=1/GPa)
#
#
# Indices 1 2 3 4 5 6 
#
# 1 0.014282 -0.001873 -0.004810 0.000000 -0.002393 0.000000
# 2 -0.001873 0.009241 -0.003544 0.000000 0.002771 0.000000
# 3 -0.004810 -0.003544 0.028464 0.000000 -0.010491 0.000000
# 4 0.000000 0.000000 0.000000 0.049050 0.000000 0.006952
# 5 -0.002393 0.002771 -0.010491 0.000000 0.035618 0.000000
# 6 0.000000 0.000000 0.000000 0.006952 0.000000 0.084708
#
#
# Mechanical properties :
#
#
# Convention : Reuss Voigt Hill
#
# Bulk Modulus (GPa) = 31.71287 40.44159 36.07723
# Shear Modulus (GPa) = 19.81543 25.63810 22.72677
#
# Velocity S-wave (km/s) = 3.17542 3.61196 3.40070
# Velocity P-wave (km/s) = 5.43892 6.16232 5.81189
#
# Compressibility (1/GPa) = 0.03153294
#
# Stress axis : x y z
#
# Youngs Moduli (GPa) = 70.01809 108.20964 35.13201
#
# Poissons Ratio (x) = 0.20271 0.16898
# Poissons Ratio (y) = 0.13116 0.12451
# Poissons Ratio (z) = 0.33678 0.38350
#
# Static dielectric constant tensor:
#      x y z
#    x 1.712740 0.000000 0.033890 
#    y 0.000000 1.806430 0.000000 
#    z 0.033890 0.000000 1.713980 
# 
# From -- ./inp_files/31861.got.cif
#   From: 2010.05.17/outbox.cif.g08.bks.cpg/sg11_16_cif.got.tgz:31861.got - 2010.06.03 12:22:45.
