data_PCOD9166664
_publ_section_title
;
Structure prediction by ZEFSAII (Michael W. Deem and Ramdas Pophale) SiO2 
 PCOD9166664
Probable space group: P 21/M
;
_chemical_formula_sum "Si O2"
_cell_formula_units_Z 24
_cell_length_a 6.728944
_cell_length_b 20.806974
_cell_length_c 13.128265
_cell_angle_alpha 90.000000
_cell_angle_beta 135.314036
_cell_angle_gamma 90.000000
_cell_volume 1292.571956
_symmetry_space_group_name_H-M "P 21/M"
_symmetry_group_IT_number 11
_symmetry_cell_setting 'monoclinic'
loop_
_space_group_symop_operation_xyz
x,y,z
-x,1/2+y,-z
-x,-y,-z
x,1/2-y,z
loop_
_atom_site_type_symbol
_atom_site_label
_atom_site_fract_x
_atom_site_fract_y
_atom_site_fract_z
Si Si1 0.847211 0.676338 0.143087
Si Si2 0.228575 0.065721 0.310102
Si Si3 0.490378 0.392132 0.811493
Si Si4 0.838635 0.613404 0.927983
Si Si5 0.623037 0.084270 0.645564
Si Si6 0.371824 0.977923 0.846671
O O1 0.928809 0.750000 0.187883
O O2 0.602000 0.657769 0.134743
O O3 0.094071 0.626053 0.259193
O O4 0.789487 0.665423 0.000693
O O5 0.231399 0.115907 0.217566
O O6 0.445206 0.083723 0.477654
O O7 0.911259 0.061776 0.238967
O O8 0.300964 0.991167 0.303891
O O9 0.458333 0.381588 0.679301
O O10 0.314479 0.456767 0.766503
O O11 0.828092 0.403424 0.946588
O O12 0.625562 0.558558 0.886042
O O13 0.500000 0.000000 0.000000
#
# Coordination Sequence:
#
# PCOD9166664 Si02
#       6
#     4   4   4   4   4   4
#     4  11  24  41  60  82 113 160 211 248 288 353
#     4  11  21  35  59  94 128 153 186 243 313 364
#     4  11  20  35  58  86 121 156 194 240 296 353
#     4  11  21  35  61  89 119 152 191 248 300 349
#     4  10  23  37  57  91 124 157 193 242 301 360
#     4  12  18  31  57  93 124 150 185 242 305 357
#
# _framework density 18.567632
#
# number of rings (size 3 to 8) (size 9 to 14) (size 15 to 20)
#    0.000    1.000    6.667    1.500    0.000    4.667 
#    0.000    0.833    0.000    1.000    0.000    0.000 
#    0.000    0.000    0.000    0.000    0.000    0.000 
#
# Total GULP energy -133629.246585 kJ/mol
# GULP energy per Si atom -5567.885274 kJ/mol
# Density = 1.852537 g / cm^3
# Si number density = 18.567632 Si / 1000 Ang^3
#
#
#
# Elastic Constant Matrix: (Units=GPa)
#
#
# Indices 1 2 3 4 5 6 
#
# 1 118.6793 25.9104 39.4404 0.0000 -16.9999 0.0000
# 2 25.9104 54.3930 21.4687 0.0000 -4.1686 0.0000
# 3 39.4404 21.4687 103.6339 0.0000 -16.3871 0.0000
# 4 0.0000 0.0000 0.0000 7.2680 0.0000 -0.5216
# 5 -16.9999 -4.1686 -16.3871 0.0000 18.6995 0.0000
# 6 0.0000 0.0000 0.0000 -0.5216 0.0000 10.1684
#
#
#
# Elastic Compliance Matrix: (Units=1/GPa)
#
#
# Indices 1 2 3 4 5 6 
#
# 1 0.011046 -0.003812 -0.002276 0.000000 0.007197 0.000000
# 2 -0.003812 0.021352 -0.003213 0.000000 -0.001521 0.000000
# 3 -0.002276 -0.003213 0.012468 0.000000 0.008141 0.000000
# 4 0.000000 0.000000 0.000000 0.138098 0.000000 0.007084
# 5 0.007197 -0.001521 0.008141 0.000000 0.066816 0.000000
# 6 0.000000 0.000000 0.000000 0.007084 0.000000 0.098708
#
#
# Mechanical properties :
#
#
# Convention : Reuss Voigt Hill
#
# Bulk Modulus (GPa) = 38.07426 50.03839 44.05632
# Shear Modulus (GPa) = 13.30338 19.88628 16.59483
#
# Velocity S-wave (km/s) = 2.67962 3.27619 2.99281
# Velocity P-wave (km/s) = 5.48854 6.42799 5.97675
#
# Compressibility (1/GPa) = 0.02626446
#
# Stress axis : x y z
#
# Youngs Moduli (GPa) = 90.53385 46.83378 80.20216
#
# Poissons Ratio (x) = 0.17852 0.18254
# Poissons Ratio (y) = 0.34509 0.25770
# Poissons Ratio (z) = 0.20605 0.15049
#
# Static dielectric constant tensor:
#      x y z
#    x 1.722220 0.000000 -0.057830 
#    y 0.000000 1.616760 0.000000 
#    z -0.057830 0.000000 1.647930 
# 
# From -- ./inp_files/5324.got.cif
#   From: 2010.05.17/outbox.cif.g08.bks.cpg/sg11_3_cif.got.tgz:5324.got - 2010.06.03 12:22:45.
