data_PCOD9166100
_publ_section_title
;
Structure prediction by ZEFSAII (Michael W. Deem and Ramdas Pophale) SiO2 
 PCOD9166100
Probable space group: P 21/M
;
_chemical_formula_sum "Si O2"
_cell_formula_units_Z 28
_cell_length_a 20.935632
_cell_length_b 7.701583
_cell_length_c 15.578792
_cell_angle_alpha 90.000000
_cell_angle_beta 27.644103
_cell_angle_gamma 90.000000
_cell_volume 1165.459770
_symmetry_space_group_name_H-M "P 21/M"
_symmetry_group_IT_number 11
_symmetry_cell_setting 'monoclinic'
loop_
_space_group_symop_operation_xyz
x,y,z
-x,1/2+y,-z
-x,-y,-z
x,1/2-y,z
loop_
_atom_site_type_symbol
_atom_site_label
_atom_site_fract_x
_atom_site_fract_y
_atom_site_fract_z
Si Si1 0.343061 0.537524 0.115868
Si Si2 0.650445 0.446236 0.710710
Si Si3 0.615597 0.446728 0.292701
Si Si4 0.092446 0.956749 0.115686
Si Si5 0.395780 0.961423 0.423562
Si Si6 0.091305 0.957640 0.308320
Si Si7 0.103489 0.544615 0.801717
O O1 0.357615 0.750000 0.100966
O O2 0.283501 0.481730 0.280406
O O3 0.243858 0.489798 0.156757
O O4 0.489179 0.449647 0.927641
O O5 0.702601 0.250000 0.638016
O O6 0.644777 0.525537 0.623375
O O7 0.500000 0.500000 0.500000
O O8 0.645611 0.250000 0.281973
O O9 0.766409 0.529180 0.096123
O O10 0.532149 0.461520 0.302456
O O11 0.115281 0.750000 0.097862
O O12 0.063563 0.027344 0.245841
O O13 0.963499 0.979248 0.206569
O O14 0.412531 0.750000 0.402451
O O15 0.258513 0.012544 0.639025
O O16 0.087470 0.750000 0.307596
O O17 0.000000 0.000000 0.500000
O O18 0.112371 0.750000 0.782371
O O19 0.000000 0.500000 0.000000
#
# Coordination Sequence:
#
# PCOD9166100 Si02
#       7
#     4   4   4   4   4   4   4
#     4   9  18  34  55  79 112 149 187 233 286 336
#     4   9  18  33  55  81 110 144 185 235 285 338
#     4  11  23  40  64  91 120 155 197 247 305 365
#     4  10  23  42  61  88 126 164 203 251 304 362
#     4  10  22  38  58  86 117 150 194 244 294 351
#     4  10  22  38  58  83 117 159 202 246 292 347
#     4  11  24  41  63  89 120 159 200 247 303 362
#
# _framework density 24.024854000000001
#
# number of rings (size 3 to 8) (size 9 to 14) (size 15 to 20)
#    0.000    2.000    0.000    2.571    2.000    8.571 
#    0.000    0.000    0.000    0.000    0.000    0.000 
#    0.000    0.000    0.000    0.000    0.000    0.000 
#
# Total GULP energy -156263.470321 kJ/mol
# GULP energy per Si atom -5580.838226 kJ/mol
# Density = 2.397017 g / cm^3
# Si number density = 24.024854 Si / 1000 Ang^3
#
#
#
# Elastic Constant Matrix: (Units=GPa)
#
#
# Indices 1 2 3 4 5 6 
#
# 1 92.2853 -12.1596 2.1122 0.0000 6.9442 0.0000
# 2 -12.1596 38.6401 -2.7325 0.0000 2.6233 0.0000
# 3 2.1122 -2.7325 66.2553 0.0000 -3.1505 0.0000
# 4 0.0000 0.0000 0.0000 19.5965 0.0000 1.7586
# 5 6.9442 2.6233 -3.1505 0.0000 38.9453 0.0000
# 6 0.0000 0.0000 0.0000 1.7586 0.0000 24.6837
#
#
#
# Elastic Compliance Matrix: (Units=1/GPa)
#
#
# Indices 1 2 3 4 5 6 
#
# 1 0.011514 0.003759 -0.000323 0.000000 -0.002332 0.000000
# 2 0.003759 0.027291 0.000890 0.000000 -0.002437 0.000000
# 3 -0.000323 0.000890 0.015198 0.000000 0.001227 0.000000
# 4 0.000000 0.000000 0.000000 0.051358 0.000000 -0.003659
# 5 -0.002332 -0.002437 0.001227 0.000000 0.026356 0.000000
# 6 0.000000 0.000000 0.000000 -0.003659 0.000000 0.040773
#
#
# Mechanical properties :
#
#
# Convention : Reuss Voigt Hill
#
# Bulk Modulus (GPa) = 15.96036 19.06900 17.51468
# Shear Modulus (GPa) = 27.06732 30.64247 28.85489
#
# Velocity S-wave (km/s) = 3.36018 3.57522 3.46937
# Velocity P-wave (km/s) = 4.65963 4.99973 4.83267
#
# Compressibility (1/GPa) = 0.06265521
#
# Stress axis : x y z
#
# Youngs Moduli (GPa) = 86.84984 36.64199 65.79610
#
# Poissons Ratio (x) = -0.13773 0.02125
# Poissons Ratio (y) = -0.32646 -0.05855
# Poissons Ratio (z) = 0.02805 -0.03261
#
# Static dielectric constant tensor:
#      x y z
#    x 1.942910 0.000000 0.053110 
#    y 0.000000 1.894950 0.000000 
#    z 0.053110 0.000000 1.981820 
# 
# From -- ./inp_files/54444.got.cif
#   From: 2010.05.17/outbox.cif.g08.bks.cpg/sg11_28_cif.got.tgz:54444.got - 2010.06.03 12:22:45.
