data_PCOD9166106
_publ_section_title
;
Structure prediction by ZEFSAII (Michael W. Deem and Ramdas Pophale) SiO2 
 PCOD9166106
Probable space group: P 21/M
;
_chemical_formula_sum "Si O2"
_cell_formula_units_Z 32
_cell_length_a 31.657894
_cell_length_b 8.561982
_cell_length_c 12.577576
_cell_angle_alpha 90.000000
_cell_angle_beta 151.386310
_cell_angle_gamma 90.000000
_cell_volume 1632.674435
_symmetry_space_group_name_H-M "P 21/M"
_symmetry_group_IT_number 11
_symmetry_cell_setting 'monoclinic'
loop_
_space_group_symop_operation_xyz
x,y,z
-x,1/2+y,-z
-x,-y,-z
x,1/2-y,z
loop_
_atom_site_type_symbol
_atom_site_label
_atom_site_fract_x
_atom_site_fract_y
_atom_site_fract_z
Si Si1 0.985760 0.570842 0.165669
Si Si2 0.505927 0.937223 0.893044
Si Si3 0.202775 0.062527 0.292160
Si Si4 0.081515 0.070708 0.742052
Si Si5 0.180267 0.434442 0.625035
Si Si6 0.305496 0.565552 0.721569
Si Si7 0.326275 0.939176 0.379020
Si Si8 0.242003 0.568263 0.986796
O O1 0.003849 0.750000 0.171415
O O2 0.946589 0.575065 0.198246
O O3 0.078334 0.481845 0.377646
O O4 0.898800 0.506517 0.913108
O O5 0.507508 0.750000 0.899788
O O6 0.419491 0.986068 0.636282
O O7 0.500000 0.000000 0.000000
O O8 0.596847 0.998921 0.045409
O O9 0.198030 0.250000 0.276753
O O10 0.263936 0.009654 0.523971
O O11 0.250149 0.004584 0.288944
O O12 0.102339 0.250000 0.755646
O O13 0.000000 0.000000 0.500000
O O14 0.159681 0.956070 0.883835
O O15 0.188958 0.250000 0.629530
O O16 0.241925 0.523094 0.677976
O O17 0.214104 0.480285 0.817885
O O18 0.310820 0.750000 0.717586
O O19 0.319843 0.750000 0.366666
O O20 0.318094 0.987349 0.236613
O O21 0.254952 0.750000 0.988619
#
# Coordination Sequence:
#
# PCOD9166106 Si02
#       8
#     4   4   4   4   4   4   4   4
#     4  10  22  38  58  89 127 166 208 256 309 365
#     4  11  22  40  67 100 129 160 203 255 313 373
#     4  11  22  38  63  94 128 162 205 258 310 367
#     4  11  20  32  53  84 119 160 207 256 302 354
#     4  12  26  43  64  88 120 169 218 259 307 372
#     4  12  26  45  66  90 124 165 208 257 314 378
#     4  10  22  38  62  96 131 162 200 253 315 370
#     4  11  22  38  60  89 127 167 207 256 310 367
#
# _framework density 19.599744000000001
#
# number of rings (size 3 to 8) (size 9 to 14) (size 15 to 20)
#    0.000    1.000    3.750    3.750    0.000    3.000 
#    0.000    0.625    0.000    0.000    0.000    0.000 
#    0.000    0.000    0.000    0.000    0.000    0.000 
#
# Total GULP energy -178660.950528 kJ/mol
# GULP energy per Si atom -5583.154704 kJ/mol
# Density = 1.955513 g / cm^3
# Si number density = 19.599744 Si / 1000 Ang^3
#
#
#
# Elastic Constant Matrix: (Units=GPa)
#
#
# Indices 1 2 3 4 5 6 
#
# 1 51.3142 -3.1070 20.9747 0.0000 10.4790 0.0000
# 2 -3.1070 37.9354 21.7763 0.0000 2.0310 0.0000
# 3 20.9747 21.7763 143.8694 0.0000 7.3940 0.0000
# 4 0.0000 0.0000 0.0000 16.7595 0.0000 5.7746
# 5 10.4790 2.0310 7.3940 0.0000 18.9514 0.0000
# 6 0.0000 0.0000 0.0000 5.7746 0.0000 30.8904
#
#
#
# Elastic Compliance Matrix: (Units=1/GPa)
#
#
# Indices 1 2 3 4 5 6 
#
# 1 0.023706 0.004621 -0.003527 0.000000 -0.012227 0.000000
# 2 0.004621 0.029807 -0.004990 0.000000 -0.003803 0.000000
# 3 -0.003527 -0.004990 0.008258 0.000000 -0.000737 0.000000
# 4 0.000000 0.000000 0.000000 0.063776 0.000000 -0.011922
# 5 -0.012227 -0.003803 -0.000737 0.000000 0.060223 0.000000
# 6 0.000000 0.000000 0.000000 -0.011922 0.000000 0.034601
#
#
# Mechanical properties :
#
#
# Convention : Reuss Voigt Hill
#
# Bulk Modulus (GPa) = 18.52565 34.71188 26.61877
# Shear Modulus (GPa) = 20.31230 26.21858 23.26544
#
# Velocity S-wave (km/s) = 3.22274 3.66143 3.44906
# Velocity P-wave (km/s) = 4.82914 5.96855 5.42882
#
# Compressibility (1/GPa) = 0.05397922
#
# Stress axis : x y z
#
# Youngs Moduli (GPa) = 42.18296 33.54909 121.09289
#
# Poissons Ratio (x) = -0.15503 0.42711
# Poissons Ratio (y) = -0.19493 0.60424
# Poissons Ratio (z) = 0.14879 0.16741
#
# Static dielectric constant tensor:
#      x y z
#    x 1.674640 0.000000 -0.021130 
#    y 0.000000 1.667490 0.000000 
#    z -0.021130 0.000000 1.759570 
# 
# From -- ./inp_files/45245.got.cif
#   From: 2010.05.17/outbox.cif.g08.bks.cpg/sg11_23_cif.got.tgz:45245.got - 2010.06.03 12:22:45.
