data_PCOD9166377
_publ_section_title
;
Structure prediction by ZEFSAII (Michael W. Deem and Ramdas Pophale) SiO2 
 PCOD9166377
Probable space group: P 21/M
;
_chemical_formula_sum "Si O2"
_cell_formula_units_Z 24
_cell_length_a 15.293510
_cell_length_b 10.986980
_cell_length_c 19.135141
_cell_angle_alpha 90.000000
_cell_angle_beta 20.212773
_cell_angle_gamma 90.000000
_cell_volume 1110.898902
_symmetry_space_group_name_H-M "P 21/M"
_symmetry_group_IT_number 11
_symmetry_cell_setting 'monoclinic'
loop_
_space_group_symop_operation_xyz
x,y,z
-x,1/2+y,-z
-x,-y,-z
x,1/2-y,z
loop_
_atom_site_type_symbol
_atom_site_label
_atom_site_fract_x
_atom_site_fract_y
_atom_site_fract_z
Si Si1 0.335485 0.119441 0.405924
Si Si2 0.303158 0.384940 0.077169
Si Si3 0.402635 0.113306 0.746160
Si Si4 0.191709 0.968281 0.025628
Si Si5 0.322461 0.385100 0.648448
Si Si6 0.131083 0.962331 0.330060
O O1 0.356569 0.250000 0.427217
O O2 0.065295 0.100102 0.798388
O O3 0.390796 0.995933 0.407835
O O4 0.561182 0.110602 0.179237
O O5 0.221731 0.250000 0.118920
O O6 0.607734 0.393765 0.850933
O O7 0.210834 0.480193 0.088599
O O8 0.204899 0.422145 0.227010
O O9 0.506422 0.250000 0.677997
O O10 0.266153 0.109659 0.773914
O O11 0.221879 0.078452 0.946437
O O12 0.928755 0.890129 0.435466
O O13 0.500000 0.500000 0.500000
O O14 0.435141 0.250000 0.551224
O O15 0.000000 0.000000 0.500000
#
# Coordination Sequence:
#
# PCOD9166377 Si02
#       6
#     4   4   4   4   4   4
#     4  10  22  40  69 100 132 175 227 281 345 408
#     4  11  25  43  69 102 140 185 235 288 346 421
#     4   9  21  41  66  93 129 174 222 275 339 407
#     4  10  22  42  66  99 134 173 227 284 341 408
#     4  11  25  44  65  97 135 179 229 282 343 412
#     4  11  23  46  66 101 140 183 231 285 350 415
#
# _framework density 21.604126999999998
#
# number of rings (size 3 to 8) (size 9 to 14) (size 15 to 20)
#    1.000    0.667    1.667    2.000    2.333    4.000 
#    0.000    1.667    0.000    0.000    0.000    0.000 
#    0.000    0.000    0.000    0.000    0.000    0.000 
#
# Total GULP energy -133926.601442 kJ/mol
# GULP energy per Si atom -5580.275060 kJ/mol
# Density = 2.155496 g / cm^3
# Si number density = 21.604127 Si / 1000 Ang^3
#
#
#
# Elastic Constant Matrix: (Units=GPa)
#
#
# Indices 1 2 3 4 5 6 
#
# 1 87.6340 34.7067 25.1045 0.0000 3.2014 0.0000
# 2 34.7067 157.6019 24.2160 0.0000 -3.2551 0.0000
# 3 25.1045 24.2160 96.6874 0.0000 5.5742 0.0000
# 4 0.0000 0.0000 0.0000 4.6528 0.0000 1.7149
# 5 3.2014 -3.2551 5.5742 0.0000 36.4035 0.0000
# 6 0.0000 0.0000 0.0000 1.7149 0.0000 22.6979
#
#
#
# Elastic Compliance Matrix: (Units=1/GPa)
#
#
# Indices 1 2 3 4 5 6 
#
# 1 0.013229 -0.002511 -0.002750 0.000000 -0.000967 0.000000
# 2 -0.002511 0.007102 -0.001187 0.000000 0.001038 0.000000
# 3 -0.002750 -0.001187 0.011447 0.000000 -0.001617 0.000000
# 4 0.000000 0.000000 0.000000 0.221079 0.000000 -0.016703
# 5 -0.000967 0.001038 -0.001617 0.000000 0.027895 0.000000
# 6 0.000000 0.000000 0.000000 -0.016703 0.000000 0.045319
#
#
# Mechanical properties :
#
#
# Convention : Reuss Voigt Hill
#
# Bulk Modulus (GPa) = 52.95884 56.66419 54.81151
# Shear Modulus (GPa) = 14.48185 29.94393 22.21289
#
# Velocity S-wave (km/s) = 2.59188 3.72698 3.21000
# Velocity P-wave (km/s) = 5.78996 6.69372 6.25817
#
# Compressibility (1/GPa) = 0.01888259
#
# Stress axis : x y z
#
# Youngs Moduli (GPa) = 75.59409 140.81077 87.35826
#
# Poissons Ratio (x) = 0.35351 0.24025
# Poissons Ratio (y) = 0.18978 0.10366
# Poissons Ratio (z) = 0.20790 0.16709
#
# Static dielectric constant tensor:
#      x y z
#    x 1.754440 0.000000 0.002530 
#    y 0.000000 1.814470 0.000000 
#    z 0.002530 0.000000 1.779690 
# 
# From -- ./inp_files/60937.got.cif
#   From: 2010.05.17/outbox.cif.g08.bks.cpg/sg11_31_cif.got.tgz:60937.got - 2010.06.03 12:22:45.
