data_PCOD9166200
_publ_section_title
;
Structure prediction by ZEFSAII (Michael W. Deem and Ramdas Pophale) SiO2 
 PCOD9166200
Probable space group: P 21/M
;
_chemical_formula_sum "Si O2"
_cell_formula_units_Z 26
_cell_length_a 9.891281
_cell_length_b 19.224665
_cell_length_c 7.184057
_cell_angle_alpha 90.000000
_cell_angle_beta 53.385422
_cell_angle_gamma 90.000000
_cell_volume 1096.518142
_symmetry_space_group_name_H-M "P 21/M"
_symmetry_group_IT_number 11
_symmetry_cell_setting 'monoclinic'
loop_
_space_group_symop_operation_xyz
x,y,z
-x,1/2+y,-z
-x,-y,-z
x,1/2-y,z
loop_
_atom_site_type_symbol
_atom_site_label
_atom_site_fract_x
_atom_site_fract_y
_atom_site_fract_z
Si Si1 0.000000 0.000000 0.000000
Si Si2 0.401535 0.571028 0.117798
Si Si3 0.563280 0.830649 0.261665
Si Si4 0.007930 0.583097 0.356598
Si Si5 0.517011 0.327469 0.272039
Si Si6 0.910720 0.172853 0.036185
Si Si7 0.133332 0.408619 0.120678
O O1 0.941464 0.971544 0.258799
O O2 0.818500 0.975447 0.043041
O O3 0.483953 0.620776 0.895122
O O4 0.500000 0.500000 0.000000
O O5 0.437884 0.612371 0.279200
O O6 0.201492 0.568093 0.254775
O O7 0.508728 0.750000 0.283675
O O8 0.591319 0.842755 0.457620
O O9 0.738389 0.846672 0.017320
O O10 0.906408 0.585383 0.631215
O O11 0.018242 0.653930 0.226045
O O12 0.477494 0.250000 0.237179
O O13 0.710117 0.327621 0.187507
O O14 0.963725 0.250000 0.053579
O O15 0.969342 0.109443 0.122379
#
# Coordination Sequence:
#
# PCOD9166200 Si02
#       7
#     2   4   4   4   4   4   4
#     4  10  22  40  60  84 118 156 198 250 304 362
#     4  11  23  39  62  92 123 163 212 261 317 381
#     4  11  24  40  60  89 126 166 206 256 320 387
#     4  10  22  39  61  87 117 156 201 251 305 366
#     4   9  20  40  61  83 118 161 205 255 308 372
#     4   9  19  36  58  83 110 147 195 243 293 352
#     4  11  22  37  59  88 120 155 199 252 311 370
#
# _framework density 23.711417999999998
#
# number of rings (size 3 to 8) (size 9 to 14) (size 15 to 20)
#    0.000    1.846    0.000    3.231    0.000    6.154 
#    0.000    0.000    0.000    0.000    0.000    0.000 
#    0.000    0.000    0.000    0.000    0.000    0.000 
#
# Total GULP energy -144758.130678 kJ/mol
# GULP energy per Si atom -5567.620411 kJ/mol
# Density = 2.365745 g / cm^3
# Si number density = 23.711418 Si / 1000 Ang^3
#
#
#
# Elastic Constant Matrix: (Units=GPa)
#
#
# Indices 1 2 3 4 5 6 
#
# 1 49.5425 3.1764 14.6037 0.0000 -0.7192 0.0000
# 2 3.1764 60.2893 40.3263 0.0000 0.0643 0.0000
# 3 14.6037 40.3263 170.7467 0.0000 13.5097 0.0000
# 4 0.0000 0.0000 0.0000 28.9046 0.0000 11.3182
# 5 -0.7192 0.0643 13.5097 0.0000 18.8953 0.0000
# 6 0.0000 0.0000 0.0000 11.3182 0.0000 24.6805
#
#
#
# Elastic Compliance Matrix: (Units=1/GPa)
#
#
# Indices 1 2 3 4 5 6 
#
# 1 0.020795 0.000249 -0.002014 0.000000 0.002231 0.000000
# 2 0.000249 0.019917 -0.005004 0.000000 0.003519 0.000000
# 3 -0.002014 -0.005004 0.007648 0.000000 -0.005528 0.000000
# 4 0.000000 0.000000 0.000000 0.042169 0.000000 -0.019338
# 5 0.002231 0.003519 -0.005528 0.000000 0.056948 0.000000
# 6 0.000000 0.000000 0.000000 -0.019338 0.000000 0.049386
#
#
# Mechanical properties :
#
#
# Convention : Reuss Voigt Hill
#
# Bulk Modulus (GPa) = 28.71703 44.08793 36.40248
# Shear Modulus (GPa) = 22.52183 29.32754 25.92469
#
# Velocity S-wave (km/s) = 3.08528 3.52071 3.31016
# Velocity P-wave (km/s) = 4.98290 5.92968 5.47678
#
# Compressibility (1/GPa) = 0.03482254
#
# Stress axis : x y z
#
# Youngs Moduli (GPa) = 48.08912 50.20937 130.75385
#
# Poissons Ratio (x) = -0.01250 0.26332
# Poissons Ratio (y) = -0.01198 0.65424
# Poissons Ratio (z) = 0.09684 0.25123
#
# Static dielectric constant tensor:
#      x y z
#    x 1.992080 0.000000 -0.018550 
#    y 0.000000 1.577380 0.000000 
#    z -0.018550 0.000000 1.817850 
# 
# From -- ./inp_files/4993.got.cif
#   From: 2010.05.17/outbox.cif.g08.bks.cpg/sg11_3_cif.got.tgz:4993.got - 2010.06.03 12:22:45.
