data_PCOD9166643
_publ_section_title
;
Structure prediction by ZEFSAII (Michael W. Deem and Ramdas Pophale) SiO2 
 PCOD9166643
Probable space group: P 21/M
;
_chemical_formula_sum "Si O2"
_cell_formula_units_Z 26
_cell_length_a 20.189392
_cell_length_b 11.939344
_cell_length_c 5.384046
_cell_angle_alpha 90.000000
_cell_angle_beta 121.964624
_cell_angle_gamma 90.000000
_cell_volume 1101.033142
_symmetry_space_group_name_H-M "P 21/M"
_symmetry_group_IT_number 11
_symmetry_cell_setting 'monoclinic'
loop_
_space_group_symop_operation_xyz
x,y,z
-x,1/2+y,-z
-x,-y,-z
x,1/2-y,z
loop_
_atom_site_type_symbol
_atom_site_label
_atom_site_fract_x
_atom_site_fract_y
_atom_site_fract_z
Si Si1 0.743126 0.250000 0.633600
Si Si2 0.822287 0.876764 0.756004
Si Si3 0.543013 0.627132 0.330740
Si Si4 0.602197 0.958603 0.952873
Si Si5 0.989265 0.624445 0.355994
Si Si6 0.849919 0.413387 0.518923
Si Si7 0.734523 0.051181 0.904247
O O1 0.798875 0.346303 0.614102
O O2 0.692918 0.148444 0.666298
O O3 0.799352 0.750000 0.650618
O O4 0.839536 0.955025 0.553541
O O5 0.760682 0.942605 0.805104
O O6 0.904201 0.875650 0.066013
O O7 0.511382 0.750000 0.225465
O O8 0.470213 0.543840 0.184732
O O9 0.584507 0.618492 0.679237
O O10 0.600493 0.598423 0.217004
O O11 0.681286 0.020195 0.033607
O O12 0.996510 0.750000 0.498211
O O13 0.060545 0.621454 0.301665
O O14 0.000000 0.500000 0.500000
O O15 0.812169 0.390525 0.174357
#
# Coordination Sequence:
#
# PCOD9166643 Si02
#       7
#     2   4   4   4   4   4   4
#     4  10  24  40  64  96 126 170 216 280 338 414
#     4  10  24  41  60  93 128 171 223 272 334 405
#     4  10  22  45  68  97 136 179 224 272 335 404
#     4  10  24  42  67 104 134 174 230 274 332 418
#     4  11  22  40  64  92 129 175 226 284 341 407
#     4  11  22  42  64  91 128 173 222 274 341 407
#     4  11  24  42  64  97 133 166 218 279 344 402
#
# _framework density 23.614184999999999
#
# number of rings (size 3 to 8) (size 9 to 14) (size 15 to 20)
#    0.000    1.538    2.308    1.385    5.385    2.462 
#    0.000    0.000    0.000    0.000    0.000    0.000 
#    0.000    0.000    0.000    0.000    0.000    0.000 
#
# Total GULP energy -144739.719275 kJ/mol
# GULP energy per Si atom -5566.912280 kJ/mol
# Density = 2.356044 g / cm^3
# Si number density = 23.614185 Si / 1000 Ang^3
#
#
#
# Elastic Constant Matrix: (Units=GPa)
#
#
# Indices 1 2 3 4 5 6 
#
# 1 63.0864 11.6897 22.6936 0.0000 -14.4728 0.0000
# 2 11.6897 169.6103 24.2993 0.0000 -18.1261 0.0000
# 3 22.6936 24.2993 60.6701 0.0000 -4.6829 0.0000
# 4 0.0000 0.0000 0.0000 -13.4488 0.0000 -13.8259
# 5 -14.4728 -18.1261 -4.6829 0.0000 28.2338 0.0000
# 6 0.0000 0.0000 0.0000 -13.8259 0.0000 14.6856
#
#
#
# Elastic Compliance Matrix: (Units=1/GPa)
#
#
# Indices 1 2 3 4 5 6 
#
# 1 0.020560 0.000658 -0.007200 0.000000 0.009768 0.000000
# 2 0.000658 0.006670 -0.002594 0.000000 0.004189 0.000000
# 3 -0.007200 -0.002594 0.020058 0.000000 -0.002030 0.000000
# 4 0.000000 0.000000 0.000000 -0.037785 0.000000 -0.035573
# 5 0.009768 0.004189 -0.002030 0.000000 0.042778 0.000000
# 6 0.000000 0.000000 0.000000 -0.035573 0.000000 0.034603
#
#
# Mechanical properties :
#
#
# Convention : Reuss Voigt Hill
#
# Bulk Modulus (GPa) = 34.46380 45.63688 40.05034
# Shear Modulus (GPa) = 43.54297 21.53972 32.54134
#
# Velocity S-wave (km/s) = 4.29876 3.02346 3.71623
# Velocity P-wave (km/s) = 6.26621 5.61751 5.95071
#
# Compressibility (1/GPa) = 0.02901595
#
# Stress axis : x y z
#
# Youngs Moduli (GPa) = 48.63760 149.92801 49.85482
#
# Poissons Ratio (x) = -0.09871 0.35897
# Poissons Ratio (y) = -0.03202 0.12934
# Poissons Ratio (z) = 0.35020 0.38896
#
# Static dielectric constant tensor:
#      x y z
#    x 1.875030 0.000000 -0.026310 
#    y 0.000000 1.958680 0.000000 
#    z -0.026310 0.000000 1.991590 
# 
# From -- ./inp_files/8884.got.cif
#   From: 2010.05.17/outbox.cif.g08.bks.cpg/sg11_5_cif.got.tgz:8884.got - 2010.06.03 12:22:45.
