data_PCOD9166127
_publ_section_title
;
Structure prediction by ZEFSAII (Michael W. Deem and Ramdas Pophale) SiO2 
 PCOD9166127
Probable space group: P 21/M
;
_chemical_formula_sum "Si O2"
_cell_formula_units_Z 32
_cell_length_a 5.372524
_cell_length_b 17.843862
_cell_length_c 15.510217
_cell_angle_alpha 90.000000
_cell_angle_beta 97.444641
_cell_angle_gamma 90.000000
_cell_volume 1474.377509
_symmetry_space_group_name_H-M "P 21/M"
_symmetry_group_IT_number 11
_symmetry_cell_setting 'monoclinic'
loop_
_space_group_symop_operation_xyz
x,y,z
-x,1/2+y,-z
-x,-y,-z
x,1/2-y,z
loop_
_atom_site_type_symbol
_atom_site_label
_atom_site_fract_x
_atom_site_fract_y
_atom_site_fract_z
Si Si1 0.857718 0.405870 0.182893
Si Si2 0.278323 0.874221 0.634603
Si Si3 0.631596 0.394475 0.850551
Si Si4 0.473917 0.665091 0.982330
Si Si5 0.894998 0.579141 0.242273
Si Si6 0.274097 0.333381 0.462975
Si Si7 0.194160 0.036038 0.576100
Si Si8 0.203796 0.453243 0.063327
O O1 0.788598 0.364262 0.267878
O O2 0.674289 0.374792 0.101595
O O3 0.858375 0.493534 0.207605
O O4 0.119789 0.403818 0.142380
O O5 0.526967 0.836571 0.606923
O O6 0.016587 0.849200 0.577190
O O7 0.332147 0.962937 0.619979
O O8 0.365970 0.380717 0.792542
O O9 0.631126 0.479320 0.890533
O O10 0.862164 0.390201 0.795310
O O11 0.668777 0.340870 0.933877
O O12 0.537791 0.750000 0.964991
O O13 0.701963 0.607436 0.000714
O O14 0.932872 0.574110 0.346642
O O15 0.286963 0.250000 0.501248
O O16 0.344692 0.400264 0.531811
O O17 0.000000 0.000000 0.500000
O O18 0.000000 0.500000 0.000000
#
# Coordination Sequence:
#
# PCOD9166127 Si02
#       8
#     4   4   4   4   4   4   4   4
#     4  10  22  38  61  91 124 166 215 268 320 387
#     4  10  23  40  64  93 130 167 214 260 321 386
#     4  11  22  41  63  91 123 170 220 258 310 385
#     4  12  25  39  59  92 132 172 217 276 331 375
#     4  10  22  39  70  93 121 162 217 268 321 374
#     4  11  23  41  63  91 128 172 208 258 331 397
#     4   9  21  42  68 100 126 159 213 275 316 386
#     4  11  21  41  65  87 120 173 227 265 311 384
#
# _framework density 21.704073000000001
#
# number of rings (size 3 to 8) (size 9 to 14) (size 15 to 20)
#    0.000    1.500    2.500    2.625    1.750    8.500 
#    0.000    1.250    0.000    0.000    0.000    0.000 
#    0.000    0.000    0.000    0.000    0.000    0.000 
#
# Total GULP energy -178403.511411 kJ/mol
# GULP energy per Si atom -5575.109732 kJ/mol
# Density = 2.165467 g / cm^3
# Si number density = 21.704073 Si / 1000 Ang^3
#
#
#
# Elastic Constant Matrix: (Units=GPa)
#
#
# Indices 1 2 3 4 5 6 
#
# 1 87.2663 22.2283 29.8001 0.0000 -19.5569 0.0000
# 2 22.2283 83.9459 19.7844 0.0000 -18.3531 0.0000
# 3 29.8001 19.7844 129.6092 0.0000 -19.6927 0.0000
# 4 0.0000 0.0000 0.0000 4.9786 0.0000 -3.0787
# 5 -19.5569 -18.3531 -19.6927 0.0000 29.8988 0.0000
# 6 0.0000 0.0000 0.0000 -3.0787 0.0000 12.6288
#
#
#
# Elastic Compliance Matrix: (Units=1/GPa)
#
#
# Indices 1 2 3 4 5 6 
#
# 1 0.014110 -0.001781 -0.001929 0.000000 0.006866 0.000000
# 2 -0.001781 0.014080 -0.000671 0.000000 0.007037 0.000000
# 3 -0.001929 -0.000671 0.008898 0.000000 0.004187 0.000000
# 4 0.000000 0.000000 0.000000 0.236515 0.000000 0.057659
# 5 0.006866 0.007037 0.004187 0.000000 0.045014 0.000000
# 6 0.000000 0.000000 0.000000 0.057659 0.000000 0.093241
#
#
# Mechanical properties :
#
#
# Convention : Reuss Voigt Hill
#
# Bulk Modulus (GPa) = 35.30193 49.38301 42.34247
# Shear Modulus (GPa) = 11.62623 24.76847 18.19735
#
# Velocity S-wave (km/s) = 2.31697 3.38182 2.89871
# Velocity P-wave (km/s) = 4.84337 6.16856 5.54569
#
# Compressibility (1/GPa) = 0.02832707
#
# Stress axis : x y z
#
# Youngs Moduli (GPa) = 70.87067 71.02064 112.38988
#
# Poissons Ratio (x) = 0.12645 0.21683
# Poissons Ratio (y) = 0.12619 0.07539
# Poissons Ratio (z) = 0.13673 0.04764
#
# Static dielectric constant tensor:
#      x y z
#    x 2.001310 0.000000 -0.020730 
#    y 0.000000 1.793650 0.000000 
#    z -0.020730 0.000000 1.822530 
# 
# From -- ./inp_files/46031.got.cif
#   From: 2010.05.17/outbox.cif.g08.bks.cpg/sg11_24_cif.got.tgz:46031.got - 2010.06.03 12:22:45.
