data_PCOD9166751
_publ_section_title
;
Structure prediction by ZEFSAII (Michael W. Deem and Ramdas Pophale) SiO2 
 PCOD9166751
Probable space group: P 21/M
;
_chemical_formula_sum "Si O2"
_cell_formula_units_Z 32
_cell_length_a 15.935744
_cell_length_b 8.859068
_cell_length_c 24.698258
_cell_angle_alpha 90.000000
_cell_angle_beta 152.218720
_cell_angle_gamma 90.000000
_cell_volume 1625.187860
_symmetry_space_group_name_H-M "P 21/M"
_symmetry_group_IT_number 11
_symmetry_cell_setting 'monoclinic'
loop_
_space_group_symop_operation_xyz
x,y,z
-x,1/2+y,-z
-x,-y,-z
x,1/2-y,z
loop_
_atom_site_type_symbol
_atom_site_label
_atom_site_fract_x
_atom_site_fract_y
_atom_site_fract_z
Si Si1 0.809506 0.929029 0.406654
Si Si2 0.391774 0.428202 0.988149
Si Si3 0.975629 0.073831 0.720994
Si Si4 0.184745 0.571969 0.084108
Si Si5 0.412354 0.572640 0.322176
Si Si6 0.554959 0.066653 0.862933
Si Si7 0.683324 0.571387 0.628403
Si Si8 0.225956 0.573279 0.498414
O O1 0.821185 0.750000 0.407184
O O2 0.636422 0.979764 0.272885
O O3 0.777945 0.973249 0.450641
O O4 0.000000 0.000000 0.500000
O O5 0.432054 0.250000 0.014327
O O6 0.180864 0.446363 0.854367
O O7 0.500000 0.500000 0.000000
O O8 0.429496 0.503804 0.067745
O O9 0.924198 0.250000 0.701287
O O10 0.938485 0.046245 0.636328
O O11 0.845935 0.968599 0.681571
O O12 0.151180 0.750000 0.057698
O O13 0.327466 0.554583 0.214484
O O14 0.282700 0.516510 0.084958
O O15 0.000000 0.500000 0.000000
O O16 0.449479 0.750000 0.352341
O O17 0.283215 0.508837 0.294876
O O18 0.592881 0.474623 0.429014
O O19 0.559128 0.250000 0.866454
O O20 0.500000 0.500000 0.500000
O O21 0.662753 0.750000 0.622833
O O22 0.230114 0.750000 0.515114
#
# Coordination Sequence:
#
# PCOD9166751 Si02
#       8
#     4   4   4   4   4   4   4   4
#     4  11  24  43  67  96 130 165 207 263 326 386
#     4  11  26  47  70  96 128 170 219 274 328 383
#     4  10  24  44  64  91 129 170 214 266 322 380
#     4  10  23  42  64  92 128 172 213 261 320 379
#     4  11  22  40  62  89 128 169 210 260 321 379
#     4  10  23  46  68  93 133 173 214 266 323 384
#     4  12  24  38  60  92 128 168 210 258 313 378
#     4  11  22  39  65  95 127 165 211 260 321 387
#
# _framework density 19.690031000000001
#
# number of rings (size 3 to 8) (size 9 to 14) (size 15 to 20)
#    0.000    1.250    2.500    2.625    3.500    4.000 
#    0.000    0.000    0.000    0.000    0.000    0.000 
#    0.000    0.000    0.000    0.000    0.000    0.000 
#
# Total GULP energy -178832.431624 kJ/mol
# GULP energy per Si atom -5588.513488 kJ/mol
# Density = 1.964522 g / cm^3
# Si number density = 19.690031 Si / 1000 Ang^3
#
#
#
# Elastic Constant Matrix: (Units=GPa)
#
#
# Indices 1 2 3 4 5 6 
#
# 1 122.8130 37.8503 54.7392 0.0000 -5.4931 0.0000
# 2 37.8503 53.3660 40.8701 0.0000 -0.9257 0.0000
# 3 54.7392 40.8701 89.9541 0.0000 -3.9712 0.0000
# 4 0.0000 0.0000 0.0000 26.8137 0.0000 1.6036
# 5 -5.4931 -0.9257 -3.9712 0.0000 30.3205 0.0000
# 6 0.0000 0.0000 0.0000 1.6036 0.0000 40.7032
#
#
#
# Elastic Compliance Matrix: (Units=1/GPa)
#
#
# Indices 1 2 3 4 5 6 
#
# 1 0.011866 -0.004460 -0.005135 0.000000 0.001341 0.000000
# 2 -0.004460 0.030436 -0.011174 0.000000 -0.001342 0.000000
# 3 -0.005135 -0.011174 0.019374 0.000000 0.001266 0.000000
# 4 0.000000 0.000000 0.000000 0.037382 0.000000 -0.001473
# 5 0.001341 -0.001342 0.001266 0.000000 0.033349 0.000000
# 6 0.000000 0.000000 0.000000 -0.001473 0.000000 0.024626
#
#
# Mechanical properties :
#
#
# Convention : Reuss Voigt Hill
#
# Bulk Modulus (GPa) = 49.65620 59.22804 54.44212
# Shear Modulus (GPa) = 24.35664 28.41237 26.38450
#
# Velocity S-wave (km/s) = 3.52092 3.80278 3.66456
# Velocity P-wave (km/s) = 6.46552 7.03044 6.75389
#
# Compressibility (1/GPa) = 0.02013847
#
# Stress axis : x y z
#
# Youngs Moduli (GPa) = 84.27645 32.85609 51.61533
#
# Poissons Ratio (x) = 0.14654 0.26505
# Poissons Ratio (y) = 0.37587 0.57673
# Poissons Ratio (z) = 0.43276 0.36712
#
# Static dielectric constant tensor:
#      x y z
#    x 1.754250 0.000000 0.007640 
#    y 0.000000 1.664310 0.000000 
#    z 0.007640 0.000000 1.690200 
# 
# From -- ./inp_files/69131.got.cif
#   From: 2010.05.17/outbox.cif.g08.bks.cpg/sg11_35_cif.got.tgz:69131.got - 2010.06.03 12:22:45.
