data_PCOD9166246
_publ_section_title
;
Structure prediction by ZEFSAII (Michael W. Deem and Ramdas Pophale) SiO2 
 PCOD9166246
Probable space group: P 21/M
;
_chemical_formula_sum "Si O2"
_cell_formula_units_Z 20
_cell_length_a 5.630836
_cell_length_b 17.160202
_cell_length_c 9.709814
_cell_angle_alpha 90.000000
_cell_angle_beta 75.873243
_cell_angle_gamma 90.000000
_cell_volume 909.849623
_symmetry_space_group_name_H-M "P 21/M"
_symmetry_group_IT_number 11
_symmetry_cell_setting 'monoclinic'
loop_
_space_group_symop_operation_xyz
x,y,z
-x,1/2+y,-z
-x,-y,-z
x,1/2-y,z
loop_
_atom_site_type_symbol
_atom_site_label
_atom_site_fract_x
_atom_site_fract_y
_atom_site_fract_z
Si Si1 0.133317 0.623326 0.213366
Si Si2 0.582052 0.606749 0.353069
Si Si3 0.942818 0.162710 0.069624
Si Si4 0.566497 0.081347 0.318704
Si Si5 0.279747 0.458125 0.110010
O O1 0.356341 0.636277 0.289048
O O2 0.124657 0.530336 0.187072
O O3 0.853013 0.643763 0.294555
O O4 0.195780 0.660650 0.056676
O O5 0.502801 0.613944 0.523402
O O6 0.598731 0.512560 0.325560
O O7 0.021246 0.250000 0.088082
O O8 0.791622 0.125631 0.216375
O O9 0.158751 0.100632 0.021187
O O10 0.357933 0.089943 0.232612
O O11 0.500000 0.500000 0.000000
#
# Coordination Sequence:
#
# PCOD9166246 Si02
#       5
#     4   4   4   4   4
#     4  11  22  42  66  98 128 178 226 284 328 410
#     4  10  23  39  71  98 132 169 230 280 338 397
#     4  12  25  41  65  98 137 179 230 288 356 415
#     4  10  22  39  65 101 130 169 222 288 336 412
#     4  11  21  40  69  98 135 174 236 287 342 400
#
# _framework density 21.981650999999999
#
# number of rings (size 3 to 8) (size 9 to 14) (size 15 to 20)
#    0.000    1.200    4.000    3.000    2.800    3.200 
#    0.000    2.000    0.000    0.000    0.000    0.000 
#    0.000    0.000    0.000    0.000    0.000    0.000 
#
# Total GULP energy -111644.058898 kJ/mol
# GULP energy per Si atom -5582.202945 kJ/mol
# Density = 2.193162 g / cm^3
# Si number density = 21.981651 Si / 1000 Ang^3
#
#
#
# Elastic Constant Matrix: (Units=GPa)
#
#
# Indices 1 2 3 4 5 6 
#
# 1 136.9113 26.2168 70.8540 0.0000 1.8436 0.0000
# 2 26.2168 52.7761 5.7038 0.0000 5.2681 0.0000
# 3 70.8540 5.7038 160.2965 0.0000 4.4566 0.0000
# 4 0.0000 0.0000 0.0000 -3.3939 0.0000 3.3748
# 5 1.8436 5.2681 4.4566 0.0000 38.0697 0.0000
# 6 0.0000 0.0000 0.0000 3.3748 0.0000 1.2068
#
#
#
# Elastic Compliance Matrix: (Units=1/GPa)
#
#
# Indices 1 2 3 4 5 6 
#
# 1 0.010554 -0.004823 -0.004512 0.000000 0.000685 0.000000
# 2 -0.004823 0.021478 0.001449 0.000000 -0.002908 0.000000
# 3 -0.004512 0.001449 0.008208 0.000000 -0.000943 0.000000
# 4 0.000000 0.000000 0.000000 -0.077932 0.000000 0.217939
# 5 0.000685 -0.002908 -0.000943 0.000000 0.026747 0.000000
# 6 0.000000 0.000000 0.000000 0.217939 0.000000 0.219171
#
#
# Mechanical properties :
#
#
# Convention : Reuss Voigt Hill
#
# Bulk Modulus (GPa) = 40.87472 61.72589 51.30030
# Shear Modulus (GPa) = 21.53750 23.65713 22.59732
#
# Velocity S-wave (km/s) = 3.13356 3.28414 3.20973
# Velocity P-wave (km/s) = 5.63272 6.52092 6.09303
#
# Compressibility (1/GPa) = 0.02446500
#
# Stress axis : x y z
#
# Youngs Moduli (GPa) = 94.75494 46.55999 121.83816
#
# Poissons Ratio (x) = 0.22457 0.54977
# Poissons Ratio (y) = 0.45702 -0.17649
# Poissons Ratio (z) = 0.42756 -0.06744
#
# Static dielectric constant tensor:
#      x y z
#    x 1.935150 0.000000 -0.016780 
#    y 0.000000 1.737890 0.000000 
#    z -0.016780 0.000000 1.792120 
# 
# From -- ./inp_files/10046.got.cif
#   From: 2010.05.17/outbox.cif.g08.bks.cpg/sg11_6_cif.got.tgz:10046.got - 2010.06.03 12:22:45.
