data_PCOD9166947
_publ_section_title
;
Structure prediction by ZEFSAII (Michael W. Deem and Ramdas Pophale) SiO2 
 PCOD9166947
Probable space group: P 21/M
;
_chemical_formula_sum "Si O2"
_cell_formula_units_Z 22
_cell_length_a 10.589449
_cell_length_b 14.775944
_cell_length_c 6.394294
_cell_angle_alpha 90.000000
_cell_angle_beta 100.026571
_cell_angle_gamma 90.000000
_cell_volume 985.228799
_symmetry_space_group_name_H-M "P 21/M"
_symmetry_group_IT_number 11
_symmetry_cell_setting 'monoclinic'
loop_
_space_group_symop_operation_xyz
x,y,z
-x,1/2+y,-z
-x,-y,-z
x,1/2-y,z
loop_
_atom_site_type_symbol
_atom_site_label
_atom_site_fract_x
_atom_site_fract_y
_atom_site_fract_z
Si Si1 0.600060 0.903379 0.844846
Si Si2 0.039869 0.250000 0.128843
Si Si3 0.119731 0.750000 0.310311
Si Si4 0.723561 0.750000 0.126349
Si Si5 0.641148 0.750000 0.521173
Si Si6 0.051884 0.904575 0.599455
Si Si7 0.627784 0.250000 0.785785
Si Si8 0.679167 0.423513 0.082598
O O1 0.637222 0.840712 0.659553
O O2 0.449181 0.928484 0.809538
O O3 0.639215 0.837619 0.047229
O O4 0.677211 0.993891 0.917172
O O5 0.030756 0.342137 0.262592
O O6 0.157596 0.250000 0.999483
O O7 0.916971 0.250000 0.942106
O O8 0.067493 0.838831 0.406002
O O9 0.272133 0.750000 0.375697
O O10 0.752792 0.750000 0.380301
O O11 0.510627 0.750000 0.354269
O O12 0.190209 0.919912 0.749343
O O13 0.000000 0.000000 0.500000
O O14 0.656166 0.335401 0.938108
#
# Coordination Sequence:
#
# PCOD9166947 Si02
#       8
#     4   2   2   2   2   4   2   4
#     4  10  24  44  70 105 144 183 232 303 354 433
#     4  11  26  48  72 103 146 181 247 295 352 425
#     4  11  24  43  72 103 135 184 238 301 346 425
#     4  11  24  46  67 103 148 184 231 300 362 415
#     4  11  22  43  73 103 137 194 235 283 379 420
#     4  11  26  48  75 105 139 196 243 288 360 433
#     4  12  20  42  76  98 140 181 229 305 353 417
#     4  11  22  46  71 105 147 181 237 296 362 419
#
# _framework density 22.329840999999998
#
# number of rings (size 3 to 8) (size 9 to 14) (size 15 to 20)
#    0.000    1.091    3.636    2.182    2.545    5.818 
#    3.273    0.000    0.000    0.000    0.000    0.000 
#    0.000    0.000    0.000    0.000    0.000    0.000 
#
# Total GULP energy -122971.502620 kJ/mol
# GULP energy per Si atom -5589.613755 kJ/mol
# Density = 2.227902 g / cm^3
# Si number density = 22.329841 Si / 1000 Ang^3
#
#
#
# Elastic Constant Matrix: (Units=GPa)
#
#
# Indices 1 2 3 4 5 6 
#
# 1 103.3993 31.4742 39.9451 0.0000 4.0320 0.0000
# 2 31.4742 203.4511 76.5530 0.0000 15.0154 0.0000
# 3 39.9451 76.5530 122.5892 0.0000 0.1989 0.0000
# 4 0.0000 0.0000 0.0000 12.8175 0.0000 26.9702
# 5 4.0320 15.0154 0.1989 0.0000 47.7046 0.0000
# 6 0.0000 0.0000 0.0000 26.9702 0.0000 18.0155
#
#
#
# Elastic Compliance Matrix: (Units=1/GPa)
#
#
# Indices 1 2 3 4 5 6 
#
# 1 0.011127 -0.000390 -0.003381 0.000000 -0.000804 0.000000
# 2 -0.000390 0.006636 -0.004014 0.000000 -0.002039 0.000000
# 3 -0.003381 -0.004014 0.011763 0.000000 0.001500 0.000000
# 4 0.000000 0.000000 0.000000 -0.036286 0.000000 0.054323
# 5 -0.000804 -0.002039 0.001500 0.000000 0.021666 0.000000
# 6 0.000000 0.000000 0.000000 0.054323 0.000000 -0.025817
#
#
# Mechanical properties :
#
#
# Convention : Reuss Voigt Hill
#
# Bulk Modulus (GPa) = 71.64704 80.59824 76.12264
# Shear Modulus (GPa) = 536.98354 34.47200 285.72777
#
# Velocity S-wave (km/s) = 15.52418 3.93334 11.32412
# Velocity P-wave (km/s) = 18.80130 7.53664 14.32288
#
# Compressibility (1/GPa) = 0.01395731
#
# Stress axis : x y z
#
# Youngs Moduli (GPa) = 89.86802 150.68689 85.01197
#
# Poissons Ratio (x) = 0.05876 0.28743
# Poissons Ratio (y) = 0.03504 0.34122
# Poissons Ratio (z) = 0.30384 0.60482
#
# Static dielectric constant tensor:
#      x y z
#    x 1.908760 0.000000 -0.027530 
#    y 0.000000 1.880780 0.000000 
#    z -0.027530 0.000000 1.831460 
# 
# From -- ./inp_files/4386.got.cif
#   From: 2010.05.17/outbox.cif.g08.bks.cpg/sg11_3_cif.got.tgz:4386.got - 2010.06.03 12:22:45.
