data_PCOD9166150
_publ_section_title
;
Structure prediction by ZEFSAII (Michael W. Deem and Ramdas Pophale) SiO2 
 PCOD9166150
Probable space group: P 21/M
;
_chemical_formula_sum "Si O2"
_cell_formula_units_Z 22
_cell_length_a 13.827566
_cell_length_b 9.881494
_cell_length_c 7.373245
_cell_angle_alpha 90.000000
_cell_angle_beta 80.501906
_cell_angle_gamma 90.000000
_cell_volume 993.647003
_symmetry_space_group_name_H-M "P 21/M"
_symmetry_group_IT_number 11
_symmetry_cell_setting 'monoclinic'
loop_
_space_group_symop_operation_xyz
x,y,z
-x,1/2+y,-z
-x,-y,-z
x,1/2-y,z
loop_
_atom_site_type_symbol
_atom_site_label
_atom_site_fract_x
_atom_site_fract_y
_atom_site_fract_z
Si Si1 0.594002 0.250000 0.421347
Si Si2 0.893551 0.598395 0.868179
Si Si3 0.053602 0.402047 0.731769
Si Si4 0.442421 0.750000 0.136905
Si Si5 0.701857 0.482241 0.816756
Si Si6 0.779816 0.104240 0.419885
Si Si7 0.411051 0.250000 0.210096
O O1 0.558214 0.250000 0.643041
O O2 0.669712 0.123635 0.372682
O O3 0.503473 0.250000 0.315763
O O4 0.882485 0.750000 0.796018
O O5 0.786784 0.531101 0.923735
O O6 0.962544 0.502394 0.725897
O O7 0.940473 0.610663 0.051770
O O8 0.043312 0.250000 0.660773
O O9 0.153307 0.478635 0.648637
O O10 0.381975 0.618434 0.090202
O O11 0.546726 0.750000 0.008295
O O12 0.757714 0.403966 0.639604
O O13 0.651975 0.615148 0.748178
O O14 0.829103 0.250000 0.358977
#
# Coordination Sequence:
#
# PCOD9166150 Si02
#       7
#     2   4   4   2   4   4   2
#     4   8  22  44  63  91 128 173 211 272 317 390
#     4  10  22  41  60  93 134 163 208 267 314 395
#     4  10  22  38  66  98 121 168 213 256 327 388
#     4  10  24  44  62  93 132 167 226 270 326 383
#     4  11  23  42  61  93 127 166 218 268 318 390
#     4   9  21  42  61  91 128 167 206 262 322 378
#     4  12  24  42  69  94 122 180 221 264 343 373
#
# _framework density 22.140658999999999
#
# number of rings (size 3 to 8) (size 9 to 14) (size 15 to 20)
#    0.545    1.455    1.818    1.091    5.091    4.364 
#    3.273    0.000    0.000    0.000    0.000    0.000 
#    0.000    0.000    0.000    0.000    0.000    0.000 
#
# Total GULP energy -122731.862272 kJ/mol
# GULP energy per Si atom -5578.721012 kJ/mol
# Density = 2.209027 g / cm^3
# Si number density = 22.140659 Si / 1000 Ang^3
#
#
#
# Elastic Constant Matrix: (Units=GPa)
#
#
# Indices 1 2 3 4 5 6 
#
# 1 68.2985 20.6680 -0.6825 0.0000 6.3406 0.0000
# 2 20.6680 139.3668 4.5753 0.0000 -6.5339 0.0000
# 3 -0.6825 4.5753 40.0915 0.0000 -13.8943 0.0000
# 4 0.0000 0.0000 0.0000 15.7511 0.0000 -6.5652
# 5 6.3406 -6.5339 -13.8943 0.0000 27.3873 0.0000
# 6 0.0000 0.0000 0.0000 -6.5652 0.0000 23.1382
#
#
#
# Elastic Compliance Matrix: (Units=1/GPa)
#
#
# Indices 1 2 3 4 5 6 
#
# 1 0.015849 -0.002541 -0.001119 0.000000 -0.004843 0.000000
# 2 -0.002541 0.007666 -0.000098 0.000000 0.002368 0.000000
# 3 -0.001119 -0.000098 0.030353 0.000000 0.015635 0.000000
# 4 0.000000 0.000000 0.000000 0.072003 0.000000 0.020430
# 5 -0.004843 0.002368 0.015635 0.000000 0.046131 0.000000
# 6 0.000000 0.000000 0.000000 0.020430 0.000000 0.049015
#
#
# Mechanical properties :
#
#
# Convention : Reuss Voigt Hill
#
# Bulk Modulus (GPa) = 21.57272 32.98649 27.27961
# Shear Modulus (GPa) = 20.49317 28.13505 24.31411
#
# Velocity S-wave (km/s) = 3.04565 3.56861 3.31745
# Velocity P-wave (km/s) = 4.70453 5.64898 5.19825
#
# Compressibility (1/GPa) = 0.04635484
#
# Stress axis : x y z
#
# Youngs Moduli (GPa) = 63.09597 130.44104 32.94515
#
# Poissons Ratio (x) = 0.33141 0.03685
# Poissons Ratio (y) = 0.16031 0.00322
# Poissons Ratio (z) = 0.07058 0.01273
#
# Static dielectric constant tensor:
#      x y z
#    x 1.794980 0.000000 0.011130 
#    y 0.000000 1.840390 0.000000 
#    z 0.011130 0.000000 1.825880 
# 
# From -- ./inp_files/20438.got.cif
#   From: 2010.05.17/outbox.cif.g08.bks.cpg/sg11_11_cif.got.tgz:20438.got - 2010.06.03 12:22:45.
