data_PCOD9166238
_publ_section_title
;
Structure prediction by ZEFSAII (Michael W. Deem and Ramdas Pophale) SiO2 
 PCOD9166238
Probable space group: P 21/M
;
_chemical_formula_sum "Si O2"
_cell_formula_units_Z 28
_cell_length_a 14.808736
_cell_length_b 8.487860
_cell_length_c 21.538959
_cell_angle_alpha 90.000000
_cell_angle_beta 150.574802
_cell_angle_gamma 90.000000
_cell_volume 1330.074762
_symmetry_space_group_name_H-M "P 21/M"
_symmetry_group_IT_number 11
_symmetry_cell_setting 'monoclinic'
loop_
_space_group_symop_operation_xyz
x,y,z
-x,1/2+y,-z
-x,-y,-z
x,1/2-y,z
loop_
_atom_site_type_symbol
_atom_site_label
_atom_site_fract_x
_atom_site_fract_y
_atom_site_fract_z
Si Si1 0.705767 0.566367 0.442483
Si Si2 0.705840 0.434868 0.125768
Si Si3 0.065272 0.939396 0.106690
Si Si4 0.767457 0.937680 0.033589
Si Si5 0.401064 0.933113 0.740431
Si Si6 0.548031 0.059138 0.597964
Si Si7 0.093199 0.429985 0.637864
O O1 0.751909 0.750000 0.475721
O O2 0.570345 0.537816 0.303446
O O3 0.613433 0.512440 0.450836
O O4 0.885569 0.474436 0.528866
O O5 0.708655 0.250000 0.143820
O O6 0.806087 0.536883 0.237285
O O7 0.500000 0.500000 0.000000
O O8 0.796726 0.464784 0.113432
O O9 0.077144 0.750000 0.108551
O O10 0.259951 0.993150 0.254024
O O11 0.908578 0.977131 0.063505
O O12 0.000000 0.000000 0.000000
O O13 0.783396 0.750000 0.056618
O O14 0.561206 0.966900 0.885538
O O15 0.414651 0.750000 0.731286
O O16 0.205206 0.967130 0.655230
O O17 0.554290 0.250000 0.599404
O O18 0.500000 0.000000 0.500000
O O19 0.109343 0.250000 0.627437
#
# Coordination Sequence:
#
# PCOD9166238 Si02
#       7
#     4   4   4   4   4   4   4
#     4  11  24  42  63  90 126 165 212 264 315 378
#     4  12  24  40  62  91 127 165 209 256 311 375
#     4  10  22  42  67  98 130 167 215 271 326 386
#     4  10  22  39  63  93 128 165 209 259 313 375
#     4  11  22  39  63  93 128 166 207 255 313 381
#     4  10  24  44  66  94 130 170 217 272 328 387
#     4  12  25  41  63  90 124 167 211 259 315 374
#
# _framework density 21.051447
#
# number of rings (size 3 to 8) (size 9 to 14) (size 15 to 20)
#    0.000    1.143    1.429    4.714    2.000    2.857 
#    0.000    0.000    0.000    0.000    0.000    0.000 
#    0.000    0.000    0.000    0.000    0.000    0.000 
#
# Total GULP energy -156525.914879 kJ/mol
# GULP energy per Si atom -5590.211246 kJ/mol
# Density = 2.100353 g / cm^3
# Si number density = 21.051447 Si / 1000 Ang^3
#
#
#
# Elastic Constant Matrix: (Units=GPa)
#
#
# Indices 1 2 3 4 5 6 
#
# 1 133.0259 8.3110 43.7598 0.0000 -14.3754 0.0000
# 2 8.3110 24.6339 6.1597 0.0000 3.0286 0.0000
# 3 43.7598 6.1597 98.5668 0.0000 -6.5954 0.0000
# 4 0.0000 0.0000 0.0000 29.0212 0.0000 -11.8955
# 5 -14.3754 3.0286 -6.5954 0.0000 33.4744 0.0000
# 6 0.0000 0.0000 0.0000 -11.8955 0.0000 25.0952
#
#
#
# Elastic Compliance Matrix: (Units=1/GPa)
#
#
# Indices 1 2 3 4 5 6 
#
# 1 0.009284 -0.002630 -0.003724 0.000000 0.003491 0.000000
# 2 -0.002630 0.042603 -0.001852 0.000000 -0.005349 0.000000
# 3 -0.003724 -0.001852 0.011976 0.000000 0.000928 0.000000
# 4 0.000000 0.000000 0.000000 0.042767 0.000000 0.020272
# 5 0.003491 -0.005349 0.000928 0.000000 0.032040 0.000000
# 6 0.000000 0.000000 0.000000 0.020272 0.000000 0.049458
#
#
# Mechanical properties :
#
#
# Convention : Reuss Voigt Hill
#
# Bulk Modulus (GPa) = 21.07483 41.40975 31.24229
# Shear Modulus (GPa) = 22.69044 30.71789 26.70416
#
# Velocity S-wave (km/s) = 3.28663 3.82407 3.56549
# Velocity P-wave (km/s) = 4.94322 6.26190 5.64123
#
# Compressibility (1/GPa) = 0.04744997
#
# Stress axis : x y z
#
# Youngs Moduli (GPa) = 107.71352 23.47269 83.49715
#
# Poissons Ratio (x) = 0.06174 0.31092
# Poissons Ratio (y) = 0.28332 0.15468
# Poissons Ratio (z) = 0.40109 0.04348
#
# Static dielectric constant tensor:
#      x y z
#    x 1.742010 0.000000 -0.006830 
#    y 0.000000 1.719470 0.000000 
#    z -0.006830 0.000000 1.496170 
# 
# From -- ./inp_files/49485.got.cif
#   From: 2010.05.17/outbox.cif.g08.bks.cpg/sg11_25_cif.got.tgz:49485.got - 2010.06.03 12:22:45.
