data_PCOD9166617
_publ_section_title
;
Structure prediction by ZEFSAII (Michael W. Deem and Ramdas Pophale) SiO2 
 PCOD9166617
Probable space group: P 21/M
;
_chemical_formula_sum "Si O2"
_cell_formula_units_Z 32
_cell_length_a 13.657580
_cell_length_b 19.931200
_cell_length_c 14.486159
_cell_angle_alpha 90.000000
_cell_angle_beta 159.747997
_cell_angle_gamma 90.000000
_cell_volume 1364.974701
_symmetry_space_group_name_H-M "P 21/M"
_symmetry_group_IT_number 11
_symmetry_cell_setting 'monoclinic'
loop_
_space_group_symop_operation_xyz
x,y,z
-x,1/2+y,-z
-x,-y,-z
x,1/2-y,z
loop_
_atom_site_type_symbol
_atom_site_label
_atom_site_fract_x
_atom_site_fract_y
_atom_site_fract_z
Si Si1 0.705278 0.380595 0.534440
Si Si2 0.401151 0.824466 0.760639
Si Si3 0.070238 0.381542 0.549304
Si Si4 0.220805 0.609837 0.087076
Si Si5 0.310142 0.459940 0.907472
Si Si6 0.694061 0.976427 0.586299
Si Si7 0.698210 0.098460 0.042409
Si Si8 0.885134 0.672332 0.949970
O O1 0.681890 0.342354 0.417434
O O2 0.726725 0.460548 0.546888
O O3 0.964756 0.356458 0.826202
O O4 0.412735 0.364002 0.328055
O O5 0.534818 0.750000 0.883682
O O6 0.116752 0.824081 0.570587
O O7 0.580563 0.888562 0.957042
O O8 0.048023 0.438954 0.610018
O O9 0.929735 0.396312 0.327087
O O10 0.402069 0.374788 0.821646
O O11 0.526331 0.582992 0.387407
O O12 0.095163 0.660487 0.050519
O O13 0.232767 0.633911 0.992319
O O14 0.995124 0.548674 0.888845
O O15 0.303713 0.517758 0.978525
O O16 0.500000 0.500000 0.000000
O O17 0.500000 0.000000 0.500000
O O18 0.827763 0.750000 0.912027
#
# Coordination Sequence:
#
# PCOD9166617 Si02
#       8
#     4   4   4   4   4   4   4   4
#     4  12  27  44  70 101 138 185 229 280 348 421
#     4  12  27  45  69 103 144 188 230 283 354 428
#     4  11  23  44  65 101 135 174 228 285 342 411
#     4  12  24  42  69 104 137 178 226 290 350 405
#     4  10  22  43  72  96 135 178 229 283 349 402
#     4  12  22  42  69 102 142 173 227 293 354 398
#     4  11  24  41  73 102 133 175 233 289 347 406
#     4  12  25  46  67  94 139 185 230 278 334 420
#
# _framework density 23.443659
#
# number of rings (size 3 to 8) (size 9 to 14) (size 15 to 20)
#    0.000    0.500    5.000    4.125    5.250    0.500 
#    0.000    1.250    0.000    0.000    0.000    0.000 
#    0.000    0.000    0.000    0.000    0.000    0.000 
#
# Total GULP energy -178933.612358 kJ/mol
# GULP energy per Si atom -5591.675386 kJ/mol
# Density = 2.339030 g / cm^3
# Si number density = 23.443659 Si / 1000 Ang^3
#
#
#
# Elastic Constant Matrix: (Units=GPa)
#
#
# Indices 1 2 3 4 5 6 
#
# 1 97.5245 1.3840 -4.7675 0.0000 -8.8013 0.0000
# 2 1.3840 74.7555 8.7099 0.0000 5.4971 0.0000
# 3 -4.7675 8.7099 86.7880 0.0000 -7.7646 0.0000
# 4 0.0000 0.0000 0.0000 14.7925 0.0000 2.4316
# 5 -8.8013 5.4971 -7.7646 0.0000 26.4017 0.0000
# 6 0.0000 0.0000 0.0000 2.4316 0.0000 18.5759
#
#
#
# Elastic Compliance Matrix: (Units=1/GPa)
#
#
# Indices 1 2 3 4 5 6 
#
# 1 0.010671 -0.000607 0.001003 0.000000 0.003979 0.000000
# 2 -0.000607 0.013856 -0.001746 0.000000 -0.003601 0.000000
# 3 0.001003 -0.001746 0.012134 0.000000 0.004267 0.000000
# 4 0.000000 0.000000 0.000000 0.069088 0.000000 -0.009044
# 5 0.003979 -0.003601 0.004267 0.000000 0.041207 0.000000
# 6 0.000000 0.000000 0.000000 -0.009044 0.000000 0.055017
#
#
# Mechanical properties :
#
#
# Convention : Reuss Voigt Hill
#
# Bulk Modulus (GPa) = 29.44538 29.96898 29.70718
# Shear Modulus (GPa) = 23.14876 28.87014 26.00945
#
# Velocity S-wave (km/s) = 3.14573 3.51304 3.33445
# Velocity P-wave (km/s) = 5.07755 5.40984 5.24633
#
# Compressibility (1/GPa) = 0.03396119
#
# Stress axis : x y z
#
# Youngs Moduli (GPa) = 93.71609 72.16878 82.41049
#
# Poissons Ratio (x) = 0.04380 -0.08266
# Poissons Ratio (y) = 0.05688 0.14390
# Poissons Ratio (z) = -0.09400 0.12601
#
# Static dielectric constant tensor:
#      x y z
#    x 1.944410 0.000000 0.031310 
#    y 0.000000 1.906500 0.000000 
#    z 0.031310 0.000000 1.873840 
# 
# From -- ./inp_files/52716.got.cif
#   From: 2010.05.17/outbox.cif.g08.bks.cpg/sg11_27_cif.got.tgz:52716.got - 2010.06.03 12:22:45.
