data_PCOD9166564
_publ_section_title
;
Structure prediction by ZEFSAII (Michael W. Deem and Ramdas Pophale) SiO2 
 PCOD9166564
Probable space group: P 21/M
;
_chemical_formula_sum "Si O2"
_cell_formula_units_Z 30
_cell_length_a 9.470708
_cell_length_b 14.725351
_cell_length_c 11.455030
_cell_angle_alpha 90.000000
_cell_angle_beta 64.824793
_cell_angle_gamma 90.000000
_cell_volume 1445.766949
_symmetry_space_group_name_H-M "P 21/M"
_symmetry_group_IT_number 11
_symmetry_cell_setting 'monoclinic'
loop_
_space_group_symop_operation_xyz
x,y,z
-x,1/2+y,-z
-x,-y,-z
x,1/2-y,z
loop_
_atom_site_type_symbol
_atom_site_label
_atom_site_fract_x
_atom_site_fract_y
_atom_site_fract_z
Si Si1 0.642800 0.357745 0.304694
Si Si2 0.322243 0.437412 0.322843
Si Si3 0.181842 0.974738 0.934317
Si Si4 0.190864 0.750000 0.339877
Si Si5 0.328506 0.592922 0.126058
Si Si6 0.188674 0.912545 0.532101
Si Si7 0.906060 0.848966 0.749498
Si Si8 0.324341 0.146952 0.953155
O O1 0.638145 0.250000 0.293625
O O2 0.484375 0.402153 0.314246
O O3 0.778549 0.400960 0.177263
O O4 0.674824 0.384045 0.427188
O O5 0.341335 0.506133 0.207033
O O6 0.231211 0.495276 0.451790
O O7 0.220731 0.355318 0.308496
O O8 0.246909 0.935556 0.034337
O O9 0.280716 0.067642 0.878417
O O10 0.000000 0.000000 0.000000
O O11 0.234741 0.670554 0.226949
O O12 0.165086 0.831205 0.448063
O O13 0.506920 0.627553 0.049541
O O14 0.034400 0.921202 0.665994
O O15 0.983165 0.750000 0.727767
O O16 0.810950 0.859898 0.902040
O O17 0.327259 0.250000 0.905124
#
# Coordination Sequence:
#
# PCOD9166564 Si02
#       8
#     4   4   4   2   4   4   4   4
#     4  12  25  43  67  98 137 177 220 282 343 403
#     4  11  23  40  69  94 129 171 228 280 319 402
#     4  12  26  43  64 101 144 176 222 282 349 415
#     4  10  22  42  72  92 130 174 228 282 326 412
#     4  11  22  43  69  98 126 177 233 275 340 400
#     4  11  23  44  65  94 133 178 220 267 344 400
#     4  11  21  38  63  96 130 169 221 275 330 394
#     4  11  22  42  69  98 134 177 231 285 334 406
#
# _framework density 20.750232
#
# number of rings (size 3 to 8) (size 9 to 14) (size 15 to 20)
#    0.000    0.800    4.667    3.200    0.933    2.667 
#    0.000    0.000    0.000    2.400    0.000    0.000 
#    0.000    0.000    0.000    0.000    0.000    0.000 
#
# Total GULP energy -167148.388062 kJ/mol
# GULP energy per Si atom -5571.612935 kJ/mol
# Density = 2.070300 g / cm^3
# Si number density = 20.750232 Si / 1000 Ang^3
#
#
#
# Elastic Constant Matrix: (Units=GPa)
#
#
# Indices 1 2 3 4 5 6 
#
# 1 55.0520 -12.4199 -5.3237 0.0000 -5.1971 0.0000
# 2 -12.4199 90.4723 8.4855 0.0000 8.9814 0.0000
# 3 -5.3237 8.4855 64.6452 0.0000 4.8578 0.0000
# 4 0.0000 0.0000 0.0000 16.8567 0.0000 -6.3874
# 5 -5.1971 8.9814 4.8578 0.0000 14.4036 0.0000
# 6 0.0000 0.0000 0.0000 -6.3874 0.0000 14.5067
#
#
#
# Elastic Compliance Matrix: (Units=1/GPa)
#
#
# Indices 1 2 3 4 5 6 
#
# 1 0.019215 0.002019 0.000914 0.000000 0.005366 0.000000
# 2 0.002019 0.012061 -0.000930 0.000000 -0.006478 0.000000
# 3 0.000914 -0.000930 0.016004 0.000000 -0.004488 0.000000
# 4 0.000000 0.000000 0.000000 0.071203 0.000000 0.031351
# 5 0.005366 -0.006478 -0.004488 0.000000 0.076916 0.000000
# 6 0.000000 0.000000 0.000000 0.031351 0.000000 0.082737
#
#
# Mechanical properties :
#
#
# Convention : Reuss Voigt Hill
#
# Bulk Modulus (GPa) = 19.49828 21.29481 20.39654
# Shear Modulus (GPa) = 17.16886 23.78190 20.47538
#
# Velocity S-wave (km/s) = 2.87959 3.38909 3.14467
# Velocity P-wave (km/s) = 4.52472 5.05957 4.79960
#
# Compressibility (1/GPa) = 0.05128659
#
# Stress axis : x y z
#
# Youngs Moduli (GPa) = 52.04217 82.91420 62.48577
#
# Poissons Ratio (x) = -0.16744 -0.05712
# Poissons Ratio (y) = -0.10510 0.05811
# Poissons Ratio (z) = -0.04757 0.07711
#
# Static dielectric constant tensor:
#      x y z
#    x 1.758940 0.000000 -0.021530 
#    y 0.000000 1.760400 0.000000 
#    z -0.021530 0.000000 1.754180 
# 
# From -- ./inp_files/31831.got.cif
#   From: 2010.05.17/outbox.cif.g08.bks.cpg/sg11_16_cif.got.tgz:31831.got - 2010.06.03 12:22:45.
