data_PCOD9166262
_publ_section_title
;
Structure prediction by ZEFSAII (Michael W. Deem and Ramdas Pophale) SiO2 
 PCOD9166262
Probable space group: P 21/M
;
_chemical_formula_sum "Si O2"
_cell_formula_units_Z 28
_cell_length_a 11.915411
_cell_length_b 16.026478
_cell_length_c 7.270335
_cell_angle_alpha 90.000000
_cell_angle_beta 80.791701
_cell_angle_gamma 90.000000
_cell_volume 1370.466599
_symmetry_space_group_name_H-M "P 21/M"
_symmetry_group_IT_number 11
_symmetry_cell_setting 'monoclinic'
loop_
_space_group_symop_operation_xyz
x,y,z
-x,1/2+y,-z
-x,-y,-z
x,1/2-y,z
loop_
_atom_site_type_symbol
_atom_site_label
_atom_site_fract_x
_atom_site_fract_y
_atom_site_fract_z
Si Si1 0.127138 0.347529 0.686436
Si Si2 0.961746 0.095790 0.029285
Si Si3 0.765640 0.080780 0.796195
Si Si4 0.369932 0.420226 0.159450
Si Si5 0.484677 0.586010 0.209748
Si Si6 0.934007 0.148723 0.457404
Si Si7 0.368801 0.345917 0.539363
O O1 0.143882 0.250000 0.641809
O O2 0.252230 0.385876 0.648632
O O3 0.044331 0.379273 0.547022
O O4 0.060909 0.355793 0.894778
O O5 0.945654 0.122171 0.243410
O O6 0.846145 0.108447 0.941959
O O7 0.000000 0.000000 0.000000
O O8 0.638762 0.119200 0.819888
O O9 0.829932 0.105295 0.592091
O O10 0.738965 0.981555 0.823948
O O11 0.467628 0.486353 0.197831
O O12 0.357952 0.354769 0.323786
O O13 0.415847 0.386531 0.955237
O O14 0.522935 0.609410 0.402094
O O15 0.923774 0.250000 0.473265
O O16 0.379217 0.250000 0.591037
#
# Coordination Sequence:
#
# PCOD9166262 Si02
#       7
#     4   4   4   4   4   4   4
#     4   9  22  40  56  82 121 153 189 241 293 348
#     4  11  24  34  61  92 115 153 204 242 285 350
#     4   9  22  39  59  87 116 150 196 242 287 347
#     4   9  21  39  61  82 118 156 189 235 298 346
#     4   9  21  39  61  83 116 154 190 240 294 347
#     4  10  22  40  59  81 116 157 191 239 300 344
#     4  11  23  37  61  89 115 153 196 240 293 353
#
# _framework density 20.430996
#
# number of rings (size 3 to 8) (size 9 to 14) (size 15 to 20)
#    0.857    1.429    0.000    0.857    6.000    4.000 
#    0.000    2.857    0.000    0.000    0.000    0.000 
#    0.000    0.000    0.000    0.000    0.000    0.000 
#
# Total GULP energy -156037.348096 kJ/mol
# GULP energy per Si atom -5572.762432 kJ/mol
# Density = 2.038449 g / cm^3
# Si number density = 20.430996 Si / 1000 Ang^3
#
#
#
# Elastic Constant Matrix: (Units=GPa)
#
#
# Indices 1 2 3 4 5 6 
#
# 1 80.0563 8.6433 33.9121 0.0000 -9.3788 0.0000
# 2 8.6433 20.5245 0.6353 0.0000 -2.9691 0.0000
# 3 33.9121 0.6353 121.2872 0.0000 0.1731 0.0000
# 4 0.0000 0.0000 0.0000 28.7276 0.0000 0.4154
# 5 -9.3788 -2.9691 0.1731 0.0000 17.0341 0.0000
# 6 0.0000 0.0000 0.0000 0.4154 0.0000 17.5136
#
#
#
# Elastic Compliance Matrix: (Units=1/GPa)
#
#
# Indices 1 2 3 4 5 6 
#
# 1 0.015865 -0.005411 -0.004419 0.000000 0.007837 0.000000
# 2 -0.005411 0.051837 0.001233 0.000000 0.006044 0.000000
# 3 -0.004419 0.001233 0.009477 0.000000 -0.002314 0.000000
# 4 0.000000 0.000000 0.000000 0.034822 0.000000 -0.000826
# 5 0.007837 0.006044 -0.002314 0.000000 0.064098 0.000000
# 6 0.000000 0.000000 0.000000 -0.000826 0.000000 0.057118
#
#
# Mechanical properties :
#
#
# Convention : Reuss Voigt Hill
#
# Bulk Modulus (GPa) = 16.67063 34.24997 25.46030
# Shear Modulus (GPa) = 18.49073 24.56688 21.52881
#
# Velocity S-wave (km/s) = 3.01164 3.47137 3.24965
# Velocity P-wave (km/s) = 4.50228 5.73301 5.15451
#
# Compressibility (1/GPa) = 0.05998574
#
# Stress axis : x y z
#
# Youngs Moduli (GPa) = 63.03050 19.29128 105.51582
#
# Poissons Ratio (x) = 0.10438 0.46626
# Poissons Ratio (y) = 0.34104 -0.13007
# Poissons Ratio (z) = 0.27852 -0.02378
#
# Static dielectric constant tensor:
#      x y z
#    x 1.756150 0.000000 -0.021210 
#    y 0.000000 0.535270 0.000000 
#    z -0.021210 0.000000 1.736060 
# 
# From -- ./inp_files/5025.got.cif
#   From: 2010.05.17/outbox.cif.g08.bks.cpg/sg11_3_cif.got.tgz:5025.got - 2010.06.03 12:22:45.
