data_PCOD9166868
_publ_section_title
;
Structure prediction by ZEFSAII (Michael W. Deem and Ramdas Pophale) SiO2 
 PCOD9166868
Probable space group: P 21/M
;
_chemical_formula_sum "Si O2"
_cell_formula_units_Z 14
_cell_length_a 4.974024
_cell_length_b 19.858636
_cell_length_c 5.422547
_cell_angle_alpha 90.000000
_cell_angle_beta 89.350380
_cell_angle_gamma 90.000000
_cell_volume 535.590299
_symmetry_space_group_name_H-M "P 21/M"
_symmetry_group_IT_number 11
_symmetry_cell_setting 'monoclinic'
loop_
_space_group_symop_operation_xyz
x,y,z
-x,1/2+y,-z
-x,-y,-z
x,1/2-y,z
loop_
_atom_site_type_symbol
_atom_site_label
_atom_site_fract_x
_atom_site_fract_y
_atom_site_fract_z
Si Si1 0.287800 0.035856 0.566218
Si Si2 0.500000 0.000000 0.000000
Si Si3 0.954371 0.388151 0.940609
Si Si4 0.882204 0.673507 0.549928
O O1 0.198159 0.056950 0.877321
O O2 0.329057 0.113975 0.489901
O O3 0.000000 0.000000 0.500000
O O4 0.451975 0.004449 0.308910
O O5 0.700728 0.068012 0.007355
O O6 0.929494 0.345105 0.688558
O O7 0.012511 0.342178 0.176891
O O8 0.792499 0.750000 0.532027
#
# Coordination Sequence:
#
# PCOD9166868 Si02
#       4
#     4   2   4   4
#     4  10  24  42  73 111 148 187 246 313 367 439
#     4  12  24  42  72 116 142 180 244 316 376 424
#     4  10  25  42  74 106 145 188 244 311 367 446
#     4  10  23  47  72 103 150 200 247 300 372 450
#
# _framework density 26.139382999999999
#
# number of rings (size 3 to 8) (size 9 to 14) (size 15 to 20)
#    1.714    0.000    0.000    3.429    4.000    2.286 
#    0.000    2.857    0.000    0.000    0.000    0.000 
#    0.000    0.000    0.000    0.000    0.000    0.000 
#
# Total GULP energy -78074.513164 kJ/mol
# GULP energy per Si atom -5576.750940 kJ/mol
# Density = 2.607989 g / cm^3
# Si number density = 26.139383 Si / 1000 Ang^3
#
#
#
# Elastic Constant Matrix: (Units=GPa)
#
#
# Indices 1 2 3 4 5 6 
#
# 1 162.9793 71.0321 67.6751 0.0000 -26.3694 0.0000
# 2 71.0321 252.7281 54.0127 0.0000 3.7668 0.0000
# 3 67.6751 54.0127 288.3487 0.0000 21.7571 0.0000
# 4 0.0000 0.0000 0.0000 39.3297 0.0000 8.1827
# 5 -26.3694 3.7668 21.7571 0.0000 63.0827 0.0000
# 6 0.0000 0.0000 0.0000 8.1827 0.0000 29.7635
#
#
#
# Elastic Compliance Matrix: (Units=1/GPa)
#
#
# Indices 1 2 3 4 5 6 
#
# 1 0.008546 -0.002050 -0.001951 0.000000 0.004368 0.000000
# 2 -0.002050 0.004614 -0.000306 0.000000 -0.001027 0.000000
# 3 -0.001951 -0.000306 0.004151 0.000000 -0.002229 0.000000
# 4 0.000000 0.000000 0.000000 0.026969 0.000000 -0.007414
# 5 0.004368 -0.001027 -0.002229 0.000000 0.018508 0.000000
# 6 0.000000 0.000000 0.000000 -0.007414 0.000000 0.035637
#
#
# Mechanical properties :
#
#
# Convention : Reuss Voigt Hill
#
# Bulk Modulus (GPa) = 114.97791 121.05509 118.01650
# Shear Modulus (GPa) = 45.48024 60.52426 53.00225
#
# Velocity S-wave (km/s) = 4.17575 4.81713 4.50786
# Velocity P-wave (km/s) = 8.20556 8.79497 8.50537
#
# Compressibility (1/GPa) = 0.00869732
#
# Stress axis : x y z
#
# Youngs Moduli (GPa) = 117.01083 216.74901 240.87980
#
# Poissons Ratio (x) = 0.44435 0.47004
# Poissons Ratio (y) = 0.23988 0.07360
# Poissons Ratio (z) = 0.22833 0.06623
#
# Static dielectric constant tensor:
#      x y z
#    x 4.019400 0.000000 1.100890 
#    y 0.000000 2.864120 0.000000 
#    z 1.100890 0.000000 2.807050 
# 
# From -- ./inp_files/406.got.cif
#   From: 2010.05.17/outbox.cif.g08.bks.cpg/sg11_1_cif.got.tgz:406.got - 2010.06.03 12:22:45.
