data_PCOD9166290
_publ_section_title
;
Structure prediction by ZEFSAII (Michael W. Deem and Ramdas Pophale) SiO2 
 PCOD9166290
Probable space group: P 21/M
;
_chemical_formula_sum "Si O2"
_cell_formula_units_Z 16
_cell_length_a 4.830796
_cell_length_b 22.891237
_cell_length_c 5.943044
_cell_angle_alpha 90.000000
_cell_angle_beta 82.431087
_cell_angle_gamma 90.000000
_cell_volume 651.472943
_symmetry_space_group_name_H-M "P 21/M"
_symmetry_group_IT_number 11
_symmetry_cell_setting 'monoclinic'
loop_
_space_group_symop_operation_xyz
x,y,z
-x,1/2+y,-z
-x,-y,-z
x,1/2-y,z
loop_
_atom_site_type_symbol
_atom_site_label
_atom_site_fract_x
_atom_site_fract_y
_atom_site_fract_z
Si Si1 0.614654 0.620222 0.994881
Si Si2 0.062163 0.592380 0.565064
Si Si3 0.772776 0.513188 0.215307
Si Si4 0.104040 0.680968 0.193583
O O1 0.819028 0.610117 0.764043
O O2 0.556717 0.557147 0.119303
O O3 0.328266 0.654427 0.994015
O O4 0.801068 0.659573 0.144507
O O5 0.285363 0.549412 0.664192
O O6 0.171650 0.648780 0.421988
O O7 0.920345 0.552072 0.389735
O O8 0.000000 0.500000 0.000000
O O9 0.120127 0.750000 0.205932
#
# Coordination Sequence:
#
# PCOD9166290 Si02
#       4
#     4   4   4   4
#     4  10  22  40  61  88 120 156 200 250 301 358
#     4   9  19  38  63  90 121 160 197 244 307 359
#     4   8  16  36  63  93 123 152 194 248 303 363
#     4  11  24  40  59  86 120 160 207 251 294 352
#
# _framework density 24.559729999999998
#
# number of rings (size 3 to 8) (size 9 to 14) (size 15 to 20)
#    0.000    2.500    0.000    0.750    0.000    7.000 
#    0.000   42.500    0.000    0.000    0.000    0.000 
#    0.000    0.000    0.000    0.000    0.000    0.000 
#
# Total GULP energy -89571.086850 kJ/mol
# GULP energy per Si atom -5598.192928 kJ/mol
# Density = 2.450383 g / cm^3
# Si number density = 24.559730 Si / 1000 Ang^3
#
#
#
# Elastic Constant Matrix: (Units=GPa)
#
#
# Indices 1 2 3 4 5 6 
#
# 1 107.7633 43.1540 12.3532 0.0000 -9.1929 0.0000
# 2 43.1540 210.1272 57.7128 0.0000 -11.0396 0.0000
# 3 12.3532 57.7128 118.3215 0.0000 -10.5650 0.0000
# 4 0.0000 0.0000 0.0000 30.0970 0.0000 -5.7001
# 5 -9.1929 -11.0396 -10.5650 0.0000 24.7596 0.0000
# 6 0.0000 0.0000 0.0000 -5.7001 0.0000 32.2773
#
#
#
# Elastic Compliance Matrix: (Units=1/GPa)
#
#
# Indices 1 2 3 4 5 6 
#
# 1 0.010321 -0.002008 0.000171 0.000000 0.003009 0.000000
# 2 -0.002008 0.005930 -0.002613 0.000000 0.000783 0.000000
# 3 0.000171 -0.002613 0.009990 0.000000 0.003161 0.000000
# 4 0.000000 0.000000 0.000000 0.034376 0.000000 0.006071
# 5 0.003009 0.000783 0.003161 0.000000 0.043204 0.000000
# 6 0.000000 0.000000 0.000000 0.006071 0.000000 0.032054
#
#
# Mechanical properties :
#
#
# Convention : Reuss Voigt Hill
#
# Bulk Modulus (GPa) = 57.66786 73.62800 65.64793
# Shear Modulus (GPa) = 33.21012 38.95957 36.08485
#
# Velocity S-wave (km/s) = 3.68124 3.98718 3.83726
# Velocity P-wave (km/s) = 6.44983 7.15829 6.81328
#
# Compressibility (1/GPa) = 0.01734068
#
# Stress axis : x y z
#
# Youngs Moduli (GPa) = 96.88958 168.62490 100.09514
#
# Poissons Ratio (x) = 0.33867 -0.01710
# Poissons Ratio (y) = 0.19460 0.26154
# Poissons Ratio (z) = -0.01655 0.44061
#
# Static dielectric constant tensor:
#      x y z
#    x 1.947970 0.000000 0.054220 
#    y 0.000000 1.919910 0.000000 
#    z 0.054220 0.000000 2.017140 
# 
# From -- ./inp_files/440.got.cif
#   From: 2010.05.17/outbox.cif.g08.bks.cpg/sg11_1_cif.got.tgz:440.got - 2010.06.03 12:22:45.
