data_PCOD9166450
_publ_section_title
;
Structure prediction by ZEFSAII (Michael W. Deem and Ramdas Pophale) SiO2 
 PCOD9166450
Probable space group: P 21/M
;
_chemical_formula_sum "Si O2"
_cell_formula_units_Z 32
_cell_length_a 12.013469
_cell_length_b 8.772696
_cell_length_c 28.989467
_cell_angle_alpha 90.000000
_cell_angle_beta 31.369945
_cell_angle_gamma 90.000000
_cell_volume 1590.428161
_symmetry_space_group_name_H-M "P 21/M"
_symmetry_group_IT_number 11
_symmetry_cell_setting 'monoclinic'
loop_
_space_group_symop_operation_xyz
x,y,z
-x,1/2+y,-z
-x,-y,-z
x,1/2-y,z
loop_
_atom_site_type_symbol
_atom_site_label
_atom_site_fract_x
_atom_site_fract_y
_atom_site_fract_z
Si Si1 0.145925 0.934037 0.811427
Si Si2 0.171269 0.930549 0.322854
Si Si3 0.281776 0.070073 0.473236
Si Si4 0.116788 0.431836 0.003425
Si Si5 0.585801 0.569154 0.848141
Si Si6 0.371313 0.070531 0.588204
Si Si7 0.039097 0.066431 0.222383
Si Si8 0.618114 0.069419 0.652909
O O1 0.178085 0.750000 0.798768
O O2 0.023615 0.977774 0.807531
O O3 0.374551 0.014423 0.733978
O O4 0.010420 0.972184 0.904843
O O5 0.189463 0.750000 0.305309
O O6 0.301033 0.959404 0.324032
O O7 0.924558 0.961847 0.422484
O O8 0.268385 0.027677 0.247433
O O9 0.329968 0.250000 0.459318
O O10 0.481558 0.973480 0.420378
O O11 0.247264 0.022947 0.432693
O O12 0.116236 0.250000 0.999175
O O13 0.358983 0.488925 0.922545
O O14 0.000000 0.500000 0.000000
O O15 0.551379 0.750000 0.862449
O O16 0.726464 0.520526 0.842772
O O17 0.352737 0.250000 0.588480
O O18 0.500000 0.000000 0.500000
O O19 0.139781 0.000780 0.680100
O O20 0.027347 0.250000 0.229289
O O21 0.637752 0.250000 0.637301
#
# Coordination Sequence:
#
# PCOD9166450 Si02
#       8
#     4   4   4   4   4   4   4   4
#     4  10  22  41  65  90 122 165 209 254 314 375
#     4  10  23  40  59  86 123 165 209 259 311 370
#     4  11  22  38  59  86 122 164 207 256 314 373
#     4  11  24  43  68  97 127 164 207 256 313 378
#     4  11  24  41  64  93 124 161 205 256 314 373
#     4  12  24  38  59  88 122 165 214 262 312 367
#     4  10  22  42  64  89 124 163 208 260 311 370
#     4  11  22  37  59  90 123 159 207 258 310 370
#
# _framework density 20.120367999999999
#
# number of rings (size 3 to 8) (size 9 to 14) (size 15 to 20)
#    0.000    1.250    1.250    4.500    0.000    8.500 
#    0.000    0.000    0.000    0.000    0.000    0.000 
#    0.000    0.000    0.000    0.000    0.000    0.000 
#
# Total GULP energy -178988.477276 kJ/mol
# GULP energy per Si atom -5593.389915 kJ/mol
# Density = 2.007457 g / cm^3
# Si number density = 20.120368 Si / 1000 Ang^3
#
#
#
# Elastic Constant Matrix: (Units=GPa)
#
#
# Indices 1 2 3 4 5 6 
#
# 1 89.2837 22.2245 39.1035 0.0000 -12.9596 0.0000
# 2 22.2245 26.3723 24.8880 0.0000 1.6422 0.0000
# 3 39.1035 24.8880 95.7827 0.0000 -3.0478 0.0000
# 4 0.0000 0.0000 0.0000 29.8293 0.0000 2.4413
# 5 -12.9596 1.6422 -3.0478 0.0000 36.2082 0.0000
# 6 0.0000 0.0000 0.0000 2.4413 0.0000 24.8392
#
#
#
# Elastic Compliance Matrix: (Units=1/GPa)
#
#
# Indices 1 2 3 4 5 6 
#
# 1 0.016353 -0.010648 -0.003718 0.000000 0.006023 0.000000
# 2 -0.010648 0.057588 -0.010850 0.000000 -0.007336 0.000000
# 3 -0.003718 -0.010850 0.014790 0.000000 0.000406 0.000000
# 4 0.000000 0.000000 0.000000 0.033796 0.000000 -0.003322
# 5 0.006023 -0.007336 0.000406 0.000000 0.030141 0.000000
# 6 0.000000 0.000000 0.000000 -0.003322 0.000000 0.040585
#
#
# Mechanical properties :
#
#
# Convention : Reuss Voigt Hill
#
# Bulk Modulus (GPa) = 26.10953 42.65230 34.38091
# Shear Modulus (GPa) = 19.49687 26.52352 23.01020
#
# Velocity S-wave (km/s) = 3.11627 3.63470 3.38542
# Velocity P-wave (km/s) = 5.09441 6.23372 5.69264
#
# Compressibility (1/GPa) = 0.03830020
#
# Stress axis : x y z
#
# Youngs Moduli (GPa) = 61.14986 17.36480 67.61173
#
# Poissons Ratio (x) = 0.18489 0.25138
# Poissons Ratio (y) = 0.65110 0.73359
# Poissons Ratio (z) = 0.22735 0.18841
#
# Static dielectric constant tensor:
#      x y z
#    x 1.749650 0.000000 0.004310 
#    y 0.000000 1.672240 0.000000 
#    z 0.004310 0.000000 1.687540 
# 
# From -- ./inp_files/73085.got.cif
#   From: 2010.05.17/outbox.cif.g08.bks.cpg/sg11_37_cif.got.tgz:73085.got - 2010.06.03 12:22:45.
