data_PCOD9166162
_publ_section_title
;
Structure prediction by ZEFSAII (Michael W. Deem and Ramdas Pophale) SiO2 
 PCOD9166162
Probable space group: P 21/M
;
_chemical_formula_sum "Si O2"
_cell_formula_units_Z 24
_cell_length_a 10.227585
_cell_length_b 13.503343
_cell_length_c 11.923361
_cell_angle_alpha 90.000000
_cell_angle_beta 37.895087
_cell_angle_gamma 90.000000
_cell_volume 1011.428766
_symmetry_space_group_name_H-M "P 21/M"
_symmetry_group_IT_number 11
_symmetry_cell_setting 'monoclinic'
loop_
_space_group_symop_operation_xyz
x,y,z
-x,1/2+y,-z
-x,-y,-z
x,1/2-y,z
loop_
_atom_site_type_symbol
_atom_site_label
_atom_site_fract_x
_atom_site_fract_y
_atom_site_fract_z
Si Si1 0.326353 0.867441 0.700573
Si Si2 0.589028 0.366044 0.607114
Si Si3 0.795075 0.634830 0.438758
Si Si4 0.669265 0.535961 0.729385
Si Si5 0.122527 0.131470 0.966703
Si Si6 0.798307 0.484070 0.892368
O O1 0.344929 0.750000 0.711398
O O2 0.291187 0.879297 0.591431
O O3 0.559359 0.907638 0.570759
O O4 0.114594 0.904297 0.906550
O O5 0.605171 0.250000 0.627943
O O6 0.665517 0.436564 0.655084
O O7 0.337279 0.385366 0.751170
O O8 0.802949 0.750000 0.404817
O O9 0.800125 0.615463 0.569018
O O10 0.991376 0.582114 0.246908
O O11 0.763776 0.514447 0.786710
O O12 0.422166 0.566426 0.917077
O O13 0.104356 0.250000 0.990766
O O14 0.175313 0.080243 0.048699
#
# Coordination Sequence:
#
# PCOD9166162 Si02
#       6
#     4   4   4   4   4   4
#     4   9  19  35  54  79 111 144 182 228 273 325
#     4   9  18  34  57  82 108 142 183 229 281 330
#     4  11  24  39  56  81 114 151 185 221 273 329
#     4  10  22  39  58  83 113 144 185 232 273 323
#     4   9  18  34  57  82 108 142 183 229 281 330
#     4  10  22  39  58  83 113 144 185 232 273 323
#
# _framework density 23.728807
#
# number of rings (size 3 to 8) (size 9 to 14) (size 15 to 20)
#    0.000    2.333    0.000    1.500    0.000    6.000 
#    0.000   11.667    0.000    0.000    0.000    0.000 
#    0.000    0.000    0.000    0.000    0.000    0.000 
#
# Total GULP energy -134238.852735 kJ/mol
# GULP energy per Si atom -5593.285531 kJ/mol
# Density = 2.367480 g / cm^3
# Si number density = 23.728807 Si / 1000 Ang^3
#
#
#
# Elastic Constant Matrix: (Units=GPa)
#
#
# Indices 1 2 3 4 5 6 
#
# 1 66.0916 6.4792 22.0752 0.0000 5.1368 0.0000
# 2 6.4792 72.5014 27.5598 0.0000 -9.1932 0.0000
# 3 22.0752 27.5598 145.3728 0.0000 -11.5778 0.0000
# 4 0.0000 0.0000 0.0000 30.5084 0.0000 -1.5523
# 5 5.1368 -9.1932 -11.5778 0.0000 39.9915 0.0000
# 6 0.0000 0.0000 0.0000 -1.5523 0.0000 12.1142
#
#
#
# Elastic Compliance Matrix: (Units=1/GPa)
#
#
# Indices 1 2 3 4 5 6 
#
# 1 0.016304 -0.000872 -0.002552 0.000000 -0.003033 0.000000
# 2 -0.000872 0.015193 -0.002519 0.000000 0.002875 0.000000
# 3 -0.002552 -0.002519 0.007906 0.000000 0.002038 0.000000
# 4 0.000000 0.000000 0.000000 0.032993 0.000000 0.004228
# 5 -0.003033 0.002875 0.002038 0.000000 0.026646 0.000000
# 6 0.000000 0.000000 0.000000 0.004228 0.000000 0.083090
#
#
# Mechanical properties :
#
#
# Convention : Reuss Voigt Hill
#
# Bulk Modulus (GPa) = 36.33990 44.02156 40.18073
# Shear Modulus (GPa) = 24.60757 31.71293 28.16025
#
# Velocity S-wave (km/s) = 3.22379 3.65975 3.44867
# Velocity P-wave (km/s) = 5.40417 6.03743 5.72956
#
# Compressibility (1/GPa) = 0.02751797
#
# Stress axis : x y z
#
# Youngs Moduli (GPa) = 61.33398 65.82055 126.48234
#
# Poissons Ratio (x) = 0.05736 0.32281
# Poissons Ratio (y) = 0.05345 0.31860
# Poissons Ratio (z) = 0.15654 0.16580
#
# Static dielectric constant tensor:
#      x y z
#    x 1.915580 0.000000 -0.046310 
#    y 0.000000 1.882700 0.000000 
#    z -0.046310 0.000000 1.921990 
# 
# From -- ./inp_files/39705.got.cif
#   From: 2010.05.17/outbox.cif.g08.bks.cpg/sg11_20_cif.got.tgz:39705.got - 2010.06.03 12:22:45.
