data_PCOD9166091
_publ_section_title
;
Structure prediction by ZEFSAII (Michael W. Deem and Ramdas Pophale) SiO2 
 PCOD9166091
Probable space group: P 21/M
;
_chemical_formula_sum "Si O2"
_cell_formula_units_Z 28
_cell_length_a 16.855350
_cell_length_b 14.375511
_cell_length_c 9.441399
_cell_angle_alpha 90.000000
_cell_angle_beta 142.841766
_cell_angle_gamma 90.000000
_cell_volume 1381.807448
_symmetry_space_group_name_H-M "P 21/M"
_symmetry_group_IT_number 11
_symmetry_cell_setting 'monoclinic'
loop_
_space_group_symop_operation_xyz
x,y,z
-x,1/2+y,-z
-x,-y,-z
x,1/2-y,z
loop_
_atom_site_type_symbol
_atom_site_label
_atom_site_fract_x
_atom_site_fract_y
_atom_site_fract_z
Si Si1 0.754308 0.854223 0.810079
Si Si2 0.594921 0.646358 0.075391
Si Si3 0.548205 0.593681 0.304982
Si Si4 0.100881 0.361789 0.563622
Si Si5 0.502595 0.393319 0.362916
Si Si6 0.696398 0.349720 0.889913
Si Si7 0.088009 0.005038 0.811807
O O1 0.805727 0.750000 0.905477
O O2 0.679932 0.861592 0.555103
O O3 0.635094 0.870250 0.754324
O O4 0.862407 0.933810 0.985471
O O5 0.588164 0.750000 0.127769
O O6 0.561116 0.580143 0.157312
O O7 0.743203 0.629766 0.234885
O O8 0.506378 0.644105 0.809315
O O9 0.525061 0.501770 0.366190
O O10 0.417947 0.650225 0.156333
O O11 0.071169 0.250000 0.520279
O O12 0.065013 0.415670 0.659086
O O13 0.029165 0.429727 0.347854
O O14 0.618931 0.359134 0.630207
O O15 0.766563 0.250000 0.991918
O O16 0.790154 0.436646 0.050731
#
# Coordination Sequence:
#
# PCOD9166091 Si02
#       7
#     4   4   4   4   4   4   4
#     4  11  19  34  57  83 113 146 184 231 276 327
#     4  11  21  35  53  81 113 151 191 221 271 338
#     4  11  20  34  53  84 117 147 180 232 278 331
#     4  10  22  38  57  81 112 150 189 231 276 327
#     4  11  19  34  55  81 114 147 184 228 276 333
#     4  11  20  34  56  86 116 145 180 230 285 328
#     4  11  20  36  58  83 110 140 192 235 271 326
#
# _framework density 20.263314999999999
#
# number of rings (size 3 to 8) (size 9 to 14) (size 15 to 20)
#    0.000    1.143    4.286    5.571    0.000    0.000 
#    0.000    0.714    0.000    0.000    0.000    4.000 
#    0.000    0.000    0.000    0.000    0.000    0.000 
#
# Total GULP energy -156101.599973 kJ/mol
# GULP energy per Si atom -5575.057142 kJ/mol
# Density = 2.021719 g / cm^3
# Si number density = 20.263315 Si / 1000 Ang^3
#
#
#
# Elastic Constant Matrix: (Units=GPa)
#
#
# Indices 1 2 3 4 5 6 
#
# 1 32.0101 7.6929 18.4277 0.0000 -17.1171 0.0000
# 2 7.6929 149.8646 22.9073 0.0000 5.1629 0.0000
# 3 18.4277 22.9073 76.1522 0.0000 -5.9354 0.0000
# 4 0.0000 0.0000 0.0000 20.0163 0.0000 -8.8078
# 5 -17.1171 5.1629 -5.9354 0.0000 27.5209 0.0000
# 6 0.0000 0.0000 0.0000 -8.8078 0.0000 6.2526
#
#
#
# Elastic Compliance Matrix: (Units=1/GPa)
#
#
# Indices 1 2 3 4 5 6 
#
# 1 0.054965 -0.002404 -0.010047 0.000000 0.032471 0.000000
# 2 -0.002404 0.007188 -0.001833 0.000000 -0.003239 0.000000
# 3 -0.010047 -0.001833 0.015921 0.000000 -0.002471 0.000000
# 4 0.000000 0.000000 0.000000 0.131419 0.000000 0.185122
# 5 0.032471 -0.003239 -0.002471 0.000000 0.056607 0.000000
# 6 0.000000 0.000000 0.000000 0.185122 0.000000 0.420704
#
#
# Mechanical properties :
#
#
# Convention : Reuss Voigt Hill
#
# Bulk Modulus (GPa) = 20.19925 39.56476 29.88200
# Shear Modulus (GPa) = 6.83177 24.69123 15.76150
#
# Velocity S-wave (km/s) = 1.83816 3.49452 2.79199
# Velocity P-wave (km/s) = 3.80724 5.98748 5.01722
#
# Compressibility (1/GPa) = 0.04950680
#
# Stress axis : x y z
#
# Youngs Moduli (GPa) = 18.19324 139.12351 62.80829
#
# Poissons Ratio (x) = 0.33452 0.63102
# Poissons Ratio (y) = 0.04375 0.11511
# Poissons Ratio (z) = 0.18278 0.25498
#
# Static dielectric constant tensor:
#      x y z
#    x 1.681270 0.000000 -0.010000 
#    y 0.000000 1.826730 0.000000 
#    z -0.010000 0.000000 1.767740 
# 
# From -- ./inp_files/24966.got.cif
#   From: 2010.05.17/outbox.cif.g08.bks.cpg/sg11_13_cif.got.tgz:24966.got - 2010.06.03 12:22:45.
