data_PCOD9166506
_publ_section_title
;
Structure prediction by ZEFSAII (Michael W. Deem and Ramdas Pophale) SiO2 
 PCOD9166506
Probable space group: P 21/M
;
_chemical_formula_sum "Si O2"
_cell_formula_units_Z 32
_cell_length_a 15.326417
_cell_length_b 18.174626
_cell_length_c 6.909955
_cell_angle_alpha 90.000000
_cell_angle_beta 63.201607
_cell_angle_gamma 90.000000
_cell_volume 1718.056629
_symmetry_space_group_name_H-M "P 21/M"
_symmetry_group_IT_number 11
_symmetry_cell_setting 'monoclinic'
loop_
_space_group_symop_operation_xyz
x,y,z
-x,1/2+y,-z
-x,-y,-z
x,1/2-y,z
loop_
_atom_site_type_symbol
_atom_site_label
_atom_site_fract_x
_atom_site_fract_y
_atom_site_fract_z
Si Si1 0.541351 0.082007 0.440206
Si Si2 0.041351 0.417993 0.977095
Si Si3 0.168889 0.164157 0.543156
Si Si4 0.779256 0.916830 0.902728
Si Si5 0.279256 0.916829 0.038758
Si Si6 0.668889 0.164157 0.619069
Si Si7 0.151876 0.834731 0.859107
Si Si8 0.651876 0.834731 0.337137
O O1 0.626197 0.082829 0.195354
O O2 0.588772 0.114433 0.589390
O O3 0.449601 0.133581 0.484360
O O4 0.500000 0.000000 0.500000
O O5 0.088772 0.385566 0.733069
O O6 0.126197 0.417172 0.052254
O O7 0.000000 0.500000 0.000000
O O8 0.949601 0.366420 0.116442
O O9 0.138553 0.250000 0.561948
O O10 0.195424 0.131175 0.309292
O O11 0.265287 0.160844 0.581229
O O12 0.691752 0.881522 0.116159
O O13 0.750000 0.000001 0.878671
O O14 0.191752 0.881522 0.000334
O O15 0.304577 0.868824 0.200135
O O16 0.638552 0.250000 0.660947
O O17 0.765286 0.160844 0.388201
O O18 0.141041 0.750000 0.927845
O O19 0.641042 0.750000 0.290066
#
# Coordination Sequence:
#
# PCOD9166506 Si02
#       8
#     4   4   4   4   4   4   4   4
#     4  11  23  40  64  92 122 160 205 251 304 358
#     4  11  23  40  64  92 122 160 205 251 304 358
#     4  10  24  41  62  90 124 161 203 250 307 368
#     4  11  23  39  64  91 124 160 204 255 302 363
#     4  11  23  39  64  91 124 160 204 255 302 363
#     4  10  24  41  62  90 124 161 203 250 307 368
#     4  10  22  42  63  87 123 162 200 249 307 365
#     4  10  22  42  63  87 123 162 200 249 307 365
#
# _framework density 18.625693999999999
#
# number of rings (size 3 to 8) (size 9 to 14) (size 15 to 20)
#    0.000    1.500    2.500    1.500    3.500    6.000 
#    0.000    2.500    0.000    0.000    0.000    0.000 
#    0.000    0.000    0.000    0.000    0.000    0.000 
#
# Total GULP energy -178767.650635 kJ/mol
# GULP energy per Si atom -5586.489082 kJ/mol
# Density = 1.858330 g / cm^3
# Si number density = 18.625694 Si / 1000 Ang^3
#
#
#
# Elastic Constant Matrix: (Units=GPa)
#
#
# Indices 1 2 3 4 5 6 
#
# 1 65.6327 39.3508 15.1022 0.0000 -13.5095 0.0000
# 2 39.3508 122.4926 42.8337 0.0000 1.6706 0.0000
# 3 15.1022 42.8337 70.9163 0.0000 16.0463 0.0000
# 4 0.0000 0.0000 0.0000 33.5314 0.0000 -2.4184
# 5 -13.5095 1.6706 16.0463 0.0000 25.3836 0.0000
# 6 0.0000 0.0000 0.0000 -2.4184 0.0000 38.5688
#
#
#
# Elastic Compliance Matrix: (Units=1/GPa)
#
#
# Indices 1 2 3 4 5 6 
#
# 1 0.023201 -0.005942 -0.004941 0.000000 0.015862 0.000000
# 2 -0.005942 0.012198 -0.006074 0.000000 -0.000125 0.000000
# 3 -0.004941 -0.006074 0.022553 0.000000 -0.016487 0.000000
# 4 0.000000 0.000000 0.000000 0.029958 0.000000 0.001878
# 5 0.015862 -0.000125 -0.016487 0.000000 0.058268 0.000000
# 6 0.000000 0.000000 0.000000 0.001878 0.000000 0.026045
#
#
# Mechanical properties :
#
#
# Convention : Reuss Voigt Hill
#
# Bulk Modulus (GPa) = 41.60138 50.40167 46.00152
# Shear Modulus (GPa) = 23.34813 30.28042 26.81428
#
# Velocity S-wave (km/s) = 3.54438 4.03641 3.79837
# Velocity P-wave (km/s) = 6.25573 6.98874 6.63237
#
# Compressibility (1/GPa) = 0.02403767
#
# Stress axis : x y z
#
# Youngs Moduli (GPa) = 43.10203 81.97889 44.34077
#
# Poissons Ratio (x) = 0.48710 0.21909
# Poissons Ratio (y) = 0.25610 0.26933
# Poissons Ratio (z) = 0.21297 0.49795
#
# Static dielectric constant tensor:
#      x y z
#    x 1.627690 0.000000 -0.008580 
#    y 0.000000 1.646150 0.000000 
#    z -0.008580 0.000000 1.609810 
# 
# From -- ./inp_files/6821.got.cif
#   From: 2010.05.17/outbox.cif.g08.bks.cpg/sg11_4_cif.got.tgz:6821.got - 2010.06.03 12:22:45.
