data_PCOD9166708
_publ_section_title
;
Structure prediction by ZEFSAII (Michael W. Deem and Ramdas Pophale) SiO2 
 PCOD9166708
Probable space group: P 21/M
;
_chemical_formula_sum "Si O2"
_cell_formula_units_Z 18
_cell_length_a 11.683838
_cell_length_b 8.125734
_cell_length_c 16.457904
_cell_angle_alpha 90.000000
_cell_angle_beta 152.569876
_cell_angle_gamma 90.000000
_cell_volume 719.795762
_symmetry_space_group_name_H-M "P 21/M"
_symmetry_group_IT_number 11
_symmetry_cell_setting 'monoclinic'
loop_
_space_group_symop_operation_xyz
x,y,z
-x,1/2+y,-z
-x,-y,-z
x,1/2-y,z
loop_
_atom_site_type_symbol
_atom_site_label
_atom_site_fract_x
_atom_site_fract_y
_atom_site_fract_z
Si Si1 0.234025 0.946310 0.366984
Si Si2 0.513622 0.750000 0.221103
Si Si3 0.159135 0.448401 0.022065
Si Si4 0.918267 0.250000 0.371668
Si Si5 0.493689 0.250000 0.977999
Si Si6 0.059185 0.433541 0.666881
O O1 0.241874 0.750000 0.378277
O O2 0.152259 0.001550 0.405851
O O3 0.018312 0.986197 0.166773
O O4 0.500000 0.000000 0.500000
O O5 0.789518 0.750000 0.429747
O O6 0.496911 0.750000 0.112872
O O7 0.381502 0.579379 0.163008
O O8 0.218914 0.250000 0.059902
O O9 0.000000 0.500000 0.000000
O O10 0.852541 0.440349 0.346596
O O11 0.757618 0.250000 0.185354
O O12 0.297770 0.396333 0.874516
O O13 0.982352 0.250000 0.587861
#
# Coordination Sequence:
#
# PCOD9166708 Si02
#       6
#     4   2   4   2   2   4
#     4  10  23  40  71 103 135 185 237 284 361 431
#     4  12  28  46  72 109 140 193 241 296 363 426
#     4  11  25  46  68 101 150 187 232 301 360 424
#     4  12  24  42  79  96 137 192 244 288 362 428
#     4  10  24  52  69 101 151 181 245 304 357 422
#     4   9  23  44  69 104 137 183 236 300 356 419
#
# _framework density 25.007092
#
# number of rings (size 3 to 8) (size 9 to 14) (size 15 to 20)
#    0.667    0.889    1.111    2.000    6.222    1.778 
#    2.000    0.000    0.000    0.000    0.000    0.000 
#    0.000    0.000    0.000    0.000    0.000    0.000 
#
# Total GULP energy -100263.874440 kJ/mol
# GULP energy per Si atom -5570.215247 kJ/mol
# Density = 2.495018 g / cm^3
# Si number density = 25.007092 Si / 1000 Ang^3
#
#
#
# Elastic Constant Matrix: (Units=GPa)
#
#
# Indices 1 2 3 4 5 6 
#
# 1 108.4696 17.5348 13.0911 0.0000 13.4121 0.0000
# 2 17.5348 124.1418 39.7950 0.0000 0.5850 0.0000
# 3 13.0911 39.7950 140.7691 0.0000 10.7225 0.0000
# 4 0.0000 0.0000 0.0000 55.2212 0.0000 7.2396
# 5 13.4121 0.5850 10.7225 0.0000 39.9501 0.0000
# 6 0.0000 0.0000 0.0000 7.2396 0.0000 40.1830
#
#
#
# Elastic Compliance Matrix: (Units=1/GPa)
#
#
# Indices 1 2 3 4 5 6 
#
# 1 0.009860 -0.001278 -0.000311 0.000000 -0.003208 0.000000
# 2 -0.001278 0.009036 -0.002509 0.000000 0.000970 0.000000
# 3 -0.000311 -0.002509 0.007995 0.000000 -0.002005 0.000000
# 4 0.000000 0.000000 0.000000 0.018547 0.000000 -0.003342
# 5 -0.003208 0.000970 -0.002005 0.000000 0.026632 0.000000
# 6 0.000000 0.000000 0.000000 -0.003342 0.000000 0.025488
#
#
# Mechanical properties :
#
#
# Convention : Reuss Voigt Hill
#
# Bulk Modulus (GPa) = 53.49495 57.13582 55.31539
# Shear Modulus (GPa) = 44.64844 47.26817 45.95830
#
# Velocity S-wave (km/s) = 4.23002 4.35235 4.29162
# Velocity P-wave (km/s) = 6.73021 6.93936 6.83559
#
# Compressibility (1/GPa) = 0.01869335
#
# Stress axis : x y z
#
# Youngs Moduli (GPa) = 101.42024 110.67296 125.08007
#
# Poissons Ratio (x) = 0.14141 0.03895
# Poissons Ratio (y) = 0.12959 0.31388
# Poissons Ratio (z) = 0.03158 0.27772
#
# Static dielectric constant tensor:
#      x y z
#    x 2.123210 0.000000 -0.006830 
#    y 0.000000 2.251250 0.000000 
#    z -0.006830 0.000000 1.971690 
# 
# From -- ./inp_files/15974.got.cif
#   From: 2010.05.17/outbox.cif.g08.bks.cpg/sg11_8_cif.got.tgz:15974.got - 2010.06.03 12:22:45.
