data_PCOD9166410
_publ_section_title
;
Structure prediction by ZEFSAII (Michael W. Deem and Ramdas Pophale) SiO2 
 PCOD9166410
Probable space group: P 21/M
;
_chemical_formula_sum "Si O2"
_cell_formula_units_Z 18
_cell_length_a 8.043585
_cell_length_b 18.924071
_cell_length_c 7.802850
_cell_angle_alpha 90.000000
_cell_angle_beta 36.540610
_cell_angle_gamma 90.000000
_cell_volume 707.165011
_symmetry_space_group_name_H-M "P 21/M"
_symmetry_group_IT_number 11
_symmetry_cell_setting 'monoclinic'
loop_
_space_group_symop_operation_xyz
x,y,z
-x,1/2+y,-z
-x,-y,-z
x,1/2-y,z
loop_
_atom_site_type_symbol
_atom_site_label
_atom_site_fract_x
_atom_site_fract_y
_atom_site_fract_z
Si Si1 0.549767 0.634545 0.304059
Si Si2 0.962114 0.750000 0.345776
Si Si3 0.587143 0.517493 0.733815
Si Si4 0.018517 0.564071 0.120725
Si Si5 0.331747 0.750000 0.706905
Si Si6 0.593431 0.750000 0.984541
O O1 0.442635 0.556978 0.340521
O O2 0.814798 0.620326 0.206062
O O3 0.325855 0.681141 0.590629
O O4 0.624270 0.680289 0.076651
O O5 0.639179 0.750000 0.535406
O O6 0.830422 0.750000 0.647043
O O7 0.099595 0.750000 0.041253
O O8 0.284845 0.750000 0.160082
O O9 0.881137 0.547364 0.421696
O O10 0.500000 0.500000 0.000000
O O11 0.347403 0.573216 0.874453
O O12 0.000000 0.500000 0.000000
#
# Coordination Sequence:
#
# PCOD9166410 Si02
#       6
#     4   2   4   4   2   2
#     4  10  23  42  65  94 128 169 213 257 319 386
#     4  10  24  44  60  96 126 162 212 256 322 374
#     4  11  24  41  64  95 129 169 213 266 315 366
#     4  10  22  41  63  89 125 168 210 253 308 377
#     4  10  24  42  66  90 124 168 210 260 316 384
#     4  10  24  42  68  96 130 164 208 270 324 376
#
# _framework density 25.453745999999999
#
# number of rings (size 3 to 8) (size 9 to 14) (size 15 to 20)
#    0.000    1.778    0.000    3.333    0.000   19.556 
#    0.000    0.000    0.000    0.000    0.000    0.000 
#    0.000    0.000    0.000    0.000    0.000    0.000 
#
# Total GULP energy -100282.133366 kJ/mol
# GULP energy per Si atom -5571.229631 kJ/mol
# Density = 2.539581 g / cm^3
# Si number density = 25.453746 Si / 1000 Ang^3
#
#
#
# Elastic Constant Matrix: (Units=GPa)
#
#
# Indices 1 2 3 4 5 6 
#
# 1 56.6292 15.2164 45.6482 0.0000 17.4157 0.0000
# 2 15.2164 76.7975 32.0949 0.0000 4.6427 0.0000
# 3 45.6482 32.0949 287.5792 0.0000 25.1851 0.0000
# 4 0.0000 0.0000 0.0000 -71.9195 0.0000 -275.4403
# 5 17.4157 4.6427 25.1851 0.0000 60.6605 0.0000
# 6 0.0000 0.0000 0.0000 -275.4403 0.0000 -761.7383
#
#
#
# Elastic Compliance Matrix: (Units=1/GPa)
#
#
# Indices 1 2 3 4 5 6 
#
# 1 0.022214 -0.002946 -0.002759 0.000000 -0.005007 0.000000
# 2 -0.002946 0.014060 -0.001122 0.000000 0.000236 0.000000
# 3 -0.002759 -0.001122 0.004113 0.000000 -0.000830 0.000000
# 4 0.000000 0.000000 0.000000 0.036130 0.000000 -0.013064
# 5 -0.005007 0.000236 -0.000830 0.000000 0.018249 0.000000
# 6 0.000000 0.000000 0.000000 -0.013064 0.000000 0.003411
#
#
# Mechanical properties :
#
#
# Convention : Reuss Voigt Hill
#
# Bulk Modulus (GPa) = 37.40667 67.43612 52.42139
# Shear Modulus (GPa) = 41.41091 -132.72971 -45.65940
#
# Velocity S-wave (km/s) = 4.03787 -7.22901 -4.23994
# Velocity P-wave (km/s) = 6.03880 6.56712 1.82484
#
# Compressibility (1/GPa) = 0.02673320
#
# Stress axis : x y z
#
# Youngs Moduli (GPa) = 45.01680 71.12553 243.12422
#
# Poissons Ratio (x) = 0.20952 0.67074
# Poissons Ratio (y) = 0.13261 0.27282
# Poissons Ratio (z) = 0.12419 0.07981
#
# Static dielectric constant tensor:
#      x y z
#    x 2.018740 0.000000 0.016670 
#    y 0.000000 2.105260 0.000000 
#    z 0.016670 0.000000 1.939760 
# 
# From -- ./inp_files/14177.got.cif
#   From: 2010.05.17/outbox.cif.g08.bks.cpg/sg11_8_cif.got.tgz:14177.got - 2010.06.03 12:22:45.
