data_PCOD9166948
_publ_section_title
;
Structure prediction by ZEFSAII (Michael W. Deem and Ramdas Pophale) SiO2 
 PCOD9166948
Probable space group: P 21/M
;
_chemical_formula_sum "Si O2"
_cell_formula_units_Z 26
_cell_length_a 8.764616
_cell_length_b 19.888691
_cell_length_c 9.373642
_cell_angle_alpha 90.000000
_cell_angle_beta 129.620647
_cell_angle_gamma 90.000000
_cell_volume 1258.629907
_symmetry_space_group_name_H-M "P 21/M"
_symmetry_group_IT_number 11
_symmetry_cell_setting 'monoclinic'
loop_
_space_group_symop_operation_xyz
x,y,z
-x,1/2+y,-z
-x,-y,-z
x,1/2-y,z
loop_
_atom_site_type_symbol
_atom_site_label
_atom_site_fract_x
_atom_site_fract_y
_atom_site_fract_z
Si Si1 0.496585 0.750000 0.769599
Si Si2 0.696366 0.040073 0.465640
Si Si3 0.450843 0.104279 0.086479
Si Si4 0.482537 0.102482 0.601086
Si Si5 0.936268 0.515426 0.124065
Si Si6 0.856061 0.250000 0.229390
Si Si7 0.673189 0.750000 0.549426
Si Si8 0.718826 0.386991 0.006843
O O1 0.578831 0.681350 0.886630
O O2 0.262663 0.750000 0.686985
O O3 0.574115 0.750000 0.651390
O O4 0.642794 0.075777 0.285964
O O5 0.541226 0.077785 0.478351
O O6 0.904235 0.046169 0.671757
O O7 0.649046 0.960681 0.425830
O O8 0.509144 0.098328 0.956755
O O9 0.259495 0.060466 0.003445
O O10 0.396923 0.177537 0.552320
O O11 0.677957 0.106629 0.815410
O O12 0.876179 0.442320 0.145762
O O13 0.000000 0.500000 0.000000
O O14 0.781158 0.315130 0.100241
O O15 0.092513 0.250000 0.348383
#
# Coordination Sequence:
#
# PCOD9166948 Si02
#       8
#     2   4   4   4   4   2   2   4
#     4  10  24  44  70  92 137 175 219 288 337 395
#     4  11  22  40  66  97 134 165 227 277 319 402
#     4  11  24  46  65  94 138 173 215 288 339 390
#     4  11  22  40  64  98 129 174 218 275 331 394
#     4  12  23  39  68 100 129 175 228 269 330 410
#     4  10  25  43  65 103 132 173 232 281 330 415
#     4  12  23  41  73  93 131 186 223 265 355 404
#     4  11  23  44  66  93 138 173 218 284 338 388
#
# _framework density 20.657382999999999
#
# number of rings (size 3 to 8) (size 9 to 14) (size 15 to 20)
#    0.000    0.923    4.615    2.769    2.154    0.615 
#    5.538    1.538    0.000    0.000    0.000    0.000 
#    0.000    0.000    0.000    0.000    0.000    0.000 
#
# Total GULP energy -144925.504919 kJ/mol
# GULP energy per Si atom -5574.057882 kJ/mol
# Density = 2.061037 g / cm^3
# Si number density = 20.657383 Si / 1000 Ang^3
#
#
#
# Elastic Constant Matrix: (Units=GPa)
#
#
# Indices 1 2 3 4 5 6 
#
# 1 71.2271 42.5787 18.0983 0.0000 9.6333 0.0000
# 2 42.5787 140.7144 26.7869 0.0000 6.5159 0.0000
# 3 18.0983 26.7869 79.6409 0.0000 13.3997 0.0000
# 4 0.0000 0.0000 0.0000 66.5826 0.0000 6.6615
# 5 9.6333 6.5159 13.3997 0.0000 26.7064 0.0000
# 6 0.0000 0.0000 0.0000 6.6615 0.0000 26.8898
#
#
#
# Elastic Compliance Matrix: (Units=1/GPa)
#
#
# Indices 1 2 3 4 5 6 
#
# 1 0.018014 -0.004923 -0.001689 0.000000 -0.004449 0.000000
# 2 -0.004923 0.008948 -0.001990 0.000000 0.000591 0.000000
# 3 -0.001689 -0.001990 0.014663 0.000000 -0.006262 0.000000
# 4 0.000000 0.000000 0.000000 0.015401 0.000000 -0.003815
# 5 -0.004449 0.000591 -0.006262 0.000000 0.042047 0.000000
# 6 0.000000 0.000000 0.000000 -0.003815 0.000000 0.038134
#
#
# Mechanical properties :
#
#
# Convention : Reuss Voigt Hill
#
# Bulk Modulus (GPa) = 40.95082 51.83447 46.39264
# Shear Modulus (GPa) = 30.75959 37.64365 34.20162
#
# Velocity S-wave (km/s) = 3.86299 4.27345 4.07340
# Velocity P-wave (km/s) = 6.30585 7.03540 6.68059
#
# Compressibility (1/GPa) = 0.02441953
#
# Stress axis : x y z
#
# Youngs Moduli (GPa) = 55.51388 111.75968 68.19758
#
# Poissons Ratio (x) = 0.55021 0.11519
# Poissons Ratio (y) = 0.27330 0.13573
# Poissons Ratio (z) = 0.09377 0.22243
#
# Static dielectric constant tensor:
#      x y z
#    x 1.788180 0.000000 0.006640 
#    y 0.000000 1.718100 0.000000 
#    z 0.006640 0.000000 1.711850 
# 
# From -- ./inp_files/14583.got.cif
#   From: 2010.05.17/outbox.cif.g08.bks.cpg/sg11_8_cif.got.tgz:14583.got - 2010.06.03 12:22:45.
