data_PCOD9166211
_publ_section_title
;
Structure prediction by ZEFSAII (Michael W. Deem and Ramdas Pophale) SiO2 
 PCOD9166211
Probable space group: P 21/M
;
_chemical_formula_sum "Si O2"
_cell_formula_units_Z 22
_cell_length_a 6.071884
_cell_length_b 12.146383
_cell_length_c 13.248153
_cell_angle_alpha 90.000000
_cell_angle_beta 81.375082
_cell_angle_gamma 90.000000
_cell_volume 966.020772
_symmetry_space_group_name_H-M "P 21/M"
_symmetry_group_IT_number 11
_symmetry_cell_setting 'monoclinic'
loop_
_space_group_symop_operation_xyz
x,y,z
-x,1/2+y,-z
-x,-y,-z
x,1/2-y,z
loop_
_atom_site_type_symbol
_atom_site_label
_atom_site_fract_x
_atom_site_fract_y
_atom_site_fract_z
Si Si1 0.343031 0.454206 0.423135
Si Si2 0.044484 0.250000 0.418427
Si Si3 0.778330 0.080243 0.290139
Si Si4 0.934609 0.121131 0.684836
Si Si5 0.790191 0.443907 0.068337
Si Si6 0.428279 0.868810 0.114505
O O1 0.500000 0.500000 0.500000
O O2 0.194861 0.349206 0.459907
O O3 0.514267 0.411587 0.325038
O O4 0.199642 0.556574 0.392615
O O5 0.907118 0.154770 0.361848
O O6 0.847264 0.110503 0.171305
O O7 0.852778 0.953689 0.304681
O O8 0.968433 0.250000 0.660244
O O9 0.772806 0.114785 0.793637
O O10 0.610944 0.537420 0.108971
O O11 0.672474 0.371921 0.990966
O O12 0.000000 0.500000 0.000000
O O13 0.532112 0.750000 0.128595
#
# Coordination Sequence:
#
# PCOD9166211 Si02
#       6
#     4   2   4   4   4   4
#     4  11  25  47  69  94 130 172 216 272 336 383
#     4  10  26  44  70  98 130 168 228 262 328 398
#     4  11  23  45  66  95 134 171 213 275 320 389
#     4  10  22  41  66  98 129 166 220 270 325 390
#     4  11  22  39  61  91 127 171 213 253 320 375
#     4  10  22  39  61  91 129 166 217 262 309 389
#
# _framework density 22.773838000000001
#
# number of rings (size 3 to 8) (size 9 to 14) (size 15 to 20)
#    0.000    1.455    3.636    0.545    2.545    5.091 
#    6.545    0.000    0.000    0.000    0.000    0.000 
#    0.000    0.000    0.000    0.000    0.000    0.000 
#
# Total GULP energy -122581.053266 kJ/mol
# GULP energy per Si atom -5571.866058 kJ/mol
# Density = 2.272200 g / cm^3
# Si number density = 22.773838 Si / 1000 Ang^3
#
#
#
# Elastic Constant Matrix: (Units=GPa)
#
#
# Indices 1 2 3 4 5 6 
#
# 1 66.7699 32.1644 29.4029 0.0000 -4.6963 0.0000
# 2 32.1644 167.7122 23.8065 0.0000 0.9549 0.0000
# 3 29.4029 23.8065 95.3458 0.0000 0.4664 0.0000
# 4 0.0000 0.0000 0.0000 1.4324 0.0000 -18.0715
# 5 -4.6963 0.9549 0.4664 0.0000 48.3167 0.0000
# 6 0.0000 0.0000 0.0000 -18.0715 0.0000 -8.3765
#
#
#
# Elastic Compliance Matrix: (Units=1/GPa)
#
#
# Indices 1 2 3 4 5 6 
#
# 1 0.018733 -0.002884 -0.005066 0.000000 0.001927 0.000000
# 2 -0.002884 0.006626 -0.000763 0.000000 -0.000404 0.000000
# 3 -0.005066 -0.000763 0.012244 0.000000 -0.000596 0.000000
# 4 0.000000 0.000000 0.000000 0.024740 0.000000 -0.053375
# 5 0.001927 -0.000404 -0.000596 0.000000 0.020898 0.000000
# 6 0.000000 0.000000 0.000000 -0.053375 0.000000 -0.004231
#
#
# Mechanical properties :
#
#
# Convention : Reuss Voigt Hill
#
# Bulk Modulus (GPa) = 49.56415 55.61952 52.59183
# Shear Modulus (GPa) = 48.46697 24.57144 36.51921
#
# Velocity S-wave (km/s) = 4.61823 3.28827 4.00879
# Velocity P-wave (km/s) = 7.08860 6.23639 6.67611
#
# Compressibility (1/GPa) = 0.02017587
#
# Stress axis : x y z
#
# Youngs Moduli (GPa) = 53.38252 150.91149 81.67371
#
# Poissons Ratio (x) = 0.43530 0.41376
# Poissons Ratio (y) = 0.15398 0.06232
# Poissons Ratio (z) = 0.27044 0.11515
#
# Static dielectric constant tensor:
#      x y z
#    x 1.817810 0.000000 -0.022130 
#    y 0.000000 1.802300 0.000000 
#    z -0.022130 0.000000 1.960100 
# 
# From -- ./inp_files/45629.got.cif
#   From: 2010.05.17/outbox.cif.g08.bks.cpg/sg11_23_cif.got.tgz:45629.got - 2010.06.03 12:22:45.
