data_PCOD9166566
_publ_section_title
;
Structure prediction by ZEFSAII (Michael W. Deem and Ramdas Pophale) SiO2 
 PCOD9166566
Probable space group: P 21/M
;
_chemical_formula_sum "Si O2"
_cell_formula_units_Z 24
_cell_length_a 5.118730
_cell_length_b 24.224741
_cell_length_c 10.900840
_cell_angle_alpha 90.000000
_cell_angle_beta 131.581730
_cell_angle_gamma 90.000000
_cell_volume 1011.087158
_symmetry_space_group_name_H-M "P 21/M"
_symmetry_group_IT_number 11
_symmetry_cell_setting 'monoclinic'
loop_
_space_group_symop_operation_xyz
x,y,z
-x,1/2+y,-z
-x,-y,-z
x,1/2-y,z
loop_
_atom_site_type_symbol
_atom_site_label
_atom_site_fract_x
_atom_site_fract_y
_atom_site_fract_z
Si Si1 0.821014 0.930495 0.315618
Si Si2 0.700303 0.151747 0.948741
Si Si3 0.839105 0.961802 0.605706
Si Si4 0.503096 0.683256 0.847353
Si Si5 0.471254 0.637449 0.577609
Si Si6 0.198589 0.250000 0.715897
Si Si7 0.413164 0.250000 0.518789
O O1 0.464505 0.903967 0.157232
O O2 0.854703 0.938316 0.472807
O O3 0.148575 0.887963 0.397103
O O4 0.865586 0.992648 0.277377
O O5 0.432160 0.197805 0.817680
O O6 0.665970 0.158428 0.083860
O O7 0.086513 0.167031 0.025710
O O8 0.750186 0.912104 0.668144
O O9 0.500000 0.000000 0.500000
O O10 0.468485 0.750000 0.835896
O O11 0.361367 0.655527 0.679095
O O12 0.626817 0.693177 0.567513
O O13 0.164668 0.250000 0.558496
O O14 0.833732 0.250000 0.674037
#
# Coordination Sequence:
#
# PCOD9166566 Si02
#       7
#     4   4   4   4   4   2   2
#     4  10  22  42  72  96 126 172 231 283 328 391
#     4  12  25  42  66  94 135 180 222 269 335 398
#     4   9  21  42  70  98 128 166 227 286 336 377
#     4  12  26  44  61  97 144 184 212 270 341 405
#     4  11  24  41  66  98 134 176 219 277 334 400
#     4  12  22  38  62  96 130 169 227 282 320 396
#     4  12  24  36  68 104 128 165 231 278 324 394
#
# _framework density 23.736827999999999
#
# number of rings (size 3 to 8) (size 9 to 14) (size 15 to 20)
#    0.000    1.000    4.167    2.000    7.000    0.000 
#    0.000    1.667    0.000    0.000    0.000    0.000 
#    0.000    0.000    0.000    0.000    0.000    0.000 
#
# Total GULP energy -134271.079282 kJ/mol
# GULP energy per Si atom -5594.628303 kJ/mol
# Density = 2.368280 g / cm^3
# Si number density = 23.736828 Si / 1000 Ang^3
#
#
#
# Elastic Constant Matrix: (Units=GPa)
#
#
# Indices 1 2 3 4 5 6 
#
# 1 61.5878 37.2805 21.8783 0.0000 8.1981 0.0000
# 2 37.2805 149.9882 42.7729 0.0000 -1.3753 0.0000
# 3 21.8783 42.7729 63.4845 0.0000 4.0416 0.0000
# 4 0.0000 0.0000 0.0000 28.1146 0.0000 -4.3669
# 5 8.1981 -1.3753 4.0416 0.0000 41.1985 0.0000
# 6 0.0000 0.0000 0.0000 -4.3669 0.0000 35.9996
#
#
#
# Elastic Compliance Matrix: (Units=1/GPa)
#
#
# Indices 1 2 3 4 5 6 
#
# 1 0.020639 -0.003969 -0.004195 0.000000 -0.003828 0.000000
# 2 -0.003969 0.009044 -0.004825 0.000000 0.001565 0.000000
# 3 -0.004195 -0.004825 0.020534 0.000000 -0.001341 0.000000
# 4 0.000000 0.000000 0.000000 0.036252 0.000000 0.004398
# 5 -0.003828 0.001565 -0.001341 0.000000 0.025218 0.000000
# 6 0.000000 0.000000 0.000000 0.004398 0.000000 0.028312
#
#
# Mechanical properties :
#
#
# Convention : Reuss Voigt Hill
#
# Bulk Modulus (GPa) = 41.25605 53.21375 47.23490
# Shear Modulus (GPa) = 28.72624 32.60446 30.66535
#
# Velocity S-wave (km/s) = 3.48256 3.71021 3.59819
# Velocity P-wave (km/s) = 5.79563 6.38914 6.09961
#
# Compressibility (1/GPa) = 0.02423887
#
# Stress axis : x y z
#
# Youngs Moduli (GPa) = 48.45159 110.56964 48.69954
#
# Poissons Ratio (x) = 0.43882 0.20430
# Poissons Ratio (y) = 0.19229 0.23499
# Poissons Ratio (z) = 0.20326 0.53354
#
# Static dielectric constant tensor:
#      x y z
#    x 2.030360 0.000000 -0.011660 
#    y 0.000000 1.968360 0.000000 
#    z -0.011660 0.000000 1.962170 
# 
# From -- ./inp_files/2752.got.cif
#   From: 2010.05.17/outbox.cif.g08.bks.cpg/sg11_2_cif.got.tgz:2752.got - 2010.06.03 12:22:45.
