data_PCOD9166900
_publ_section_title
;
Structure prediction by ZEFSAII (Michael W. Deem and Ramdas Pophale) SiO2 
 PCOD9166900
Probable space group: P 21/M
;
_chemical_formula_sum "Si O2"
_cell_formula_units_Z 30
_cell_length_a 14.629769
_cell_length_b 9.249598
_cell_length_c 23.130955
_cell_angle_alpha 90.000000
_cell_angle_beta 150.046407
_cell_angle_gamma 90.000000
_cell_volume 1562.838352
_symmetry_space_group_name_H-M "P 21/M"
_symmetry_group_IT_number 11
_symmetry_cell_setting 'monoclinic'
loop_
_space_group_symop_operation_xyz
x,y,z
-x,1/2+y,-z
-x,-y,-z
x,1/2-y,z
loop_
_atom_site_type_symbol
_atom_site_label
_atom_site_fract_x
_atom_site_fract_y
_atom_site_fract_z
Si Si1 0.338766 0.924230 0.321871
Si Si2 0.754330 0.575928 0.522029
Si Si3 0.327377 0.499594 0.980084
Si Si4 0.517526 0.915210 0.810556
Si Si5 0.820493 0.924187 0.426489
Si Si6 0.915325 0.921519 0.727374
Si Si7 0.176343 0.419347 0.121199
Si Si8 0.564659 0.750000 0.050910
O O1 0.324042 0.750000 0.312791
O O2 0.552795 0.964903 0.434137
O O3 0.236305 0.989498 0.320842
O O4 0.242653 0.995739 0.213884
O O5 0.755278 0.750000 0.518693
O O6 0.791375 0.525651 0.477233
O O7 0.900311 0.536221 0.651320
O O8 0.351088 0.374241 0.946238
O O9 0.116405 0.549778 0.862277
O O10 0.386123 0.448376 0.075934
O O11 0.462820 0.625525 0.034442
O O12 0.446279 0.750000 0.773018
O O13 0.665604 0.925605 0.840547
O O14 0.353186 0.023198 0.705620
O O15 0.836218 0.750000 0.433615
O O16 0.000000 0.000000 0.500000
O O17 0.875308 0.750000 0.709769
O O18 0.139632 0.250000 0.113844
O O19 0.000000 0.500000 0.000000
#
# Coordination Sequence:
#
# PCOD9166900 Si02
#       8
#     4   4   4   4   4   4   4   2
#     4  11  22  40  65  94 133 171 216 270 329 393
#     4   9  21  43  65  93 133 173 215 266 324 386
#     4  11  23  44  66  97 130 170 221 273 332 396
#     4  11  24  43  67  93 134 174 217 277 328 391
#     4  11  24  44  69 100 133 175 222 272 329 395
#     4  11  23  41  67  97 131 174 221 268 330 397
#     4  11  23  39  64  96 132 174 218 269 331 394
#     4  10  24  42  66  90 130 172 216 270 336 384
#
# _framework density 19.195843
#
# number of rings (size 3 to 8) (size 9 to 14) (size 15 to 20)
#    0.000    1.333    2.667    2.400    1.867    3.733 
#    2.400    2.000    0.000    0.000    0.000    0.000 
#    0.000    0.000    0.000    0.000    0.000    0.000 
#
# Total GULP energy -167042.347563 kJ/mol
# GULP energy per Si atom -5568.078252 kJ/mol
# Density = 1.915215 g / cm^3
# Si number density = 19.195843 Si / 1000 Ang^3
#
#
#
# Elastic Constant Matrix: (Units=GPa)
#
#
# Indices 1 2 3 4 5 6 
#
# 1 97.3674 27.2992 40.5054 0.0000 -3.9886 0.0000
# 2 27.2992 107.9970 19.4772 0.0000 5.5444 0.0000
# 3 40.5054 19.4772 97.7657 0.0000 -8.4454 0.0000
# 4 0.0000 0.0000 0.0000 15.3856 0.0000 5.4874
# 5 -3.9886 5.5444 -8.4454 0.0000 17.7557 0.0000
# 6 0.0000 0.0000 0.0000 5.4874 0.0000 127.6379
#
#
#
# Elastic Compliance Matrix: (Units=1/GPa)
#
#
# Indices 1 2 3 4 5 6 
#
# 1 0.013015 -0.002504 -0.004769 0.000000 0.001437 0.000000
# 2 -0.002504 0.010378 -0.001417 0.000000 -0.004477 0.000000
# 3 -0.004769 -0.001417 0.012965 0.000000 0.005538 0.000000
# 4 0.000000 0.000000 0.000000 0.066008 0.000000 -0.002838
# 5 0.001437 -0.004477 0.005538 0.000000 0.060675 0.000000
# 6 0.000000 0.000000 0.000000 -0.002838 0.000000 0.007957
#
#
# Mechanical properties :
#
#
# Convention : Reuss Voigt Hill
#
# Bulk Modulus (GPa) = 52.69185 53.07710 52.88448
# Shear Modulus (GPa) = 25.68001 46.54571 36.11286
#
# Velocity S-wave (km/s) = 3.66155 4.92955 4.34208
# Velocity P-wave (km/s) = 6.73685 7.75312 7.26278
#
# Compressibility (1/GPa) = 0.01897827
#
# Stress axis : x y z
#
# Youngs Moduli (GPa) = 76.83260 96.35992 77.12908
#
# Poissons Ratio (x) = 0.24124 0.36787
# Poissons Ratio (y) = 0.19236 0.10929
# Poissons Ratio (z) = 0.36645 0.13654
#
# Static dielectric constant tensor:
#      x y z
#    x 1.653480 0.000000 -0.005810 
#    y 0.000000 1.654160 0.000000 
#    z -0.005810 0.000000 1.665290 
# 
# From -- ./inp_files/68902.got.cif
#   From: 2010.05.17/outbox.cif.g08.bks.cpg/sg11_35_cif.got.tgz:68902.got - 2010.06.03 12:22:45.
