data_PCOD9166969
_publ_section_title
;
Structure prediction by ZEFSAII (Michael W. Deem and Ramdas Pophale) SiO2 
 PCOD9166969
Probable space group: P 21/M
;
_chemical_formula_sum "Si O2"
_cell_formula_units_Z 26
_cell_length_a 8.048338
_cell_length_b 19.544128
_cell_length_c 8.750002
_cell_angle_alpha 90.000000
_cell_angle_beta 49.846364
_cell_angle_gamma 90.000000
_cell_volume 1051.973485
_symmetry_space_group_name_H-M "P 21/M"
_symmetry_group_IT_number 11
_symmetry_cell_setting 'monoclinic'
loop_
_space_group_symop_operation_xyz
x,y,z
-x,1/2+y,-z
-x,-y,-z
x,1/2-y,z
loop_
_atom_site_type_symbol
_atom_site_label
_atom_site_fract_x
_atom_site_fract_y
_atom_site_fract_z
Si Si1 0.193646 0.513076 0.127092
Si Si2 0.563759 0.119245 0.236158
Si Si3 0.293861 0.449922 0.615276
Si Si4 0.794220 0.361477 0.684539
Si Si5 0.123853 0.673380 0.696388
Si Si6 0.688759 0.626480 0.074329
Si Si7 0.279862 0.750000 0.044631
O O1 0.213193 0.558784 0.267027
O O2 0.936571 0.511987 0.247027
O O3 0.320959 0.558682 0.926664
O O4 0.288650 0.437566 0.056507
O O5 0.331961 0.094803 0.439194
O O6 0.707593 0.131606 0.302670
O O7 0.584284 0.188667 0.127219
O O8 0.500000 0.500000 0.500000
O O9 0.297107 0.403647 0.764460
O O10 0.907083 0.352278 0.456491
O O11 0.542194 0.338402 0.810273
O O12 0.861973 0.311116 0.780449
O O13 0.209711 0.750000 0.636522
O O14 0.895601 0.672349 0.918745
#
# Coordination Sequence:
#
# PCOD9166969 Si02
#       7
#     4   4   4   4   4   4   2
#     4  11  25  45  70 107 138 181 233 287 350 410
#     4  11  22  44  73  99 138 180 231 290 343 408
#     4  12  23  42  73 105 136 179 234 288 342 411
#     4  11  26  46  70 100 147 180 227 291 351 411
#     4  12  25  44  70 101 139 187 231 286 347 413
#     4  12  25  43  72 104 140 183 234 284 347 420
#     4  10  24  46  68  96 138 180 234 282 340 416
#
# _framework density 24.715451999999999
#
# number of rings (size 3 to 8) (size 9 to 14) (size 15 to 20)
#    0.000    0.615    6.154    1.846    1.077    3.077 
#    1.385    3.077    0.000    0.000    0.000    0.000 
#    0.000    0.000    0.000    0.000    0.000    0.000 
#
# Total GULP energy -145130.698986 kJ/mol
# GULP energy per Si atom -5581.949961 kJ/mol
# Density = 2.465920 g / cm^3
# Si number density = 24.715452 Si / 1000 Ang^3
#
#
#
# Elastic Constant Matrix: (Units=GPa)
#
#
# Indices 1 2 3 4 5 6 
#
# 1 41.2813 -8.5359 9.7937 0.0000 -11.4239 0.0000
# 2 -8.5359 100.7090 24.3259 0.0000 3.2560 0.0000
# 3 9.7937 24.3259 147.4569 0.0000 4.4323 0.0000
# 4 0.0000 0.0000 0.0000 34.6520 0.0000 -13.3055
# 5 -11.4239 3.2560 4.4323 0.0000 35.8962 0.0000
# 6 0.0000 0.0000 0.0000 -13.3055 0.0000 -36.6273
#
#
#
# Elastic Compliance Matrix: (Units=1/GPa)
#
#
# Indices 1 2 3 4 5 6 
#
# 1 0.027863 0.002692 -0.002563 0.000000 0.008940 0.000000
# 2 0.002692 0.010621 -0.001935 0.000000 0.000132 0.000000
# 3 -0.002563 -0.001935 0.007317 0.000000 -0.001544 0.000000
# 4 0.000000 0.000000 0.000000 0.025326 0.000000 -0.009200
# 5 0.008940 0.000132 -0.001544 0.000000 0.030882 0.000000
# 6 0.000000 0.000000 0.000000 -0.009200 0.000000 -0.023960
#
#
# Mechanical properties :
#
#
# Convention : Reuss Voigt Hill
#
# Bulk Modulus (GPa) = 23.70338 37.84605 30.77472
# Shear Modulus (GPa) = 52.23346 24.37511 38.30428
#
# Velocity S-wave (km/s) = 4.60215 3.14384 3.94103
# Velocity P-wave (km/s) = 6.15232 5.34081 5.76087
#
# Compressibility (1/GPa) = 0.04218807
#
# Stress axis : x y z
#
# Youngs Moduli (GPa) = 35.89033 94.15463 136.65896
#
# Poissons Ratio (x) = -0.25344 0.35030
# Poissons Ratio (y) = -0.09661 0.26442
# Poissons Ratio (z) = 0.09200 0.18218
#
# Static dielectric constant tensor:
#      x y z
#    x 2.026140 0.000000 0.034410 
#    y 0.000000 1.958230 0.000000 
#    z 0.034410 0.000000 1.948990 
# 
# From -- ./inp_files/14481.got.cif
#   From: 2010.05.17/outbox.cif.g08.bks.cpg/sg11_8_cif.got.tgz:14481.got - 2010.06.03 12:22:45.
