data_PCOD9166287
_publ_section_title
;
Structure prediction by ZEFSAII (Michael W. Deem and Ramdas Pophale) SiO2 
 PCOD9166287
Probable space group: P 21/M
;
_chemical_formula_sum "Si O2"
_cell_formula_units_Z 28
_cell_length_a 21.909418
_cell_length_b 8.275554
_cell_length_c 14.324521
_cell_angle_alpha 90.000000
_cell_angle_beta 31.896014
_cell_angle_gamma 90.000000
_cell_volume 1372.314962
_symmetry_space_group_name_H-M "P 21/M"
_symmetry_group_IT_number 11
_symmetry_cell_setting 'monoclinic'
loop_
_space_group_symop_operation_xyz
x,y,z
-x,1/2+y,-z
-x,-y,-z
x,1/2-y,z
loop_
_atom_site_type_symbol
_atom_site_label
_atom_site_fract_x
_atom_site_fract_y
_atom_site_fract_z
Si Si1 0.068491 0.565390 0.110712
Si Si2 0.228902 0.443856 0.050792
Si Si3 0.871205 0.935786 0.150162
Si Si4 0.528952 0.945678 0.356882
Si Si5 0.874918 0.942613 0.623774
Si Si6 0.336013 0.937731 0.465482
Si Si7 0.822750 0.056851 0.484555
O O1 0.082735 0.750000 0.062972
O O2 0.122599 0.534296 0.140867
O O3 0.934394 0.521047 0.290147
O O4 0.138824 0.453679 0.948109
O O5 0.213546 0.250000 0.060341
O O6 0.219256 0.478027 0.173183
O O7 0.345159 0.491903 0.845872
O O8 0.858270 0.750000 0.195234
O O9 0.777746 0.043884 0.322970
O O10 0.000000 0.000000 0.000000
O O11 0.523443 0.750000 0.365092
O O12 0.437232 0.008703 0.398562
O O13 0.500000 0.000000 0.500000
O O14 0.882247 0.750000 0.601403
O O15 0.836158 0.017607 0.575967
O O16 0.000000 0.000000 0.500000
O O17 0.366116 0.750000 0.412111
O O18 0.291924 0.001156 0.422049
O O19 0.830482 0.250000 0.462103
#
# Coordination Sequence:
#
# PCOD9166287 Si02
#       7
#     4   4   4   4   4   4   4
#     4  12  23  35  56  86 120 156 198 247 301 363
#     4  10  22  40  62  87 120 160 203 251 305 363
#     4  12  23  35  54  82 118 155 195 242 300 364
#     4  10  22  42  65  90 119 159 206 251 303 361
#     4  11  22  37  60  89 123 161 203 253 307 363
#     4  10  22  40  61  85 119 160 203 251 304 363
#     4  11  22  37  58  85 121 158 196 247 307 363
#
# _framework density 20.403479999999998
#
# number of rings (size 3 to 8) (size 9 to 14) (size 15 to 20)
#    0.000    1.143    2.857    4.286    0.000    4.571 
#    0.000    0.714    0.000    0.000    0.000    0.000 
#    0.000    0.000    0.000    0.000    0.000    0.000 
#
# Total GULP energy -156341.243104 kJ/mol
# GULP energy per Si atom -5583.615825 kJ/mol
# Density = 2.035704 g / cm^3
# Si number density = 20.403480 Si / 1000 Ang^3
#
#
#
# Elastic Constant Matrix: (Units=GPa)
#
#
# Indices 1 2 3 4 5 6 
#
# 1 151.4122 16.7955 35.2022 0.0000 -1.9410 0.0000
# 2 16.7955 37.3139 9.1999 0.0000 0.0164 0.0000
# 3 35.2022 9.1999 71.7514 0.0000 0.9666 0.0000
# 4 0.0000 0.0000 0.0000 18.7742 0.0000 9.1988
# 5 -1.9410 0.0164 0.9666 0.0000 38.2056 0.0000
# 6 0.0000 0.0000 0.0000 9.1988 0.0000 28.9484
#
#
#
# Elastic Compliance Matrix: (Units=1/GPa)
#
#
# Indices 1 2 3 4 5 6 
#
# 1 0.007703 -0.002617 -0.003450 0.000000 0.000480 0.000000
# 2 -0.002617 0.028564 -0.002377 0.000000 -0.000085 0.000000
# 3 -0.003450 -0.002377 0.015942 0.000000 -0.000578 0.000000
# 4 0.000000 0.000000 0.000000 0.063087 0.000000 -0.020047
# 5 0.000480 -0.000085 -0.000578 0.000000 0.026213 0.000000
# 6 0.000000 0.000000 0.000000 -0.020047 0.000000 0.040914
#
#
# Mechanical properties :
#
#
# Convention : Reuss Voigt Hill
#
# Bulk Modulus (GPa) = 28.31233 42.54141 35.42687
# Shear Modulus (GPa) = 23.68703 30.47096 27.07899
#
# Velocity S-wave (km/s) = 3.41094 3.86867 3.64699
# Velocity P-wave (km/s) = 5.42393 6.39147 5.92747
#
# Compressibility (1/GPa) = 0.03532029
#
# Stress axis : x y z
#
# Youngs Moduli (GPa) = 129.81886 35.00946 62.72621
#
# Poissons Ratio (x) = 0.09161 0.21641
# Poissons Ratio (y) = 0.33971 0.14913
# Poissons Ratio (z) = 0.44789 0.08323
#
# Static dielectric constant tensor:
#      x y z
#    x 1.821150 0.000000 0.000650 
#    y 0.000000 1.277380 0.000000 
#    z 0.000650 0.000000 1.698960 
# 
# From -- ./inp_files/37859.got.cif
#   From: 2010.05.17/outbox.cif.g08.bks.cpg/sg11_19_cif.got.tgz:37859.got - 2010.06.03 12:22:45.
