data_PCOD9166524
_publ_section_title
;
Structure prediction by ZEFSAII (Michael W. Deem and Ramdas Pophale) SiO2 
 PCOD9166524
Probable space group: P 21/M
;
_chemical_formula_sum "Si O2"
_cell_formula_units_Z 20
_cell_length_a 15.786074
_cell_length_b 8.487337
_cell_length_c 7.682704
_cell_angle_alpha 90.000000
_cell_angle_beta 75.667348
_cell_angle_gamma 90.000000
_cell_volume 997.303511
_symmetry_space_group_name_H-M "P 21/M"
_symmetry_group_IT_number 11
_symmetry_cell_setting 'monoclinic'
loop_
_space_group_symop_operation_xyz
x,y,z
-x,1/2+y,-z
-x,-y,-z
x,1/2-y,z
loop_
_atom_site_type_symbol
_atom_site_label
_atom_site_fract_x
_atom_site_fract_y
_atom_site_fract_z
Si Si1 0.768912 0.561360 0.408607
Si Si2 0.404897 0.068270 0.090151
Si Si3 0.098252 0.061298 0.963991
Si Si4 0.410512 0.562487 0.465811
Si Si5 0.778525 0.063404 0.797710
O O1 0.756405 0.750000 0.409648
O O2 0.846538 0.518849 0.237213
O O3 0.679676 0.475998 0.390583
O O4 0.787630 0.511015 0.599330
O O5 0.401955 0.250000 0.040903
O O6 0.399455 0.040561 0.298550
O O7 0.316243 0.984568 0.073570
O O8 0.500000 0.000000 0.000000
O O9 0.098169 0.250000 0.977670
O O10 0.147466 0.993071 0.107652
O O11 0.000000 0.000000 0.000000
O O12 0.500000 0.500000 0.500000
O O13 0.415808 0.750000 0.428023
O O14 0.780053 0.250000 0.775305
#
# Coordination Sequence:
#
# PCOD9166524 Si02
#       5
#     4   4   4   4   4
#     4  10  22  42  65  91 126 165 210 262 317 376
#     4  11  22  38  59  87 123 163 208 255 308 371
#     4  11  25  44  68  96 126 164 213 266 321 380
#     4  11  22  37  58  87 123 163 207 254 308 372
#     4  11  23  41  65  93 128 167 209 259 318 380
#
# _framework density 20.054075999999998
#
# number of rings (size 3 to 8) (size 9 to 14) (size 15 to 20)
#    0.000    1.200    0.000    9.000    2.800    4.000 
#    0.000    0.000    0.000    0.000    0.000    0.000 
#    0.000    0.000    0.000    0.000    0.000    0.000 
#
# Total GULP energy -111710.345776 kJ/mol
# GULP energy per Si atom -5585.517289 kJ/mol
# Density = 2.000843 g / cm^3
# Si number density = 20.054076 Si / 1000 Ang^3
#
#
#
# Elastic Constant Matrix: (Units=GPa)
#
#
# Indices 1 2 3 4 5 6 
#
# 1 189.2740 33.6689 61.6514 0.0000 -3.5985 0.0000
# 2 33.6689 82.8846 20.3795 0.0000 -6.7634 0.0000
# 3 61.6514 20.3795 85.0172 0.0000 -9.8010 0.0000
# 4 0.0000 0.0000 0.0000 23.6225 0.0000 -1.6022
# 5 -3.5985 -6.7634 -9.8010 0.0000 38.0641 0.0000
# 6 0.0000 0.0000 0.0000 -1.6022 0.0000 40.4245
#
#
#
# Elastic Compliance Matrix: (Units=1/GPa)
#
#
# Indices 1 2 3 4 5 6 
#
# 1 0.007173 -0.001788 -0.004876 0.000000 -0.000895 0.000000
# 2 -0.001788 0.013353 -0.001701 0.000000 0.001766 0.000000
# 3 -0.004876 -0.001701 0.016096 0.000000 0.003381 0.000000
# 4 0.000000 0.000000 0.000000 0.042447 0.000000 0.001682
# 5 -0.000895 0.001766 0.003381 0.000000 0.027371 0.000000
# 6 0.000000 0.000000 0.000000 0.001682 0.000000 0.024804
#
#
# Mechanical properties :
#
#
# Convention : Reuss Voigt Hill
#
# Bulk Modulus (GPa) = 50.27044 65.39726 57.83385
# Shear Modulus (GPa) = 32.34071 36.52062 34.43066
#
# Velocity S-wave (km/s) = 4.02017 4.27207 4.14803
# Velocity P-wave (km/s) = 6.83161 7.55085 7.20022
#
# Compressibility (1/GPa) = 0.01989241
#
# Stress axis : x y z
#
# Youngs Moduli (GPa) = 139.42038 74.88678 62.12834
#
# Poissons Ratio (x) = 0.13388 0.30293
# Poissons Ratio (y) = 0.24925 0.10568
# Poissons Ratio (z) = 0.67980 0.12738
#
# Static dielectric constant tensor:
#      x y z
#    x 1.750180 0.000000 -0.017440 
#    y 0.000000 1.665650 0.000000 
#    z -0.017440 0.000000 1.319110 
# 
# From -- ./inp_files/20173.got.cif
#   From: 2010.05.17/outbox.cif.g08.bks.cpg/sg11_11_cif.got.tgz:20173.got - 2010.06.03 12:22:45.
