data_PCOD9166724
_publ_section_title
;
Structure prediction by ZEFSAII (Michael W. Deem and Ramdas Pophale) SiO2 
 PCOD9166724
Probable space group: P 21/M
;
_chemical_formula_sum "Si O2"
_cell_formula_units_Z 24
_cell_length_a 8.791450
_cell_length_b 15.670972
_cell_length_c 7.705842
_cell_angle_alpha 90.000000
_cell_angle_beta 97.657146
_cell_angle_gamma 90.000000
_cell_volume 1052.171737
_symmetry_space_group_name_H-M "P 21/M"
_symmetry_group_IT_number 11
_symmetry_cell_setting 'monoclinic'
loop_
_space_group_symop_operation_xyz
x,y,z
-x,1/2+y,-z
-x,-y,-z
x,1/2-y,z
loop_
_atom_site_type_symbol
_atom_site_label
_atom_site_fract_x
_atom_site_fract_y
_atom_site_fract_z
Si Si1 0.356755 0.404827 0.963824
Si Si2 0.822200 0.151910 0.716545
Si Si3 0.560763 0.345839 0.286487
Si Si4 0.970051 0.901380 0.960782
Si Si5 0.443211 0.524697 0.268964
Si Si6 0.926372 0.150442 0.379857
O O1 0.486157 0.349723 0.082090
O O2 0.362725 0.492873 0.075916
O O3 0.188760 0.370566 0.978110
O O4 0.404742 0.427291 0.776432
O O5 0.780751 0.250000 0.673954
O O6 0.677756 0.090356 0.675307
O O7 0.940665 0.123774 0.582765
O O8 0.895670 0.146785 0.916799
O O9 0.528541 0.250000 0.350983
O O10 0.482912 0.431967 0.357748
O O11 0.743958 0.358762 0.309801
O O12 0.975147 0.891941 0.755073
O O13 0.000000 0.000000 0.000000
O O14 0.964226 0.250000 0.375079
#
# Coordination Sequence:
#
# PCOD9166724 Si02
#       6
#     4   4   4   4   4   4
#     4   9  19  34  58  90 124 150 204 261 307 369
#     4  11  24  42  64  91 126 173 214 253 319 387
#     4   9  17  34  59  84 118 161 205 256 311 364
#     4  12  21  39  63  90 124 161 207 261 319 375
#     4   9  18  39  57  92 122 156 210 260 300 377
#     4  10  23  41  62  92 127 167 216 258 311 389
#
# _framework density 22.809964000000001
#
# number of rings (size 3 to 8) (size 9 to 14) (size 15 to 20)
#    1.000    1.000    1.667    2.500    0.000    4.667 
#    0.000    1.667    0.000    4.000    0.000    0.000 
#    0.000    0.000    0.000    0.000    0.000    0.000 
#
# Total GULP energy -133743.617408 kJ/mol
# GULP energy per Si atom -5572.650725 kJ/mol
# Density = 2.275805 g / cm^3
# Si number density = 22.809964 Si / 1000 Ang^3
#
#
#
# Elastic Constant Matrix: (Units=GPa)
#
#
# Indices 1 2 3 4 5 6 
#
# 1 49.0805 2.3840 -0.4963 0.0000 -7.9723 0.0000
# 2 2.3840 92.8741 8.1257 0.0000 -15.3903 0.0000
# 3 -0.4963 8.1257 56.4150 0.0000 -14.0812 0.0000
# 4 0.0000 0.0000 0.0000 20.1230 0.0000 -13.3455
# 5 -7.9723 -15.3903 -14.0812 0.0000 37.4035 0.0000
# 6 0.0000 0.0000 0.0000 -13.3455 0.0000 16.7486
#
#
#
# Elastic Compliance Matrix: (Units=1/GPa)
#
#
# Indices 1 2 3 4 5 6 
#
# 1 0.021215 0.000181 0.001443 0.000000 0.005140 0.000000
# 2 0.000181 0.011571 -0.000515 0.000000 0.004606 0.000000
# 3 0.001443 -0.000515 0.019686 0.000000 0.007507 0.000000
# 4 0.000000 0.000000 0.000000 0.105384 0.000000 0.083971
# 5 0.005140 0.004606 0.007507 0.000000 0.032552 0.000000
# 6 0.000000 0.000000 0.000000 0.083971 0.000000 0.126616
#
#
# Mechanical properties :
#
#
# Convention : Reuss Voigt Hill
#
# Bulk Modulus (GPa) = 18.28473 24.26624 21.27548
# Shear Modulus (GPa) = 15.01336 27.41212 21.21274
#
# Velocity S-wave (km/s) = 2.56831 3.47040 3.05286
# Velocity P-wave (km/s) = 4.10225 5.16912 4.66628
#
# Compressibility (1/GPa) = 0.05469045
#
# Stress axis : x y z
#
# Youngs Moduli (GPa) = 47.13570 86.42365 50.79634
#
# Poissons Ratio (x) = -0.01563 -0.07332
# Poissons Ratio (y) = -0.00852 0.02618
# Poissons Ratio (z) = -0.06804 0.04455
#
# Static dielectric constant tensor:
#      x y z
#    x 1.893440 0.000000 -0.020780 
#    y 0.000000 1.871620 0.000000 
#    z -0.020780 0.000000 1.925330 
# 
# From -- ./inp_files/13218.got.cif
#   From: 2010.05.17/outbox.cif.g08.bks.cpg/sg11_7_cif.got.tgz:13218.got - 2010.06.03 12:22:45.
