data_PCOD9166988
_publ_section_title
;
Structure prediction by ZEFSAII (Michael W. Deem and Ramdas Pophale) SiO2 
 PCOD9166988
Probable space group: P 21/M
;
_chemical_formula_sum "Si O2"
_cell_formula_units_Z 32
_cell_length_a 16.546041
_cell_length_b 22.280371
_cell_length_c 9.157068
_cell_angle_alpha 90.000000
_cell_angle_beta 27.578904
_cell_angle_gamma 90.000000
_cell_volume 1562.879627
_symmetry_space_group_name_H-M "P 21/M"
_symmetry_group_IT_number 11
_symmetry_cell_setting 'monoclinic'
loop_
_space_group_symop_operation_xyz
x,y,z
-x,1/2+y,-z
-x,-y,-z
x,1/2-y,z
loop_
_atom_site_type_symbol
_atom_site_label
_atom_site_fract_x
_atom_site_fract_y
_atom_site_fract_z
Si Si1 0.870406 0.048619 0.779081
Si Si2 0.049605 0.680395 0.754632
Si Si3 0.625053 0.395148 0.668747
Si Si4 0.348930 0.505605 0.619318
Si Si5 0.976181 0.182428 0.550512
Si Si6 0.639074 0.821912 0.422592
Si Si7 0.469484 0.582557 0.858082
Si Si8 0.608247 0.817536 0.148281
O O1 0.926162 0.118962 0.705396
O O2 0.820071 0.019568 0.014604
O O3 0.700619 0.054949 0.946924
O O4 0.000000 0.000000 0.500000
O O5 0.079428 0.750000 0.750338
O O6 0.187950 0.635577 0.603682
O O7 0.075510 0.677124 0.537571
O O8 0.846113 0.665975 0.111960
O O9 0.627465 0.440950 0.531784
O O10 0.488816 0.346521 0.830318
O O11 0.555259 0.423348 0.930764
O O12 0.500000 0.500000 0.500000
O O13 0.366598 0.448798 0.484769
O O14 0.918390 0.250000 0.695177
O O15 0.186054 0.183324 0.211293
O O16 0.626162 0.750000 0.440957
O O17 0.506644 0.849001 0.752254
O O18 0.586356 0.845963 0.345061
O O19 0.543207 0.750000 0.266498
#
# Coordination Sequence:
#
# PCOD9166988 Si02
#       8
#     4   4   4   4   4   4   4   4
#     4  11  24  42  71  99 126 176 226 280 336 403
#     4   9  19  38  66  98 133 168 210 275 339 399
#     4  12  22  40  67  94 133 167 224 276 339 388
#     4  10  25  44  61  88 129 172 222 276 328 398
#     4   9  19  39  66  96 128 169 220 265 325 407
#     4   9  20  41  69  96 134 181 222 270 338 411
#     4  11  24  41  65  97 127 176 222 279 337 405
#     4   9  19  35  63  96 130 172 212 265 324 391
#
# _framework density 20.475024999999999
#
# number of rings (size 3 to 8) (size 9 to 14) (size 15 to 20)
#    0.000    2.000    1.250    3.750    7.000    1.500 
#    2.250    2.500    0.000    0.000    0.000    0.000 
#    0.000    0.000    0.000    0.000    0.000    0.000 
#
# Total GULP energy -178381.283574 kJ/mol
# GULP energy per Si atom -5574.415112 kJ/mol
# Density = 2.042842 g / cm^3
# Si number density = 20.475025 Si / 1000 Ang^3
#
#
#
# Elastic Constant Matrix: (Units=GPa)
#
#
# Indices 1 2 3 4 5 6 
#
# 1 103.1627 39.4610 46.5147 0.0000 5.1851 0.0000
# 2 39.4610 100.8345 53.7500 0.0000 3.0709 0.0000
# 3 46.5147 53.7500 84.1920 0.0000 27.7354 0.0000
# 4 0.0000 0.0000 0.0000 38.7035 0.0000 3.1329
# 5 5.1851 3.0709 27.7354 0.0000 29.4436 0.0000
# 6 0.0000 0.0000 0.0000 3.1329 0.0000 27.1930
#
#
#
# Elastic Compliance Matrix: (Units=1/GPa)
#
#
# Indices 1 2 3 4 5 6 
#
# 1 0.013832 -0.000607 -0.009385 0.000000 0.006468 0.000000
# 2 -0.000607 0.017893 -0.015236 0.000000 0.012593 0.000000
# 3 -0.009385 -0.015236 0.037295 0.000000 -0.031890 0.000000
# 4 0.000000 0.000000 0.000000 0.026081 0.000000 -0.003005
# 5 0.006468 0.012593 -0.031890 0.000000 0.061550 0.000000
# 6 0.000000 0.000000 0.000000 -0.003005 0.000000 0.037120
#
#
# Mechanical properties :
#
#
# Convention : Reuss Voigt Hill
#
# Bulk Modulus (GPa) = 53.87029 63.07119 58.47074
# Shear Modulus (GPa) = 19.96661 28.96559 24.46610
#
# Velocity S-wave (km/s) = 3.12616 3.76530 3.46052
# Velocity P-wave (km/s) = 6.27677 7.05508 6.67728
#
# Compressibility (1/GPa) = 0.01856311
#
# Stress axis : x y z
#
# Youngs Moduli (GPa) = 72.29457 55.88700 26.81291
#
# Poissons Ratio (x) = 0.03395 0.25164
# Poissons Ratio (y) = 0.04391 0.40853
# Poissons Ratio (z) = 0.67849 0.85152
#
# Static dielectric constant tensor:
#      x y z
#    x 1.700740 0.000000 0.003830 
#    y 0.000000 1.738580 0.000000 
#    z 0.003830 0.000000 1.743960 
# 
# From -- ./inp_files/23341.got.cif
#   From: 2010.05.17/outbox.cif.g08.bks.cpg/sg11_12_cif.got.tgz:23341.got - 2010.06.03 12:22:45.
