data_PCOD9166734
_publ_section_title
;
Structure prediction by ZEFSAII (Michael W. Deem and Ramdas Pophale) SiO2 
 PCOD9166734
Probable space group: P 21/M
;
_chemical_formula_sum "Si O2"
_cell_formula_units_Z 32
_cell_length_a 14.610138
_cell_length_b 17.628333
_cell_length_c 12.298396
_cell_angle_alpha 90.000000
_cell_angle_beta 28.559110
_cell_angle_gamma 90.000000
_cell_volume 1514.262344
_symmetry_space_group_name_H-M "P 21/M"
_symmetry_group_IT_number 11
_symmetry_cell_setting 'monoclinic'
loop_
_space_group_symop_operation_xyz
x,y,z
-x,1/2+y,-z
-x,-y,-z
x,1/2-y,z
loop_
_atom_site_type_symbol
_atom_site_label
_atom_site_fract_x
_atom_site_fract_y
_atom_site_fract_z
Si Si1 0.785212 0.467050 0.714814
Si Si2 0.942400 0.410498 0.341002
Si Si3 0.667184 0.611745 0.959721
Si Si4 0.603600 0.162687 0.580345
Si Si5 0.025013 0.958069 0.090703
Si Si6 0.349069 0.835822 0.721026
Si Si7 0.530048 0.165146 0.042394
Si Si8 0.286581 0.162449 0.502829
O O1 0.787231 0.446352 0.585838
O O2 0.663676 0.532717 0.897763
O O3 0.000000 0.500000 0.500000
O O4 0.711554 0.390819 0.850044
O O5 0.819647 0.355764 0.392582
O O6 0.113226 0.372949 0.232948
O O7 0.032881 0.476896 0.173953
O O8 0.568472 0.665246 0.973477
O O9 0.544748 0.613177 0.196830
O O10 0.559793 0.250000 0.651075
O O11 0.586775 0.151324 0.469917
O O12 0.855002 0.900533 0.301941
O O13 0.207362 0.903354 0.898387
O O14 0.000000 0.000000 0.000000
O O15 0.263287 0.750000 0.814934
O O16 0.529235 0.836513 0.611806
O O17 0.591313 0.250000 0.008353
O O18 0.367768 0.141887 0.298673
O O19 0.210591 0.250000 0.578370
#
# Coordination Sequence:
#
# PCOD9166734 Si02
#       8
#     4   4   4   4   4   4   4   4
#     4  10  23  41  65  95 134 176 213 270 339 391
#     4  11  25  42  63 100 132 173 216 272 336 389
#     4  11  24  41  68  96 133 177 216 270 340 401
#     4  11  24  42  65  97 134 174 221 272 332 397
#     4  12  25  41  67  99 132 174 227 274 329 396
#     4  10  24  45  68  94 133 179 220 274 335 392
#     4  11  23  43  70  99 132 179 230 278 332 399
#     4  10  25  46  70  96 132 178 224 278 333 392
#
# _framework density 21.132401999999999
#
# number of rings (size 3 to 8) (size 9 to 14) (size 15 to 20)
#    0.000    1.250    2.500    1.875    7.000    1.500 
#    0.000    3.750    0.000    0.000    0.000    0.000 
#    0.000    0.000    0.000    0.000    0.000    0.000 
#
# Total GULP energy -178634.107492 kJ/mol
# GULP energy per Si atom -5582.315859 kJ/mol
# Density = 2.108430 g / cm^3
# Si number density = 21.132402 Si / 1000 Ang^3
#
#
#
# Elastic Constant Matrix: (Units=GPa)
#
#
# Indices 1 2 3 4 5 6 
#
# 1 52.2647 -5.1934 17.3266 0.0000 6.6733 0.0000
# 2 -5.1934 79.8926 47.4623 0.0000 2.1067 0.0000
# 3 17.3266 47.4623 103.5509 0.0000 8.2169 0.0000
# 4 0.0000 0.0000 0.0000 25.3042 0.0000 -7.0940
# 5 6.6733 2.1067 8.2169 0.0000 31.5684 0.0000
# 6 0.0000 0.0000 0.0000 -7.0940 0.0000 10.0429
#
#
#
# Elastic Compliance Matrix: (Units=1/GPa)
#
#
# Indices 1 2 3 4 5 6 
#
# 1 0.021924 0.004853 -0.005615 0.000000 -0.003497 0.000000
# 2 0.004853 0.018301 -0.009212 0.000000 0.000151 0.000000
# 3 -0.005615 -0.009212 0.014986 0.000000 -0.002099 0.000000
# 4 0.000000 0.000000 0.000000 0.049278 0.000000 0.034809
# 5 -0.003497 0.000151 -0.002099 0.000000 0.032953 0.000000
# 6 0.000000 0.000000 0.000000 0.034809 0.000000 0.124161
#
#
# Mechanical properties :
#
#
# Convention : Reuss Voigt Hill
#
# Bulk Modulus (GPa) = 28.35937 39.43325 33.89631
# Shear Modulus (GPa) = 17.04711 25.12394 21.08553
#
# Velocity S-wave (km/s) = 2.84329 3.45176 3.16220
# Velocity P-wave (km/s) = 4.92220 5.88105 5.42286
#
# Compressibility (1/GPa) = 0.03526171
#
# Stress axis : x y z
#
# Youngs Moduli (GPa) = 45.61276 54.64135 66.73042
#
# Poissons Ratio (x) = -0.26519 0.37472
# Poissons Ratio (y) = -0.22137 0.61474
# Poissons Ratio (z) = 0.25613 0.50337
#
# Static dielectric constant tensor:
#      x y z
#    x 1.804920 0.000000 -0.014190 
#    y 0.000000 1.824890 0.000000 
#    z -0.014190 0.000000 1.766730 
# 
# From -- ./inp_files/39982.got.cif
#   From: 2010.05.17/outbox.cif.g08.bks.cpg/sg11_20_cif.got.tgz:39982.got - 2010.06.03 12:22:45.
