data_PCOD9166606
_publ_section_title
;
Structure prediction by ZEFSAII (Michael W. Deem and Ramdas Pophale) SiO2 
 PCOD9166606
Probable space group: P 21/M
;
_chemical_formula_sum "Si O2"
_cell_formula_units_Z 22
_cell_length_a 5.211174
_cell_length_b 14.947632
_cell_length_c 13.394608
_cell_angle_alpha 90.000000
_cell_angle_beta 59.261432
_cell_angle_gamma 90.000000
_cell_volume 896.784536
_symmetry_space_group_name_H-M "P 21/M"
_symmetry_group_IT_number 11
_symmetry_cell_setting 'monoclinic'
loop_
_space_group_symop_operation_xyz
x,y,z
-x,1/2+y,-z
-x,-y,-z
x,1/2-y,z
loop_
_atom_site_type_symbol
_atom_site_label
_atom_site_fract_x
_atom_site_fract_y
_atom_site_fract_z
Si Si1 0.388336 0.656138 0.793038
Si Si2 0.191772 0.497401 0.307033
Si Si3 0.654989 0.418933 0.523937
Si Si4 0.536126 0.250000 0.429160
Si Si5 0.172492 0.647559 0.165131
Si Si6 0.872741 0.898951 0.019711
O O1 0.504085 0.750000 0.815943
O O2 0.569636 0.569046 0.788949
O O3 0.420657 0.673219 0.668353
O O4 0.047832 0.643476 0.891609
O O5 0.333002 0.562812 0.361501
O O6 0.045173 0.566276 0.258879
O O7 0.987627 0.428973 0.411408
O O8 0.500000 0.500000 0.500000
O O9 0.517288 0.327262 0.517831
O O10 0.163093 0.750000 0.206936
O O11 0.520007 0.617927 0.082199
O O12 0.998881 0.645364 0.095501
O O13 0.000000 0.000000 0.000000
#
# Coordination Sequence:
#
# PCOD9166606 Si02
#       6
#     4   4   4   2   4   4
#     4  10  22  43  69 108 133 183 236 297 353 431
#     4  11  26  44  71  99 144 184 238 298 367 427
#     4  11  24  48  67 102 137 181 238 302 358 434
#     4  10  24  40  78  96 134 182 234 298 360 422
#     4  12  28  48  73 112 150 199 241 299 363 443
#     4  12  26  49  74 108 153 194 246 296 367 433
#
# _framework density 24.53209
#
# number of rings (size 3 to 8) (size 9 to 14) (size 15 to 20)
#    0.545    0.364    3.636    2.182    7.636    0.000 
#    1.636    0.000    0.000    0.000    0.000    0.000 
#    0.000    0.000    0.000    0.000    0.000    0.000 
#
# Total GULP energy -122535.300799 kJ/mol
# GULP energy per Si atom -5569.786400 kJ/mol
# Density = 2.447625 g / cm^3
# Si number density = 24.532090 Si / 1000 Ang^3
#
#
#
# Elastic Constant Matrix: (Units=GPa)
#
#
# Indices 1 2 3 4 5 6 
#
# 1 71.2318 -12.1840 18.0732 0.0000 0.6777 0.0000
# 2 -12.1840 162.1363 20.3968 0.0000 1.5561 0.0000
# 3 18.0732 20.3968 38.4611 0.0000 -12.8200 0.0000
# 4 0.0000 0.0000 0.0000 41.9353 0.0000 18.6895
# 5 0.6777 1.5561 -12.8200 0.0000 25.4802 0.0000
# 6 0.0000 0.0000 0.0000 18.6895 0.0000 19.9253
#
#
#
# Elastic Compliance Matrix: (Units=1/GPa)
#
#
# Indices 1 2 3 4 5 6 
#
# 1 0.017669 0.002914 -0.012092 0.000000 -0.006732 0.000000
# 2 0.002914 0.007236 -0.006464 0.000000 -0.003771 0.000000
# 3 -0.012092 -0.006464 0.042472 0.000000 0.022085 0.000000
# 4 0.000000 0.000000 0.000000 0.040975 0.000000 -0.038434
# 5 -0.006732 -0.003771 0.022085 0.000000 0.050768 0.000000
# 6 0.000000 0.000000 0.000000 -0.038434 0.000000 0.086238
#
#
# Mechanical properties :
#
#
# Convention : Reuss Voigt Hill
#
# Bulk Modulus (GPa) = 27.70622 36.04458 31.87540
# Shear Modulus (GPa) = 17.32071 33.83770 25.57921
#
# Velocity S-wave (km/s) = 2.66003 3.71795 3.23256
# Velocity P-wave (km/s) = 4.55552 5.75809 5.19174
#
# Compressibility (1/GPa) = 0.03609297
#
# Stress axis : x y z
#
# Youngs Moduli (GPa) = 56.59622 138.19969 23.54514
#
# Poissons Ratio (x) = -0.40265 0.28470
# Poissons Ratio (y) = -0.16489 0.15219
# Poissons Ratio (z) = 0.68435 0.89326
#
# Static dielectric constant tensor:
#      x y z
#    x 2.042260 0.000000 -0.143410 
#    y 0.000000 1.941340 0.000000 
#    z -0.143410 0.000000 2.100840 
# 
# From -- ./inp_files/45692.got.cif
#   From: 2010.05.17/outbox.cif.g08.bks.cpg/sg11_23_cif.got.tgz:45692.got - 2010.06.03 12:22:45.
