data_PCOD9166073
_publ_section_title
;
Structure prediction by ZEFSAII (Michael W. Deem and Ramdas Pophale) SiO2 
 PCOD9166073
Probable space group: P 21/M
;
_chemical_formula_sum "Si O2"
_cell_formula_units_Z 20
_cell_length_a 10.446137
_cell_length_b 9.059526
_cell_length_c 22.001857
_cell_angle_alpha 90.000000
_cell_angle_beta 144.777514
_cell_angle_gamma 90.000000
_cell_volume 1200.909736
_symmetry_space_group_name_H-M "P 21/M"
_symmetry_group_IT_number 11
_symmetry_cell_setting 'monoclinic'
loop_
_space_group_symop_operation_xyz
x,y,z
-x,1/2+y,-z
-x,-y,-z
x,1/2-y,z
loop_
_atom_site_type_symbol
_atom_site_label
_atom_site_fract_x
_atom_site_fract_y
_atom_site_fract_z
Si Si1 0.048928 0.574322 0.724067
Si Si2 0.623379 0.573636 0.490465
Si Si3 0.261553 0.426697 0.278766
Si Si4 0.959272 0.072445 0.048907
Si Si5 0.505532 0.926609 0.068509
O O1 0.095224 0.750000 0.742574
O O2 0.274877 0.484415 0.812832
O O3 0.882270 0.541817 0.603534
O O4 0.910861 0.541947 0.732694
O O5 0.500000 0.500000 0.500000
O O6 0.596366 0.750000 0.482350
O O7 0.492606 0.507458 0.382696
O O8 0.296422 0.250000 0.292963
O O9 0.143777 0.470246 0.170540
O O10 0.966755 0.250000 0.046397
O O11 0.718301 0.032967 0.982459
O O12 0.000000 0.000000 0.000000
O O13 0.510775 0.750000 0.063908
O O14 0.500000 0.000000 0.000000
#
# Coordination Sequence:
#
# PCOD9166073 Si02
#       5
#     4   4   4   4   4
#     4   9  17  31  49  74 107 134 164 213 261 303
#     4   9  17  28  45  72 104 134 168 210 255 304
#     4   9  17  32  50  71 105 136 167 214 258 302
#     4  10  22  38  53  75 106 139 174 216 259 308
#     4  11  21  34  53  77 106 136 172 215 259 308
#
# _framework density 16.654040999999999
#
# number of rings (size 3 to 8) (size 9 to 14) (size 15 to 20)
#    0.000    2.400    2.000    2.400    0.000    6.400 
#    0.000    0.000    0.000    1.200    0.000    0.000 
#    0.000    0.000    0.000    0.000    0.000    0.000 
#
# Total GULP energy -111483.124060 kJ/mol
# GULP energy per Si atom -5574.156203 kJ/mol
# Density = 1.661614 g / cm^3
# Si number density = 16.654041 Si / 1000 Ang^3
#
#
#
# Elastic Constant Matrix: (Units=GPa)
#
#
# Indices 1 2 3 4 5 6 
#
# 1 81.7803 37.9623 68.7320 0.0000 -4.9743 0.0000
# 2 37.9623 43.9795 67.9535 0.0000 3.2110 0.0000
# 3 68.7320 67.9535 193.2463 0.0000 -2.6329 0.0000
# 4 0.0000 0.0000 0.0000 37.2711 0.0000 -0.1018
# 5 -4.9743 3.2110 -2.6329 0.0000 17.6968 0.0000
# 6 0.0000 0.0000 0.0000 -0.1018 0.0000 23.1989
#
#
#
# Elastic Compliance Matrix: (Units=1/GPa)
#
#
# Indices 1 2 3 4 5 6 
#
# 1 0.022199 -0.017117 -0.001753 0.000000 0.009085 0.000000
# 2 -0.017117 0.065513 -0.017211 0.000000 -0.019259 0.000000
# 3 -0.001753 -0.017211 0.011910 0.000000 0.004402 0.000000
# 4 0.000000 0.000000 0.000000 0.026831 0.000000 0.000118
# 5 0.009085 -0.019259 0.004402 0.000000 0.063211 0.000000
# 6 0.000000 0.000000 0.000000 0.000118 0.000000 0.043106
#
#
# Mechanical properties :
#
#
# Convention : Reuss Voigt Hill
#
# Bulk Modulus (GPa) = 36.41661 74.25575 55.33618
# Shear Modulus (GPa) = 15.91919 25.25723 20.58821
#
# Velocity S-wave (km/s) = 3.09508 3.89856 3.51982
# Velocity P-wave (km/s) = 5.88954 8.05910 7.05818
#
# Compressibility (1/GPa) = 0.02745999
#
# Stress axis : x y z
#
# Youngs Moduli (GPa) = 45.04634 15.26414 83.96023
#
# Poissons Ratio (x) = 0.26128 0.14716
# Poissons Ratio (y) = 0.77107 1.44508
# Poissons Ratio (z) = 0.07896 0.26272
#
# Static dielectric constant tensor:
#      x y z
#    x 1.527520 0.000000 -0.005280 
#    y 0.000000 1.553900 0.000000 
#    z -0.005280 0.000000 1.605060 
# 
# From -- ./inp_files/20274.got.cif
#   From: 2010.05.17/outbox.cif.g08.bks.cpg/sg11_11_cif.got.tgz:20274.got - 2010.06.03 12:22:45.
