data_PCOD9166279
_publ_section_title
;
Structure prediction by ZEFSAII (Michael W. Deem and Ramdas Pophale) SiO2 
 PCOD9166279
Probable space group: P 21/M
;
_chemical_formula_sum "Si O2"
_cell_formula_units_Z 26
_cell_length_a 10.039704
_cell_length_b 9.452192
_cell_length_c 14.955335
_cell_angle_alpha 90.000000
_cell_angle_beta 123.720042
_cell_angle_gamma 90.000000
_cell_volume 1180.450046
_symmetry_space_group_name_H-M "P 21/M"
_symmetry_group_IT_number 11
_symmetry_cell_setting 'monoclinic'
loop_
_space_group_symop_operation_xyz
x,y,z
-x,1/2+y,-z
-x,-y,-z
x,1/2-y,z
loop_
_atom_site_type_symbol
_atom_site_label
_atom_site_fract_x
_atom_site_fract_y
_atom_site_fract_z
Si Si1 0.928906 0.250000 0.985602
Si Si2 0.392952 0.086591 0.585706
Si Si3 0.607206 0.908769 0.784949
Si Si4 0.843403 0.590838 0.331791
Si Si5 0.113411 0.080438 0.357365
Si Si6 0.468629 0.417168 0.897194
Si Si7 0.043793 0.017253 0.133582
O O1 0.959319 0.372452 0.920329
O O2 0.905371 0.124059 0.052923
O O3 0.449764 0.250000 0.600329
O O4 0.264768 0.082796 0.619680
O O5 0.290007 0.047321 0.460684
O O6 0.530077 0.981140 0.668895
O O7 0.544307 0.750000 0.775241
O O8 0.796434 0.902419 0.842073
O O9 0.564696 0.008584 0.852212
O O10 0.911742 0.750000 0.352899
O O11 0.716707 0.572605 0.203549
O O12 0.980480 0.474835 0.376963
O O13 0.105133 0.250000 0.343496
O O14 0.068696 0.006151 0.248100
O O15 0.506658 0.250000 0.916584
O O16 0.500000 0.500000 0.000000
#
# Coordination Sequence:
#
# PCOD9166279 Si02
#       7
#     2   4   4   4   4   4   4
#     4  10  24  44  62  82 124 160 200 250 306 358
#     4   9  21  40  63  89 125 162 200 252 313 358
#     4  11  22  40  63  89 124 161 202 255 305 366
#     4   9  20  38  58  87 125 160 201 252 304 357
#     4  11  22  39  62  92 124 160 206 253 298 370
#     4  10  22  40  60  90 123 161 210 254 306 362
#     4  11  24  44  63  92 121 162 206 250 306 366
#
# _framework density 22.025500000000001
#
# number of rings (size 3 to 8) (size 9 to 14) (size 15 to 20)
#    0.000    1.846    1.538    2.308    3.231    6.769 
#    2.769    0.000    0.000    0.000    0.000    0.000 
#    0.000    0.000    0.000    0.000    0.000    0.000 
#
# Total GULP energy -144807.654815 kJ/mol
# GULP energy per Si atom -5569.525185 kJ/mol
# Density = 2.197537 g / cm^3
# Si number density = 22.025500 Si / 1000 Ang^3
#
#
#
# Elastic Constant Matrix: (Units=GPa)
#
#
# Indices 1 2 3 4 5 6 
#
# 1 34.9087 5.0335 2.1523 0.0000 2.9182 0.0000
# 2 5.0335 120.8776 43.8798 0.0000 6.9420 0.0000
# 3 2.1523 43.8798 116.9901 0.0000 -6.4025 0.0000
# 4 0.0000 0.0000 0.0000 61.6027 0.0000 13.9367
# 5 2.9182 6.9420 -6.4025 0.0000 27.7117 0.0000
# 6 0.0000 0.0000 0.0000 13.9367 0.0000 15.6002
#
#
#
# Elastic Compliance Matrix: (Units=1/GPa)
#
#
# Indices 1 2 3 4 5 6 
#
# 1 0.029043 -0.000915 -0.000350 0.000000 -0.002910 0.000000
# 2 -0.000915 0.009907 -0.003879 0.000000 -0.003282 0.000000
# 3 -0.000350 -0.003879 0.010193 0.000000 0.003364 0.000000
# 4 0.000000 0.000000 0.000000 0.020345 0.000000 -0.018176
# 5 -0.002910 -0.003282 0.003364 0.000000 0.037991 0.000000
# 6 0.000000 0.000000 0.000000 -0.018176 0.000000 0.080339
#
#
# Mechanical properties :
#
#
# Convention : Reuss Voigt Hill
#
# Bulk Modulus (GPa) = 25.73665 41.65641 33.69653
# Shear Modulus (GPa) = 23.68999 35.76363 29.72681
#
# Velocity S-wave (km/s) = 3.28315 4.03393 3.67775
# Velocity P-wave (km/s) = 5.10709 6.37579 5.77638
#
# Compressibility (1/GPa) = 0.03885509
#
# Stress axis : x y z
#
# Youngs Moduli (GPa) = 34.43172 100.93430 98.10585
#
# Poissons Ratio (x) = 0.09236 0.03437
# Poissons Ratio (y) = 0.03151 0.38053
# Poissons Ratio (z) = 0.01206 0.39150
#
# Static dielectric constant tensor:
#      x y z
#    x 1.842280 0.000000 0.033300 
#    y 0.000000 1.725040 0.000000 
#    z 0.033300 0.000000 1.881050 
# 
# From -- ./inp_files/49059.got.cif
#   From: 2010.05.17/outbox.cif.g08.bks.cpg/sg11_25_cif.got.tgz:49059.got - 2010.06.03 12:22:45.
