data_PCOD9166088
_publ_section_title
;
Structure prediction by ZEFSAII (Michael W. Deem and Ramdas Pophale) SiO2 
 PCOD9166088
Probable space group: P 21/M
;
_chemical_formula_sum "Si O2"
_cell_formula_units_Z 24
_cell_length_a 8.279290
_cell_length_b 21.760013
_cell_length_c 8.441073
_cell_angle_alpha 90.000000
_cell_angle_beta 122.092466
_cell_angle_gamma 90.000000
_cell_volume 1288.343408
_symmetry_space_group_name_H-M "P 21/M"
_symmetry_group_IT_number 11
_symmetry_cell_setting 'monoclinic'
loop_
_space_group_symop_operation_xyz
x,y,z
-x,1/2+y,-z
-x,-y,-z
x,1/2-y,z
loop_
_atom_site_type_symbol
_atom_site_label
_atom_site_fract_x
_atom_site_fract_y
_atom_site_fract_z
Si Si1 0.621103 0.507617 0.903299
Si Si2 0.069264 0.083606 0.401734
Si Si3 0.261333 0.892131 0.239568
Si Si4 0.356846 0.322787 0.454456
Si Si5 0.747727 0.042661 0.437742
Si Si6 0.869951 0.891835 0.914713
O O1 0.677998 0.441988 0.861334
O O2 0.476474 0.538758 0.702847
O O3 0.788728 0.558010 0.995049
O O4 0.500000 0.500000 0.000000
O O5 0.193318 0.145379 0.478674
O O6 0.069513 0.071510 0.213792
O O7 0.860350 0.082718 0.367078
O O8 0.179933 0.027236 0.539153
O O9 0.440302 0.850068 0.383242
O O10 0.210884 0.930672 0.369753
O O11 0.063984 0.861292 0.079509
O O12 0.356988 0.250000 0.463192
O O13 0.287010 0.345488 0.242280
#
# Coordination Sequence:
#
# PCOD9166088 Si02
#       6
#     4   4   4   4   4   4
#     4  12  22  34  58  94 130 154 185 243 310 366
#     4   9  20  36  58  89 119 153 188 242 297 354
#     4  12  21  37  61  90 119 154 199 239 298 363
#     4  10  22  43  62  80 117 161 204 251 290 341
#     4  11  19  35  60  91 124 150 190 242 306 363
#     4  10  22  38  56  90 122 153 193 242 301 358
#
# _framework density 18.628574
#
# number of rings (size 3 to 8) (size 9 to 14) (size 15 to 20)
#    1.000    0.333    5.000    2.000    4.667    0.667 
#    0.000    0.833    0.000    3.000    0.000    0.000 
#    0.000    0.000    0.000    0.000    0.000    0.000 
#
# Total GULP energy -133627.611587 kJ/mol
# GULP energy per Si atom -5567.817149 kJ/mol
# Density = 1.858617 g / cm^3
# Si number density = 18.628574 Si / 1000 Ang^3
#
#
#
# Elastic Constant Matrix: (Units=GPa)
#
#
# Indices 1 2 3 4 5 6 
#
# 1 71.2051 38.3655 22.3138 0.0000 -0.8210 0.0000
# 2 38.3655 122.1697 32.6163 0.0000 17.5161 0.0000
# 3 22.3138 32.6163 83.5139 0.0000 31.4559 0.0000
# 4 0.0000 0.0000 0.0000 11.4991 0.0000 -0.2347
# 5 -0.8210 17.5161 31.4559 0.0000 46.1601 0.0000
# 6 0.0000 0.0000 0.0000 -0.2347 0.0000 15.5289
#
#
#
# Elastic Compliance Matrix: (Units=1/GPa)
#
#
# Indices 1 2 3 4 5 6 
#
# 1 0.018559 -0.005306 -0.005071 0.000000 0.005799 0.000000
# 2 -0.005306 0.010722 -0.001617 0.000000 -0.003061 0.000000
# 3 -0.005071 -0.001617 0.018516 0.000000 -0.012094 0.000000
# 4 0.000000 0.000000 0.000000 0.086990 0.000000 0.001315
# 5 0.005799 -0.003061 -0.012094 0.000000 0.031170 0.000000
# 6 0.000000 0.000000 0.000000 0.001315 0.000000 0.064416
#
#
# Mechanical properties :
#
#
# Convention : Reuss Voigt Hill
#
# Bulk Modulus (GPa) = 41.99935 51.49778 46.74856
# Shear Modulus (GPa) = 19.06250 26.87717 22.96983
#
# Velocity S-wave (km/s) = 3.20237 3.80253 3.51528
# Velocity P-wave (km/s) = 6.02230 6.85445 6.45181
#
# Compressibility (1/GPa) = 0.02380989
#
# Stress axis : x y z
#
# Youngs Moduli (GPa) = 53.88362 93.26553 54.00845
#
# Poissons Ratio (x) = 0.49484 0.27385
# Poissons Ratio (y) = 0.28589 0.08733
# Poissons Ratio (z) = 0.27322 0.15080
#
# Static dielectric constant tensor:
#      x y z
#    x 1.693610 0.000000 0.029650 
#    y 0.000000 1.593480 0.000000 
#    z 0.029650 0.000000 1.708360 
# 
# From -- ./inp_files/14400.got.cif
#   From: 2010.05.17/outbox.cif.g08.bks.cpg/sg11_8_cif.got.tgz:14400.got - 2010.06.03 12:22:45.
