data_PCOD9166412
_publ_section_title
;
Structure prediction by ZEFSAII (Michael W. Deem and Ramdas Pophale) SiO2 
 PCOD9166412
Probable space group: P 21/M
;
_chemical_formula_sum "Si O2"
_cell_formula_units_Z 28
_cell_length_a 14.971916
_cell_length_b 8.421322
_cell_length_c 12.976403
_cell_angle_alpha 90.000000
_cell_angle_beta 121.614725
_cell_angle_gamma 90.000000
_cell_volume 1393.296917
_symmetry_space_group_name_H-M "P 21/M"
_symmetry_group_IT_number 11
_symmetry_cell_setting 'monoclinic'
loop_
_space_group_symop_operation_xyz
x,y,z
-x,1/2+y,-z
-x,-y,-z
x,1/2-y,z
loop_
_atom_site_type_symbol
_atom_site_label
_atom_site_fract_x
_atom_site_fract_y
_atom_site_fract_z
Si Si1 0.895767 0.940408 0.992649
Si Si2 0.571345 0.058952 0.949657
Si Si3 0.281586 0.443700 0.274202
Si Si4 0.269363 0.440747 0.495370
Si Si5 0.117843 0.059844 0.586060
Si Si6 0.809422 0.060324 0.148240
Si Si7 0.499757 0.439294 0.315345
O O1 0.895163 0.750000 0.994337
O O2 0.884159 0.003403 0.101344
O O3 0.796023 0.995563 0.863722
O O4 0.000000 0.000000 0.000000
O O5 0.565752 0.250000 0.937780
O O6 0.531553 0.982081 0.820170
O O7 0.691308 0.012431 0.045541
O O8 0.500000 0.000000 0.000000
O O9 0.281632 0.250000 0.273046
O O10 0.244093 0.497013 0.364224
O O11 0.401067 0.494568 0.324743
O O12 0.260259 0.250000 0.489262
O O13 0.193099 0.501078 0.539355
O O14 0.389683 0.483477 0.590689
O O15 0.117789 0.250000 0.581908
O O16 0.160505 0.007587 0.722820
O O17 0.000000 0.000000 0.500000
O O18 0.813335 0.250000 0.156648
O O19 0.509744 0.250000 0.332087
#
# Coordination Sequence:
#
# PCOD9166412 Si02
#       7
#     4   4   4   4   4   4   4
#     4  11  23  41  66  96 129 166 209 259 317 378
#     4  11  23  38  61  91 125 165 208 258 311 372
#     4   9  20  39  63  91 127 166 203 252 311 372
#     4  10  22  41  63  90 125 168 210 255 314 373
#     4  11  25  43  66  92 124 165 211 262 316 375
#     4  11  24  43  65  91 126 165 211 262 314 374
#     4  11  21  37  61  92 127 164 206 255 311 374
#
# _framework density 20.096219000000001
#
# number of rings (size 3 to 8) (size 9 to 14) (size 15 to 20)
#    0.000    1.429    1.429    3.429    2.000    5.143 
#    0.000    2.143    0.000    0.000    0.000    0.000 
#    0.000    0.000    0.000    0.000    0.000    0.000 
#
# Total GULP energy -156569.264096 kJ/mol
# GULP energy per Si atom -5591.759432 kJ/mol
# Density = 2.005048 g / cm^3
# Si number density = 20.096219 Si / 1000 Ang^3
#
#
#
# Elastic Constant Matrix: (Units=GPa)
#
#
# Indices 1 2 3 4 5 6 
#
# 1 134.9840 6.4624 32.8475 0.0000 -28.2750 0.0000
# 2 6.4624 19.5100 1.7311 0.0000 -6.0071 0.0000
# 3 32.8475 1.7311 94.3299 0.0000 -28.1037 0.0000
# 4 0.0000 0.0000 0.0000 26.5052 0.0000 2.8595
# 5 -28.2750 -6.0071 -28.1037 0.0000 40.4343 0.0000
# 6 0.0000 0.0000 0.0000 2.8595 0.0000 27.8683
#
#
#
# Elastic Compliance Matrix: (Units=1/GPa)
#
#
# Indices 1 2 3 4 5 6 
#
# 1 0.008889 -0.001291 -0.001610 0.000000 0.004905 0.000000
# 2 -0.001291 0.054132 0.001997 0.000000 0.008527 0.000000
# 3 -0.001610 0.001997 0.013719 0.000000 0.008706 0.000000
# 4 0.000000 0.000000 0.000000 0.038151 0.000000 -0.003915
# 5 0.004905 0.008527 0.008706 0.000000 0.035479 0.000000
# 6 0.000000 0.000000 0.000000 -0.003915 0.000000 0.036285
#
#
# Mechanical properties :
#
#
# Convention : Reuss Voigt Hill
#
# Bulk Modulus (GPa) = 13.34577 36.76730 25.05653
# Shear Modulus (GPa) = 23.42560 32.81375 28.11967
#
# Velocity S-wave (km/s) = 3.41790 4.04522 3.74472
# Velocity P-wave (km/s) = 4.71502 6.33670 5.58503
#
# Compressibility (1/GPa) = 0.07493012
#
# Stress axis : x y z
#
# Youngs Moduli (GPa) = 112.49283 18.47345 72.89177
#
# Poissons Ratio (x) = 0.02386 0.11739
# Poissons Ratio (y) = 0.14526 -0.14554
# Poissons Ratio (z) = 0.18116 -0.03689
#
# Static dielectric constant tensor:
#      x y z
#    x 1.704930 0.000000 -0.011740 
#    y 0.000000 1.695320 0.000000 
#    z -0.011740 0.000000 1.684340 
# 
# From -- ./inp_files/37850.got.cif
#   From: 2010.05.17/outbox.cif.g08.bks.cpg/sg11_19_cif.got.tgz:37850.got - 2010.06.03 12:22:45.
