data_PCOD9166784
_publ_section_title
;
Structure prediction by ZEFSAII (Michael W. Deem and Ramdas Pophale) SiO2 
 PCOD9166784
Probable space group: P 21/M
;
_chemical_formula_sum "Si O2"
_cell_formula_units_Z 28
_cell_length_a 14.938984
_cell_length_b 8.422223
_cell_length_c 12.970850
_cell_angle_alpha 90.000000
_cell_angle_beta 58.339514
_cell_angle_gamma 90.000000
_cell_volume 1389.102288
_symmetry_space_group_name_H-M "P 21/M"
_symmetry_group_IT_number 11
_symmetry_cell_setting 'monoclinic'
loop_
_space_group_symop_operation_xyz
x,y,z
-x,1/2+y,-z
-x,-y,-z
x,1/2-y,z
loop_
_atom_site_type_symbol
_atom_site_label
_atom_site_fract_x
_atom_site_fract_y
_atom_site_fract_z
Si Si1 0.692409 0.941269 0.644913
Si Si2 0.217396 0.556417 0.774413
Si Si3 0.002752 0.439514 0.181657
Si Si4 0.395438 0.559965 0.508048
Si Si5 0.766087 0.061343 0.006435
Si Si6 0.618041 0.560363 0.913968
Si Si7 0.069574 0.441403 0.552923
O O1 0.689935 0.750000 0.647750
O O2 0.662861 0.998916 0.776910
O O3 0.810191 0.989690 0.542075
O O4 0.615564 0.999820 0.601729
O O5 0.216860 0.750000 0.773738
O O6 0.294957 0.503676 0.636432
O O7 0.097331 0.506434 0.825822
O O8 0.256553 0.504670 0.863191
O O9 0.015212 0.250000 0.162921
O O10 0.112142 0.521458 0.088295
O O11 0.971792 0.480691 0.317433
O O12 0.500000 0.500000 0.500000
O O13 0.394578 0.750000 0.508407
O O14 0.751223 0.250000 0.012755
O O15 0.692528 0.989023 0.963201
O O16 0.616202 0.750000 0.910721
O O17 0.500000 0.500000 0.000000
O O18 0.064562 0.250000 0.564562
O O19 0.000000 0.500000 0.500000
#
# Coordination Sequence:
#
# PCOD9166784 Si02
#       7
#     4   4   4   4   4   4   4
#     4  10  23  43  64  89 124 162 206 260 311 364
#     4   9  21  40  63  91 128 167 204 255 314 369
#     4  11  21  39  62  91 128 166 208 257 312 373
#     4  11  23  41  65  95 127 164 207 255 313 375
#     4  11  23  41  64  93 127 168 213 258 313 374
#     4  11  25  45  66  92 125 165 211 263 316 371
#     4  11  22  37  61  92 125 164 208 257 312 372
#
# _framework density 20.156903
#
# number of rings (size 3 to 8) (size 9 to 14) (size 15 to 20)
#    0.000    1.429    1.429    3.429    2.000    2.857 
#    0.000    4.286    0.000    0.000    0.000    0.000 
#    0.000    0.000    0.000    0.000    0.000    0.000 
#
# Total GULP energy -156570.886342 kJ/mol
# GULP energy per Si atom -5591.817369 kJ/mol
# Density = 2.011103 g / cm^3
# Si number density = 20.156903 Si / 1000 Ang^3
#
#
#
# Elastic Constant Matrix: (Units=GPa)
#
#
# Indices 1 2 3 4 5 6 
#
# 1 127.9095 2.2619 28.9125 0.0000 25.7549 0.0000
# 2 2.2619 18.8108 2.3942 0.0000 3.9326 0.0000
# 3 28.9125 2.3942 93.3176 0.0000 26.5344 0.0000
# 4 0.0000 0.0000 0.0000 24.9770 0.0000 -0.7564
# 5 25.7549 3.9326 26.5344 0.0000 40.8185 0.0000
# 6 0.0000 0.0000 0.0000 -0.7564 0.0000 34.9992
#
#
#
# Elastic Compliance Matrix: (Units=1/GPa)
#
#
# Indices 1 2 3 4 5 6 
#
# 1 0.009115 0.000096 -0.001458 0.000000 -0.004813 0.000000
# 2 0.000096 0.054256 0.000100 0.000000 -0.005353 0.000000
# 3 -0.001458 0.000100 0.013380 0.000000 -0.007787 0.000000
# 4 0.000000 0.000000 0.000000 0.040063 0.000000 0.000866
# 5 -0.004813 -0.005353 -0.007787 0.000000 0.033113 0.000000
# 6 0.000000 0.000000 0.000000 0.000866 0.000000 0.028591
#
#
# Mechanical properties :
#
#
# Convention : Reuss Voigt Hill
#
# Bulk Modulus (GPa) = 13.47238 34.13057 23.80148
# Shear Modulus (GPa) = 24.29743 33.92356 29.11050
#
# Velocity S-wave (km/s) = 3.47567 4.10686 3.80438
# Velocity P-wave (km/s) = 4.77549 6.28153 5.57956
#
# Compressibility (1/GPa) = 0.07422593
#
# Stress axis : x y z
#
# Youngs Moduli (GPa) = 109.70992 18.43126 74.74116
#
# Poissons Ratio (x) = -0.00176 0.10898
# Poissons Ratio (y) = -0.01050 -0.00750
# Poissons Ratio (z) = 0.15997 -0.00185
#
# Static dielectric constant tensor:
#      x y z
#    x 1.687670 0.000000 0.008240 
#    y 0.000000 1.696000 0.000000 
#    z 0.008240 0.000000 1.710170 
# 
# From -- ./inp_files/37943.got.cif
#   From: 2010.05.17/outbox.cif.g08.bks.cpg/sg11_19_cif.got.tgz:37943.got - 2010.06.03 12:22:45.
