data_PCOD9166967
_publ_section_title
;
Structure prediction by ZEFSAII (Michael W. Deem and Ramdas Pophale) SiO2 
 PCOD9166967
Probable space group: P 21/M
;
_chemical_formula_sum "Si O2"
_cell_formula_units_Z 24
_cell_length_a 7.936770
_cell_length_b 21.497068
_cell_length_c 8.182639
_cell_angle_alpha 90.000000
_cell_angle_beta 55.054944
_cell_angle_gamma 90.000000
_cell_volume 1144.385254
_symmetry_space_group_name_H-M "P 21/M"
_symmetry_group_IT_number 11
_symmetry_cell_setting 'monoclinic'
loop_
_space_group_symop_operation_xyz
x,y,z
-x,1/2+y,-z
-x,-y,-z
x,1/2-y,z
loop_
_atom_site_type_symbol
_atom_site_label
_atom_site_fract_x
_atom_site_fract_y
_atom_site_fract_z
Si Si1 0.354958 0.019557 0.434716
Si Si2 0.681893 0.090615 0.794499
Si Si3 0.974984 0.320117 0.430119
Si Si4 0.013216 0.552758 0.128867
Si Si5 0.554133 0.645355 0.807358
Si Si6 0.113024 0.821187 0.904913
O O1 0.415645 0.081494 0.307353
O O2 0.139816 0.034175 0.641453
O O3 0.500000 0.000000 0.500000
O O4 0.365355 0.961468 0.309111
O O5 0.768389 0.054755 0.904365
O O6 0.856306 0.133925 0.617410
O O7 0.502266 0.132007 0.971546
O O8 0.906484 0.250000 0.503441
O O9 0.221081 0.323669 0.318290
O O10 0.912819 0.333558 0.275279
O O11 0.994698 0.622451 0.063436
O O12 0.000000 0.500000 0.000000
O O13 0.351403 0.675807 0.835646
O O14 0.039992 0.750000 0.976226
#
# Coordination Sequence:
#
# PCOD9166967 Si02
#       6
#     4   4   4   4   4   4
#     4  12  24  40  65 102 136 178 219 282 347 404
#     4  11  24  43  66  98 139 174 225 285 340 403
#     4  11  24  44  70  96 133 182 229 280 344 405
#     4  11  23  40  68  96 133 177 222 279 336 399
#     4  11  24  43  68 100 132 178 227 281 335 414
#     4  10  24  46  67  97 138 179 228 287 339 408
#
# _framework density 20.971959999999999
#
# number of rings (size 3 to 8) (size 9 to 14) (size 15 to 20)
#    0.000    1.000    1.667    5.500    4.667    3.333 
#    0.000    0.000    0.000    0.000    0.000    0.000 
#    0.000    0.000    0.000    0.000    0.000    0.000 
#
# Total GULP energy -134009.897696 kJ/mol
# GULP energy per Si atom -5583.745737 kJ/mol
# Density = 2.092423 g / cm^3
# Si number density = 20.971960 Si / 1000 Ang^3
#
#
#
# Elastic Constant Matrix: (Units=GPa)
#
#
# Indices 1 2 3 4 5 6 
#
# 1 56.7457 33.6881 9.5122 0.0000 27.4299 0.0000
# 2 33.6881 84.6182 16.9737 0.0000 21.3757 0.0000
# 3 9.5122 16.9737 65.8352 0.0000 12.9797 0.0000
# 4 0.0000 0.0000 0.0000 331.7512 0.0000 133.3324
# 5 27.4299 21.3757 12.9797 0.0000 31.3465 0.0000
# 6 0.0000 0.0000 0.0000 133.3324 0.0000 90.4637
#
#
#
# Elastic Compliance Matrix: (Units=1/GPa)
#
#
# Indices 1 2 3 4 5 6 
#
# 1 0.034104 -0.007534 0.002053 0.000000 -0.025556 0.000000
# 2 -0.007534 0.016167 -0.002402 0.000000 -0.003438 0.000000
# 3 0.002053 -0.002402 0.016925 0.000000 -0.007167 0.000000
# 4 0.000000 0.000000 0.000000 0.007395 0.000000 -0.010899
# 5 -0.025556 -0.003438 -0.007167 0.000000 0.059576 0.000000
# 6 0.000000 0.000000 0.000000 -0.010899 0.000000 0.027117
#
#
# Mechanical properties :
#
#
# Convention : Reuss Voigt Hill
#
# Bulk Modulus (GPa) = 19.44328 36.39410 27.91869
# Shear Modulus (GPa) = 25.74760 100.51395 63.13078
#
# Velocity S-wave (km/s) = 3.50768 6.93050 5.49252
# Velocity P-wave (km/s) = 5.06915 9.02407 7.31881
#
# Compressibility (1/GPa) = 0.05143165
#
# Stress axis : x y z
#
# Youngs Moduli (GPa) = 29.32213 61.85318 59.08403
#
# Poissons Ratio (x) = 0.46597 -0.12131
# Poissons Ratio (y) = 0.22090 0.14192
# Poissons Ratio (z) = -0.06020 0.14857
#
# Static dielectric constant tensor:
#      x y z
#    x 0.702700 0.000000 1.960200 
#    y 0.000000 1.443680 0.000000 
#    z 1.960200 0.000000 -1.930880 
# 
# From -- ./inp_files/14234.got.cif
#   From: 2010.05.17/outbox.cif.g08.bks.cpg/sg11_8_cif.got.tgz:14234.got - 2010.06.03 12:22:45.
