data_PCOD9166872
_publ_section_title
;
Structure prediction by ZEFSAII (Michael W. Deem and Ramdas Pophale) SiO2 
 PCOD9166872
Probable space group: P 21/M
;
_chemical_formula_sum "Si O2"
_cell_formula_units_Z 26
_cell_length_a 9.508508
_cell_length_b 9.652545
_cell_length_c 19.603064
_cell_angle_alpha 90.000000
_cell_angle_beta 49.249472
_cell_angle_gamma 90.000000
_cell_volume 1362.996100
_symmetry_space_group_name_H-M "P 21/M"
_symmetry_group_IT_number 11
_symmetry_cell_setting 'monoclinic'
loop_
_space_group_symop_operation_xyz
x,y,z
-x,1/2+y,-z
-x,-y,-z
x,1/2-y,z
loop_
_atom_site_type_symbol
_atom_site_label
_atom_site_fract_x
_atom_site_fract_y
_atom_site_fract_z
Si Si1 0.281199 0.085245 0.889583
Si Si2 0.014882 0.085799 0.255569
Si Si3 0.989892 0.586320 0.899265
Si Si4 0.253172 0.506446 0.426266
Si Si5 0.292860 0.910645 0.258104
Si Si6 0.419032 0.584948 0.588606
Si Si7 0.017616 0.750000 0.522569
O O1 0.274080 0.250000 0.877164
O O2 0.496165 0.044176 0.823985
O O3 0.176841 0.061641 0.994566
O O4 0.163914 0.001814 0.870804
O O5 0.041059 0.250000 0.259565
O O6 0.797752 0.053836 0.332911
O O7 0.063209 0.054210 0.161456
O O8 0.144589 0.002392 0.265558
O O9 0.037095 0.750000 0.886905
O O10 0.262706 0.576003 0.348536
O O11 0.455416 0.462203 0.387329
O O12 0.161561 0.625682 0.501610
O O13 0.124831 0.371659 0.460539
O O14 0.271806 0.750000 0.245298
O O15 0.500000 0.500000 0.500000
O O16 0.439936 0.750000 0.573066
#
# Coordination Sequence:
#
# PCOD9166872 Si02
#       7
#     4   4   4   4   4   4   2
#     4   9  19  36  62  88 117 153 189 237 293 350
#     4  10  24  40  58  84 117 155 195 243 288 343
#     4   9  18  38  62  88 117 149 193 238 290 351
#     4  11  23  42  62  88 117 155 194 246 290 352
#     4  11  24  39  58  87 120 155 194 240 291 345
#     4  11  26  41  60  85 117 153 194 240 292 345
#     4  10  24  38  68  86 114 154 200 242 294 344
#
# _framework density 19.075624000000001
#
# number of rings (size 3 to 8) (size 9 to 14) (size 15 to 20)
#    0.000    1.846    1.538    0.923    6.462    2.462 
#    0.000    0.000    0.000    0.000    0.000    0.000 
#    0.000    0.000    0.000    0.000    0.000    0.000 
#
# Total GULP energy -144738.983933 kJ/mol
# GULP energy per Si atom -5566.883997 kJ/mol
# Density = 1.903221 g / cm^3
# Si number density = 19.075624 Si / 1000 Ang^3
#
#
#
# Elastic Constant Matrix: (Units=GPa)
#
#
# Indices 1 2 3 4 5 6 
#
# 1 115.0920 30.9507 29.6993 0.0000 -17.1192 0.0000
# 2 30.9507 65.3843 13.8349 0.0000 -16.8610 0.0000
# 3 29.6993 13.8349 41.1150 0.0000 -9.4524 0.0000
# 4 0.0000 0.0000 0.0000 22.5494 0.0000 -5.9874
# 5 -17.1192 -16.8610 -9.4524 0.0000 33.4062 0.0000
# 6 0.0000 0.0000 0.0000 -5.9874 0.0000 35.0670
#
#
#
# Elastic Compliance Matrix: (Units=1/GPa)
#
#
# Indices 1 2 3 4 5 6 
#
# 1 0.011723 -0.003523 -0.006749 0.000000 0.002320 0.000000
# 2 -0.003523 0.019328 -0.002280 0.000000 0.007305 0.000000
# 3 -0.006749 -0.002280 0.030916 0.000000 0.004138 0.000000
# 4 0.000000 0.000000 0.000000 0.046453 0.000000 0.007932
# 5 0.002320 0.007305 0.004138 0.000000 0.035981 0.000000
# 6 0.000000 0.000000 0.000000 0.007932 0.000000 0.029871
#
#
# Mechanical properties :
#
#
# Convention : Reuss Voigt Hill
#
# Bulk Modulus (GPa) = 27.12732 41.17344 34.15038
# Shear Modulus (GPa) = 23.62249 28.01162 25.81705
#
# Velocity S-wave (km/s) = 3.52285 3.83619 3.68286
# Velocity P-wave (km/s) = 5.54970 6.42285 6.00217
#
# Compressibility (1/GPa) = 0.03686320
#
# Stress axis : x y z
#
# Youngs Moduli (GPa) = 85.30445 51.73864 32.34602
#
# Poissons Ratio (x) = 0.18227 0.21831
# Poissons Ratio (y) = 0.30052 0.07373
# Poissons Ratio (z) = 0.57573 0.11794
#
# Static dielectric constant tensor:
#      x y z
#    x 1.649780 0.000000 0.019050 
#    y 0.000000 1.637990 0.000000 
#    z 0.019050 0.000000 1.718910 
# 
# From -- ./inp_files/23966.got.cif
#   From: 2010.05.17/outbox.cif.g08.bks.cpg/sg11_12_cif.got.tgz:23966.got - 2010.06.03 12:22:45.
