data_PCOD9166513
_publ_section_title
;
Structure prediction by ZEFSAII (Michael W. Deem and Ramdas Pophale) SiO2 
 PCOD9166513
Probable space group: P 21/M
;
_chemical_formula_sum "Si O2"
_cell_formula_units_Z 32
_cell_length_a 29.384785
_cell_length_b 8.544091
_cell_length_c 12.192002
_cell_angle_alpha 90.000000
_cell_angle_beta 148.882774
_cell_angle_gamma 90.000000
_cell_volume 1581.896748
_symmetry_space_group_name_H-M "P 21/M"
_symmetry_group_IT_number 11
_symmetry_cell_setting 'monoclinic'
loop_
_space_group_symop_operation_xyz
x,y,z
-x,1/2+y,-z
-x,-y,-z
x,1/2-y,z
loop_
_atom_site_type_symbol
_atom_site_label
_atom_site_fract_x
_atom_site_fract_y
_atom_site_fract_z
Si Si1 0.502241 0.437396 0.380422
Si Si2 0.827695 0.063792 0.074769
Si Si3 0.822205 0.062605 0.318116
Si Si4 0.343944 0.436991 0.899957
Si Si5 0.278675 0.439616 0.537363
Si Si6 0.672398 0.936578 0.606666
Si Si7 0.914544 0.063343 0.887305
Si Si8 0.975265 0.938044 0.242849
O O1 0.500000 0.500000 0.500000
O O2 0.497040 0.250000 0.376163
O O3 0.590988 0.485232 0.500889
O O4 0.420846 0.498230 0.138057
O O5 0.821304 0.250000 0.045375
O O6 0.759501 0.978181 0.854769
O O7 0.807215 0.029352 0.158837
O O8 0.924934 0.007360 0.243207
O O9 0.814646 0.250000 0.319001
O O10 0.922373 0.017241 0.551892
O O11 0.749559 0.977705 0.239659
O O12 0.354543 0.250000 0.917965
O O13 0.339038 0.492570 0.763822
O O14 0.275192 0.250000 0.529699
O O15 0.314111 0.490128 0.491307
O O16 0.179058 0.500197 0.348169
O O17 0.659833 0.750000 0.580220
O O18 0.914199 0.250000 0.881013
O O19 0.925923 0.004453 0.034970
O O20 0.000000 0.000000 0.000000
O O21 0.969938 0.750000 0.233689
#
# Coordination Sequence:
#
# PCOD9166513 Si02
#       8
#     4   4   4   4   4   4   4   4
#     4  11  24  43  67  96 128 161 206 256 311 376
#     4  11  22  38  60  89 124 162 208 258 310 368
#     4  10  23  39  58  87 123 162 205 258 312 369
#     4  10  23  42  64  90 121 160 205 256 310 367
#     4  10  22  42  64  89 124 162 207 258 311 369
#     4  11  23  40  65  93 125 165 207 256 316 374
#     4  12  24  38  59  87 122 165 213 260 310 365
#     4  11  22  38  58  86 122 161 207 255 310 371
#
# _framework density 20.22888
#
# number of rings (size 3 to 8) (size 9 to 14) (size 15 to 20)
#    0.000    1.250    1.250    4.500    0.000    8.500 
#    0.000    0.000    0.000    0.000    0.000    0.000 
#    0.000    0.000    0.000    0.000    0.000    0.000 
#
# Total GULP energy -178946.041063 kJ/mol
# GULP energy per Si atom -5592.063783 kJ/mol
# Density = 2.018284 g / cm^3
# Si number density = 20.228880 Si / 1000 Ang^3
#
#
#
# Elastic Constant Matrix: (Units=GPa)
#
#
# Indices 1 2 3 4 5 6 
#
# 1 87.4746 18.6798 45.7517 0.0000 2.9408 0.0000
# 2 18.6798 46.6309 29.5965 0.0000 -2.6328 0.0000
# 3 45.7517 29.5965 151.1560 0.0000 -4.5643 0.0000
# 4 0.0000 0.0000 0.0000 26.1179 0.0000 8.2558
# 5 2.9408 -2.6328 -4.5643 0.0000 34.5826 0.0000
# 6 0.0000 0.0000 0.0000 8.2558 0.0000 24.8682
#
#
#
# Elastic Compliance Matrix: (Units=1/GPa)
#
#
# Indices 1 2 3 4 5 6 
#
# 1 0.014152 -0.003452 -0.003667 0.000000 -0.001950 0.000000
# 2 -0.003452 0.025383 -0.003873 0.000000 0.001715 0.000000
# 3 -0.003667 -0.003873 0.008518 0.000000 0.001141 0.000000
# 4 0.000000 0.000000 0.000000 0.042777 0.000000 -0.014201
# 5 -0.001950 0.001715 0.001141 0.000000 0.029363 0.000000
# 6 0.000000 0.000000 0.000000 -0.014201 0.000000 0.044926
#
#
# Mechanical properties :
#
#
# Convention : Reuss Voigt Hill
#
# Bulk Modulus (GPa) = 38.35888 52.59084 45.47486
# Shear Modulus (GPa) = 25.53697 29.86265 27.69981
#
# Velocity S-wave (km/s) = 3.55688 3.84635 3.70445
# Velocity P-wave (km/s) = 5.98934 6.76611 6.38954
#
# Compressibility (1/GPa) = 0.02606958
#
# Stress axis : x y z
#
# Youngs Moduli (GPa) = 70.65952 39.39624 117.39368
#
# Poissons Ratio (x) = 0.13600 0.43043
# Poissons Ratio (y) = 0.24393 0.45471
# Poissons Ratio (z) = 0.25908 0.15260
#
# Static dielectric constant tensor:
#      x y z
#    x 1.703290 0.000000 -0.016000 
#    y 0.000000 1.688290 0.000000 
#    z -0.016000 0.000000 1.718540 
# 
# From -- ./inp_files/45268.got.cif
#   From: 2010.05.17/outbox.cif.g08.bks.cpg/sg11_23_cif.got.tgz:45268.got - 2010.06.03 12:22:45.
