data_PCOD9166504
_publ_section_title
;
Structure prediction by ZEFSAII (Michael W. Deem and Ramdas Pophale) SiO2 
 PCOD9166504
Probable space group: P 21/M
;
_chemical_formula_sum "Si O2"
_cell_formula_units_Z 28
_cell_length_a 12.989748
_cell_length_b 17.440991
_cell_length_c 5.791439
_cell_angle_alpha 90.000000
_cell_angle_beta 114.341219
_cell_angle_gamma 90.000000
_cell_volume 1195.439910
_symmetry_space_group_name_H-M "P 21/M"
_symmetry_group_IT_number 11
_symmetry_cell_setting 'monoclinic'
loop_
_space_group_symop_operation_xyz
x,y,z
-x,1/2+y,-z
-x,-y,-z
x,1/2-y,z
loop_
_atom_site_type_symbol
_atom_site_label
_atom_site_fract_x
_atom_site_fract_y
_atom_site_fract_z
Si Si1 0.841746 0.250000 0.895244
Si Si2 0.850812 0.549248 0.714831
Si Si3 0.668018 0.399872 0.042006
Si Si4 0.497941 0.341550 0.591048
Si Si5 0.718196 0.839931 0.902804
Si Si6 0.710089 0.250000 0.280220
Si Si7 0.087533 0.588750 0.888116
Si Si8 0.653390 0.943567 0.224326
O O1 0.775873 0.250000 0.586054
O O2 0.910639 0.170369 0.977251
O O3 0.775583 0.250000 0.087690
O O4 0.806100 0.625199 0.803612
O O5 0.884767 0.481814 0.918678
O O6 0.737427 0.521232 0.488995
O O7 0.962837 0.571753 0.676098
O O8 0.640658 0.329386 0.190132
O O9 0.617165 0.482970 0.045693
O O10 0.624259 0.373245 0.746989
O O11 0.803854 0.408747 0.177003
O O12 0.500697 0.250000 0.624930
O O13 0.411700 0.355775 0.301528
O O14 0.435532 0.387484 0.739331
O O15 0.731135 0.750000 0.942888
O O16 0.731056 0.887881 0.144856
#
# Coordination Sequence:
#
# PCOD9166504 Si02
#       8
#     2   4   4   4   4   2   4   4
#     4  10  22  42  64  97 136 177 228 274 331 412
#     4  10  22  43  64  89 130 166 214 270 329 393
#     4  11  21  41  65  96 129 168 219 271 334 398
#     4  10  22  42  63  88 131 166 212 272 329 397
#     4  10  22  42  62  89 123 168 217 268 325 392
#     4  10  22  42  64  95 138 179 220 278 343 402
#     4  10  22  42  64  94 129 172 212 271 335 401
#     4  11  22  40  65  94 121 167 220 267 325 396
#
# _framework density 23.422339999999998
#
# number of rings (size 3 to 8) (size 9 to 14) (size 15 to 20)
#    0.000    1.714    2.143    1.714    1.000    1.714 
#   12.857    0.000    0.000    0.000    0.000    0.000 
#    0.000    0.000    0.000    0.000    0.000    0.000 
#
# Total GULP energy -156103.504692 kJ/mol
# GULP energy per Si atom -5575.125168 kJ/mol
# Density = 2.336903 g / cm^3
# Si number density = 23.422340 Si / 1000 Ang^3
#
#
#
# Elastic Constant Matrix: (Units=GPa)
#
#
# Indices 1 2 3 4 5 6 
#
# 1 70.3615 -2.7902 -3.4262 0.0000 7.0128 0.0000
# 2 -2.7902 134.0787 8.6303 0.0000 -2.3179 0.0000
# 3 -3.4262 8.6303 37.7305 0.0000 0.7126 0.0000
# 4 0.0000 0.0000 0.0000 33.7514 0.0000 8.0225
# 5 7.0128 -2.3179 0.7126 0.0000 19.7987 0.0000
# 6 0.0000 0.0000 0.0000 8.0225 0.0000 -17.4809
#
#
#
# Elastic Compliance Matrix: (Units=1/GPa)
#
#
# Indices 1 2 3 4 5 6 
#
# 1 0.014813 0.000126 0.001416 0.000000 -0.005283 0.000000
# 2 0.000126 0.007589 -0.001741 0.000000 0.000907 0.000000
# 3 0.001416 -0.001741 0.027062 0.000000 -0.001679 0.000000
# 4 0.000000 0.000000 0.000000 0.026714 0.000000 0.012260
# 5 -0.005283 0.000907 -0.001679 0.000000 0.052546 0.000000
# 6 0.000000 0.000000 0.000000 0.012260 0.000000 -0.051579
#
#
# Mechanical properties :
#
#
# Convention : Reuss Voigt Hill
#
# Bulk Modulus (GPa) = 20.38125 27.44427 23.91276
# Shear Modulus (GPa) = 53.24833 23.19762 38.22297
#
# Velocity S-wave (km/s) = 4.77319 3.15049 4.04406
# Velocity P-wave (km/s) = 6.25286 4.99766 5.66017
#
# Compressibility (1/GPa) = 0.04906470
#
# Stress axis : x y z
#
# Youngs Moduli (GPa) = 67.50912 131.77499 36.95159
#
# Poissons Ratio (x) = -0.01657 -0.05233
# Poissons Ratio (y) = -0.00849 0.06435
# Poissons Ratio (z) = -0.09560 0.22949
#
# Static dielectric constant tensor:
#      x y z
#    x 1.968790 0.000000 0.023950 
#    y 0.000000 1.880190 0.000000 
#    z 0.023950 0.000000 1.903440 
# 
# From -- ./inp_files/6638.got.cif
#   From: 2010.05.17/outbox.cif.g08.bks.cpg/sg11_4_cif.got.tgz:6638.got - 2010.06.03 12:22:45.
