data_PCOD9166176
_publ_section_title
;
Structure prediction by ZEFSAII (Michael W. Deem and Ramdas Pophale) SiO2 
 PCOD9166176
Probable space group: P 21/M
;
_chemical_formula_sum "Si O2"
_cell_formula_units_Z 28
_cell_length_a 21.143353
_cell_length_b 8.791227
_cell_length_c 15.910877
_cell_angle_alpha 90.000000
_cell_angle_beta 151.294360
_cell_angle_gamma 90.000000
_cell_volume 1420.492535
_symmetry_space_group_name_H-M "P 21/M"
_symmetry_group_IT_number 11
_symmetry_cell_setting 'monoclinic'
loop_
_space_group_symop_operation_xyz
x,y,z
-x,1/2+y,-z
-x,-y,-z
x,1/2-y,z
loop_
_atom_site_type_symbol
_atom_site_label
_atom_site_fract_x
_atom_site_fract_y
_atom_site_fract_z
Si Si1 0.923498 0.568004 0.831797
Si Si2 0.641445 0.067828 0.068415
Si Si3 0.817931 0.566184 0.128536
Si Si4 0.919975 0.068163 0.650505
Si Si5 0.343863 0.431824 0.728185
Si Si6 0.637890 0.567225 0.762688
Si Si7 0.356049 0.432544 0.422732
O O1 0.938282 0.750000 0.847095
O O2 0.966233 0.494906 0.794223
O O3 0.769484 0.531300 0.667316
O O4 0.000000 0.500000 0.000000
O O5 0.650038 0.250000 0.086553
O O6 0.746685 0.007923 0.124603
O O7 0.662453 0.992775 0.183811
O O8 0.490634 0.029262 0.866119
O O9 0.809619 0.750000 0.125984
O O10 0.970342 0.525218 0.291029
O O11 0.738283 0.518252 0.951745
O O12 0.914757 0.250000 0.648195
O O13 0.777148 0.002755 0.462872
O O14 0.331799 0.250000 0.713181
O O15 0.637803 0.750000 0.762533
O O16 0.491250 0.507814 0.609225
O O17 0.670856 0.518492 0.705507
O O18 0.373034 0.250000 0.442515
#
# Coordination Sequence:
#
# PCOD9166176 Si02
#       7
#     4   4   4   4   4   4   4
#     4  11  23  39  59  84 119 160 205 253 302 356
#     4  10  22  40  65  93 121 156 199 248 303 361
#     4  10  22  39  59  86 120 159 200 248 301 356
#     4  11  24  41  62  89 124 163 205 250 300 359
#     4  10  22  42  65  92 124 156 198 248 300 362
#     4   9  18  34  55  80 111 148 194 242 292 349
#     4   9  19  35  54  78 111 150 193 246 297 346
#
# _framework density 19.711471
#
# number of rings (size 3 to 8) (size 9 to 14) (size 15 to 20)
#    0.000    2.000    0.000    2.571    2.000    7.429 
#    0.000    2.857    0.000    0.000    0.000    0.000 
#    0.000    0.000    0.000    0.000    0.000    0.000 
#
# Total GULP energy -156439.223272 kJ/mol
# GULP energy per Si atom -5587.115117 kJ/mol
# Density = 1.966661 g / cm^3
# Si number density = 19.711471 Si / 1000 Ang^3
#
#
#
# Elastic Constant Matrix: (Units=GPa)
#
#
# Indices 1 2 3 4 5 6 
#
# 1 111.2208 38.1705 27.1238 0.0000 16.1293 0.0000
# 2 38.1705 41.5737 26.6287 0.0000 7.2066 0.0000
# 3 27.1238 26.6287 70.1677 0.0000 1.5954 0.0000
# 4 0.0000 0.0000 0.0000 32.9842 0.0000 1.1157
# 5 16.1293 7.2066 1.5954 0.0000 17.6858 0.0000
# 6 0.0000 0.0000 0.0000 1.1157 0.0000 30.4644
#
#
#
# Elastic Compliance Matrix: (Units=1/GPa)
#
#
# Indices 1 2 3 4 5 6 
#
# 1 0.014225 -0.010829 -0.001197 0.000000 -0.008453 0.000000
# 2 -0.010829 0.042727 -0.011882 0.000000 -0.006463 0.000000
# 3 -0.001197 -0.011882 0.019128 0.000000 0.004208 0.000000
# 4 0.000000 0.000000 0.000000 0.030355 0.000000 -0.001112
# 5 -0.008453 -0.006463 0.004208 0.000000 0.066505 0.000000
# 6 0.000000 0.000000 0.000000 -0.001112 0.000000 0.032866
#
#
# Mechanical properties :
#
#
# Convention : Reuss Voigt Hill
#
# Bulk Modulus (GPa) = 35.38043 45.20090 40.29066
# Shear Modulus (GPa) = 19.00824 24.96282 21.98553
#
# Velocity S-wave (km/s) = 3.10873 3.56253 3.34333
# Velocity P-wave (km/s) = 5.55641 6.31690 5.94882
#
# Compressibility (1/GPa) = 0.02826422
#
# Stress axis : x y z
#
# Youngs Moduli (GPa) = 70.29732 23.40445 52.27961
#
# Poissons Ratio (x) = 0.25344 0.06259
# Poissons Ratio (y) = 0.76123 0.62119
# Poissons Ratio (z) = 0.08416 0.27809
#
# Static dielectric constant tensor:
#      x y z
#    x 1.687390 0.000000 0.003300 
#    y 0.000000 1.658140 0.000000 
#    z 0.003300 0.000000 1.690620 
# 
# From -- ./inp_files/54597.got.cif
#   From: 2010.05.17/outbox.cif.g08.bks.cpg/sg11_28_cif.got.tgz:54597.got - 2010.06.03 12:22:45.
