data_PCOD9166401
_publ_section_title
;
Structure prediction by ZEFSAII (Michael W. Deem and Ramdas Pophale) SiO2 
 PCOD9166401
Probable space group: P 21/M
;
_chemical_formula_sum "Si O2"
_cell_formula_units_Z 32
_cell_length_a 5.508141
_cell_length_b 17.905325
_cell_length_c 16.384302
_cell_angle_alpha 90.000000
_cell_angle_beta 90.122767
_cell_angle_gamma 90.000000
_cell_volume 1615.898972
_symmetry_space_group_name_H-M "P 21/M"
_symmetry_group_IT_number 11
_symmetry_cell_setting 'monoclinic'
loop_
_space_group_symop_operation_xyz
x,y,z
-x,1/2+y,-z
-x,-y,-z
x,1/2-y,z
loop_
_atom_site_type_symbol
_atom_site_label
_atom_site_fract_x
_atom_site_fract_y
_atom_site_fract_z
Si Si1 0.509080 0.165954 0.199833
Si Si2 0.583423 0.341013 0.014180
Si Si3 0.918234 0.840948 0.072411
Si Si4 0.489161 0.666315 0.524350
Si Si5 0.088235 0.160423 0.737510
Si Si6 0.724443 0.567012 0.662707
Si Si7 0.096875 0.830059 0.662294
Si Si8 0.412899 0.603799 0.344297
O O1 0.401641 0.250000 0.191636
O O2 0.351989 0.111165 0.255482
O O3 0.746470 0.173979 0.255601
O O4 0.564329 0.138253 0.109297
O O5 0.588182 0.250000 0.010909
O O6 0.336520 0.365326 0.968277
O O7 0.836186 0.366390 0.973401
O O8 0.918605 0.750000 0.068956
O O9 0.926356 0.862014 0.167386
O O10 0.590526 0.750000 0.512119
O O11 0.650667 0.614249 0.582427
O O12 0.252217 0.673832 0.580283
O O13 0.435726 0.630673 0.437473
O O14 0.111272 0.250000 0.732931
O O15 0.334937 0.126835 0.699195
O O16 0.833506 0.138235 0.694777
O O17 0.626626 0.484834 0.659613
O O18 0.007629 0.584131 0.662851
O O19 0.950334 0.750000 0.662246
#
# Coordination Sequence:
#
# PCOD9166401 Si02
#       8
#     4   4   4   4   4   4   4   4
#     4   9  19  34  57  91 128 166 211 253 305 370
#     4   9  17  30  56  93 120 152 203 260 306 358
#     4   9  18  34  59  88 120 151 199 265 317 352
#     4  10  22  41  62  91 123 164 212 258 307 363
#     4  11  24  45  67  92 122 162 210 264 318 368
#     4  11  23  38  60  89 132 167 203 252 314 369
#     4   9  19  35  59  86 123 167 205 250 306 371
#     4  12  27  41  68  94 125 164 211 260 306 373
#
# _framework density 19.803217
#
# number of rings (size 3 to 8) (size 9 to 14) (size 15 to 20)
#    0.000    2.000    0.000    4.125    7.000    2.500 
#    0.000    0.000    0.000    4.500    0.000    0.000 
#    0.000    0.000    0.000    0.000    0.000    0.000 
#
# Total GULP energy -178211.131858 kJ/mol
# GULP energy per Si atom -5569.097871 kJ/mol
# Density = 1.975814 g / cm^3
# Si number density = 19.803217 Si / 1000 Ang^3
#
#
#
# Elastic Constant Matrix: (Units=GPa)
#
#
# Indices 1 2 3 4 5 6 
#
# 1 87.2262 -0.5959 51.5085 0.0000 7.0203 0.0000
# 2 -0.5959 54.8578 3.1438 0.0000 -33.5957 0.0000
# 3 51.5085 3.1438 171.0109 0.0000 75.8642 0.0000
# 4 0.0000 0.0000 0.0000 19.7822 0.0000 -1.5735
# 5 7.0203 -33.5957 75.8642 0.0000 419.8307 0.0000
# 6 0.0000 0.0000 0.0000 -1.5735 0.0000 7.8302
#
#
#
# Elastic Compliance Matrix: (Units=1/GPa)
#
#
# Indices 1 2 3 4 5 6 
#
# 1 0.014106 0.000813 -0.004553 0.000000 0.000652 0.000000
# 2 0.000813 0.019416 -0.001397 0.000000 0.001793 0.000000
# 3 -0.004553 -0.001397 0.007893 0.000000 -0.001462 0.000000
# 4 0.000000 0.000000 0.000000 0.051372 0.000000 0.010323
# 5 0.000652 0.001793 -0.001462 0.000000 0.002779 0.000000
# 6 0.000000 0.000000 0.000000 0.010323 0.000000 0.129786
#
#
# Mechanical properties :
#
#
# Convention : Reuss Voigt Hill
#
# Bulk Modulus (GPa) = 32.11139 46.80086 39.45613
# Shear Modulus (GPa) = 20.32481 106.75784 63.54133
#
# Velocity S-wave (km/s) = 3.20713 7.35026 5.67063
# Velocity P-wave (km/s) = 5.47400 9.78363 7.92730
#
# Compressibility (1/GPa) = 0.03114160
#
# Stress axis : x y z
#
# Youngs Moduli (GPa) = 70.89119 51.50489 126.69170
#
# Poissons Ratio (x) = -0.04189 0.57682
# Poissons Ratio (y) = -0.05766 0.17701
# Poissons Ratio (z) = 0.32276 0.07196
#
# Static dielectric constant tensor:
#      x y z
#    x 1.800780 0.000000 0.035240 
#    y 0.000000 1.701500 0.000000 
#    z 0.035240 0.000000 1.700570 
# 
# From -- ./inp_files/46038.got.cif
#   From: 2010.05.17/outbox.cif.g08.bks.cpg/sg11_24_cif.got.tgz:46038.got - 2010.06.03 12:22:45.
