data_PCOD9166760
_publ_section_title
;
Structure prediction by ZEFSAII (Michael W. Deem and Ramdas Pophale) SiO2 
 PCOD9166760
Probable space group: P 21/M
;
_chemical_formula_sum "Si O2"
_cell_formula_units_Z 32
_cell_length_a 12.595669
_cell_length_b 8.434905
_cell_length_c 29.153828
_cell_angle_alpha 90.000000
_cell_angle_beta 29.836756
_cell_angle_gamma 90.000000
_cell_volume 1541.050135
_symmetry_space_group_name_H-M "P 21/M"
_symmetry_group_IT_number 11
_symmetry_cell_setting 'monoclinic'
loop_
_space_group_symop_operation_xyz
x,y,z
-x,1/2+y,-z
-x,-y,-z
x,1/2-y,z
loop_
_atom_site_type_symbol
_atom_site_label
_atom_site_fract_x
_atom_site_fract_y
_atom_site_fract_z
Si Si1 0.103581 0.063350 0.848199
Si Si2 0.538655 0.929968 0.704798
Si Si3 0.808468 0.438962 0.039256
Si Si4 0.356066 0.933962 0.240564
Si Si5 0.166831 0.567928 0.473777
Si Si6 0.818432 0.058349 0.282227
Si Si7 0.649556 0.935668 0.507089
Si Si8 0.013828 0.936942 0.684311
O O1 0.151270 0.250000 0.835544
O O2 0.289027 0.962740 0.803476
O O3 0.110104 0.016269 0.792466
O O4 0.887663 0.033923 0.957379
O O5 0.576854 0.750000 0.675310
O O6 0.657491 0.964599 0.707654
O O7 0.615286 0.047604 0.636465
O O8 0.780802 0.250000 0.056752
O O9 0.586727 0.524646 0.132988
O O10 0.000000 0.500000 0.000000
O O11 0.348059 0.750000 0.256534
O O12 0.168610 0.973937 0.275470
O O13 0.125368 0.750000 0.500792
O O14 0.189704 0.465288 0.510706
O O15 0.000000 0.500000 0.500000
O O16 0.811157 0.250000 0.279202
O O17 0.580507 0.009351 0.388036
O O18 0.970776 0.019916 0.267983
O O19 0.635682 0.750000 0.501383
O O20 0.756401 0.026537 0.424874
O O21 0.973466 0.750000 0.695746
#
# Coordination Sequence:
#
# PCOD9166760 Si02
#       8
#     4   4   4   4   4   4   4   4
#     4  11  23  39  64  96 127 159 204 253 308 372
#     4  12  23  38  61  88 124 164 203 253 313 373
#     4  11  23  40  65  97 130 165 205 256 311 380
#     4  12  25  42  64  93 127 166 211 261 318 379
#     4  12  24  38  56  84 123 166 208 255 310 373
#     4  10  23  42  66  92 126 168 214 261 312 370
#     4  11  22  39  62  92 125 164 211 261 312 372
#     4  11  24  43  64  91 125 168 215 263 315 371
#
# _framework density 20.765059999999998
#
# number of rings (size 3 to 8) (size 9 to 14) (size 15 to 20)
#    0.000    0.750    2.500    6.000    0.000    3.000 
#    0.000    0.625    0.000    0.000    0.000    0.000 
#    0.000    0.000    0.000    0.000    0.000    0.000 
#
# Total GULP energy -179037.071046 kJ/mol
# GULP energy per Si atom -5594.908470 kJ/mol
# Density = 2.071780 g / cm^3
# Si number density = 20.765060 Si / 1000 Ang^3
#
#
#
# Elastic Constant Matrix: (Units=GPa)
#
#
# Indices 1 2 3 4 5 6 
#
# 1 101.6112 8.7079 18.6085 0.0000 12.2085 0.0000
# 2 8.7079 56.3603 5.2283 0.0000 0.5025 0.0000
# 3 18.6085 5.2283 70.4006 0.0000 9.7554 0.0000
# 4 0.0000 0.0000 0.0000 34.1490 0.0000 1.4026
# 5 12.2085 0.5025 9.7554 0.0000 27.8953 0.0000
# 6 0.0000 0.0000 0.0000 1.4026 0.0000 25.5099
#
#
#
# Elastic Compliance Matrix: (Units=1/GPa)
#
#
# Indices 1 2 3 4 5 6 
#
# 1 0.010844 -0.001435 -0.002213 0.000000 -0.003946 0.000000
# 2 -0.001435 0.018057 -0.001055 0.000000 0.000672 0.000000
# 3 -0.002213 -0.001055 0.015481 0.000000 -0.004426 0.000000
# 4 0.000000 0.000000 0.000000 0.029350 0.000000 -0.001614
# 5 -0.003946 0.000672 -0.004426 0.000000 0.039111 0.000000
# 6 0.000000 0.000000 0.000000 -0.001614 0.000000 0.039289
#
#
# Mechanical properties :
#
#
# Convention : Reuss Voigt Hill
#
# Bulk Modulus (GPa) = 28.59086 32.60684 30.59885
# Shear Modulus (GPa) = 28.86912 30.56600 29.71756
#
# Velocity S-wave (km/s) = 3.73268 3.84082 3.78714
# Velocity P-wave (km/s) = 5.68998 5.95029 5.82159
#
# Compressibility (1/GPa) = 0.03497622
#
# Stress axis : x y z
#
# Youngs Moduli (GPa) = 92.21878 55.38156 64.59514
#
# Poissons Ratio (x) = 0.07947 0.14294
# Poissons Ratio (y) = 0.13233 0.06813
# Poissons Ratio (z) = 0.20407 0.05841
#
# Static dielectric constant tensor:
#      x y z
#    x 1.748110 0.000000 -0.007800 
#    y 0.000000 1.705390 0.000000 
#    z -0.007800 0.000000 1.793130 
# 
# From -- ./inp_files/73034.got.cif
#   From: 2010.05.17/outbox.cif.g08.bks.cpg/sg11_37_cif.got.tgz:73034.got - 2010.06.03 12:22:45.
