data_PCOD9166314
_publ_section_title
;
Structure prediction by ZEFSAII (Michael W. Deem and Ramdas Pophale) SiO2 
 PCOD9166314
Probable space group: P 21/M
;
_chemical_formula_sum "Si O2"
_cell_formula_units_Z 20
_cell_length_a 7.254429
_cell_length_b 22.681827
_cell_length_c 4.942690
_cell_angle_alpha 90.000000
_cell_angle_beta 70.625099
_cell_angle_gamma 90.000000
_cell_volume 767.230423
_symmetry_space_group_name_H-M "P 21/M"
_symmetry_group_IT_number 11
_symmetry_cell_setting 'monoclinic'
loop_
_space_group_symop_operation_xyz
x,y,z
-x,1/2+y,-z
-x,-y,-z
x,1/2-y,z
loop_
_atom_site_type_symbol
_atom_site_label
_atom_site_fract_x
_atom_site_fract_y
_atom_site_fract_z
Si Si1 0.759038 0.521894 0.443383
Si Si2 0.305264 0.681156 0.055475
Si Si3 0.887629 0.682763 0.541269
Si Si4 0.502683 0.873538 0.467929
Si Si5 0.960063 0.572001 0.844586
O O1 0.802985 0.535794 0.734864
O O2 0.564650 0.557717 0.458500
O O3 0.833910 0.456058 0.347007
O O4 0.083924 0.442651 0.824535
O O5 0.361629 0.750000 0.015284
O O6 0.340283 0.650304 0.753582
O O7 0.083599 0.679089 0.266681
O O8 0.439638 0.646124 0.202316
O O9 0.865139 0.750000 0.643780
O O10 0.696327 0.661754 0.473417
O O11 0.920727 0.637969 0.771610
#
# Coordination Sequence:
#
# PCOD9166314 Si02
#       5
#     4   4   4   4   4
#     4   9  18  34  59  85 114 152 193 240 293 344
#     4  11  24  39  58  89 123 154 198 249 292 348
#     4  10  22  40  63  89 120 159 198 241 297 353
#     4  11  22  40  62  87 119 158 199 242 296 352
#     4   9  18  35  58  86 116 150 193 241 291 345
#
# _framework density 26.067786999999999
#
# number of rings (size 3 to 8) (size 9 to 14) (size 15 to 20)
#    0.000    2.000    0.000    4.200    0.000    4.800 
#    0.000   13.000    0.000    0.000    0.000    0.000 
#    0.000    0.000    0.000    0.000    0.000    0.000 
#
# Total GULP energy -112080.901958 kJ/mol
# GULP energy per Si atom -5604.045098 kJ/mol
# Density = 2.600846 g / cm^3
# Si number density = 26.067787 Si / 1000 Ang^3
#
#
#
# Elastic Constant Matrix: (Units=GPa)
#
#
# Indices 1 2 3 4 5 6 
#
# 1 77.8028 -16.1781 -6.1710 0.0000 10.5709 0.0000
# 2 -16.1781 124.9074 -0.9939 0.0000 -7.2162 0.0000
# 3 -6.1710 -0.9939 60.9495 0.0000 -10.1566 0.0000
# 4 0.0000 0.0000 0.0000 34.0937 0.0000 -0.1915
# 5 10.5709 -7.2162 -10.1566 0.0000 26.2338 0.0000
# 6 0.0000 0.0000 0.0000 -0.1915 0.0000 36.5433
#
#
#
# Elastic Compliance Matrix: (Units=1/GPa)
#
#
# Indices 1 2 3 4 5 6 
#
# 1 0.013889 0.001518 0.000607 0.000000 -0.004944 0.000000
# 2 0.001518 0.008318 0.000608 0.000000 0.001912 0.000000
# 3 0.000607 0.000608 0.017601 0.000000 0.006737 0.000000
# 4 0.000000 0.000000 0.000000 0.029332 0.000000 0.000154
# 5 -0.004944 0.001912 0.006737 0.000000 0.043245 0.000000
# 6 0.000000 0.000000 0.000000 0.000154 0.000000 0.027366
#
#
# Mechanical properties :
#
#
# Convention : Reuss Voigt Hill
#
# Bulk Modulus (GPa) = 22.08794 24.10819 23.09807
# Shear Modulus (GPa) = 33.47283 38.50767 35.99025
#
# Velocity S-wave (km/s) = 3.58728 3.84762 3.71973
# Velocity P-wave (km/s) = 5.06456 5.38584 5.22767
#
# Compressibility (1/GPa) = 0.04527357
#
# Stress axis : x y z
#
# Youngs Moduli (GPa) = 72.00191 120.22365 56.81477
#
# Poissons Ratio (x) = -0.18251 -0.03449
# Poissons Ratio (y) = -0.10930 -0.03454
# Poissons Ratio (z) = -0.04371 -0.07308
#
# Static dielectric constant tensor:
#      x y z
#    x 2.111730 0.000000 -0.014090 
#    y 0.000000 2.074310 0.000000 
#    z -0.014090 0.000000 1.916040 
# 
# From -- ./inp_files/2603.got.cif
#   From: 2010.05.17/outbox.cif.g08.bks.cpg/sg11_2_cif.got.tgz:2603.got - 2010.06.03 12:22:45.
