data_PCOD9166658
_publ_section_title
;
Structure prediction by ZEFSAII (Michael W. Deem and Ramdas Pophale) SiO2 
 PCOD9166658
Probable space group: P 21/M
;
_chemical_formula_sum "Si O2"
_cell_formula_units_Z 18
_cell_length_a 5.755794
_cell_length_b 22.712877
_cell_length_c 6.948325
_cell_angle_alpha 90.000000
_cell_angle_beta 136.706273
_cell_angle_gamma 90.000000
_cell_volume 622.896879
_symmetry_space_group_name_H-M "P 21/M"
_symmetry_group_IT_number 11
_symmetry_cell_setting 'monoclinic'
loop_
_space_group_symop_operation_xyz
x,y,z
-x,1/2+y,-z
-x,-y,-z
x,1/2-y,z
loop_
_atom_site_type_symbol
_atom_site_label
_atom_site_fract_x
_atom_site_fract_y
_atom_site_fract_z
Si Si1 0.828172 0.750000 0.720375
Si Si2 0.345533 0.147224 0.130388
Si Si3 0.552498 0.812491 0.201042
Si Si4 0.306320 0.927507 0.205682
Si Si5 0.659803 0.035633 0.330551
O O1 0.161095 0.701342 0.923411
O O2 0.582198 0.803584 0.669206
O O3 0.248320 0.182629 0.877418
O O4 0.626613 0.100710 0.221711
O O5 0.059768 0.101466 0.022544
O O6 0.681550 0.750000 0.394084
O O7 0.564504 0.874676 0.311074
O O8 0.372692 0.985804 0.120991
O O9 0.349294 0.946502 0.450817
O O10 0.000000 0.000000 0.500000
#
# Coordination Sequence:
#
# PCOD9166658 Si02
#       5
#     2   4   4   4   4
#     4  10  22  48  74 108 152 192 242 312 368 444
#     4  12  24  48  79 108 146 199 243 310 376 435
#     4  10  23  44  69 111 146 193 244 294 372 450
#     4  11  25  44  73 112 150 188 256 307 364 446
#     4  11  25  48  75 108 151 200 246 311 372 442
#
# _framework density 28.89724
#
# number of rings (size 3 to 8) (size 9 to 14) (size 15 to 20)
#    0.667    0.444    3.333    2.000    1.556    7.111 
#    4.000    2.222    0.000    0.000    0.000    0.000 
#    0.000    0.000    0.000    0.000    0.000    0.000 
#
# Total GULP energy -100470.826464 kJ/mol
# GULP energy per Si atom -5581.712581 kJ/mol
# Density = 2.883147 g / cm^3
# Si number density = 28.897240 Si / 1000 Ang^3
#
#
#
# Elastic Constant Matrix: (Units=GPa)
#
#
# Indices 1 2 3 4 5 6 
#
# 1 94.7865 84.7479 46.4141 0.0000 3.1249 0.0000
# 2 84.7479 314.1441 72.7300 0.0000 -9.9219 0.0000
# 3 46.4141 72.7300 127.0881 0.0000 -0.2188 0.0000
# 4 0.0000 0.0000 0.0000 66.9411 0.0000 -2.5018
# 5 3.1249 -9.9219 -0.2188 0.0000 53.1767 0.0000
# 6 0.0000 0.0000 0.0000 -2.5018 0.0000 67.1749
#
#
#
# Elastic Compliance Matrix: (Units=1/GPa)
#
#
# Indices 1 2 3 4 5 6 
#
# 1 0.015413 -0.003346 -0.003717 0.000000 -0.001545 0.000000
# 2 -0.003346 0.004420 -0.001306 0.000000 0.001016 0.000000
# 3 -0.003717 -0.001306 0.009973 0.000000 0.000016 0.000000
# 4 0.000000 0.000000 0.000000 0.014959 0.000000 0.000557
# 5 -0.001545 0.001016 0.000016 0.000000 0.019086 0.000000
# 6 0.000000 0.000000 0.000000 0.000557 0.000000 0.014907
#
#
# Mechanical properties :
#
#
# Convention : Reuss Voigt Hill
#
# Bulk Modulus (GPa) = 76.51716 104.86697 90.69206
# Shear Modulus (GPa) = 50.07386 59.60031 54.83709
#
# Velocity S-wave (km/s) = 4.16724 4.54639 4.36094
# Velocity P-wave (km/s) = 7.04919 7.99550 7.53721
#
# Compressibility (1/GPa) = 0.01306896
#
# Stress axis : x y z
#
# Youngs Moduli (GPa) = 64.88124 226.22265 100.26846
#
# Poissons Ratio (x) = 0.75701 0.37265
# Poissons Ratio (y) = 0.21711 0.13094
# Poissons Ratio (z) = 0.24113 0.29541
#
# Static dielectric constant tensor:
#      x y z
#    x 2.356960 0.000000 -0.035910 
#    y 0.000000 2.147470 0.000000 
#    z -0.035910 0.000000 2.400530 
# 
# From -- ./inp_files/10321.got.cif
#   From: 2010.05.17/outbox.cif.g08.bks.cpg/sg11_6_cif.got.tgz:10321.got - 2010.06.03 12:22:45.
