data_PCOD9166678
_publ_section_title
;
Structure prediction by ZEFSAII (Michael W. Deem and Ramdas Pophale) SiO2 
 PCOD9166678
Probable space group: P 21/M
;
_chemical_formula_sum "Si O2"
_cell_formula_units_Z 30
_cell_length_a 16.167592
_cell_length_b 9.404332
_cell_length_c 26.433788
_cell_angle_alpha 90.000000
_cell_angle_beta 159.075055
_cell_angle_gamma 90.000000
_cell_volume 1435.413070
_symmetry_space_group_name_H-M "P 21/M"
_symmetry_group_IT_number 11
_symmetry_cell_setting 'monoclinic'
loop_
_space_group_symop_operation_xyz
x,y,z
-x,1/2+y,-z
-x,-y,-z
x,1/2-y,z
loop_
_atom_site_type_symbol
_atom_site_label
_atom_site_fract_x
_atom_site_fract_y
_atom_site_fract_z
Si Si1 0.386923 0.083932 0.128274
Si Si2 0.218454 0.461595 0.866594
Si Si3 0.246368 0.579218 0.143846
Si Si4 0.069736 0.913520 0.200852
Si Si5 0.059578 0.592464 0.389632
Si Si6 0.426249 0.082543 0.344445
Si Si7 0.404319 0.750000 0.936943
Si Si8 0.907322 0.082739 0.397831
O O1 0.377754 0.250000 0.140356
O O2 0.628447 0.065977 0.237062
O O3 0.384674 0.977028 0.174130
O O4 0.156777 0.058270 0.963717
O O5 0.448105 0.372978 0.009723
O O6 0.021778 0.428648 0.794745
O O7 0.140228 0.409937 0.766293
O O8 0.271474 0.625773 0.892740
O O9 0.225882 0.750000 0.133473
O O10 0.359440 0.514783 0.258512
O O11 0.000000 0.500000 0.000000
O O12 0.141534 0.750000 0.232540
O O13 0.274824 0.019803 0.303391
O O14 0.071942 0.750000 0.420330
O O15 0.297348 0.569300 0.495022
O O16 0.016412 0.480360 0.409086
O O17 0.371851 0.250000 0.305189
O O18 0.959249 0.250000 0.431777
O O19 0.000000 0.000000 0.500000
#
# Coordination Sequence:
#
# PCOD9166678 Si02
#       8
#     4   4   4   4   4   4   2   4
#     4  10  23  39  63  94 129 166 211 272 329 383
#     4  11  24  44  68 102 131 177 216 272 328 390
#     4  12  23  40  64  93 126 170 219 267 326 385
#     4  11  23  41  65  97 130 168 217 272 325 379
#     4  11  25  45  68  95 134 179 217 265 333 390
#     4  11  25  43  65  93 132 174 219 271 323 391
#     4  10  24  42  72  96 138 170 220 272 326 388
#     4  11  25  43  66  97 133 170 217 269 326 394
#
# _framework density 20.899909000000001
#
# number of rings (size 3 to 8) (size 9 to 14) (size 15 to 20)
#    0.000    1.067    2.667    2.800    5.600    5.867 
#    0.000    0.000    0.000    0.000    0.000    0.000 
#    0.000    0.000    0.000    0.000    0.000    0.000 
#
# Total GULP energy -167196.929698 kJ/mol
# GULP energy per Si atom -5573.230990 kJ/mol
# Density = 2.085234 g / cm^3
# Si number density = 20.899909 Si / 1000 Ang^3
#
#
#
# Elastic Constant Matrix: (Units=GPa)
#
#
# Indices 1 2 3 4 5 6 
#
# 1 101.1111 44.8808 15.4514 0.0000 9.1392 0.0000
# 2 44.8808 165.7869 30.3547 0.0000 21.9557 0.0000
# 3 15.4514 30.3547 42.2953 0.0000 19.3271 0.0000
# 4 0.0000 0.0000 0.0000 25.1234 0.0000 15.8549
# 5 9.1392 21.9557 19.3271 0.0000 29.4195 0.0000
# 6 0.0000 0.0000 0.0000 15.8549 0.0000 25.5134
#
#
#
# Elastic Compliance Matrix: (Units=1/GPa)
#
#
# Indices 1 2 3 4 5 6 
#
# 1 0.011424 -0.002675 -0.002207 0.000000 -0.000103 0.000000
# 2 -0.002675 0.007727 -0.003305 0.000000 -0.002764 0.000000
# 3 -0.002207 -0.003305 0.036269 0.000000 -0.020675 0.000000
# 4 0.000000 0.000000 0.000000 0.065485 0.000000 -0.040695
# 5 -0.000103 -0.002764 -0.020675 0.000000 0.049668 0.000000
# 6 0.000000 0.000000 0.000000 -0.040695 0.000000 0.064484
#
#
# Mechanical properties :
#
#
# Convention : Reuss Voigt Hill
#
# Bulk Modulus (GPa) = 25.61053 54.50745 40.05899
# Shear Modulus (GPa) = 18.90735 30.57836 24.74285
#
# Velocity S-wave (km/s) = 3.01102 3.82918 3.44448
# Velocity P-wave (km/s) = 4.93648 6.75922 5.91844
#
# Compressibility (1/GPa) = 0.03904644
#
# Stress axis : x y z
#
# Youngs Moduli (GPa) = 87.53513 129.41165 27.57181
#
# Poissons Ratio (x) = 0.34617 0.06084
# Poissons Ratio (y) = 0.23415 0.09113
# Poissons Ratio (z) = 0.19316 0.42774
#
# Static dielectric constant tensor:
#      x y z
#    x 1.749960 0.000000 0.007920 
#    y 0.000000 1.727300 0.000000 
#    z 0.007920 0.000000 1.833430 
# 
# From -- ./inp_files/73527.got.cif
#   From: 2010.05.17/outbox.cif.g08.bks.cpg/sg11_37_cif.got.tgz:73527.got - 2010.06.03 12:22:45.
