data_PCOD9166507
_publ_section_title
;
Structure prediction by ZEFSAII (Michael W. Deem and Ramdas Pophale) SiO2 
 PCOD9166507
Probable space group: P 21/M
;
_chemical_formula_sum "Si O2"
_cell_formula_units_Z 24
_cell_length_a 14.830060
_cell_length_b 8.968942
_cell_length_c 14.842056
_cell_angle_alpha 90.000000
_cell_angle_beta 38.328036
_cell_angle_gamma 90.000000
_cell_volume 1224.289195
_symmetry_space_group_name_H-M "P 21/M"
_symmetry_group_IT_number 11
_symmetry_cell_setting 'monoclinic'
loop_
_space_group_symop_operation_xyz
x,y,z
-x,1/2+y,-z
-x,-y,-z
x,1/2-y,z
loop_
_atom_site_type_symbol
_atom_site_label
_atom_site_fract_x
_atom_site_fract_y
_atom_site_fract_z
Si Si1 0.912616 0.425618 0.487825
Si Si2 0.630741 0.070095 0.454671
Si Si3 0.590036 0.073051 0.010310
Si Si4 0.914412 0.428269 0.802349
Si Si5 0.586033 0.425382 0.699170
Si Si6 0.954305 0.070592 0.130436
O O1 0.946111 0.250000 0.455581
O O2 0.739612 0.440158 0.630550
O O3 0.000000 0.500000 0.500000
O O4 0.961543 0.507719 0.359148
O O5 0.622980 0.250000 0.456076
O O6 0.610644 0.029497 0.575933
O O7 0.789752 0.027977 0.290775
O O8 0.500000 0.000000 0.500000
O O9 0.575814 0.250000 0.013625
O O10 0.528633 0.018886 0.154456
O O11 0.760635 0.035215 0.876380
O O12 0.500000 0.000000 0.000000
O O13 0.924276 0.250000 0.804189
O O14 0.935966 0.507421 0.880666
O O15 0.546160 0.250000 0.731209
O O16 0.960955 0.250000 0.121614
O O17 0.000000 0.000000 0.000000
#
# Coordination Sequence:
#
# PCOD9166507 Si02
#       6
#     4   4   4   4   4   4
#     4  11  22  39  63  92 124 161 205 256 310 370
#     4  10  23  43  65  93 126 162 205 255 310 371
#     4  11  25  42  62  92 127 166 211 259 308 368
#     4  11  24  42  63  92 127 164 209 259 310 371
#     4  10  22  42  63  88 125 164 204 254 309 368
#     4  11  24  44  67  95 128 164 207 258 313 375
#
# _framework density 19.603211999999999
#
# number of rings (size 3 to 8) (size 9 to 14) (size 15 to 20)
#    0.000    1.333    1.667    3.000    2.333   10.000 
#    0.000    0.000    0.000    0.000    0.000    0.000 
#    0.000    0.000    0.000    0.000    0.000    0.000 
#
# Total GULP energy -134160.457728 kJ/mol
# GULP energy per Si atom -5590.019072 kJ/mol
# Density = 1.955859 g / cm^3
# Si number density = 19.603212 Si / 1000 Ang^3
#
#
#
# Elastic Constant Matrix: (Units=GPa)
#
#
# Indices 1 2 3 4 5 6 
#
# 1 89.1174 23.3272 0.7646 0.0000 0.6755 0.0000
# 2 23.3272 41.1067 17.6893 0.0000 -13.6854 0.0000
# 3 0.7646 17.6893 64.3974 0.0000 -0.7831 0.0000
# 4 0.0000 0.0000 0.0000 36.6950 0.0000 3.1864
# 5 0.6755 -13.6854 -0.7831 0.0000 34.1995 0.0000
# 6 0.0000 0.0000 0.0000 3.1864 0.0000 39.2558
#
#
#
# Elastic Compliance Matrix: (Units=1/GPa)
#
#
# Indices 1 2 3 4 5 6 
#
# 1 0.014002 -0.010584 0.002687 0.000000 -0.004450 0.000000
# 2 -0.010584 0.040320 -0.010754 0.000000 0.016097 0.000000
# 3 0.002687 -0.010754 0.018403 0.000000 -0.003935 0.000000
# 4 0.000000 0.000000 0.000000 0.027445 0.000000 -0.002228
# 5 -0.004450 0.016097 -0.003935 0.000000 0.035680 0.000000
# 6 0.000000 0.000000 0.000000 -0.002228 0.000000 0.025655
#
#
# Mechanical properties :
#
#
# Convention : Reuss Voigt Hill
#
# Bulk Modulus (GPa) = 28.23018 30.90930 29.56974
# Shear Modulus (GPa) = 23.74010 32.21943 27.97977
#
# Velocity S-wave (km/s) = 3.48376 4.05851 3.78207
# Velocity P-wave (km/s) = 5.53301 6.14521 5.84713
#
# Compressibility (1/GPa) = 0.03542308
#
# Stress axis : x y z
#
# Youngs Moduli (GPa) = 71.41725 24.80162 54.33941
#
# Poissons Ratio (x) = 0.26250 -0.14600
# Poissons Ratio (y) = 0.75587 0.58437
# Poissons Ratio (z) = -0.19189 0.26672
#
# Static dielectric constant tensor:
#      x y z
#    x 1.686060 0.000000 0.001590 
#    y 0.000000 1.650730 0.000000 
#    z 0.001590 0.000000 1.678650 
# 
# From -- ./inp_files/51520.got.cif
#   From: 2010.05.17/outbox.cif.g08.bks.cpg/sg11_26_cif.got.tgz:51520.got - 2010.06.03 12:22:45.
