data_PCOD9166212
_publ_section_title
;
Structure prediction by ZEFSAII (Michael W. Deem and Ramdas Pophale) SiO2 
 PCOD9166212
Probable space group: P 21/M
;
_chemical_formula_sum "Si O2"
_cell_formula_units_Z 28
_cell_length_a 11.122645
_cell_length_b 8.136866
_cell_length_c 16.427966
_cell_angle_alpha 90.000000
_cell_angle_beta 56.490101
_cell_angle_gamma 90.000000
_cell_volume 1239.669604
_symmetry_space_group_name_H-M "P 21/M"
_symmetry_group_IT_number 11
_symmetry_cell_setting 'monoclinic'
loop_
_space_group_symop_operation_xyz
x,y,z
-x,1/2+y,-z
-x,-y,-z
x,1/2-y,z
loop_
_atom_site_type_symbol
_atom_site_label
_atom_site_fract_x
_atom_site_fract_y
_atom_site_fract_z
Si Si1 0.283705 0.930649 0.725138
Si Si2 0.722836 0.556449 0.964090
Si Si3 0.046277 0.449369 0.573790
Si Si4 0.468555 0.446776 0.805782
Si Si5 0.242662 0.948618 0.226296
Si Si6 0.018642 0.064870 0.903122
Si Si7 0.339779 0.432396 0.541593
O O1 0.311783 0.750000 0.680047
O O2 0.392746 0.968901 0.757636
O O3 0.125918 0.941335 0.820705
O O4 0.281775 0.063346 0.655039
O O5 0.755525 0.750000 0.962967
O O6 0.692457 0.526326 0.880518
O O7 0.862858 0.445077 0.922716
O O8 0.612089 0.513782 0.078288
O O9 0.050155 0.250000 0.576598
O O10 0.207506 0.510443 0.538908
O O11 0.000000 0.500000 0.500000
O O12 0.917208 0.501107 0.684550
O O13 0.455509 0.250000 0.799923
O O14 0.637067 0.487904 0.750585
O O15 0.241801 0.750000 0.216612
O O16 0.077118 0.250000 0.880549
O O17 0.000000 0.000000 0.000000
O O18 0.500000 0.500000 0.500000
O O19 0.358635 0.250000 0.501306
#
# Coordination Sequence:
#
# PCOD9166212 Si02
#       7
#     4   4   4   4   4   4   4
#     4  12  25  41  65  97 132 174 222 274 337 400
#     4  11  22  37  60  92 129 171 217 267 327 392
#     4  10  24  45  70  99 130 170 219 276 339 400
#     4  10  22  39  61  92 132 176 219 269 328 395
#     4  10  22  41  64  91 127 173 219 269 333 396
#     4  12  23  38  60  88 124 169 216 268 323 388
#     4  11  25  46  71 102 138 176 222 281 340 404
#
# _framework density 22.586663999999999
#
# number of rings (size 3 to 8) (size 9 to 14) (size 15 to 20)
#    0.000    1.143    1.429    4.714    2.000    4.000 
#    0.000    0.000    0.000    0.000    0.000    0.000 
#    0.000    0.000    0.000    0.000    0.000    0.000 
#
# Total GULP energy -156280.839726 kJ/mol
# GULP energy per Si atom -5581.458562 kJ/mol
# Density = 2.253526 g / cm^3
# Si number density = 22.586664 Si / 1000 Ang^3
#
#
#
# Elastic Constant Matrix: (Units=GPa)
#
#
# Indices 1 2 3 4 5 6 
#
# 1 156.7662 17.9899 18.4865 0.0000 -5.0593 0.0000
# 2 17.9899 49.0675 -8.5015 0.0000 0.5459 0.0000
# 3 18.4865 -8.5015 46.5138 0.0000 9.8154 0.0000
# 4 0.0000 0.0000 0.0000 25.1142 0.0000 3.0510
# 5 -5.0593 0.5459 9.8154 0.0000 29.9593 0.0000
# 6 0.0000 0.0000 0.0000 3.0510 0.0000 13.7280
#
#
#
# Elastic Compliance Matrix: (Units=1/GPa)
#
#
# Indices 1 2 3 4 5 6 
#
# 1 0.007342 -0.003432 -0.004104 0.000000 0.002647 0.000000
# 2 -0.003432 0.022739 0.006156 0.000000 -0.003011 0.000000
# 3 -0.004104 0.006156 0.026239 0.000000 -0.009402 0.000000
# 4 0.000000 0.000000 0.000000 0.040923 0.000000 -0.009095
# 5 0.002647 -0.003011 -0.009402 0.000000 0.036961 0.000000
# 6 0.000000 0.000000 0.000000 -0.009095 0.000000 0.074865
#
#
# Mechanical properties :
#
#
# Convention : Reuss Voigt Hill
#
# Bulk Modulus (GPa) = 18.67135 34.25526 26.46330
# Shear Modulus (GPa) = 21.76908 28.71847 25.24378
#
# Velocity S-wave (km/s) = 3.10788 3.56965 3.34674
# Velocity P-wave (km/s) = 4.60033 5.67353 5.16488
#
# Compressibility (1/GPa) = 0.05355800
#
# Stress axis : x y z
#
# Youngs Moduli (GPa) = 136.19882 43.97819 38.11097
#
# Poissons Ratio (x) = 0.15095 0.15641
# Poissons Ratio (y) = 0.46749 -0.23459
# Poissons Ratio (z) = 0.55896 -0.27071
#
# Static dielectric constant tensor:
#      x y z
#    x 1.888960 0.000000 0.072610 
#    y 0.000000 1.912280 0.000000 
#    z 0.072610 0.000000 1.954850 
# 
# From -- ./inp_files/49113.got.cif
#   From: 2010.05.17/outbox.cif.g08.bks.cpg/sg11_25_cif.got.tgz:49113.got - 2010.06.03 12:22:45.
