data_PCOD9166288
_publ_section_title
;
Structure prediction by ZEFSAII (Michael W. Deem and Ramdas Pophale) SiO2 
 PCOD9166288
Probable space group: P 21/M
;
_chemical_formula_sum "Si O2"
_cell_formula_units_Z 32
_cell_length_a 27.424230
_cell_length_b 7.822645
_cell_length_c 11.808511
_cell_angle_alpha 90.000000
_cell_angle_beta 34.672192
_cell_angle_gamma 90.000000
_cell_volume 1441.133460
_symmetry_space_group_name_H-M "P 21/M"
_symmetry_group_IT_number 11
_symmetry_cell_setting 'monoclinic'
loop_
_space_group_symop_operation_xyz
x,y,z
-x,1/2+y,-z
-x,-y,-z
x,1/2-y,z
loop_
_atom_site_type_symbol
_atom_site_label
_atom_site_fract_x
_atom_site_fract_y
_atom_site_fract_z
Si Si1 0.736247 0.947526 0.530234
Si Si2 0.421595 0.446159 0.569759
Si Si3 0.085523 0.043369 0.906388
Si Si4 0.123624 0.954877 0.328721
Si Si5 0.051365 0.043465 0.226898
Si Si6 0.410712 0.553883 0.340806
Si Si7 0.311696 0.955396 0.978733
Si Si8 0.598214 0.954677 0.967867
O O1 0.751967 0.750000 0.531927
O O2 0.828263 0.022473 0.320415
O O3 0.676466 0.024956 0.743193
O O4 0.671764 0.955646 0.546921
O O5 0.500000 0.500000 0.500000
O O6 0.433056 0.250000 0.514909
O O7 0.414648 0.551055 0.468673
O O8 0.339126 0.470278 0.806078
O O9 0.092399 0.250000 0.898140
O O10 0.078216 0.982315 0.050960
O O11 0.000000 0.000000 0.000000
O O12 0.122573 0.750000 0.341647
O O13 0.043195 0.020681 0.554816
O O14 0.109983 0.995495 0.222140
O O15 0.216266 0.015555 0.191555
O O16 0.048896 0.250000 0.227109
O O17 0.402927 0.750000 0.317217
O O18 0.502573 0.479296 0.125792
O O19 0.313417 0.750000 0.967911
O O20 0.377751 0.011430 0.948563
O O21 0.593889 0.750000 0.958631
#
# Coordination Sequence:
#
# PCOD9166288 Si02
#       8
#     4   4   4   4   4   4   4   4
#     4  10  23  42  62  90 122 160 208 254 302 361
#     4  12  24  40  61  87 122 161 198 242 297 356
#     4  10  23  41  62  88 120 157 201 249 302 359
#     4   9  20  37  58  87 118 151 197 247 294 355
#     4   9  19  38  60  84 117 155 196 243 300 359
#     4  11  23  40  63  91 121 160 204 251 304 362
#     4  11  23  37  59  90 122 158 202 249 300 359
#     4  10  22  40  61  86 123 163 206 252 300 359
#
# _framework density 22.204743000000001
#
# number of rings (size 3 to 8) (size 9 to 14) (size 15 to 20)
#    0.000    1.750    1.250    2.250    3.500    3.000 
#    0.000    0.000    0.000    0.000    0.000    0.000 
#    0.000    0.000    0.000    0.000    0.000    0.000 
#
# Total GULP energy -178784.832491 kJ/mol
# GULP energy per Si atom -5587.026015 kJ/mol
# Density = 2.215420 g / cm^3
# Si number density = 22.204743 Si / 1000 Ang^3
#
#
#
# Elastic Constant Matrix: (Units=GPa)
#
#
# Indices 1 2 3 4 5 6 
#
# 1 60.8440 -13.3251 41.2751 0.0000 -5.6051 0.0000
# 2 -13.3251 41.6267 0.8362 0.0000 -2.5119 0.0000
# 3 41.2751 0.8362 124.5729 0.0000 -8.0343 0.0000
# 4 0.0000 0.0000 0.0000 9.7795 0.0000 0.8051
# 5 -5.6051 -2.5119 -8.0343 0.0000 46.1805 0.0000
# 6 0.0000 0.0000 0.0000 0.8051 0.0000 26.1846
#
#
#
# Elastic Compliance Matrix: (Units=1/GPa)
#
#
# Indices 1 2 3 4 5 6 
#
# 1 0.023577 0.007820 -0.007739 0.000000 0.001941 0.000000
# 2 0.007820 0.026697 -0.002645 0.000000 0.001941 0.000000
# 3 -0.007739 -0.002645 0.010659 0.000000 0.000771 0.000000
# 4 0.000000 0.000000 0.000000 0.102515 0.000000 -0.003152
# 5 0.001941 0.001941 0.000771 0.000000 0.022129 0.000000
# 6 0.000000 0.000000 0.000000 -0.003152 0.000000 0.038287
#
#
# Mechanical properties :
#
#
# Convention : Reuss Voigt Hill
#
# Bulk Modulus (GPa) = 17.91990 31.62399 24.77195
# Shear Modulus (GPa) = 20.19437 29.64607 24.92022
#
# Velocity S-wave (km/s) = 3.01900 3.65790 3.35370
# Velocity P-wave (km/s) = 4.49892 5.66685 5.11632
#
# Compressibility (1/GPa) = 0.05580388
#
# Stress axis : x y z
#
# Youngs Moduli (GPa) = 42.41446 37.45806 93.81605
#
# Poissons Ratio (x) = -0.29291 0.72606
# Poissons Ratio (y) = -0.33167 0.24814
# Poissons Ratio (z) = 0.32825 0.09908
#
# Static dielectric constant tensor:
#      x y z
#    x 1.802400 0.000000 0.014390 
#    y 0.000000 1.807860 0.000000 
#    z 0.014390 0.000000 1.875690 
# 
# From -- ./inp_files/45184.got.cif
#   From: 2010.05.17/outbox.cif.g08.bks.cpg/sg11_23_cif.got.tgz:45184.got - 2010.06.03 12:22:45.
