data_PCOD9166917
_publ_section_title
;
Structure prediction by ZEFSAII (Michael W. Deem and Ramdas Pophale) SiO2 
 PCOD9166917
Probable space group: P 21/M
;
_chemical_formula_sum "Si O2"
_cell_formula_units_Z 20
_cell_length_a 6.971643
_cell_length_b 18.241193
_cell_length_c 8.348835
_cell_angle_alpha 90.000000
_cell_angle_beta 110.528739
_cell_angle_gamma 90.000000
_cell_volume 994.306718
_symmetry_space_group_name_H-M "P 21/M"
_symmetry_group_IT_number 11
_symmetry_cell_setting 'monoclinic'
loop_
_space_group_symop_operation_xyz
x,y,z
-x,1/2+y,-z
-x,-y,-z
x,1/2-y,z
loop_
_atom_site_type_symbol
_atom_site_label
_atom_site_fract_x
_atom_site_fract_y
_atom_site_fract_z
Si Si1 0.038980 0.413418 0.672423
Si Si2 0.064463 0.336407 0.349668
Si Si3 0.485940 0.548430 0.151338
Si Si4 0.706007 0.531277 0.633732
Si Si5 0.859018 0.162290 0.941238
O O1 0.980621 0.365873 0.496656
O O2 0.279080 0.434567 0.730891
O O3 0.903544 0.487157 0.632392
O O4 0.983506 0.372089 0.824910
O O5 0.091661 0.250000 0.368235
O O6 0.270677 0.383127 0.385453
O O7 0.946661 0.352817 0.147192
O O8 0.330007 0.494619 0.199002
O O9 0.364410 0.624958 0.120195
O O10 0.500000 0.500000 0.000000
O O11 0.500000 0.500000 0.500000
O O12 0.853226 0.250000 0.919680
#
# Coordination Sequence:
#
# PCOD9166917 Si02
#       5
#     4   4   4   4   4
#     4  11  23  43  68  92 129 171 218 262 319 387
#     4  11  23  42  67  94 130 171 211 267 330 381
#     4  11  23  40  68  93 124 173 215 261 324 384
#     4  11  23  41  65  96 127 167 219 268 308 383
#     4  10  24  43  62  96 133 163 213 272 322 384
#
# _framework density 20.114518
#
# number of rings (size 3 to 8) (size 9 to 14) (size 15 to 20)
#    0.000    1.200    2.000    3.600    2.800    4.800 
#    0.000    2.000    0.000    0.000    0.000    0.000 
#    0.000    0.000    0.000    0.000    0.000    0.000 
#
# Total GULP energy -111354.363192 kJ/mol
# GULP energy per Si atom -5567.718160 kJ/mol
# Density = 2.006874 g / cm^3
# Si number density = 20.114518 Si / 1000 Ang^3
#
#
#
# Elastic Constant Matrix: (Units=GPa)
#
#
# Indices 1 2 3 4 5 6 
#
# 1 136.0154 47.9409 53.3665 0.0000 -7.8209 0.0000
# 2 47.9409 78.1043 45.8380 0.0000 -17.7918 0.0000
# 3 53.3665 45.8380 105.6364 0.0000 -26.7208 0.0000
# 4 0.0000 0.0000 0.0000 36.3243 0.0000 -6.9460
# 5 -7.8209 -17.7918 -26.7208 0.0000 37.6851 0.0000
# 6 0.0000 0.0000 0.0000 -6.9460 0.0000 26.4452
#
#
#
# Elastic Compliance Matrix: (Units=1/GPa)
#
#
# Indices 1 2 3 4 5 6 
#
# 1 0.010393 -0.004729 -0.003921 0.000000 -0.002856 0.000000
# 2 -0.004729 0.019704 -0.004943 0.000000 0.004817 0.000000
# 3 -0.003921 -0.004943 0.015593 0.000000 0.007909 0.000000
# 4 0.000000 0.000000 0.000000 0.028986 0.000000 0.007613
# 5 -0.002856 0.004817 0.007909 0.000000 0.033825 0.000000
# 6 0.000000 0.000000 0.000000 0.007613 0.000000 0.039814
#
#
# Mechanical properties :
#
#
# Convention : Reuss Voigt Hill
#
# Bulk Modulus (GPa) = 54.04030 68.22743 61.13386
# Shear Modulus (GPa) = 27.52298 31.59830 29.56064
#
# Velocity S-wave (km/s) = 3.70309 3.96778 3.83772
# Velocity P-wave (km/s) = 6.72372 7.41513 7.07788
#
# Compressibility (1/GPa) = 0.01850471
#
# Stress axis : x y z
#
# Youngs Moduli (GPa) = 96.21850 50.75142 64.13335
#
# Poissons Ratio (x) = 0.23999 0.25146
# Poissons Ratio (y) = 0.45499 0.31699
# Poissons Ratio (z) = 0.37727 0.25085
#
# Static dielectric constant tensor:
#      x y z
#    x 1.635270 0.000000 0.029810 
#    y 0.000000 1.667700 0.000000 
#    z 0.029810 0.000000 1.808170 
# 
# From -- ./inp_files/10284.got.cif
#   From: 2010.05.17/outbox.cif.g08.bks.cpg/sg11_6_cif.got.tgz:10284.got - 2010.06.03 12:22:45.
