data_PCOD9166594
_publ_section_title
;
Structure prediction by ZEFSAII (Michael W. Deem and Ramdas Pophale) SiO2 
 PCOD9166594
Probable space group: P 21/M
;
_chemical_formula_sum "Si O2"
_cell_formula_units_Z 26
_cell_length_a 15.256772
_cell_length_b 9.431427
_cell_length_c 14.677669
_cell_angle_alpha 90.000000
_cell_angle_beta 39.515680
_cell_angle_gamma 90.000000
_cell_volume 1343.853163
_symmetry_space_group_name_H-M "P 21/M"
_symmetry_group_IT_number 11
_symmetry_cell_setting 'monoclinic'
loop_
_space_group_symop_operation_xyz
x,y,z
-x,1/2+y,-z
-x,-y,-z
x,1/2-y,z
loop_
_atom_site_type_symbol
_atom_site_label
_atom_site_fract_x
_atom_site_fract_y
_atom_site_fract_z
Si Si1 0.274369 0.914258 0.423157
Si Si2 0.316561 0.964051 0.592266
Si Si3 0.529714 0.750000 0.505697
Si Si4 0.005266 0.421147 0.593048
Si Si5 0.494987 0.082673 0.909564
Si Si6 0.005865 0.915064 0.902141
Si Si7 0.816937 0.580535 0.884796
O O1 0.228230 0.750000 0.445953
O O2 0.381334 0.953673 0.258007
O O3 0.346755 0.921306 0.463298
O O4 0.147204 0.022081 0.523500
O O5 0.354271 0.126006 0.575171
O O6 0.410208 0.871601 0.583783
O O7 0.156331 0.933486 0.737738
O O8 0.999957 0.250000 0.590072
O O9 0.882899 0.484999 0.752704
O O10 0.000000 0.500000 0.500000
O O11 0.506185 0.250000 0.919739
O O12 0.346682 0.059010 0.981986
O O13 0.500000 0.000000 0.000000
O O14 0.982893 0.750000 0.940238
O O15 0.891866 0.957764 0.918934
O O16 0.000000 0.000000 0.000000
O O17 0.842884 0.750000 0.846812
#
# Coordination Sequence:
#
# PCOD9166594 Si02
#       7
#     4   4   2   4   4   4   4
#     4  11  22  41  69  93 130 170 213 269 324 383
#     4  11  22  44  65  99 131 171 220 273 322 387
#     4  10  24  38  68  94 134 170 216 274 328 382
#     4  12  25  40  66  98 128 169 216 267 329 393
#     4  10  23  42  65  95 127 167 212 264 327 389
#     4  11  24  42  66  94 133 175 219 271 327 390
#     4  10  22  43  67  93 131 172 216 266 329 393
#
# _framework density 19.347352000000001
#
# number of rings (size 3 to 8) (size 9 to 14) (size 15 to 20)
#    0.000    1.231    3.077    2.308    2.154    6.769 
#    2.769    0.000    0.000    0.000    0.000    0.000 
#    0.000    0.000    0.000    0.000    0.000    0.000 
#
# Total GULP energy -144738.481083 kJ/mol
# GULP energy per Si atom -5566.864657 kJ/mol
# Density = 1.930332 g / cm^3
# Si number density = 19.347352 Si / 1000 Ang^3
#
#
#
# Elastic Constant Matrix: (Units=GPa)
#
#
# Indices 1 2 3 4 5 6 
#
# 1 40.7652 6.6178 -14.0517 0.0000 5.5142 0.0000
# 2 6.6178 106.9966 5.1211 0.0000 4.0879 0.0000
# 3 -14.0517 5.1211 44.2795 0.0000 11.3790 0.0000
# 4 0.0000 0.0000 0.0000 29.6511 0.0000 0.8572
# 5 5.5142 4.0879 11.3790 0.0000 32.4554 0.0000
# 6 0.0000 0.0000 0.0000 0.8572 0.0000 24.6021
#
#
#
# Elastic Compliance Matrix: (Units=1/GPa)
#
#
# Indices 1 2 3 4 5 6 
#
# 1 0.030329 -0.002111 0.012226 0.000000 -0.009174 0.000000
# 2 -0.002111 0.009568 -0.001713 0.000000 -0.000246 0.000000
# 3 0.012226 -0.001713 0.029828 0.000000 -0.012319 0.000000
# 4 0.000000 0.000000 0.000000 0.033760 0.000000 -0.001176
# 5 -0.009174 -0.000246 -0.012319 0.000000 0.036720 0.000000
# 6 0.000000 0.000000 0.000000 -0.001176 0.000000 0.040688
#
#
# Mechanical properties :
#
#
# Convention : Reuss Voigt Hill
#
# Bulk Modulus (GPa) = 11.55685 20.82395 16.19040
# Shear Modulus (GPa) = 25.91613 30.29865 28.10739
#
# Velocity S-wave (km/s) = 3.66391 3.96161 3.81567
# Velocity P-wave (km/s) = 4.88726 5.63137 5.27246
#
# Compressibility (1/GPa) = 0.08652880
#
# Stress axis : x y z
#
# Youngs Moduli (GPa) = 32.97222 104.51482 33.52610
#
# Poissons Ratio (x) = 0.22058 -0.40989
# Poissons Ratio (y) = 0.06959 0.05744
# Poissons Ratio (z) = -0.40312 0.17905
#
# Static dielectric constant tensor:
#      x y z
#    x 1.705880 0.000000 0.002970 
#    y 0.000000 1.656100 0.000000 
#    z 0.002970 0.000000 1.662790 
# 
# From -- ./inp_files/51888.got.cif
#   From: 2010.05.17/outbox.cif.g08.bks.cpg/sg11_26_cif.got.tgz:51888.got - 2010.06.03 12:22:45.
