data_PCOD9166476
_publ_section_title
;
Structure prediction by ZEFSAII (Michael W. Deem and Ramdas Pophale) SiO2 
 PCOD9166476
Probable space group: P 21/M
;
_chemical_formula_sum "Si O2"
_cell_formula_units_Z 26
_cell_length_a 14.790236
_cell_length_b 9.410149
_cell_length_c 13.696992
_cell_angle_alpha 90.000000
_cell_angle_beta 41.049064
_cell_angle_gamma 90.000000
_cell_volume 1251.892892
_symmetry_space_group_name_H-M "P 21/M"
_symmetry_group_IT_number 11
_symmetry_cell_setting 'monoclinic'
loop_
_space_group_symop_operation_xyz
x,y,z
-x,1/2+y,-z
-x,-y,-z
x,1/2-y,z
loop_
_atom_site_type_symbol
_atom_site_label
_atom_site_fract_x
_atom_site_fract_y
_atom_site_fract_z
Si Si1 0.425522 0.017671 0.190580
Si Si2 0.526710 0.750000 0.015962
Si Si3 0.868060 0.079486 0.650860
Si Si4 0.287194 0.079827 0.826377
Si Si5 0.866138 0.421144 0.882418
Si Si6 0.559098 0.914488 0.597117
Si Si7 0.157529 0.421513 0.733570
O O1 0.429457 0.080091 0.295143
O O2 0.514089 0.875521 0.108309
O O3 0.269379 0.971593 0.290854
O O4 0.472233 0.129460 0.071874
O O5 0.881604 0.250000 0.629880
O O6 0.852339 0.047602 0.778895
O O7 0.000000 0.000000 0.500000
O O8 0.291545 0.250000 0.832415
O O9 0.177365 0.041428 0.830697
O O10 0.432901 0.016379 0.673433
O O11 0.241622 0.001586 0.962009
O O12 0.851586 0.250000 0.906053
O O13 0.017265 0.468517 0.796593
O O14 0.534874 0.750000 0.586374
O O15 0.704189 0.965596 0.435222
O O16 0.154943 0.250000 0.729926
#
# Coordination Sequence:
#
# PCOD9166476 Si02
#       7
#     4   2   4   4   4   4   4
#     4  11  23  40  62  91 126 163 205 252 305 362
#     4  10  24  38  62  88 128 162 202 256 308 352
#     4  11  25  41  62  91 124 163 205 246 297 363
#     4  11  24  38  62  95 123 153 203 261 307 355
#     4  10  22  41  67  88 120 163 206 244 300 371
#     4  11  23  40  65  89 120 166 205 245 313 374
#     4   9  20  42  63  88 121 159 204 255 306 365
#
# _framework density 20.768549
#
# number of rings (size 3 to 8) (size 9 to 14) (size 15 to 20)
#    0.000    1.538    1.538    2.308    6.462    1.846 
#    0.000    2.308    0.000    0.000    0.000    0.000 
#    0.000    0.000    0.000    0.000    0.000    0.000 
#
# Total GULP energy -144834.527414 kJ/mol
# GULP energy per Si atom -5570.558747 kJ/mol
# Density = 2.072128 g / cm^3
# Si number density = 20.768549 Si / 1000 Ang^3
#
#
#
# Elastic Constant Matrix: (Units=GPa)
#
#
# Indices 1 2 3 4 5 6 
#
# 1 79.8632 0.3479 5.2219 0.0000 -12.6135 0.0000
# 2 0.3479 81.2951 25.0351 0.0000 0.6941 0.0000
# 3 5.2219 25.0351 62.9673 0.0000 -2.3720 0.0000
# 4 0.0000 0.0000 0.0000 12.4314 0.0000 -2.2091
# 5 -12.6135 0.6941 -2.3720 0.0000 30.0124 0.0000
# 6 0.0000 0.0000 0.0000 -2.2091 0.0000 20.4689
#
#
#
# Elastic Compliance Matrix: (Units=1/GPa)
#
#
# Indices 1 2 3 4 5 6 
#
# 1 0.013466 0.000198 -0.000985 0.000000 0.005577 0.000000
# 2 0.000198 0.014038 -0.005623 0.000000 -0.000686 0.000000
# 3 -0.000985 -0.005623 0.018242 0.000000 0.001158 0.000000
# 4 0.000000 0.000000 0.000000 0.082014 0.000000 0.008851
# 5 0.005577 -0.000686 0.001158 0.000000 0.035771 0.000000
# 6 0.000000 0.000000 0.000000 0.008851 0.000000 0.049810
#
#
# Mechanical properties :
#
#
# Convention : Reuss Voigt Hill
#
# Bulk Modulus (GPa) = 30.37257 31.70394 31.03826
# Shear Modulus (GPa) = 21.08486 25.48394 23.28440
#
# Velocity S-wave (km/s) = 3.18972 3.50672 3.35197
# Velocity P-wave (km/s) = 5.31242 5.62980 5.47341
#
# Compressibility (1/GPa) = 0.03292444
#
# Stress axis : x y z
#
# Youngs Moduli (GPa) = 74.26220 71.23704 54.81722
#
# Poissons Ratio (x) = -0.01412 0.05402
# Poissons Ratio (y) = -0.01472 0.30826
# Poissons Ratio (z) = 0.07318 0.40060
#
# Static dielectric constant tensor:
#      x y z
#    x 1.791780 0.000000 -0.015180 
#    y 0.000000 1.701860 0.000000 
#    z -0.015180 0.000000 1.744280 
# 
# From -- ./inp_files/51925.got.cif
#   From: 2010.05.17/outbox.cif.g08.bks.cpg/sg11_26_cif.got.tgz:51925.got - 2010.06.03 12:22:45.
