data_PCOD9166429
_publ_section_title
;
Structure prediction by ZEFSAII (Michael W. Deem and Ramdas Pophale) SiO2 
 PCOD9166429
Probable space group: P 21/M
;
_chemical_formula_sum "Si O2"
_cell_formula_units_Z 24
_cell_length_a 30.527723
_cell_length_b 8.978538
_cell_length_c 9.736838
_cell_angle_alpha 90.000000
_cell_angle_beta 151.812574
_cell_angle_gamma 90.000000
_cell_volume 1260.632950
_symmetry_space_group_name_H-M "P 21/M"
_symmetry_group_IT_number 11
_symmetry_cell_setting 'monoclinic'
loop_
_space_group_symop_operation_xyz
x,y,z
-x,1/2+y,-z
-x,-y,-z
x,1/2-y,z
loop_
_atom_site_type_symbol
_atom_site_label
_atom_site_fract_x
_atom_site_fract_y
_atom_site_fract_z
Si Si1 0.580289 0.427330 0.630354
Si Si2 0.059640 0.421737 0.280510
Si Si3 0.249820 0.430317 0.396424
Si Si4 0.585299 0.429986 0.321272
Si Si5 0.727878 0.921869 0.224341
Si Si6 0.964215 0.572252 0.262678
O O1 0.500000 0.500000 0.500000
O O2 0.571083 0.250000 0.608258
O O3 0.578927 0.471809 0.465564
O O4 0.672320 0.478778 0.963785
O O5 0.031672 0.250000 0.222664
O O6 0.165403 0.423271 0.525436
O O7 0.036318 0.514209 0.350008
O O8 0.000000 0.500000 0.000000
O O9 0.257507 0.250000 0.405388
O O10 0.320265 0.508255 0.486222
O O11 0.276943 0.468588 0.629019
O O12 0.142039 0.470231 0.070228
O O13 0.582305 0.250000 0.303666
O O14 0.500000 0.500000 0.000000
O O15 0.693969 0.750000 0.122933
O O16 0.965555 0.750000 0.274413
O O17 0.000000 0.500000 0.500000
#
# Coordination Sequence:
#
# PCOD9166429 Si02
#       6
#     4   4   4   4   4   4
#     4  11  25  43  64  94 125 157 201 254 308 367
#     4  11  22  40  64  93 127 170 215 261 314 369
#     4  10  22  42  64  89 124 165 206 253 309 367
#     4  11  25  43  64  93 125 159 202 252 307 369
#     4  10  22  41  64  91 124 163 207 254 307 367
#     4  11  24  42  62  91 129 170 215 265 315 372
#
# _framework density 19.038053999999999
#
# number of rings (size 3 to 8) (size 9 to 14) (size 15 to 20)
#    0.000    1.333    1.667    3.000    2.333   10.000 
#    0.000    0.000    0.000    0.000    0.000    0.000 
#    0.000    0.000    0.000    0.000    0.000    0.000 
#
# Total GULP energy -134090.967840 kJ/mol
# GULP energy per Si atom -5587.123660 kJ/mol
# Density = 1.899472 g / cm^3
# Si number density = 19.038054 Si / 1000 Ang^3
#
#
#
# Elastic Constant Matrix: (Units=GPa)
#
#
# Indices 1 2 3 4 5 6 
#
# 1 157.3189 50.8627 51.2587 0.0000 -29.7256 0.0000
# 2 50.8627 66.6207 46.0872 0.0000 -9.4028 0.0000
# 3 51.2587 46.0872 95.4347 0.0000 -24.6816 0.0000
# 4 0.0000 0.0000 0.0000 37.0223 0.0000 0.4613
# 5 -29.7256 -9.4028 -24.6816 0.0000 39.8518 0.0000
# 6 0.0000 0.0000 0.0000 0.4613 0.0000 38.4471
#
#
#
# Elastic Compliance Matrix: (Units=1/GPa)
#
#
# Indices 1 2 3 4 5 6 
#
# 1 0.009546 -0.005910 -0.000944 0.000000 0.005142 0.000000
# 2 -0.005910 0.026296 -0.010788 0.000000 -0.004885 0.000000
# 3 -0.000944 -0.010788 0.018283 0.000000 0.008074 0.000000
# 4 0.000000 0.000000 0.000000 0.027015 0.000000 -0.000324
# 5 0.005142 -0.004885 0.008074 0.000000 0.032776 0.000000
# 6 0.000000 0.000000 0.000000 -0.000324 0.000000 0.026014
#
#
# Mechanical properties :
#
#
# Convention : Reuss Voigt Hill
#
# Bulk Modulus (GPa) = 53.07192 68.42128 60.74660
# Shear Modulus (GPa) = 27.54929 34.47529 31.01229
#
# Velocity S-wave (km/s) = 3.80816 4.26004 4.04042
# Velocity P-wave (km/s) = 6.87556 7.75980 7.33102
#
# Compressibility (1/GPa) = 0.01884236
#
# Stress axis : x y z
#
# Youngs Moduli (GPa) = 104.75392 38.02905 54.69543
#
# Poissons Ratio (x) = 0.22474 0.05161
# Poissons Ratio (y) = 0.61906 0.59005
# Poissons Ratio (z) = 0.09885 0.41026
#
# Static dielectric constant tensor:
#      x y z
#    x 1.569460 0.000000 0.066010 
#    y 0.000000 1.637750 0.000000 
#    z 0.066010 0.000000 1.589180 
# 
# From -- ./inp_files/29145.got.cif
#   From: 2010.05.17/outbox.cif.g08.bks.cpg/sg11_15_cif.got.tgz:29145.got - 2010.06.03 12:22:45.
