data_PCOD9166624
_publ_section_title
;
Structure prediction by ZEFSAII (Michael W. Deem and Ramdas Pophale) SiO2 
 PCOD9166624
Probable space group: P 21/M
;
_chemical_formula_sum "Si O2"
_cell_formula_units_Z 26
_cell_length_a 8.463459
_cell_length_b 19.000486
_cell_length_c 11.506891
_cell_angle_alpha 90.000000
_cell_angle_beta 37.727960
_cell_angle_gamma 90.000000
_cell_volume 1132.296956
_symmetry_space_group_name_H-M "P 21/M"
_symmetry_group_IT_number 11
_symmetry_cell_setting 'monoclinic'
loop_
_space_group_symop_operation_xyz
x,y,z
-x,1/2+y,-z
-x,-y,-z
x,1/2-y,z
loop_
_atom_site_type_symbol
_atom_site_label
_atom_site_fract_x
_atom_site_fract_y
_atom_site_fract_z
Si Si1 0.609042 0.750000 0.699610
Si Si2 0.353014 0.750000 0.625395
Si Si3 0.928560 0.009904 0.177688
Si Si4 0.252551 0.099994 0.340190
Si Si5 0.285245 0.556084 0.381933
Si Si6 0.764604 0.750000 0.883073
Si Si7 0.444204 0.099780 0.552404
Si Si8 0.593854 0.903600 0.996276
O O1 0.351321 0.750000 0.769005
O O2 0.724005 0.672594 0.605259
O O3 0.661236 0.750000 0.808933
O O4 0.510735 0.681192 0.495992
O O5 0.072362 0.750000 0.728017
O O6 0.675128 0.059782 0.346836
O O7 0.170761 0.046672 0.099177
O O8 0.834769 0.937256 0.292845
O O9 0.000000 0.000000 0.000000
O O10 0.447819 0.095186 0.118051
O O11 0.976409 0.096576 0.438196
O O12 0.265077 0.027855 0.403260
O O13 0.494001 0.584434 0.348259
O O14 0.351479 0.571585 0.210730
O O15 0.659527 0.823403 0.993011
#
# Coordination Sequence:
#
# PCOD9166624 Si02
#       8
#     2   2   4   4   4   2   4   4
#     4  10  24  41  69  95 136 187 217 286 355 404
#     4  12  24  43  71 101 140 183 229 282 353 418
#     4  11  22  39  62  94 132 168 227 286 333 405
#     4  10  23  41  61  95 131 174 231 280 342 416
#     4  11  22  39  68  93 130 179 228 284 344 408
#     4  10  22  44  66 100 144 174 234 286 342 416
#     4  11  24  39  65  96 134 179 226 284 343 410
#     4  11  21  40  65  95 128 184 226 282 345 411
#
# _framework density 22.962174000000001
#
# number of rings (size 3 to 8) (size 9 to 14) (size 15 to 20)
#    0.000    1.231    4.615    1.385    4.308    1.231 
#    0.000    0.769    0.000    8.308    0.000    0.000 
#    0.000    0.000    0.000    0.000    0.000    0.000 
#
# Total GULP energy -145092.498248 kJ/mol
# GULP energy per Si atom -5580.480702 kJ/mol
# Density = 2.290991 g / cm^3
# Si number density = 22.962174 Si / 1000 Ang^3
#
#
#
# Elastic Constant Matrix: (Units=GPa)
#
#
# Indices 1 2 3 4 5 6 
#
# 1 81.7664 9.3821 3.1749 0.0000 14.7704 0.0000
# 2 9.3821 178.1195 21.7602 0.0000 -6.1922 0.0000
# 3 3.1749 21.7602 87.8621 0.0000 11.8225 0.0000
# 4 0.0000 0.0000 0.0000 13.5150 0.0000 -5.1432
# 5 14.7704 -6.1922 11.8225 0.0000 16.9656 0.0000
# 6 0.0000 0.0000 0.0000 -5.1432 0.0000 13.9905
#
#
#
# Elastic Compliance Matrix: (Units=1/GPa)
#
#
# Indices 1 2 3 4 5 6 
#
# 1 0.015033 -0.001537 0.001847 0.000000 -0.014935 0.000000
# 2 -0.001537 0.006134 -0.002146 0.000000 0.005072 0.000000
# 3 0.001847 -0.002146 0.013427 0.000000 -0.011748 0.000000
# 4 0.000000 0.000000 0.000000 0.086027 0.000000 0.031625
# 5 -0.014935 0.005072 -0.011748 0.000000 0.081984 0.000000
# 6 0.000000 0.000000 0.000000 0.031625 0.000000 0.083103
#
#
# Mechanical properties :
#
#
# Convention : Reuss Voigt Hill
#
# Bulk Modulus (GPa) = 32.33958 46.26470 39.30214
# Shear Modulus (GPa) = 16.68416 29.78961 23.23688
#
# Velocity S-wave (km/s) = 2.69846 3.60576 3.18459
# Velocity P-wave (km/s) = 4.88092 6.12595 5.53853
#
# Compressibility (1/GPa) = 0.03092186
#
# Stress axis : x y z
#
# Youngs Moduli (GPa) = 66.52242 163.03527 74.47686
#
# Poissons Ratio (x) = 0.25053 -0.13756
# Poissons Ratio (y) = 0.10222 0.15983
# Poissons Ratio (z) = -0.12287 0.34988
#
# Static dielectric constant tensor:
#      x y z
#    x 1.928360 0.000000 0.045290 
#    y 0.000000 1.898860 0.000000 
#    z 0.045290 0.000000 1.860030 
# 
# From -- ./inp_files/32791.got.cif
#   From: 2010.05.17/outbox.cif.g08.bks.cpg/sg11_17_cif.got.tgz:32791.got - 2010.06.03 12:22:45.
