data_PCOD9166885
_publ_section_title
;
Structure prediction by ZEFSAII (Michael W. Deem and Ramdas Pophale) SiO2 
 PCOD9166885
Probable space group: P 21/M
;
_chemical_formula_sum "Si O2"
_cell_formula_units_Z 26
_cell_length_a 8.774042
_cell_length_b 18.636831
_cell_length_c 9.551544
_cell_angle_alpha 90.000000
_cell_angle_beta 54.380254
_cell_angle_gamma 90.000000
_cell_volume 1269.645654
_symmetry_space_group_name_H-M "P 21/M"
_symmetry_group_IT_number 11
_symmetry_cell_setting 'monoclinic'
loop_
_space_group_symop_operation_xyz
x,y,z
-x,1/2+y,-z
-x,-y,-z
x,1/2-y,z
loop_
_atom_site_type_symbol
_atom_site_label
_atom_site_fract_x
_atom_site_fract_y
_atom_site_fract_z
Si Si1 0.306261 0.440681 0.234457
Si Si2 0.052999 0.393890 0.905943
Si Si3 0.320276 0.750000 0.271194
Si Si4 0.078673 0.750000 0.681343
Si Si5 0.230687 0.250000 0.935130
Si Si6 0.695106 0.972314 0.451862
Si Si7 0.046862 0.597439 0.738666
Si Si8 0.298069 0.899869 0.113054
O O1 0.318209 0.432475 0.394152
O O2 0.269700 0.525091 0.214081
O O3 0.135332 0.396699 0.260175
O O4 0.498024 0.413058 0.063474
O O5 0.861100 0.392585 0.920623
O O6 0.141917 0.318429 0.905652
O O7 0.204509 0.428794 0.723687
O O8 0.015452 0.430933 0.076196
O O9 0.164016 0.750000 0.479060
O O10 0.543437 0.750000 0.191764
O O11 0.294037 0.825521 0.202221
O O12 0.146426 0.673915 0.705554
O O13 0.862335 0.750000 0.857814
O O14 0.500000 0.000000 0.500000
O O15 0.820109 0.042389 0.408235
#
# Coordination Sequence:
#
# PCOD9166885 Si02
#       8
#     4   4   2   2   2   4   4   4
#     4  11  25  42  68 101 136 173 234 280 343 411
#     4  11  24  44  67  97 138 178 221 285 349 396
#     4  12  25  45  74  99 135 186 231 279 348 408
#     4  10  24  40  72  94 134 176 230 270 342 406
#     4  10  25  47  66  99 139 182 227 287 342 418
#     4  12  26  39  66 101 135 179 231 285 340 410
#     4  11  23  45  68  98 138 180 225 284 344 410
#     4  11  24  43  69  97 135 181 224 284 340 409
#
# _framework density 20.478155000000001
#
# number of rings (size 3 to 8) (size 9 to 14) (size 15 to 20)
#    0.000    0.923    1.538    5.077   10.769    0.000 
#    0.000    0.769    0.000    0.000    0.000    0.000 
#    0.000    0.000    0.000    0.000    0.000    0.000 
#
# Total GULP energy -145101.278937 kJ/mol
# GULP energy per Si atom -5580.818421 kJ/mol
# Density = 2.043155 g / cm^3
# Si number density = 20.478155 Si / 1000 Ang^3
#
#
#
# Elastic Constant Matrix: (Units=GPa)
#
#
# Indices 1 2 3 4 5 6 
#
# 1 138.4677 10.9415 47.4433 0.0000 -7.4758 0.0000
# 2 10.9415 98.9997 35.0658 0.0000 3.1680 0.0000
# 3 47.4433 35.0658 115.5391 0.0000 14.6459 0.0000
# 4 0.0000 0.0000 0.0000 14.3269 0.0000 19.7568
# 5 -7.4758 3.1680 14.6459 0.0000 34.1049 0.0000
# 6 0.0000 0.0000 0.0000 19.7568 0.0000 25.1056
#
#
#
# Elastic Compliance Matrix: (Units=1/GPa)
#
#
# Indices 1 2 3 4 5 6 
#
# 1 0.008837 0.000399 -0.004220 0.000000 0.003712 0.000000
# 2 0.000399 0.011342 -0.003684 0.000000 0.000616 0.000000
# 3 -0.004220 -0.003684 0.012247 0.000000 -0.005842 0.000000
# 4 0.000000 0.000000 0.000000 -0.819170 0.000000 0.644645
# 5 0.003712 0.000616 -0.005842 0.000000 0.032587 0.000000
# 6 0.000000 0.000000 0.000000 0.644645 0.000000 -0.467471
#
#
# Mechanical properties :
#
#
# Convention : Reuss Voigt Hill
#
# Bulk Modulus (GPa) = 57.42180 59.98975 58.70577
# Shear Modulus (GPa) = -4.16385 32.01121 13.92368
#
# Velocity S-wave (km/s) = -1.42749 3.95801 2.61037
# Velocity P-wave (km/s) = 5.03830 7.08843 6.14940
#
# Compressibility (1/GPa) = 0.01741499
#
# Stress axis : x y z
#
# Youngs Moduli (GPa) = 113.16291 88.16622 81.65344
#
# Poissons Ratio (x) = -0.03522 0.34461
# Poissons Ratio (y) = -0.04520 0.30085
# Poissons Ratio (z) = 0.47760 0.32485
#
# Static dielectric constant tensor:
#      x y z
#    x 2.084190 0.000000 -0.115070 
#    y 0.000000 1.765380 0.000000 
#    z -0.115070 0.000000 1.758000 
# 
# From -- ./inp_files/14519.got.cif
#   From: 2010.05.17/outbox.cif.g08.bks.cpg/sg11_8_cif.got.tgz:14519.got - 2010.06.03 12:22:45.
