data_PCOD9166794
_publ_section_title
;
Structure prediction by ZEFSAII (Michael W. Deem and Ramdas Pophale) SiO2 
 PCOD9166794
Probable space group: P 21/M
;
_chemical_formula_sum "Si O2"
_cell_formula_units_Z 20
_cell_length_a 4.976546
_cell_length_b 14.177482
_cell_length_c 10.966426
_cell_angle_alpha 90.000000
_cell_angle_beta 91.293837
_cell_angle_gamma 90.000000
_cell_volume 773.537726
_symmetry_space_group_name_H-M "P 21/M"
_symmetry_group_IT_number 11
_symmetry_cell_setting 'monoclinic'
loop_
_space_group_symop_operation_xyz
x,y,z
-x,1/2+y,-z
-x,-y,-z
x,1/2-y,z
loop_
_atom_site_type_symbol
_atom_site_label
_atom_site_fract_x
_atom_site_fract_y
_atom_site_fract_z
Si Si1 0.282018 0.642061 0.975299
Si Si2 0.656581 0.856562 0.327152
Si Si3 0.931925 0.851229 0.727465
Si Si4 0.625184 0.002955 0.838352
Si Si5 0.845227 0.098409 0.518013
O O1 0.343778 0.750000 0.008534
O O2 0.530578 0.580405 0.927306
O O3 0.086204 0.644821 0.857631
O O4 0.189993 0.577972 0.087975
O O5 0.581807 0.750000 0.290189
O O6 0.956446 0.854615 0.381372
O O7 0.453157 0.890501 0.432583
O O8 0.609231 0.932193 0.219930
O O9 0.784858 0.750000 0.719786
O O10 0.753079 0.944570 0.729395
O O11 0.130819 0.855882 0.615391
O O12 0.000000 0.000000 0.500000
#
# Coordination Sequence:
#
# PCOD9166794 Si02
#       5
#     4   4   4   4   4
#     4  10  23  43  65  95 128 172 228 282 341 407
#     4  12  26  45  70 105 143 184 230 281 344 410
#     4  11  23  40  65  95 130 174 224 280 339 408
#     4  11  23  41  68  93 133 174 225 281 344 403
#     4  12  25  46  70 102 141 186 229 285 341 411
#
# _framework density 25.855233999999999
#
# number of rings (size 3 to 8) (size 9 to 14) (size 15 to 20)
#    0.000    0.800    2.000    5.400    2.800    0.000 
#    0.000    0.000    0.000    0.000    0.000    0.000 
#    0.000    0.000    0.000    0.000    0.000    0.000 
#
# Total GULP energy -111916.062411 kJ/mol
# GULP energy per Si atom -5595.803121 kJ/mol
# Density = 2.579639 g / cm^3
# Si number density = 25.855234 Si / 1000 Ang^3
#
#
#
# Elastic Constant Matrix: (Units=GPa)
#
#
# Indices 1 2 3 4 5 6 
#
# 1 62.1429 8.0484 21.6381 0.0000 -1.5415 0.0000
# 2 8.0484 200.2376 29.3439 0.0000 -3.2041 0.0000
# 3 21.6381 29.3439 99.9672 0.0000 0.0822 0.0000
# 4 0.0000 0.0000 0.0000 110.1126 0.0000 2.8771
# 5 -1.5415 -3.2041 0.0822 0.0000 35.7393 0.0000
# 6 0.0000 0.0000 0.0000 2.8771 0.0000 24.8705
#
#
#
# Elastic Compliance Matrix: (Units=1/GPa)
#
#
# Indices 1 2 3 4 5 6 
#
# 1 0.017428 -0.000142 -0.003731 0.000000 0.000748 0.000000
# 2 -0.000142 0.005228 -0.001504 0.000000 0.000466 0.000000
# 3 -0.003731 -0.001504 0.011253 0.000000 -0.000322 0.000000
# 4 0.000000 0.000000 0.000000 0.009109 0.000000 -0.001054
# 5 0.000748 0.000466 -0.000322 0.000000 0.028055 0.000000
# 6 0.000000 0.000000 0.000000 -0.001054 0.000000 0.040330
#
#
# Mechanical properties :
#
#
# Convention : Reuss Voigt Hill
#
# Bulk Modulus (GPa) = 43.18929 53.37874 48.28401
# Shear Modulus (GPa) = 38.49843 54.36565 46.43204
#
# Velocity S-wave (km/s) = 3.86294 4.59049 4.24234
# Velocity P-wave (km/s) = 6.05285 6.98476 6.53543
#
# Compressibility (1/GPa) = 0.02315389
#
# Stress axis : x y z
#
# Youngs Moduli (GPa) = 57.37865 191.29033 88.86728
#
# Poissons Ratio (x) = 0.02711 0.33159
# Poissons Ratio (y) = 0.00813 0.13367
# Poissons Ratio (z) = 0.21410 0.28774
#
# Static dielectric constant tensor:
#      x y z
#    x 2.021310 0.000000 -0.044870 
#    y 0.000000 2.066810 0.000000 
#    z -0.044870 0.000000 2.078030 
# 
# From -- ./inp_files/4247.got.cif
#   From: 2010.05.17/outbox.cif.g08.bks.cpg/sg11_3_cif.got.tgz:4247.got - 2010.06.03 12:22:45.
