data_PCOD9166394
_publ_section_title
;
Structure prediction by ZEFSAII (Michael W. Deem and Ramdas Pophale) SiO2 
 PCOD9166394
Probable space group: P 21/M
;
_chemical_formula_sum "Si O2"
_cell_formula_units_Z 28
_cell_length_a 27.777354
_cell_length_b 8.033470
_cell_length_c 9.622118
_cell_angle_alpha 90.000000
_cell_angle_beta 37.230188
_cell_angle_gamma 90.000000
_cell_volume 1299.072924
_symmetry_space_group_name_H-M "P 21/M"
_symmetry_group_IT_number 11
_symmetry_cell_setting 'monoclinic'
loop_
_space_group_symop_operation_xyz
x,y,z
-x,1/2+y,-z
-x,-y,-z
x,1/2-y,z
loop_
_atom_site_type_symbol
_atom_site_label
_atom_site_fract_x
_atom_site_fract_y
_atom_site_fract_z
Si Si1 0.837089 0.451375 0.722622
Si Si2 0.119318 0.555780 0.067858
Si Si3 0.024312 0.557162 0.790139
Si Si4 0.478525 0.449922 0.703177
Si Si5 0.576100 0.050103 0.734227
Si Si6 0.746290 0.944382 0.444462
Si Si7 0.299079 0.049245 0.153423
O O1 0.840786 0.250000 0.718019
O O2 0.749731 0.499508 0.870526
O O3 0.899120 0.518755 0.464350
O O4 0.860945 0.508670 0.822639
O O5 0.097470 0.750000 0.129566
O O6 0.196188 0.537908 0.793023
O O7 0.048175 0.466295 0.150594
O O8 0.042375 0.750000 0.765289
O O9 0.000000 0.500000 0.000000
O O10 0.500000 0.500000 0.500000
O O11 0.475018 0.250000 0.723158
O O12 0.548597 0.504284 0.644525
O O13 0.390124 0.512824 0.944723
O O14 0.587794 0.250000 0.712922
O O15 0.655598 0.962971 0.602930
O O16 0.500000 0.000000 0.000000
O O17 0.769676 0.750000 0.390479
O O18 0.746161 0.009405 0.603187
O O19 0.301505 0.250000 0.155880
#
# Coordination Sequence:
#
# PCOD9166394 Si02
#       7
#     4   4   4   4   4   4   4
#     4  10  24  42  62  90 126 162 201 248 303 363
#     4  11  24  42  63  93 127 160 201 252 304 361
#     4  11  23  42  67  95 125 163 205 248 301 362
#     4  10  23  41  59  86 121 159 204 256 308 365
#     4  11  22  40  63  89 122 160 206 258 310 365
#     4  11  23  41  63  90 123 161 207 255 307 367
#     4  10  22  41  61  86 121 159 203 252 303 361
#
# _framework density 21.553833000000001
#
# number of rings (size 3 to 8) (size 9 to 14) (size 15 to 20)
#    0.000    1.429    1.429    3.000    2.000    7.429 
#    0.000    0.000    0.000    0.000    0.000    0.000 
#    0.000    0.000    0.000    0.000    0.000    0.000 
#
# Total GULP energy -156499.403076 kJ/mol
# GULP energy per Si atom -5589.264396 kJ/mol
# Density = 2.150478 g / cm^3
# Si number density = 21.553833 Si / 1000 Ang^3
#
#
#
# Elastic Constant Matrix: (Units=GPa)
#
#
# Indices 1 2 3 4 5 6 
#
# 1 115.5549 -11.5128 11.1994 0.0000 18.7794 0.0000
# 2 -11.5128 19.6467 -5.4669 0.0000 9.7859 0.0000
# 3 11.1994 -5.4669 64.5831 0.0000 10.9361 0.0000
# 4 0.0000 0.0000 0.0000 26.1029 0.0000 0.5181
# 5 18.7794 9.7859 10.9361 0.0000 42.7695 0.0000
# 6 0.0000 0.0000 0.0000 0.5181 0.0000 32.3928
#
#
#
# Elastic Compliance Matrix: (Units=1/GPa)
#
#
# Indices 1 2 3 4 5 6 
#
# 1 0.010760 0.009843 0.000155 0.000000 -0.007016 0.000000
# 2 0.009843 0.070055 0.008016 0.000000 -0.022401 0.000000
# 3 0.000155 0.008016 0.017203 0.000000 -0.006301 0.000000
# 4 0.000000 0.000000 0.000000 0.038322 0.000000 -0.000613
# 5 -0.007016 -0.022401 -0.006301 0.000000 0.033199 0.000000
# 6 0.000000 0.000000 0.000000 -0.000613 0.000000 0.030881
#
#
# Mechanical properties :
#
#
# Convention : Reuss Voigt Hill
#
# Bulk Modulus (GPa) = 7.46003 20.91379 14.18691
# Shear Modulus (GPa) = 23.91526 33.95738 28.93632
#
# Velocity S-wave (km/s) = 3.33462 3.97352 3.66801
# Velocity P-wave (km/s) = 4.27725 5.54761 4.95332
#
# Compressibility (1/GPa) = 0.13404774
#
# Stress axis : x y z
#
# Youngs Moduli (GPa) = 92.93881 14.27444 58.13092
#
# Poissons Ratio (x) = -0.14051 -0.00904
# Poissons Ratio (y) = -0.91481 -0.46600
# Poissons Ratio (z) = -0.01445 -0.11443
#
# Static dielectric constant tensor:
#      x y z
#    x 1.795840 0.000000 0.019110 
#    y 0.000000 1.787530 0.000000 
#    z 0.019110 0.000000 1.792050 
# 
# From -- ./inp_files/28461.got.cif
#   From: 2010.05.17/outbox.cif.g08.bks.cpg/sg11_15_cif.got.tgz:28461.got - 2010.06.03 12:22:45.
