data_PCOD9166117
_publ_section_title
;
Structure prediction by ZEFSAII (Michael W. Deem and Ramdas Pophale) SiO2 
 PCOD9166117
Probable space group: P 21/M
;
_chemical_formula_sum "Si O2"
_cell_formula_units_Z 32
_cell_length_a 6.592742
_cell_length_b 22.542949
_cell_length_c 11.847966
_cell_angle_alpha 90.000000
_cell_angle_beta 69.665326
_cell_angle_gamma 90.000000
_cell_volume 1651.105059
_symmetry_space_group_name_H-M "P 21/M"
_symmetry_group_IT_number 11
_symmetry_cell_setting 'monoclinic'
loop_
_space_group_symop_operation_xyz
x,y,z
-x,1/2+y,-z
-x,-y,-z
x,1/2-y,z
loop_
_atom_site_type_symbol
_atom_site_label
_atom_site_fract_x
_atom_site_fract_y
_atom_site_fract_z
Si Si1 0.177165 0.993873 0.299828
Si Si2 0.857764 0.924632 0.199861
Si Si3 0.088477 0.869965 0.972159
Si Si4 0.438551 0.940237 0.439081
Si Si5 0.380444 0.514521 0.907565
Si Si6 0.483145 0.686827 0.807111
Si Si7 0.304146 0.817714 0.588691
Si Si8 0.093657 0.120143 0.243369
O O1 0.227994 0.960621 0.406848
O O2 0.053236 0.950425 0.237613
O O3 0.420439 0.012132 0.217384
O O4 0.052328 0.056220 0.309189
O O5 0.646847 0.923803 0.320330
O O6 0.789949 0.968129 0.110439
O O7 0.941079 0.868124 0.112120
O O8 0.247832 0.926148 0.950434
O O9 0.261080 0.818266 0.919161
O O10 0.966219 0.879497 0.877183
O O11 0.388737 0.877581 0.510750
O O12 0.500000 0.000000 0.500000
O O13 0.500000 0.500000 0.000000
O O14 0.587493 0.750000 0.811199
O O15 0.419296 0.682620 0.688470
O O16 0.657578 0.637316 0.798144
O O17 0.329663 0.750000 0.536340
O O18 0.053490 0.831880 0.664197
#
# Coordination Sequence:
#
# PCOD9166117 Si02
#       8
#     4   4   4   4   4   4   4   4
#     4  11  21  34  58  89 124 152 192 246 307 359
#     4  11  23  36  55  89 123 159 196 236 303 370
#     4  11  21  34  58  88 123 150 190 233 297 372
#     4  11  25  40  59  89 124 159 209 262 306 349
#     4  11  19  32  55  89 123 154 185 230 292 368
#     4  10  22  38  60  87 115 150 197 250 303 357
#     4  10  23  43  62  85 117 158 210 254 298 367
#     4  11  20  35  63  90 118 154 189 249 308 361
#
# _framework density 19.380960000000002
#
# number of rings (size 3 to 8) (size 9 to 14) (size 15 to 20)
#    0.000    1.250    3.750    3.000    3.500    3.500 
#    0.000    0.625    0.000    2.250    0.000    0.000 
#    0.000    0.000    0.000    0.000    0.000    0.000 
#
# Total GULP energy -178222.350146 kJ/mol
# GULP energy per Si atom -5569.448442 kJ/mol
# Density = 1.933685 g / cm^3
# Si number density = 19.380960 Si / 1000 Ang^3
#
#
#
# Elastic Constant Matrix: (Units=GPa)
#
#
# Indices 1 2 3 4 5 6 
#
# 1 90.3328 27.9023 28.0059 0.0000 9.2753 0.0000
# 2 27.9023 110.7165 50.3559 0.0000 4.6785 0.0000
# 3 28.0059 50.3559 95.6182 0.0000 -11.9543 0.0000
# 4 0.0000 0.0000 0.0000 17.6929 0.0000 -0.5074
# 5 9.2753 4.6785 -11.9543 0.0000 31.7678 0.0000
# 6 0.0000 0.0000 0.0000 -0.5074 0.0000 21.7437
#
#
#
# Elastic Compliance Matrix: (Units=1/GPa)
#
#
# Indices 1 2 3 4 5 6 
#
# 1 0.013187 -0.001401 -0.003757 0.000000 -0.005058 0.000000
# 2 -0.001401 0.012615 -0.006731 0.000000 -0.003982 0.000000
# 3 -0.003757 -0.006731 0.016123 0.000000 0.008155 0.000000
# 4 0.000000 0.000000 0.000000 0.056558 0.000000 0.001320
# 5 -0.005058 -0.003982 0.008155 0.000000 0.036610 0.000000
# 6 0.000000 0.000000 0.000000 0.001320 0.000000 0.046021
#
#
# Mechanical properties :
#
#
# Convention : Reuss Voigt Hill
#
# Bulk Modulus (GPa) = 55.10461 56.57730 55.84096
# Shear Modulus (GPa) = 23.70343 26.93443 25.31893
#
# Velocity S-wave (km/s) = 3.50097 3.73196 3.61831
# Velocity P-wave (km/s) = 6.69601 6.91561 6.80669
#
# Compressibility (1/GPa) = 0.01814730
#
# Stress axis : x y z
#
# Youngs Moduli (GPa) = 75.83245 79.27284 62.02363
#
# Poissons Ratio (x) = 0.11105 0.23302
# Poissons Ratio (y) = 0.10623 0.41747
# Poissons Ratio (z) = 0.28490 0.53357
#
# Static dielectric constant tensor:
#      x y z
#    x 1.849330 0.000000 0.017170 
#    y 0.000000 1.740720 0.000000 
#    z 0.017170 0.000000 1.780330 
# 
# From -- ./inp_files/30234.got.cif
#   From: 2010.05.17/outbox.cif.g08.bks.cpg/sg11_16_cif.got.tgz:30234.got - 2010.06.03 12:22:45.
