data_PCOD9166297
_publ_section_title
;
Structure prediction by ZEFSAII (Michael W. Deem and Ramdas Pophale) SiO2 
 PCOD9166297
Probable space group: P 21/M
;
_chemical_formula_sum "Si O2"
_cell_formula_units_Z 32
_cell_length_a 15.711741
_cell_length_b 22.407339
_cell_length_c 8.570110
_cell_angle_alpha 90.000000
_cell_angle_beta 149.352810
_cell_angle_gamma 90.000000
_cell_volume 1538.007205
_symmetry_space_group_name_H-M "P 21/M"
_symmetry_group_IT_number 11
_symmetry_cell_setting 'monoclinic'
loop_
_space_group_symop_operation_xyz
x,y,z
-x,1/2+y,-z
-x,-y,-z
x,1/2-y,z
loop_
_atom_site_type_symbol
_atom_site_label
_atom_site_fract_x
_atom_site_fract_y
_atom_site_fract_z
Si Si1 0.801009 0.114138 0.255097
Si Si2 0.582026 0.869261 0.786573
Si Si3 0.184856 0.014004 0.240295
Si Si4 0.322567 0.002759 0.127689
Si Si5 0.496663 0.184431 0.654826
Si Si6 0.105221 0.180754 0.577417
Si Si7 0.704373 0.628204 0.409671
Si Si8 0.632390 0.091973 0.301557
O O1 0.775394 0.107715 0.401201
O O2 0.976595 0.137263 0.465182
O O3 0.673794 0.165519 0.001569
O O4 0.732367 0.052479 0.067678
O O5 0.662662 0.934913 0.940233
O O6 0.545841 0.861577 0.548512
O O7 0.413292 0.865980 0.622746
O O8 0.719138 0.822010 0.054045
O O9 0.313558 0.969807 0.532584
O O10 0.196373 0.006745 0.073009
O O11 0.225076 0.079746 0.361241
O O12 0.000000 0.000000 0.000000
O O13 0.500000 0.000000 0.500000
O O14 0.498651 0.250000 0.589544
O O15 0.370291 0.179676 0.599383
O O16 0.049313 0.250000 0.477426
O O17 0.159419 0.152354 0.496665
O O18 0.542873 0.597654 0.069897
#
# Coordination Sequence:
#
# PCOD9166297 Si02
#       8
#     4   4   4   4   4   4   4   4
#     4  11  24  39  64  93 126 163 202 258 317 366
#     4  11  23  40  65  91 124 164 208 256 305 373
#     4  12  23  36  58  94 130 157 194 257 317 375
#     4  12  21  40  64  93 127 159 206 256 313 373
#     4  11  21  40  65  89 116 163 213 249 297 367
#     4  11  25  44  61  88 126 163 207 259 306 365
#     4  10  22  40  62  87 116 164 208 249 302 366
#     4  10  23  38  61  90 126 161 203 248 312 371
#
# _framework density 20.806145000000001
#
# number of rings (size 3 to 8) (size 9 to 14) (size 15 to 20)
#    0.000    1.000    3.750    3.000    5.250    0.500 
#    0.000    1.875    0.000    0.000    0.000    0.000 
#    0.000    0.000    0.000    0.000    0.000    0.000 
#
# Total GULP energy -178560.033450 kJ/mol
# GULP energy per Si atom -5580.001045 kJ/mol
# Density = 2.075879 g / cm^3
# Si number density = 20.806145 Si / 1000 Ang^3
#
#
#
# Elastic Constant Matrix: (Units=GPa)
#
#
# Indices 1 2 3 4 5 6 
#
# 1 173.0665 23.7202 20.1096 0.0000 15.8251 0.0000
# 2 23.7202 100.1295 22.7331 0.0000 6.1195 0.0000
# 3 20.1096 22.7331 15.9288 0.0000 7.2193 0.0000
# 4 0.0000 0.0000 0.0000 20.1298 0.0000 0.3852
# 5 15.8251 6.1195 7.2193 0.0000 29.6516 0.0000
# 6 0.0000 0.0000 0.0000 0.3852 0.0000 17.9700
#
#
#
# Elastic Compliance Matrix: (Units=1/GPa)
#
#
# Indices 1 2 3 4 5 6 
#
# 1 0.006861 0.000401 -0.008472 0.000000 -0.001682 0.000000
# 2 0.000401 0.014944 -0.022861 0.000000 0.002268 0.000000
# 3 -0.008472 -0.022861 0.114555 0.000000 -0.018651 0.000000
# 4 0.000000 0.000000 0.000000 0.049698 0.000000 -0.001065
# 5 -0.001682 0.002268 -0.018651 0.000000 0.038696 0.000000
# 6 0.000000 0.000000 0.000000 -0.001065 0.000000 0.055671
#
#
# Mechanical properties :
#
#
# Convention : Reuss Voigt Hill
#
# Bulk Modulus (GPa) = 13.42368 46.91674 30.17021
# Shear Modulus (GPa) = 13.61944 28.38773 21.00358
#
# Velocity S-wave (km/s) = 2.56127 3.69777 3.18069
# Velocity P-wave (km/s) = 3.90033 6.38982 5.29350
#
# Compressibility (1/GPa) = 0.07449521
#
# Stress axis : x y z
#
# Youngs Moduli (GPa) = 145.74290 66.91693 8.72942
#
# Poissons Ratio (x) = -0.02682 0.07396
# Poissons Ratio (y) = -0.05842 0.19957
# Poissons Ratio (z) = 1.23474 1.52982
#
# Static dielectric constant tensor:
#      x y z
#    x 1.787810 0.000000 0.005680 
#    y 0.000000 1.769200 0.000000 
#    z 0.005680 0.000000 1.747000 
# 
# From -- ./inp_files/23387.got.cif
#   From: 2010.05.17/outbox.cif.g08.bks.cpg/sg11_12_cif.got.tgz:23387.got - 2010.06.03 12:22:45.
