data_PCOD9166954
_publ_section_title
;
Structure prediction by ZEFSAII (Michael W. Deem and Ramdas Pophale) SiO2 
 PCOD9166954
Probable space group: P 21/M
;
_chemical_formula_sum "Si O2"
_cell_formula_units_Z 28
_cell_length_a 24.912314
_cell_length_b 8.690448
_cell_length_c 22.073421
_cell_angle_alpha 90.000000
_cell_angle_beta 17.675209
_cell_angle_gamma 90.000000
_cell_volume 1450.966699
_symmetry_space_group_name_H-M "P 21/M"
_symmetry_group_IT_number 11
_symmetry_cell_setting 'monoclinic'
loop_
_space_group_symop_operation_xyz
x,y,z
-x,1/2+y,-z
-x,-y,-z
x,1/2-y,z
loop_
_atom_site_type_symbol
_atom_site_label
_atom_site_fract_x
_atom_site_fract_y
_atom_site_fract_z
Si Si1 0.921339 0.566474 0.941196
Si Si2 0.990798 0.934556 0.441891
Si Si3 0.611452 0.934502 0.184055
Si Si4 0.407633 0.065516 0.159687
Si Si5 0.343773 0.065625 0.004327
Si Si6 0.698083 0.066248 0.292731
Si Si7 0.264306 0.431523 0.617828
O O1 0.946071 0.750000 0.917728
O O2 0.109607 0.483751 0.739033
O O3 0.796034 0.530914 0.018938
O O4 0.816394 0.508553 0.113285
O O5 0.004109 0.750000 0.430155
O O6 0.799694 0.975483 0.619717
O O7 0.154443 0.001162 0.228622
O O8 0.000000 0.000000 0.500000
O O9 0.581919 0.750000 0.221679
O O10 0.453383 0.020002 0.388110
O O11 0.618168 0.974845 0.106250
O O12 0.422802 0.250000 0.142565
O O13 0.500000 0.000000 0.000000
O O14 0.509180 0.000158 0.108451
O O15 0.340935 0.250000 0.012637
O O16 0.696405 0.250000 0.288025
O O17 0.500000 0.000000 0.500000
O O18 0.764689 0.018948 0.287527
O O19 0.257269 0.250000 0.636272
#
# Coordination Sequence:
#
# PCOD9166954 Si02
#       7
#     4   4   4   4   4   4   4
#     4  11  23  42  67  93 127 169 215 266 317 376
#     4  11  23  39  63  93 125 161 204 254 310 370
#     4  10  24  45  66  89 124 170 216 260 312 377
#     4  11  23  39  63  94 126 163 203 254 311 370
#     4  11  24  42  65  94 127 166 210 259 315 376
#     4  12  23  39  64  96 129 165 212 265 322 378
#     4  12  25  41  65  95 129 168 212 266 322 377
#
# _framework density 19.297478999999999
#
# number of rings (size 3 to 8) (size 9 to 14) (size 15 to 20)
#    0.000    0.857    2.857    4.714    0.000    4.571 
#    0.000    4.286    0.000    0.000    0.000    0.000 
#    0.000    0.000    0.000    0.000    0.000    0.000 
#
# Total GULP energy -156690.472104 kJ/mol
# GULP energy per Si atom -5596.088289 kJ/mol
# Density = 1.925356 g / cm^3
# Si number density = 19.297479 Si / 1000 Ang^3
#
#
#
# Elastic Constant Matrix: (Units=GPa)
#
#
# Indices 1 2 3 4 5 6 
#
# 1 128.0568 27.0748 29.9267 0.0000 -12.0362 0.0000
# 2 27.0748 42.6916 9.9587 0.0000 -7.4894 0.0000
# 3 29.9267 9.9587 44.7534 0.0000 -23.0433 0.0000
# 4 0.0000 0.0000 0.0000 36.6157 0.0000 -3.7980
# 5 -12.0362 -7.4894 -23.0433 0.0000 36.1291 0.0000
# 6 0.0000 0.0000 0.0000 -3.7980 0.0000 26.4027
#
#
#
# Elastic Compliance Matrix: (Units=1/GPa)
#
#
# Indices 1 2 3 4 5 6 
#
# 1 0.010322 -0.005320 -0.006724 0.000000 -0.001953 0.000000
# 2 -0.005320 0.027589 -0.000818 0.000000 0.003425 0.000000
# 3 -0.006724 -0.000818 0.038389 0.000000 0.022075 0.000000
# 4 0.000000 0.000000 0.000000 0.027724 0.000000 0.003988
# 5 -0.001953 0.003425 0.022075 0.000000 0.041818 0.000000
# 6 0.000000 0.000000 0.000000 0.003988 0.000000 0.038449
#
#
# Mechanical properties :
#
#
# Convention : Reuss Voigt Hill
#
# Bulk Modulus (GPa) = 19.77206 38.82471 29.29838
# Shear Modulus (GPa) = 22.03866 29.73229 25.88547
#
# Velocity S-wave (km/s) = 3.38309 3.92948 3.66647
# Velocity P-wave (km/s) = 5.05258 6.38361 5.75669
#
# Compressibility (1/GPa) = 0.05057642
#
# Stress axis : x y z
#
# Youngs Moduli (GPa) = 96.88405 36.24573 26.04883
#
# Poissons Ratio (x) = 0.19283 0.17514
# Poissons Ratio (y) = 0.51543 0.02132
# Poissons Ratio (z) = 0.65141 0.02966
#
# Static dielectric constant tensor:
#      x y z
#    x 1.662110 0.000000 -0.024740 
#    y 0.000000 1.642610 0.000000 
#    z -0.024740 0.000000 1.653180 
# 
# From -- ./inp_files/66694.got.cif
#   From: 2010.05.17/outbox.cif.g08.bks.cpg/sg11_34_cif.got.tgz:66694.got - 2010.06.03 12:22:45.
