data_PCOD9166996
_publ_section_title
;
Structure prediction by ZEFSAII (Michael W. Deem and Ramdas Pophale) SiO2 
 PCOD9166996
Probable space group: P 21/M
;
_chemical_formula_sum "Si O2"
_cell_formula_units_Z 16
_cell_length_a 5.190542
_cell_length_b 14.991988
_cell_length_c 8.849349
_cell_angle_alpha 90.000000
_cell_angle_beta 107.561510
_cell_angle_gamma 90.000000
_cell_volume 656.531368
_symmetry_space_group_name_H-M "P 21/M"
_symmetry_group_IT_number 11
_symmetry_cell_setting 'monoclinic'
loop_
_space_group_symop_operation_xyz
x,y,z
-x,1/2+y,-z
-x,-y,-z
x,1/2-y,z
loop_
_atom_site_type_symbol
_atom_site_label
_atom_site_fract_x
_atom_site_fract_y
_atom_site_fract_z
Si Si1 0.002075 0.353118 0.578998
Si Si2 0.393110 0.602416 0.213070
Si Si3 0.279361 0.250000 0.257343
Si Si4 0.464881 0.935129 0.637300
Si Si5 0.674778 0.250000 0.048532
O O1 0.973077 0.250000 0.533908
O O2 0.830196 0.371623 0.701476
O O3 0.852902 0.410836 0.422779
O O4 0.309561 0.371547 0.674043
O O5 0.416933 0.494783 0.205960
O O6 0.339798 0.661839 0.057678
O O7 0.384686 0.341082 0.351549
O O8 0.427607 0.250000 0.120806
O O9 0.960813 0.250000 0.181935
O O10 0.500000 0.000000 0.500000
#
# Coordination Sequence:
#
# PCOD9166996 Si02
#       5
#     4   4   2   4   2
#     4  11  19  39  69 100 131 170 225 281 340 385
#     4  11  23  41  69  99 132 185 219 271 333 406
#     4  12  28  46  68 102 136 180 222 286 330 404
#     4  10  25  45  72 103 137 170 230 288 346 392
#     4  12  26  44  68  96 142 188 228 262 330 414
#
# _framework density 24.370505000000001
#
# number of rings (size 3 to 8) (size 9 to 14) (size 15 to 20)
#    0.000    1.000    3.750    2.250    0.000   10.000 
#    0.000    0.000    0.000    0.000    0.000    0.000 
#    0.000    0.000    0.000    0.000    0.000    0.000 
#
# Total GULP energy -89595.498988 kJ/mol
# GULP energy per Si atom -5599.718687 kJ/mol
# Density = 2.431504 g / cm^3
# Si number density = 24.370505 Si / 1000 Ang^3
#
#
#
# Elastic Constant Matrix: (Units=GPa)
#
#
# Indices 1 2 3 4 5 6 
#
# 1 120.3657 11.4637 25.6468 0.0000 0.6500 0.0000
# 2 11.4637 190.6081 36.2486 0.0000 12.9711 0.0000
# 3 25.6468 36.2486 66.4595 0.0000 -1.9574 0.0000
# 4 0.0000 0.0000 0.0000 49.6568 0.0000 -1.2773
# 5 0.6500 12.9711 -1.9574 0.0000 44.1783 0.0000
# 6 0.0000 0.0000 0.0000 -1.2773 0.0000 30.0929
#
#
#
# Elastic Compliance Matrix: (Units=1/GPa)
#
#
# Indices 1 2 3 4 5 6 
#
# 1 0.009060 0.000162 -0.003595 0.000000 -0.000340 0.000000
# 2 0.000162 0.006014 -0.003399 0.000000 -0.001919 0.000000
# 3 -0.003595 -0.003399 0.018343 0.000000 0.001864 0.000000
# 4 0.000000 0.000000 0.000000 0.020160 0.000000 0.000856
# 5 -0.000340 -0.001919 0.001864 0.000000 0.023286 0.000000
# 6 0.000000 0.000000 0.000000 0.000856 0.000000 0.033267
#
#
# Mechanical properties :
#
#
# Convention : Reuss Voigt Hill
#
# Bulk Modulus (GPa) = 50.62496 58.23905 54.43201
# Shear Modulus (GPa) = 38.35004 45.05722 41.70363
#
# Velocity S-wave (km/s) = 3.97120 4.30448 4.14119
# Velocity P-wave (km/s) = 6.46880 6.97524 6.72679
#
# Compressibility (1/GPa) = 0.01975310
#
# Stress axis : x y z
#
# Youngs Moduli (GPa) = 110.37069 166.29029 54.51763
#
# Poissons Ratio (x) = -0.02691 0.19597
# Poissons Ratio (y) = -0.01786 0.18530
# Poissons Ratio (z) = 0.39675 0.56521
#
# Static dielectric constant tensor:
#      x y z
#    x 1.953910 0.000000 -0.069250 
#    y 0.000000 2.013730 0.000000 
#    z -0.069250 0.000000 1.972980 
# 
# From -- ./inp_files/4105.got.cif
#   From: 2010.05.17/outbox.cif.g08.bks.cpg/sg11_3_cif.got.tgz:4105.got - 2010.06.03 12:22:45.
