data_PCOD9166886
_publ_section_title
;
Structure prediction by ZEFSAII (Michael W. Deem and Ramdas Pophale) SiO2 
 PCOD9166886
Probable space group: P 21/M
;
_chemical_formula_sum "Si O2"
_cell_formula_units_Z 30
_cell_length_a 5.077784
_cell_length_b 25.966415
_cell_length_c 8.891481
_cell_angle_alpha 90.000000
_cell_angle_beta 79.910336
_cell_angle_gamma 90.000000
_cell_volume 1154.227435
_symmetry_space_group_name_H-M "P 21/M"
_symmetry_group_IT_number 11
_symmetry_cell_setting 'monoclinic'
loop_
_space_group_symop_operation_xyz
x,y,z
-x,1/2+y,-z
-x,-y,-z
x,1/2-y,z
loop_
_atom_site_type_symbol
_atom_site_label
_atom_site_fract_x
_atom_site_fract_y
_atom_site_fract_z
Si Si1 0.983336 0.340934 0.745365
Si Si2 0.141796 0.250000 0.502015
Si Si3 0.342425 0.603843 0.461660
Si Si4 0.045526 0.032555 0.345142
Si Si5 0.092667 0.847273 0.914541
Si Si6 0.711507 0.550646 0.225564
Si Si7 0.584177 0.582158 0.909103
Si Si8 0.478197 0.191613 0.349196
O O1 0.731855 0.361578 0.675022
O O2 0.098739 0.295902 0.631633
O O3 0.143346 0.394601 0.753552
O O4 0.934469 0.322038 0.918622
O O5 0.167590 0.204345 0.360701
O O6 0.099416 0.584945 0.588904
O O7 0.485817 0.554193 0.377016
O O8 0.502932 0.641376 0.553643
O O9 0.324929 0.048438 0.242559
O O10 0.900563 0.997544 0.234938
O O11 0.000000 0.000000 0.500000
O O12 0.285997 0.897096 0.920766
O O13 0.295022 0.812689 0.795385
O O14 0.802551 0.870466 0.896092
O O15 0.610644 0.553664 0.065703
O O16 0.505566 0.250000 0.433893
#
# Coordination Sequence:
#
# PCOD9166886 Si02
#       8
#     4   2   4   4   4   4   4   4
#     4  11  24  44  70 101 139 186 230 298 356 436
#     4  10  24  40  74 100 140 174 236 296 360 424
#     4  12  23  45  68 102 140 184 239 301 362 434
#     4  12  26  41  72 105 140 197 242 304 359 436
#     4  11  25  48  74 102 146 191 238 295 365 424
#     4  11  23  47  66 103 140 187 240 293 364 424
#     4  11  26  47  72 102 147 193 236 301 355 432
#     4  10  24  44  70 105 137 188 235 305 358 434
#
# _framework density 25.991413000000001
#
# number of rings (size 3 to 8) (size 9 to 14) (size 15 to 20)
#    0.400    0.533    5.333    0.800    5.600    1.067 
#    0.000    2.667    1.467    0.000    0.000    0.000 
#    0.000    0.000    0.000    0.000    0.000    0.000 
#
# Total GULP energy -167232.572719 kJ/mol
# GULP energy per Si atom -5574.419091 kJ/mol
# Density = 2.593226 g / cm^3
# Si number density = 25.991413 Si / 1000 Ang^3
#
#
#
# Elastic Constant Matrix: (Units=GPa)
#
#
# Indices 1 2 3 4 5 6 
#
# 1 56.9755 18.4752 7.8555 0.0000 -9.2515 0.0000
# 2 18.4752 98.8810 18.0072 0.0000 1.7250 0.0000
# 3 7.8555 18.0072 111.6941 0.0000 -22.8616 0.0000
# 4 0.0000 0.0000 0.0000 54.0670 0.0000 -20.1554
# 5 -9.2515 1.7250 -22.8616 0.0000 36.5021 0.0000
# 6 0.0000 0.0000 0.0000 -20.1554 0.0000 17.7406
#
#
#
# Elastic Compliance Matrix: (Units=1/GPa)
#
#
# Indices 1 2 3 4 5 6 
#
# 1 0.019614 -0.003819 0.000333 0.000000 0.005361 0.000000
# 2 -0.003819 0.011263 -0.002127 0.000000 -0.002832 0.000000
# 3 0.000333 -0.002127 0.010679 0.000000 0.006874 0.000000
# 4 0.000000 0.000000 0.000000 0.032084 0.000000 0.036451
# 5 0.005361 -0.002832 0.006874 0.000000 0.033193 0.000000
# 6 0.000000 0.000000 0.000000 0.036451 0.000000 0.097781
#
#
# Mechanical properties :
#
#
# Convention : Reuss Voigt Hill
#
# Bulk Modulus (GPa) = 32.96865 39.58072 36.27468
# Shear Modulus (GPa) = 22.12866 36.54279 29.33573
#
# Velocity S-wave (km/s) = 2.92101 3.75368 3.36321
# Velocity P-wave (km/s) = 4.90799 5.83509 5.39150
#
# Compressibility (1/GPa) = 0.03033185
#
# Stress axis : x y z
#
# Youngs Moduli (GPa) = 50.98336 88.78247 93.63831
#
# Poissons Ratio (x) = 0.33906 -0.03122
# Poissons Ratio (y) = 0.19471 0.19917
# Poissons Ratio (z) = -0.01700 0.18884
#
# Static dielectric constant tensor:
#      x y z
#    x 2.147630 0.000000 -0.013880 
#    y 0.000000 2.183010 0.000000 
#    z -0.013880 0.000000 2.050230 
# 
# From -- ./inp_files/10834.got.cif
#   From: 2010.05.17/outbox.cif.g08.bks.cpg/sg11_6_cif.got.tgz:10834.got - 2010.06.03 12:22:45.
