data_PCOD9166600
_publ_section_title
;
Structure prediction by ZEFSAII (Michael W. Deem and Ramdas Pophale) SiO2 
 PCOD9166600
Probable space group: P 21/M
;
_chemical_formula_sum "Si O2"
_cell_formula_units_Z 28
_cell_length_a 6.028589
_cell_length_b 15.981876
_cell_length_c 16.029885
_cell_angle_alpha 90.000000
_cell_angle_beta 63.591850
_cell_angle_gamma 90.000000
_cell_volume 1383.284292
_symmetry_space_group_name_H-M "P 21/M"
_symmetry_group_IT_number 11
_symmetry_cell_setting 'monoclinic'
loop_
_space_group_symop_operation_xyz
x,y,z
-x,1/2+y,-z
-x,-y,-z
x,1/2-y,z
loop_
_atom_site_type_symbol
_atom_site_label
_atom_site_fract_x
_atom_site_fract_y
_atom_site_fract_z
Si Si1 0.375339 0.919320 0.924286
Si Si2 0.686585 0.986254 0.231484
Si Si3 0.489874 0.750000 0.808525
Si Si4 0.782421 0.052081 0.873284
Si Si5 0.123116 0.445250 0.553527
Si Si6 0.105567 0.750000 0.708029
Si Si7 0.605583 0.091691 0.390432
Si Si8 0.693554 0.349519 0.725735
O O1 0.423064 0.831803 0.872929
O O2 0.284742 0.982885 0.868183
O O3 0.628262 0.966252 0.907422
O O4 0.210126 0.912180 0.034530
O O5 0.544927 0.899708 0.268049
O O6 0.965330 0.975546 0.211469
O O7 0.550397 0.058096 0.306277
O O8 0.288802 0.750000 0.762787
O O9 0.799865 0.750000 0.754061
O O10 0.687854 0.121477 0.823915
O O11 0.262183 0.513419 0.587445
O O12 0.345929 0.389787 0.478054
O O13 0.000000 0.500000 0.500000
O O14 0.923749 0.390178 0.636841
O O15 0.205096 0.667603 0.645364
O O16 0.686745 0.250000 0.718435
#
# Coordination Sequence:
#
# PCOD9166600 Si02
#       8
#     4   4   2   4   4   2   4   4
#     4  10  23  40  66  98 134 177 228 277 342 417
#     4  11  20  42  68  92 131 172 225 276 346 411
#     4  12  26  44  68 109 144 179 232 290 346 413
#     4  10  22  43  68  91 131 184 222 277 344 416
#     4  11  24  45  68  91 131 176 226 283 353 413
#     4  12  28  44  76 105 142 183 232 294 348 417
#     4  11  24  43  67 101 127 180 223 284 351 414
#     4  11  25  41  63  96 129 173 223 285 332 412
#
# _framework density 20.241682000000001
#
# number of rings (size 3 to 8) (size 9 to 14) (size 15 to 20)
#    0.000    1.143    4.286    1.286    6.000    0.571 
#    1.286    0.000    0.000    0.000    0.000    0.000 
#    0.000    0.000    0.000    0.000    0.000    0.000 
#
# Total GULP energy -155941.123059 kJ/mol
# GULP energy per Si atom -5569.325824 kJ/mol
# Density = 2.019561 g / cm^3
# Si number density = 20.241682 Si / 1000 Ang^3
#
#
#
# Elastic Constant Matrix: (Units=GPa)
#
#
# Indices 1 2 3 4 5 6 
#
# 1 34.3427 -5.8702 18.9685 0.0000 -10.8755 0.0000
# 2 -5.8702 101.5600 25.7873 0.0000 -14.9766 0.0000
# 3 18.9685 25.7873 107.6420 0.0000 -8.8250 0.0000
# 4 0.0000 0.0000 0.0000 34.3640 0.0000 -4.6714
# 5 -10.8755 -14.9766 -8.8250 0.0000 28.1813 0.0000
# 6 0.0000 0.0000 0.0000 -4.6714 0.0000 15.4285
#
#
#
# Elastic Compliance Matrix: (Units=1/GPa)
#
#
# Indices 1 2 3 4 5 6 
#
# 1 0.039383 0.006514 -0.007154 0.000000 0.016420 0.000000
# 2 0.006514 0.012269 -0.003435 0.000000 0.007958 0.000000
# 3 -0.007154 -0.003435 0.011287 0.000000 -0.001052 0.000000
# 4 0.000000 0.000000 0.000000 0.030349 0.000000 0.009189
# 5 0.016420 0.007958 -0.001052 0.000000 0.045721 0.000000
# 6 0.000000 0.000000 0.000000 0.009189 0.000000 0.067597
#
#
# Mechanical properties :
#
#
# Convention : Reuss Voigt Hill
#
# Bulk Modulus (GPa) = 18.25161 35.70177 26.97669
# Shear Modulus (GPa) = 21.45738 29.23869 25.34804
#
# Velocity S-wave (km/s) = 3.25939 3.80475 3.54258
# Velocity P-wave (km/s) = 4.81677 6.08092 5.48538
#
# Compressibility (1/GPa) = 0.05478969
#
# Stress axis : x y z
#
# Youngs Moduli (GPa) = 25.39154 81.50896 88.59441
#
# Poissons Ratio (x) = -0.53098 0.63384
# Poissons Ratio (y) = -0.16541 0.30429
# Poissons Ratio (z) = 0.18166 0.27995
#
# Static dielectric constant tensor:
#      x y z
#    x 1.845220 0.000000 0.063890 
#    y 0.000000 1.666170 0.000000 
#    z 0.063890 0.000000 1.773030 
# 
# From -- ./inp_files/8166.got.cif
#   From: 2010.05.17/outbox.cif.g08.bks.cpg/sg11_5_cif.got.tgz:8166.got - 2010.06.03 12:22:45.
