data_PCOD9166663
_publ_section_title
;
Structure prediction by ZEFSAII (Michael W. Deem and Ramdas Pophale) SiO2 
 PCOD9166663
Probable space group: P 21/M
;
_chemical_formula_sum "Si O2"
_cell_formula_units_Z 22
_cell_length_a 9.870946
_cell_length_b 7.377397
_cell_length_c 11.821302
_cell_angle_alpha 90.000000
_cell_angle_beta 77.116238
_cell_angle_gamma 90.000000
_cell_volume 839.177142
_symmetry_space_group_name_H-M "P 21/M"
_symmetry_group_IT_number 11
_symmetry_cell_setting 'monoclinic'
loop_
_space_group_symop_operation_xyz
x,y,z
-x,1/2+y,-z
-x,-y,-z
x,1/2-y,z
loop_
_atom_site_type_symbol
_atom_site_label
_atom_site_fract_x
_atom_site_fract_y
_atom_site_fract_z
Si Si1 0.428078 0.454740 0.861078
Si Si2 0.835835 0.035053 0.523229
Si Si3 0.867483 0.965710 0.104359
Si Si4 0.622440 0.034514 0.387959
Si Si5 0.263181 0.970804 0.207731
Si Si6 0.024270 0.250000 0.192765
O O1 0.432268 0.250000 0.902682
O O2 0.277971 0.531356 0.923564
O O3 0.411442 0.452058 0.727397
O O4 0.581085 0.528145 0.856508
O O5 0.821916 0.250000 0.515720
O O6 0.756662 0.959082 0.429683
O O7 0.760895 0.985116 0.654124
O O8 0.000000 0.000000 0.500000
O O9 0.858969 0.750000 0.125771
O O10 0.903839 0.091642 0.202764
O O11 0.000000 0.000000 0.000000
O O12 0.629728 0.250000 0.368282
O O13 0.500000 0.000000 0.500000
O O14 0.247604 0.750000 0.198167
O O15 0.144535 0.091379 0.174633
#
# Coordination Sequence:
#
# PCOD9166663 Si02
#       6
#     4   4   4   4   4   2
#     4  10  23  43  69  96 136 182 233 288 335 405
#     4  10  23  37  55  86 135 175 222 278 326 392
#     4  11  25  48  77 105 135 173 227 289 348 419
#     4  11  22  36  60  93 128 179 233 272 326 391
#     4  10  23  44  64  98 140 179 226 280 340 406
#     4  12  26  42  76 100 136 174 220 274 360 404
#
# _framework density 26.216156000000002
#
# number of rings (size 3 to 8) (size 9 to 14) (size 15 to 20)
#    0.000    1.455    2.727    1.091    6.364    1.455 
#    0.000    0.909    0.000    0.000    0.000    0.000 
#    0.000    0.000    0.000    0.000    0.000    0.000 
#
# Total GULP energy -122615.753581 kJ/mol
# GULP energy per Si atom -5573.443345 kJ/mol
# Density = 2.615649 g / cm^3
# Si number density = 26.216156 Si / 1000 Ang^3
#
#
#
# Elastic Constant Matrix: (Units=GPa)
#
#
# Indices 1 2 3 4 5 6 
#
# 1 215.5427 49.8410 17.5411 0.0000 2.7143 0.0000
# 2 49.8410 166.0652 21.2547 0.0000 3.8897 0.0000
# 3 17.5411 21.2547 86.7095 0.0000 -8.2928 0.0000
# 4 0.0000 0.0000 0.0000 36.7707 0.0000 -14.6452
# 5 2.7143 3.8897 -8.2928 0.0000 47.5697 0.0000
# 6 0.0000 0.0000 0.0000 -14.6452 0.0000 46.6519
#
#
#
# Elastic Compliance Matrix: (Units=1/GPa)
#
#
# Indices 1 2 3 4 5 6 
#
# 1 0.005027 -0.001412 -0.000699 0.000000 -0.000293 0.000000
# 2 -0.001412 0.006643 -0.001410 0.000000 -0.000708 0.000000
# 3 -0.000699 -0.001410 0.012239 0.000000 0.002289 0.000000
# 4 0.000000 0.000000 0.000000 0.031082 0.000000 0.009757
# 5 -0.000293 -0.000708 0.002289 0.000000 0.021495 0.000000
# 6 0.000000 0.000000 0.000000 0.009757 0.000000 0.024498
#
#
# Mechanical properties :
#
#
# Convention : Reuss Voigt Hill
#
# Bulk Modulus (GPa) = 59.29348 71.73235 65.51291
# Shear Modulus (GPa) = 43.99544 51.51049 47.75296
#
# Velocity S-wave (km/s) = 4.10100 4.43746 4.27254
# Velocity P-wave (km/s) = 6.71495 7.32639 7.02732
#
# Compressibility (1/GPa) = 0.01686526
#
# Stress axis : x y z
#
# Youngs Moduli (GPa) = 198.94224 150.54085 81.70789
#
# Poissons Ratio (x) = 0.21261 0.05709
# Poissons Ratio (y) = 0.28097 0.11524
# Poissons Ratio (z) = 0.13900 0.21231
#
# Static dielectric constant tensor:
#      x y z
#    x 2.072190 0.000000 0.113510 
#    y 0.000000 1.373700 0.000000 
#    z 0.113510 0.000000 2.304440 
# 
# From -- ./inp_files/46497.got.cif
#   From: 2010.05.17/outbox.cif.g08.bks.cpg/sg11_24_cif.got.tgz:46497.got - 2010.06.03 12:22:45.
