data_PCOD9166058
_publ_section_title
;
Structure prediction by ZEFSAII (Michael W. Deem and Ramdas Pophale) SiO2 
 PCOD9166058
Probable space group: P 21/M
;
_chemical_formula_sum "Si O2"
_cell_formula_units_Z 32
_cell_length_a 12.213896
_cell_length_b 14.276365
_cell_length_c 19.143431
_cell_angle_alpha 90.000000
_cell_angle_beta 25.519074
_cell_angle_gamma 90.000000
_cell_volume 1438.066513
_symmetry_space_group_name_H-M "P 21/M"
_symmetry_group_IT_number 11
_symmetry_cell_setting 'monoclinic'
loop_
_space_group_symop_operation_xyz
x,y,z
-x,1/2+y,-z
-x,-y,-z
x,1/2-y,z
loop_
_atom_site_type_symbol
_atom_site_label
_atom_site_fract_x
_atom_site_fract_y
_atom_site_fract_z
Si Si1 0.005710 0.140649 0.982103
Si Si2 0.064663 0.947161 0.122124
Si Si3 0.374185 0.413831 0.528898
Si Si4 0.584746 0.861465 0.645098
Si Si5 0.516586 0.142895 0.765523
Si Si6 0.636533 0.953866 0.763490
Si Si7 0.071940 0.855991 0.589713
Si Si8 0.101365 0.649743 0.737987
O O1 0.028018 0.250000 0.947969
O O2 0.227055 0.123385 0.909850
O O3 0.038547 0.076740 0.895372
O O4 0.722092 0.127569 0.174184
O O5 0.885022 0.893922 0.280824
O O6 0.360924 0.921136 0.950203
O O7 0.035324 0.056915 0.156471
O O8 0.500000 0.500000 0.500000
O O9 0.321892 0.418472 0.476474
O O10 0.614416 0.345771 0.395529
O O11 0.642593 0.750000 0.606515
O O12 0.682625 0.903379 0.662050
O O13 0.543944 0.250000 0.773803
O O14 0.678484 0.133181 0.600964
O O15 0.614730 0.064129 0.761092
O O16 0.858101 0.926896 0.687925
O O17 0.975202 0.750000 0.631469
O O18 0.125551 0.861680 0.640656
O O19 0.973632 0.750000 0.826962
#
# Coordination Sequence:
#
# PCOD9166058 Si02
#       8
#     4   4   4   4   4   4   4   4
#     4   9  20  38  62  94 130 162 203 258 317 371
#     4  10  23  38  62  96 128 163 207 251 315 379
#     4  10  22  37  58  90 128 163 204 249 305 377
#     4  10  22  39  63  94 129 166 203 254 318 373
#     4  10  22  38  63  93 121 159 208 259 310 367
#     4  11  24  39  67  94 127 164 206 265 316 365
#     4  10  22  43  64  87 118 165 219 260 310 372
#     4  10  22  39  64  90 125 171 211 255 305 369
#
# _framework density 22.252099999999999
#
# number of rings (size 3 to 8) (size 9 to 14) (size 15 to 20)
#    0.000    2.000    0.000    1.875   10.500    4.500 
#    0.000    0.000    0.000    0.750    0.000    0.000 
#    0.000    0.000    0.000    0.000    0.000    0.000 
#
# Total GULP energy -178958.008255 kJ/mol
# GULP energy per Si atom -5592.437758 kJ/mol
# Density = 2.220145 g / cm^3
# Si number density = 22.252100 Si / 1000 Ang^3
#
#
#
# Elastic Constant Matrix: (Units=GPa)
#
#
# Indices 1 2 3 4 5 6 
#
# 1 64.5086 4.3255 21.0822 0.0000 3.0084 0.0000
# 2 4.3255 51.8905 -11.1494 0.0000 5.9252 0.0000
# 3 21.0822 -11.1494 70.6565 0.0000 26.3223 0.0000
# 4 0.0000 0.0000 0.0000 -2.3531 0.0000 -16.0536
# 5 3.0084 5.9252 26.3223 0.0000 28.8422 0.0000
# 6 0.0000 0.0000 0.0000 -16.0536 0.0000 18.3182
#
#
#
# Elastic Compliance Matrix: (Units=1/GPa)
#
#
# Indices 1 2 3 4 5 6 
#
# 1 0.018297 -0.004174 -0.008676 0.000000 0.006867 0.000000
# 2 -0.004174 0.023276 0.009905 0.000000 -0.013386 0.000000
# 3 -0.008676 0.009905 0.028372 0.000000 -0.027023 0.000000
# 4 0.000000 0.000000 0.000000 -0.060894 0.000000 -0.053366
# 5 0.006867 -0.013386 -0.027023 0.000000 0.061367 0.000000
# 6 0.000000 0.000000 0.000000 -0.053366 0.000000 0.007822
#
#
# Mechanical properties :
#
#
# Convention : Reuss Voigt Hill
#
# Bulk Modulus (GPa) = 15.61156 23.95246 19.78201
# Shear Modulus (GPa) = 47.40189 20.48128 33.94159
#
# Velocity S-wave (km/s) = 4.62044 3.03713 3.90977
# Velocity P-wave (km/s) = 5.95782 4.80483 5.41212
#
# Compressibility (1/GPa) = 0.06405510
#
# Stress axis : x y z
#
# Youngs Moduli (GPa) = 54.65407 42.96279 35.24638
#
# Poissons Ratio (x) = 0.17931 0.30580
# Poissons Ratio (y) = 0.22810 -0.34911
# Poissons Ratio (z) = 0.47419 -0.42554
#
# Static dielectric constant tensor:
#      x y z
#    x 1.763500 0.000000 0.012110 
#    y 0.000000 1.884550 0.000000 
#    z 0.012110 0.000000 1.831480 
# 
# From -- ./inp_files/59450.got.cif
#   From: 2010.05.17/outbox.cif.g08.bks.cpg/sg11_30_cif.got.tgz:59450.got - 2010.06.03 12:22:45.
