data_PCOD9166955
_publ_section_title
;
Structure prediction by ZEFSAII (Michael W. Deem and Ramdas Pophale) SiO2 
 PCOD9166955
Probable space group: P 21/M
;
_chemical_formula_sum "Si O2"
_cell_formula_units_Z 32
_cell_length_a 8.485395
_cell_length_b 29.722772
_cell_length_c 5.622905
_cell_angle_alpha 90.000000
_cell_angle_beta 63.852450
_cell_angle_gamma 90.000000
_cell_volume 1273.019446
_symmetry_space_group_name_H-M "P 21/M"
_symmetry_group_IT_number 11
_symmetry_cell_setting 'monoclinic'
loop_
_space_group_symop_operation_xyz
x,y,z
-x,1/2+y,-z
-x,-y,-z
x,1/2-y,z
loop_
_atom_site_type_symbol
_atom_site_label
_atom_site_fract_x
_atom_site_fract_y
_atom_site_fract_z
Si Si1 0.922465 0.798973 0.685459
Si Si2 0.385454 0.054790 0.029376
Si Si3 0.236655 0.361673 0.883481
Si Si4 0.686387 0.378866 0.270682
Si Si5 0.417744 0.300851 0.413234
Si Si6 0.738650 0.468375 0.046287
Si Si7 0.851612 0.365118 0.650562
Si Si8 0.900249 0.935298 0.397146
O O1 0.963873 0.750000 0.751207
O O2 0.734147 0.799359 0.684033
O O3 0.058417 0.816372 0.400589
O O4 0.924996 0.838142 0.877418
O O5 0.589500 0.045592 0.947845
O O6 0.260374 0.044754 0.342976
O O7 0.350252 0.106059 0.977687
O O8 0.309919 0.020430 0.881824
O O9 0.331181 0.317581 0.716472
O O10 0.178651 0.396201 0.718342
O O11 0.538987 0.343648 0.284331
O O12 0.681468 0.433427 0.289575
O O13 0.720661 0.363318 0.516890
O O14 0.801404 0.376606 0.953032
O O15 0.492142 0.250000 0.380916
O O16 0.944509 0.464600 0.831543
O O17 0.983783 0.405859 0.495758
#
# Coordination Sequence:
#
# PCOD9166955 Si02
#       8
#     4   4   4   4   4   4   4   4
#     4  11  23  41  68  98 135 183 237 296 361 437
#     4  11  24  45  70 101 148 189 251 301 370 441
#     4  12  22  43  71 102 139 191 246 298 372 440
#     4  11  26  47  72 102 146 187 240 301 371 430
#     4  11  26  45  70 102 139 187 242 302 374 445
#     4  10  24  45  67 110 140 195 249 303 365 447
#     4  11  24  45  71 101 141 189 236 297 364 442
#     4  11  23  43  69 101 144 191 235 302 367 433
#
# _framework density 25.137087000000001
#
# number of rings (size 3 to 8) (size 9 to 14) (size 15 to 20)
#    0.000    1.000    2.500    3.750    5.250    1.500 
#    4.500    1.875    0.000    0.000    0.000    0.000 
#    0.000    0.000    0.000    0.000    0.000    0.000 
#
# Total GULP energy -178428.766667 kJ/mol
# GULP energy per Si atom -5575.898958 kJ/mol
# Density = 2.507987 g / cm^3
# Si number density = 25.137087 Si / 1000 Ang^3
#
#
#
# Elastic Constant Matrix: (Units=GPa)
#
#
# Indices 1 2 3 4 5 6 
#
# 1 70.3226 17.2678 23.4396 0.0000 6.1420 0.0000
# 2 17.2678 118.1364 28.2380 0.0000 8.3815 0.0000
# 3 23.4396 28.2380 66.5275 0.0000 -3.1233 0.0000
# 4 0.0000 0.0000 0.0000 25.0789 0.0000 13.2139
# 5 6.1420 8.3815 -3.1233 0.0000 34.5013 0.0000
# 6 0.0000 0.0000 0.0000 13.2139 0.0000 19.6888
#
#
#
# Elastic Compliance Matrix: (Units=1/GPa)
#
#
# Indices 1 2 3 4 5 6 
#
# 1 0.016592 -0.000846 -0.005640 0.000000 -0.003259 0.000000
# 2 -0.000846 0.009714 -0.003945 0.000000 -0.002566 0.000000
# 3 -0.005640 -0.003945 0.018865 0.000000 0.003670 0.000000
# 4 0.000000 0.000000 0.000000 0.061688 0.000000 -0.041401
# 5 -0.003259 -0.002566 0.003670 0.000000 0.030520 0.000000
# 6 0.000000 0.000000 0.000000 -0.041401 0.000000 0.078576
#
#
# Mechanical properties :
#
#
# Convention : Reuss Voigt Hill
#
# Bulk Modulus (GPa) = 41.13728 43.65304 42.39516
# Shear Modulus (GPa) = 20.41472 28.25656 24.33564
#
# Velocity S-wave (km/s) = 2.85289 3.35639 3.11483
# Velocity P-wave (km/s) = 5.22041 5.69423 5.46246
#
# Compressibility (1/GPa) = 0.02430885
#
# Stress axis : x y z
#
# Youngs Moduli (GPa) = 60.26856 102.94860 53.00697
#
# Poissons Ratio (x) = 0.08709 0.29895
# Poissons Ratio (y) = 0.05099 0.20913
# Poissons Ratio (z) = 0.33991 0.40617
#
# Static dielectric constant tensor:
#      x y z
#    x 2.105470 0.000000 -0.110810 
#    y 0.000000 2.139800 0.000000 
#    z -0.110810 0.000000 2.120030 
# 
# From -- ./inp_files/3381.got.cif
#   From: 2010.05.17/outbox.cif.g08.bks.cpg/sg11_2_cif.got.tgz:3381.got - 2010.06.03 12:22:45.
