data_PCOD9166596
_publ_section_title
;
Structure prediction by ZEFSAII (Michael W. Deem and Ramdas Pophale) SiO2 
 PCOD9166596
Probable space group: P 21/M
;
_chemical_formula_sum "Si O2"
_cell_formula_units_Z 16
_cell_length_a 10.215038
_cell_length_b 10.895785
_cell_length_c 14.997102
_cell_angle_alpha 90.000000
_cell_angle_beta 26.399690
_cell_angle_gamma 90.000000
_cell_volume 742.172646
_symmetry_space_group_name_H-M "P 21/M"
_symmetry_group_IT_number 11
_symmetry_cell_setting 'monoclinic'
loop_
_space_group_symop_operation_xyz
x,y,z
-x,1/2+y,-z
-x,-y,-z
x,1/2-y,z
loop_
_atom_site_type_symbol
_atom_site_label
_atom_site_fract_x
_atom_site_fract_y
_atom_site_fract_z
Si Si1 0.314221 0.018491 0.523368
Si Si2 0.800011 0.381546 0.105751
Si Si3 0.962522 0.894959 0.599233
Si Si4 0.319208 0.885855 0.031634
O O1 0.229415 0.908124 0.507332
O O2 0.994927 0.064217 0.747204
O O3 0.500000 0.000000 0.500000
O O4 0.512213 0.107251 0.342432
O O5 0.949431 0.250000 0.033381
O O6 0.707989 0.382607 0.059280
O O7 0.000000 0.500000 0.000000
O O8 0.942056 0.750000 0.583229
O O9 0.654672 0.931635 0.836130
O O10 0.000000 0.000000 0.500000
O O11 0.332038 0.750000 0.063781
#
# Coordination Sequence:
#
# PCOD9166596 Si02
#       4
#     4   4   4   4
#     4  12  24  42  70 104 139 182 231 290 348 414
#     4  11  23  42  67  99 138 184 227 284 353 414
#     4  11  25  46  72 104 142 187 237 288 349 420
#     4  10  22  43  67  96 137 182 230 285 346 412
#
# _framework density 21.558326999999998
#
# number of rings (size 3 to 8) (size 9 to 14) (size 15 to 20)
#    0.000    1.000    5.000    1.500    0.000    4.000 
#    0.000    1.250    0.000    0.000    0.000    0.000 
#    0.000    0.000    0.000    0.000    0.000    0.000 
#
# Total GULP energy -89100.003749 kJ/mol
# GULP energy per Si atom -5568.750234 kJ/mol
# Density = 2.150926 g / cm^3
# Si number density = 21.558327 Si / 1000 Ang^3
#
#
#
# Elastic Constant Matrix: (Units=GPa)
#
#
# Indices 1 2 3 4 5 6 
#
# 1 66.7269 27.4501 53.8766 0.0000 -4.5844 0.0000
# 2 27.4501 108.9330 79.0814 0.0000 -6.3698 0.0000
# 3 53.8766 79.0814 148.2249 0.0000 -1.0490 0.0000
# 4 0.0000 0.0000 0.0000 34.8320 0.0000 -8.5111
# 5 -4.5844 -6.3698 -1.0490 0.0000 48.1997 0.0000
# 6 0.0000 0.0000 0.0000 -8.5111 0.0000 11.7502
#
#
#
# Elastic Compliance Matrix: (Units=1/GPa)
#
#
# Indices 1 2 3 4 5 6 
#
# 1 0.021400 0.000584 -0.008076 0.000000 0.001937 0.000000
# 2 0.000584 0.015158 -0.008286 0.000000 0.001878 0.000000
# 3 -0.008076 -0.008286 0.014092 0.000000 -0.001556 0.000000
# 4 0.000000 0.000000 0.000000 0.034883 0.000000 0.025267
# 5 0.001937 0.001878 -0.001556 0.000000 0.021146 0.000000
# 6 0.000000 0.000000 0.000000 0.025267 0.000000 0.103407
#
#
# Mechanical properties :
#
#
# Convention : Reuss Voigt Hill
#
# Bulk Modulus (GPa) = 52.37536 71.63345 62.00441
# Shear Modulus (GPa) = 20.16065 29.85483 25.00774
#
# Velocity S-wave (km/s) = 3.06137 3.72538 3.40958
# Velocity P-wave (km/s) = 6.06988 7.19753 6.65762
#
# Compressibility (1/GPa) = 0.01909295
#
# Stress axis : x y z
#
# Youngs Moduli (GPa) = 46.72823 65.97146 70.96325
#
# Poissons Ratio (x) = -0.03850 0.57312
# Poissons Ratio (y) = -0.02727 0.58800
# Poissons Ratio (z) = 0.37739 0.54664
#
# Static dielectric constant tensor:
#      x y z
#    x 1.842630 0.000000 -0.012010 
#    y 0.000000 1.907200 0.000000 
#    z -0.012010 0.000000 1.747550 
# 
# From -- ./inp_files/57662.got.cif
#   From: 2010.05.17/outbox.cif.g08.bks.cpg/sg11_29_cif.got.tgz:57662.got - 2010.06.03 12:22:45.
