data_PCOD9166339
_publ_section_title
;
Structure prediction by ZEFSAII (Michael W. Deem and Ramdas Pophale) SiO2 
 PCOD9166339
Probable space group: P 21/M
;
_chemical_formula_sum "Si O2"
_cell_formula_units_Z 32
_cell_length_a 14.817166
_cell_length_b 13.706505
_cell_length_c 21.259205
_cell_angle_alpha 90.000000
_cell_angle_beta 160.490063
_cell_angle_gamma 90.000000
_cell_volume 1441.938685
_symmetry_space_group_name_H-M "P 21/M"
_symmetry_group_IT_number 11
_symmetry_cell_setting 'monoclinic'
loop_
_space_group_symop_operation_xyz
x,y,z
-x,1/2+y,-z
-x,-y,-z
x,1/2-y,z
loop_
_atom_site_type_symbol
_atom_site_label
_atom_site_fract_x
_atom_site_fract_y
_atom_site_fract_z
Si Si1 0.847085 0.363463 0.575645
Si Si2 0.425842 0.633667 0.245802
Si Si3 0.001646 0.859520 0.594132
Si Si4 0.218437 0.136456 0.320742
Si Si5 0.589289 0.491576 0.653098
Si Si6 0.423505 0.079428 0.002377
Si Si7 0.037654 0.136901 0.568740
Si Si8 0.365836 0.915624 0.058765
O O1 0.761084 0.250000 0.519081
O O2 0.638330 0.431289 0.474514
O O3 0.145528 0.369574 0.801772
O O4 0.889680 0.403761 0.532592
O O5 0.367928 0.750000 0.214672
O O6 0.285050 0.565942 0.205191
O O7 0.380542 0.602497 0.143573
O O8 0.747311 0.611703 0.469101
O O9 0.914970 0.750000 0.521652
O O10 0.019333 0.907382 0.537058
O O11 0.301476 0.859921 0.816561
O O12 0.272667 0.250000 0.340779
O O13 0.445228 0.091107 0.515411
O O14 0.217779 0.059992 0.262123
O O15 0.915882 0.129478 0.149850
O O16 0.500000 0.000000 0.000000
O O17 0.378240 0.024984 0.039435
O O18 0.952691 0.250000 0.513202
O O19 0.360935 0.131881 0.789018
#
# Coordination Sequence:
#
# PCOD9166339 Si02
#       8
#     4   4   4   4   4   4   4   4
#     4  11  22  38  59  89 127 163 200 254 310 365
#     4  10  22  40  64  93 126 161 205 258 307 365
#     4   9  20  36  55  85 124 167 203 241 298 362
#     4  11  24  44  67  89 120 158 206 260 309 370
#     4  11  24  42  65  93 118 159 209 254 313 370
#     4  12  22  35  54  90 127 165 207 251 301 362
#     4   9  19  35  58  86 120 160 199 241 298 362
#     4  11  22  38  62  89 125 161 208 251 306 358
#
# _framework density 22.192343999999999
#
# number of rings (size 3 to 8) (size 9 to 14) (size 15 to 20)
#    0.000    1.500    2.500    3.750    1.750    1.500 
#    0.000    0.000    0.000    0.000    0.000    0.000 
#    0.000    0.000    0.000    0.000    0.000    0.000 
#
# Total GULP energy -178548.094057 kJ/mol
# GULP energy per Si atom -5579.627939 kJ/mol
# Density = 2.214183 g / cm^3
# Si number density = 22.192344 Si / 1000 Ang^3
#
#
#
# Elastic Constant Matrix: (Units=GPa)
#
#
# Indices 1 2 3 4 5 6 
#
# 1 64.7867 33.1583 -4.5636 0.0000 -3.9720 0.0000
# 2 33.1583 111.3916 -2.3046 0.0000 -7.6430 0.0000
# 3 -4.5636 -2.3046 37.1556 0.0000 10.9023 0.0000
# 4 0.0000 0.0000 0.0000 24.0266 0.0000 2.1028
# 5 -3.9720 -7.6430 10.9023 0.0000 22.8786 0.0000
# 6 0.0000 0.0000 0.0000 2.1028 0.0000 28.0874
#
#
#
# Elastic Compliance Matrix: (Units=1/GPa)
#
#
# Indices 1 2 3 4 5 6 
#
# 1 0.018351 -0.005389 0.001759 0.000000 0.000548 0.000000
# 2 -0.005389 0.010775 -0.000901 0.000000 0.003094 0.000000
# 3 0.001759 -0.000901 0.031473 0.000000 -0.014994 0.000000
# 4 0.000000 0.000000 0.000000 0.041895 0.000000 -0.003137
# 5 0.000548 0.003094 -0.014994 0.000000 0.051982 0.000000
# 6 0.000000 0.000000 0.000000 -0.003137 0.000000 0.035838
#
#
# Mechanical properties :
#
#
# Convention : Reuss Voigt Hill
#
# Bulk Modulus (GPa) = 19.40332 29.54599 24.47465
# Shear Modulus (GPa) = 23.08881 27.46811 25.27846
#
# Velocity S-wave (km/s) = 3.22902 3.52195 3.37866
# Velocity P-wave (km/s) = 4.76070 5.46639 5.12570
#
# Compressibility (1/GPa) = 0.05153757
#
# Stress axis : x y z
#
# Youngs Moduli (GPa) = 54.49402 92.80768 31.77283
#
# Poissons Ratio (x) = 0.50010 -0.05589
# Poissons Ratio (y) = 0.29364 0.02863
# Poissons Ratio (z) = -0.09585 0.08364
#
# Static dielectric constant tensor:
#      x y z
#    x 1.886570 0.000000 -0.028500 
#    y 0.000000 1.846890 0.000000 
#    z -0.028500 0.000000 1.826130 
# 
# From -- ./inp_files/65800.got.cif
#   From: 2010.05.17/outbox.cif.g08.bks.cpg/sg11_33_cif.got.tgz:65800.got - 2010.06.03 12:22:45.
