data_PCOD9166281
_publ_section_title
;
Structure prediction by ZEFSAII (Michael W. Deem and Ramdas Pophale) SiO2 
 PCOD9166281
Probable space group: P 21/M
;
_chemical_formula_sum "Si O2"
_cell_formula_units_Z 28
_cell_length_a 9.173092
_cell_length_b 28.728092
_cell_length_c 5.347348
_cell_angle_alpha 90.000000
_cell_angle_beta 69.289212
_cell_angle_gamma 90.000000
_cell_volume 1318.098546
_symmetry_space_group_name_H-M "P 21/M"
_symmetry_group_IT_number 11
_symmetry_cell_setting 'monoclinic'
loop_
_space_group_symop_operation_xyz
x,y,z
-x,1/2+y,-z
-x,-y,-z
x,1/2-y,z
loop_
_atom_site_type_symbol
_atom_site_label
_atom_site_fract_x
_atom_site_fract_y
_atom_site_fract_z
Si Si1 0.976418 0.883912 0.997610
Si Si2 0.253798 0.303959 0.715304
Si Si3 0.132305 0.031040 0.664799
Si Si4 0.543896 0.696032 0.902505
Si Si5 0.320600 0.610453 0.027342
Si Si6 0.870533 0.065980 0.475458
Si Si7 0.535800 0.529339 0.729095
O O1 0.885828 0.839042 0.142767
O O2 0.870106 0.929166 0.125339
O O3 0.148875 0.884734 0.014281
O O4 0.021750 0.891803 0.682099
O O5 0.202822 0.250000 0.730417
O O6 0.343657 0.314916 0.402176
O O7 0.366632 0.308033 0.887815
O O8 0.280222 0.040165 0.398116
O O9 0.967302 0.040306 0.632647
O O10 0.145193 0.975960 0.716893
O O11 0.495114 0.750000 0.902028
O O12 0.403200 0.659878 0.992053
O O13 0.286956 0.586286 0.316585
O O14 0.432250 0.575595 0.809086
O O15 0.500000 0.500000 0.500000
O O16 0.500000 0.500000 0.000000
#
# Coordination Sequence:
#
# PCOD9166281 Si02
#       7
#     4   4   4   4   4   4   4
#     4  11  24  39  66  94 131 178 220 269 330 393
#     4  10  24  46  72  97 129 171 222 272 333 407
#     4  10  22  40  61  88 131 181 218 270 314 392
#     4  10  24  47  72 100 131 171 219 278 338 398
#     4  11  25  40  65 101 133 175 220 283 331 394
#     4  10  22  40  60  92 133 173 224 261 326 387
#     4  12  26  41  63  94 131 174 224 273 324 387
#
# _framework density 21.242721
#
# number of rings (size 3 to 8) (size 9 to 14) (size 15 to 20)
#    0.000    1.429    1.429    2.143   10.000    0.571 
#    0.000    0.714    0.000    0.000    0.000    0.000 
#    0.000    0.000    0.000    0.000    0.000    0.000 
#
# Total GULP energy -156316.026064 kJ/mol
# GULP energy per Si atom -5582.715217 kJ/mol
# Density = 2.119437 g / cm^3
# Si number density = 21.242721 Si / 1000 Ang^3
#
#
#
# Elastic Constant Matrix: (Units=GPa)
#
#
# Indices 1 2 3 4 5 6 
#
# 1 62.8729 55.5933 24.4088 0.0000 -18.7827 0.0000
# 2 55.5933 115.5387 45.3402 0.0000 -30.7934 0.0000
# 3 24.4088 45.3402 111.5019 0.0000 -17.2167 0.0000
# 4 0.0000 0.0000 0.0000 34.4993 0.0000 -20.3109
# 5 -18.7827 -30.7934 -17.2167 0.0000 41.1263 0.0000
# 6 0.0000 0.0000 0.0000 -20.3109 0.0000 34.4970
#
#
#
# Elastic Compliance Matrix: (Units=1/GPa)
#
#
# Indices 1 2 3 4 5 6 
#
# 1 0.028087 -0.012403 -0.000597 0.000000 0.003291 0.000000
# 2 -0.012403 0.017615 -0.003513 0.000000 0.006054 0.000000
# 3 -0.000597 -0.003513 0.010776 0.000000 0.001608 0.000000
# 4 0.000000 0.000000 0.000000 0.044364 0.000000 0.026120
# 5 0.003291 0.006054 0.001608 0.000000 0.031025 0.000000
# 6 0.000000 0.000000 0.000000 0.026120 0.000000 0.044367
#
#
# Mechanical properties :
#
#
# Convention : Reuss Voigt Hill
#
# Bulk Modulus (GPa) = 42.64001 60.06648 51.35324
# Shear Modulus (GPa) = 23.03329 32.99592 28.01460
#
# Velocity S-wave (km/s) = 3.29643 3.94544 3.63545
# Velocity P-wave (km/s) = 5.88260 7.00664 6.46908
#
# Compressibility (1/GPa) = 0.02345215
#
# Stress axis : x y z
#
# Youngs Moduli (GPa) = 35.60357 56.76897 92.79962
#
# Poissons Ratio (x) = 0.70412 0.05539
# Poissons Ratio (y) = 0.44160 0.32600
# Poissons Ratio (z) = 0.02125 0.19943
#
# Static dielectric constant tensor:
#      x y z
#    x 1.811910 0.000000 0.068950 
#    y 0.000000 1.773410 0.000000 
#    z 0.068950 0.000000 1.849050 
# 
# From -- ./inp_files/3343.got.cif
#   From: 2010.05.17/outbox.cif.g08.bks.cpg/sg11_2_cif.got.tgz:3343.got - 2010.06.03 12:22:45.
