data_PCOD9166131
_publ_section_title
;
Structure prediction by ZEFSAII (Michael W. Deem and Ramdas Pophale) SiO2 
 PCOD9166131
Probable space group: P 21/M
;
_chemical_formula_sum "Si O2"
_cell_formula_units_Z 30
_cell_length_a 16.641835
_cell_length_b 15.656870
_cell_length_c 5.151484
_cell_angle_alpha 90.000000
_cell_angle_beta 78.393931
_cell_angle_gamma 90.000000
_cell_volume 1314.821723
_symmetry_space_group_name_H-M "P 21/M"
_symmetry_group_IT_number 11
_symmetry_cell_setting 'monoclinic'
loop_
_space_group_symop_operation_xyz
x,y,z
-x,1/2+y,-z
-x,-y,-z
x,1/2-y,z
loop_
_atom_site_type_symbol
_atom_site_label
_atom_site_fract_x
_atom_site_fract_y
_atom_site_fract_z
Si Si1 0.381660 0.155321 0.515060
Si Si2 0.822437 0.084356 0.579567
Si Si3 0.307015 0.455272 0.190650
Si Si4 0.368112 0.901045 0.810242
Si Si5 0.793091 0.653863 0.094987
Si Si6 0.463719 0.851045 0.244269
Si Si7 0.096904 0.510392 0.956244
Si Si8 0.745077 0.250000 0.894895
O O1 0.402723 0.250000 0.394895
O O2 0.382469 0.083699 0.296312
O O3 0.288054 0.156632 0.673714
O O4 0.444149 0.140530 0.710104
O O5 0.790028 0.175356 0.689297
O O6 0.743963 0.022323 0.606991
O O7 0.871190 0.076986 0.280359
O O8 0.875847 0.044251 0.779628
O O9 0.329297 0.508964 0.918994
O O10 0.246901 0.378341 0.148581
O O11 0.438506 0.886180 0.982487
O O12 0.302714 0.825921 0.905426
O O13 0.407716 0.892504 0.504115
O O14 0.826796 0.750000 0.058668
O O15 0.858291 0.580807 0.123779
O O16 0.442920 0.750000 0.251050
O O17 0.000000 0.500000 0.000000
#
# Coordination Sequence:
#
# PCOD9166131 Si02
#       8
#     4   4   4   4   4   4   4   2
#     4  10  22  38  62  83 123 170 222 272 317 385
#     4  10  23  41  69  98 130 172 212 257 324 395
#     4  10  22  38  64  89 123 166 221 264 320 377
#     4  11  24  39  63  88 130 168 217 274 329 373
#     4  10  22  43  65  94 126 172 218 256 325 388
#     4  11  23  40  56  88 125 171 219 274 331 374
#     4  11  23  45  71 100 138 164 206 271 327 386
#     4  10  22  42  68  96 130 176 220 268 314 400
#
# _framework density 22.816780000000001
#
# number of rings (size 3 to 8) (size 9 to 14) (size 15 to 20)
#    0.000    1.600    2.667    0.800    3.733    5.867 
#    2.400    0.000    0.000    0.000    0.000    0.000 
#    0.000    0.000    0.000    0.000    0.000    0.000 
#
# Total GULP energy -167446.110780 kJ/mol
# GULP energy per Si atom -5581.537026 kJ/mol
# Density = 2.276485 g / cm^3
# Si number density = 22.816780 Si / 1000 Ang^3
#
#
#
# Elastic Constant Matrix: (Units=GPa)
#
#
# Indices 1 2 3 4 5 6 
#
# 1 107.3550 30.4715 32.8795 0.0000 2.6602 0.0000
# 2 30.4715 124.5411 3.0644 0.0000 4.0090 0.0000
# 3 32.8795 3.0644 64.1379 0.0000 5.3342 0.0000
# 4 0.0000 0.0000 0.0000 22.0070 0.0000 -3.3650
# 5 2.6602 4.0090 5.3342 0.0000 31.8145 0.0000
# 6 0.0000 0.0000 0.0000 -3.3650 0.0000 23.8571
#
#
#
# Elastic Compliance Matrix: (Units=1/GPa)
#
#
# Indices 1 2 3 4 5 6 
#
# 1 0.011939 -0.002785 -0.006018 0.000000 0.000362 0.000000
# 2 -0.002785 0.008718 0.001098 0.000000 -0.001050 0.000000
# 3 -0.006018 0.001098 0.018856 0.000000 -0.002797 0.000000
# 4 0.000000 0.000000 0.000000 0.046442 0.000000 0.006551
# 5 0.000362 -0.001050 -0.002797 0.000000 0.032003 0.000000
# 6 0.000000 0.000000 0.000000 0.006551 0.000000 0.042840
#
#
# Mechanical properties :
#
#
# Convention : Reuss Voigt Hill
#
# Bulk Modulus (GPa) = 41.48455 47.65165 44.56810
# Shear Modulus (GPa) = 27.13831 30.84364 28.99097
#
# Velocity S-wave (km/s) = 3.45251 3.68067 3.56841
# Velocity P-wave (km/s) = 5.84073 6.24443 6.04595
#
# Compressibility (1/GPa) = 0.02410536
#
# Stress axis : x y z
#
# Youngs Moduli (GPa) = 83.75662 114.71058 53.03249
#
# Poissons Ratio (x) = 0.31944 0.31913
# Poissons Ratio (y) = 0.23324 -0.05825
# Poissons Ratio (z) = 0.50401 -0.12599
#
# Static dielectric constant tensor:
#      x y z
#    x 1.865650 0.000000 0.007680 
#    y 0.000000 1.850710 0.000000 
#    z 0.007680 0.000000 1.892730 
# 
# From -- ./inp_files/8079.got.cif
#   From: 2010.05.17/outbox.cif.g08.bks.cpg/sg11_5_cif.got.tgz:8079.got - 2010.06.03 12:22:45.
