data_PCOD9166313
_publ_section_title
;
Structure prediction by ZEFSAII (Michael W. Deem and Ramdas Pophale) SiO2 
 PCOD9166313
Probable space group: P 21/M
;
_chemical_formula_sum "Si O2"
_cell_formula_units_Z 20
_cell_length_a 4.808323
_cell_length_b 20.549454
_cell_length_c 11.368105
_cell_angle_alpha 90.000000
_cell_angle_beta 53.927340
_cell_angle_gamma 90.000000
_cell_volume 907.901978
_symmetry_space_group_name_H-M "P 21/M"
_symmetry_group_IT_number 11
_symmetry_cell_setting 'monoclinic'
loop_
_space_group_symop_operation_xyz
x,y,z
-x,1/2+y,-z
-x,-y,-z
x,1/2-y,z
loop_
_atom_site_type_symbol
_atom_site_label
_atom_site_fract_x
_atom_site_fract_y
_atom_site_fract_z
Si Si1 0.767825 0.323095 0.683639
Si Si2 0.715391 0.443129 0.542153
Si Si3 0.990101 0.324386 0.881435
Si Si4 0.571570 0.931749 0.915044
Si Si5 0.330616 0.549664 0.720303
O O1 0.779610 0.250000 0.632101
O O2 0.839416 0.377905 0.571592
O O3 0.016227 0.327031 0.733087
O O4 0.378455 0.333644 0.829574
O O5 0.372738 0.471386 0.692460
O O6 0.626462 0.431574 0.427743
O O7 0.000000 0.500000 0.500000
O O8 0.881306 0.250000 0.938813
O O9 0.709652 0.377688 0.985307
O O10 0.567097 0.937020 0.773894
O O11 0.967353 0.920245 0.847789
O O12 0.500000 0.000000 0.000000
#
# Coordination Sequence:
#
# PCOD9166313 Si02
#       5
#     4   4   4   4   4
#     4  10  22  40  64  89 115 158 206 246 299 357
#     4  11  23  41  63  87 128 156 205 255 300 347
#     4  10  22  40  63  89 120 157 198 250 300 355
#     4  12  22  38  60  89 121 153 199 244 299 357
#     4  11  24  37  59  91 117 159 197 242 305 348
#
# _framework density 22.028811000000001
#
# number of rings (size 3 to 8) (size 9 to 14) (size 15 to 20)
#    0.000    1.200    2.000    4.200    5.600    0.000 
#    0.000    2.000    0.000    1.200    0.000    0.000 
#    0.000    0.000    0.000    0.000    0.000    0.000 
#
# Total GULP energy -111543.147585 kJ/mol
# GULP energy per Si atom -5577.157379 kJ/mol
# Density = 2.197867 g / cm^3
# Si number density = 22.028811 Si / 1000 Ang^3
#
#
#
# Elastic Constant Matrix: (Units=GPa)
#
#
# Indices 1 2 3 4 5 6 
#
# 1 103.3880 6.6646 14.7107 0.0000 12.4617 0.0000
# 2 6.6646 115.0241 44.9614 0.0000 4.9123 0.0000
# 3 14.7107 44.9614 56.8222 0.0000 19.5417 0.0000
# 4 0.0000 0.0000 0.0000 41.1636 0.0000 -6.6652
# 5 12.4617 4.9123 19.5417 0.0000 36.8008 0.0000
# 6 0.0000 0.0000 0.0000 -6.6652 0.0000 27.8421
#
#
#
# Elastic Compliance Matrix: (Units=1/GPa)
#
#
# Indices 1 2 3 4 5 6 
#
# 1 0.010237 0.000322 -0.002077 0.000000 -0.002407 0.000000
# 2 0.000322 0.013212 -0.012104 0.000000 0.004555 0.000000
# 3 -0.002077 -0.012104 0.032930 0.000000 -0.015167 0.000000
# 4 0.000000 0.000000 0.000000 0.025273 0.000000 0.006050
# 5 -0.002407 0.004555 -0.015167 0.000000 0.035434 0.000000
# 6 0.000000 0.000000 0.000000 0.006050 0.000000 0.037365
#
#
# Mechanical properties :
#
#
# Convention : Reuss Voigt Hill
#
# Bulk Modulus (GPa) = 34.89147 45.32308 40.10728
# Shear Modulus (GPa) = 26.07925 35.08783 30.58354
#
# Velocity S-wave (km/s) = 3.44447 3.99534 3.73009
# Velocity P-wave (km/s) = 5.62962 6.47323 6.06611
#
# Compressibility (1/GPa) = 0.02866030
#
# Stress axis : x y z
#
# Youngs Moduli (GPa) = 97.68310 75.68950 30.36754
#
# Poissons Ratio (x) = -0.02434 0.06308
# Poissons Ratio (y) = -0.03141 0.36756
# Poissons Ratio (z) = 0.20290 0.91613
#
# Static dielectric constant tensor:
#      x y z
#    x 1.850270 0.000000 -0.068000 
#    y 0.000000 1.828010 0.000000 
#    z -0.068000 0.000000 1.861870 
# 
# From -- ./inp_files/2357.got.cif
#   From: 2010.05.17/outbox.cif.g08.bks.cpg/sg11_2_cif.got.tgz:2357.got - 2010.06.03 12:22:45.
