data_PCOD9166010
_publ_section_title
;
Structure prediction by ZEFSAII (Michael W. Deem and Ramdas Pophale) SiO2 
 PCOD9166010
Probable space group: P 21/M
;
_chemical_formula_sum "Si O2"
_cell_formula_units_Z 32
_cell_length_a 8.880156
_cell_length_b 27.516659
_cell_length_c 13.262295
_cell_angle_alpha 90.000000
_cell_angle_beta 27.444367
_cell_angle_gamma 90.000000
_cell_volume 1493.583678
_symmetry_space_group_name_H-M "P 21/M"
_symmetry_group_IT_number 11
_symmetry_cell_setting 'monoclinic'
loop_
_space_group_symop_operation_xyz
x,y,z
-x,1/2+y,-z
-x,-y,-z
x,1/2-y,z
loop_
_atom_site_type_symbol
_atom_site_label
_atom_site_fract_x
_atom_site_fract_y
_atom_site_fract_z
Si Si1 0.885735 0.640853 0.735424
Si Si2 0.203493 0.119770 0.599222
Si Si3 0.677036 0.805211 0.062241
Si Si4 0.638703 0.963255 0.158423
Si Si5 0.570810 0.055904 0.930009
Si Si6 0.628543 0.030740 0.330533
Si Si7 0.333547 0.367409 0.741267
Si Si8 0.114878 0.193643 0.470092
O O1 0.275442 0.637502 0.498925
O O2 0.772980 0.668239 0.700733
O O3 0.790654 0.670437 0.891648
O O4 0.715822 0.588730 0.851523
O O5 0.526339 0.086347 0.402570
O O6 0.182712 0.142830 0.722393
O O7 0.906468 0.081269 0.764384
O O8 0.204484 0.159887 0.511607
O O9 0.791129 0.750000 0.998923
O O10 0.788074 0.834188 0.095151
O O11 0.281782 0.805789 0.297115
O O12 0.430434 0.941446 0.191440
O O13 0.720165 0.922769 0.193148
O O14 0.494687 0.008545 0.304893
O O15 0.984021 0.976294 0.903826
O O16 0.500000 0.000000 0.000000
O O17 0.500000 0.000000 0.500000
O O18 0.222755 0.250000 0.413243
#
# Coordination Sequence:
#
# PCOD9166010 Si02
#       8
#     4   4   4   4   4   4   4   4
#     4  11  22  45  68  95 129 183 222 272 335 415
#     4  12  25  43  66 102 142 176 220 291 339 394
#     4  10  21  44  72  96 126 174 230 276 335 413
#     4  11  24  44  65  92 131 183 228 269 324 410
#     4  12  26  40  64 103 137 175 224 271 334 404
#     4  11  24  42  68  93 131 185 227 271 335 397
#     4  11  24  41  69  96 132 172 226 274 337 397
#     4  10  23  44  69  99 134 175 224 283 350 406
#
# _framework density 21.424980000000001
#
# number of rings (size 3 to 8) (size 9 to 14) (size 15 to 20)
#    0.000    1.000    3.750    2.625    5.250    1.500 
#    0.000    0.000    0.000    0.000    0.000    0.000 
#    0.000    0.000    0.000    0.000    0.000    0.000 
#
# Total GULP energy -179006.258580 kJ/mol
# GULP energy per Si atom -5593.945581 kJ/mol
# Density = 2.137622 g / cm^3
# Si number density = 21.424980 Si / 1000 Ang^3
#
#
#
# Elastic Constant Matrix: (Units=GPa)
#
#
# Indices 1 2 3 4 5 6 
#
# 1 120.3507 53.2914 32.2116 0.0000 45.3008 0.0000
# 2 53.2914 152.4367 41.0007 0.0000 35.7077 0.0000
# 3 32.2116 41.0007 87.3219 0.0000 34.0291 0.0000
# 4 0.0000 0.0000 0.0000 22.8499 0.0000 0.4006
# 5 45.3008 35.7077 34.0291 0.0000 39.5394 0.0000
# 6 0.0000 0.0000 0.0000 0.4006 0.0000 26.0248
#
#
#
# Elastic Compliance Matrix: (Units=1/GPa)
#
#
# Indices 1 2 3 4 5 6 
#
# 1 0.015129 -0.001736 0.002073 0.000000 -0.017550 0.000000
# 2 -0.001736 0.008647 -0.001733 0.000000 -0.004329 0.000000
# 3 0.002073 -0.001733 0.017780 0.000000 -0.016113 0.000000
# 4 0.000000 0.000000 0.000000 0.043776 0.000000 -0.000674
# 5 -0.017550 -0.004329 -0.016113 0.000000 0.063176 0.000000
# 6 0.000000 0.000000 0.000000 -0.000674 0.000000 0.038435
#
#
# Mechanical properties :
#
#
# Convention : Reuss Voigt Hill
#
# Bulk Modulus (GPa) = 25.79608 68.12408 46.96008
# Shear Modulus (GPa) = 24.67271 33.25654 28.96462
#
# Velocity S-wave (km/s) = 3.39718 3.94411 3.68082
# Velocity P-wave (km/s) = 5.23967 7.25306 6.32697
#
# Compressibility (1/GPa) = 0.03876558
#
# Stress axis : x y z
#
# Youngs Moduli (GPa) = 66.10005 115.64665 56.24418
#
# Poissons Ratio (x) = 0.20071 -0.11662
# Poissons Ratio (y) = 0.11472 0.09746
# Poissons Ratio (z) = -0.13706 0.20038
#
# Static dielectric constant tensor:
#      x y z
#    x 1.820210 0.000000 -0.000350 
#    y 0.000000 1.800250 0.000000 
#    z -0.000350 0.000000 1.779570 
# 
# From -- ./inp_files/33194.got.cif
#   From: 2010.05.17/outbox.cif.g08.bks.cpg/sg11_17_cif.got.tgz:33194.got - 2010.06.03 12:22:45.
