data_PCOD9166850
_publ_section_title
;
Structure prediction by ZEFSAII (Michael W. Deem and Ramdas Pophale) SiO2 
 PCOD9166850
Probable space group: P 21/M
;
_chemical_formula_sum "Si O2"
_cell_formula_units_Z 26
_cell_length_a 13.656559
_cell_length_b 9.262897
_cell_length_c 12.455750
_cell_angle_alpha 90.000000
_cell_angle_beta 128.613548
_cell_angle_gamma 90.000000
_cell_volume 1231.165294
_symmetry_space_group_name_H-M "P 21/M"
_symmetry_group_IT_number 11
_symmetry_cell_setting 'monoclinic'
loop_
_space_group_symop_operation_xyz
x,y,z
-x,1/2+y,-z
-x,-y,-z
x,1/2-y,z
loop_
_atom_site_type_symbol
_atom_site_label
_atom_site_fract_x
_atom_site_fract_y
_atom_site_fract_z
Si Si1 0.035930 0.578830 0.912104
Si Si2 0.454399 0.422398 0.861289
Si Si3 0.154886 0.912949 0.365142
Si Si4 0.827234 0.485247 0.381571
Si Si5 0.680123 0.417649 0.850957
Si Si6 0.368129 0.421669 0.396434
Si Si7 0.989362 0.250000 0.441641
O O1 0.001243 0.750000 0.890937
O O2 0.960614 0.495108 0.768499
O O3 0.185455 0.569704 0.000171
O O4 0.000000 0.500000 0.000000
O O5 0.445407 0.250000 0.870868
O O6 0.318086 0.481528 0.735360
O O7 0.560459 0.447503 0.843277
O O8 0.500000 0.500000 0.000000
O O9 0.165584 0.750000 0.328143
O O10 0.150346 0.903425 0.489792
O O11 0.273733 0.011277 0.417956
O O12 0.888253 0.377320 0.338542
O O13 0.908961 0.626971 0.451191
O O14 0.669719 0.250000 0.805730
O O15 0.682131 0.527247 0.753259
O O16 0.500000 0.500000 0.500000
O O17 0.377287 0.250000 0.412136
#
# Coordination Sequence:
#
# PCOD9166850 Si02
#       7
#     4   4   4   4   4   4   2
#     4  11  23  41  67 100 143 181 230 283 341 414
#     4  11  26  47  72 102 140 184 231 287 349 416
#     4  12  25  42  69 102 138 182 225 288 346 412
#     4  11  24  47  72 103 140 179 237 290 354 414
#     4  10  23  45  67  95 136 183 227 282 342 409
#     4  12  25  40  66  99 134 176 225 277 348 418
#     4  10  24  44  72 100 138 182 234 298 348 412
#
# _framework density 21.118203999999999
#
# number of rings (size 3 to 8) (size 9 to 14) (size 15 to 20)
#    0.000    0.923    3.077    3.231    3.231    4.923 
#    2.769    0.000    0.000    0.000    0.000    0.000 
#    0.000    0.000    0.000    0.000    0.000    0.000 
#
# Total GULP energy -144891.493610 kJ/mol
# GULP energy per Si atom -5572.749754 kJ/mol
# Density = 2.107014 g / cm^3
# Si number density = 21.118204 Si / 1000 Ang^3
#
#
#
# Elastic Constant Matrix: (Units=GPa)
#
#
# Indices 1 2 3 4 5 6 
#
# 1 63.5727 32.5287 27.2814 0.0000 24.9933 0.0000
# 2 32.5287 176.5275 35.3302 0.0000 17.5311 0.0000
# 3 27.2814 35.3302 105.3872 0.0000 23.8219 0.0000
# 4 0.0000 0.0000 0.0000 28.0878 0.0000 2.3629
# 5 24.9933 17.5311 23.8219 0.0000 44.6201 0.0000
# 6 0.0000 0.0000 0.0000 2.3629 0.0000 31.0353
#
#
#
# Elastic Compliance Matrix: (Units=1/GPa)
#
#
# Indices 1 2 3 4 5 6 
#
# 1 0.022075 -0.002557 -0.002604 0.000000 -0.009971 0.000000
# 2 -0.002557 0.006455 -0.001425 0.000000 -0.000344 0.000000
# 3 -0.002604 -0.001425 0.011582 0.000000 -0.004165 0.000000
# 4 0.000000 0.000000 0.000000 0.035832 0.000000 -0.002728
# 5 -0.009971 -0.000344 -0.004165 0.000000 0.030355 0.000000
# 6 0.000000 0.000000 0.000000 -0.002728 0.000000 0.032429
#
#
# Mechanical properties :
#
#
# Convention : Reuss Voigt Hill
#
# Bulk Modulus (GPa) = 37.11570 59.52979 48.32275
# Shear Modulus (GPa) = 31.07915 37.43844 34.25880
#
# Velocity S-wave (km/s) = 3.84040 4.21504 4.03207
# Velocity P-wave (km/s) = 6.10560 7.20685 6.67896
#
# Compressibility (1/GPa) = 0.02694277
#
# Stress axis : x y z
#
# Youngs Moduli (GPa) = 45.29930 154.91458 86.34138
#
# Poissons Ratio (x) = 0.39604 0.22481
# Poissons Ratio (y) = 0.11581 0.12300
# Poissons Ratio (z) = 0.11795 0.22068
#
# Static dielectric constant tensor:
#      x y z
#    x 1.878900 0.000000 -0.014440 
#    y 0.000000 1.726590 0.000000 
#    z -0.014440 0.000000 1.762300 
# 
# From -- ./inp_files/51939.got.cif
#   From: 2010.05.17/outbox.cif.g08.bks.cpg/sg11_26_cif.got.tgz:51939.got - 2010.06.03 12:22:45.
