data_PCOD9166364
_publ_section_title
;
Structure prediction by ZEFSAII (Michael W. Deem and Ramdas Pophale) SiO2 
 PCOD9166364
Probable space group: P 21/M
;
_chemical_formula_sum "Si O2"
_cell_formula_units_Z 24
_cell_length_a 5.453183
_cell_length_b 20.749342
_cell_length_c 10.958265
_cell_angle_alpha 90.000000
_cell_angle_beta 115.577654
_cell_angle_gamma 90.000000
_cell_volume 1118.415577
_symmetry_space_group_name_H-M "P 21/M"
_symmetry_group_IT_number 11
_symmetry_cell_setting 'monoclinic'
loop_
_space_group_symop_operation_xyz
x,y,z
-x,1/2+y,-z
-x,-y,-z
x,1/2-y,z
loop_
_atom_site_type_symbol
_atom_site_label
_atom_site_fract_x
_atom_site_fract_y
_atom_site_fract_z
Si Si1 0.972124 0.177472 0.599204
Si Si2 0.495158 0.934958 0.916686
Si Si3 0.187687 0.060927 0.512739
Si Si4 0.719308 0.097786 0.745239
Si Si5 0.122902 0.038909 0.232861
Si Si6 0.487364 0.323601 0.894726
O O1 0.910060 0.250000 0.547856
O O2 0.747576 0.146094 0.638338
O O3 0.032486 0.127679 0.504893
O O4 0.235302 0.179128 0.745561
O O5 0.696691 0.942947 0.845282
O O6 0.173016 0.928900 0.818463
O O7 0.577143 0.871140 0.008911
O O8 0.500000 0.000000 0.000000
O O9 0.432956 0.062123 0.661796
O O10 0.277197 0.054606 0.392194
O O11 0.000000 0.000000 0.500000
O O12 0.719266 0.139409 0.867081
O O13 0.925608 0.038607 0.785016
O O14 0.554825 0.250000 0.941936
#
# Coordination Sequence:
#
# PCOD9166364 Si02
#       6
#     4   4   4   4   4   4
#     4  10  22  40  66  96 128 167 217 277 328 385
#     4  12  25  42  65  95 133 172 218 267 320 387
#     4  11  23  40  65  98 133 167 216 269 337 395
#     4  11  21  38  69  96 127 164 219 281 330 381
#     4  12  25  40  67  98 131 168 215 268 327 391
#     4  10  23  42  64  94 128 170 221 272 326 382
#
# _framework density 21.458926999999999
#
# number of rings (size 3 to 8) (size 9 to 14) (size 15 to 20)
#    0.000    1.000    3.333    3.500    4.667    0.667 
#    0.000    1.667    0.000    0.000    0.000    0.000 
#    0.000    0.000    0.000    0.000    0.000    0.000 
#
# Total GULP energy -134152.302319 kJ/mol
# GULP energy per Si atom -5589.679263 kJ/mol
# Density = 2.141009 g / cm^3
# Si number density = 21.458927 Si / 1000 Ang^3
#
#
#
# Elastic Constant Matrix: (Units=GPa)
#
#
# Indices 1 2 3 4 5 6 
#
# 1 88.7919 40.8666 26.5650 0.0000 -19.1927 0.0000
# 2 40.8666 192.6705 45.4135 0.0000 -26.5615 0.0000
# 3 26.5650 45.4135 59.9582 0.0000 -22.8007 0.0000
# 4 0.0000 0.0000 0.0000 29.8845 0.0000 -12.5300
# 5 -19.1927 -26.5615 -22.8007 0.0000 47.5838 0.0000
# 6 0.0000 0.0000 0.0000 -12.5300 0.0000 20.8366
#
#
#
# Elastic Compliance Matrix: (Units=1/GPa)
#
#
# Indices 1 2 3 4 5 6 
#
# 1 0.013758 -0.001638 -0.003782 0.000000 0.002823 0.000000
# 2 -0.001638 0.006603 -0.003822 0.000000 0.001194 0.000000
# 3 -0.003782 -0.003822 0.024282 0.000000 0.007976 0.000000
# 4 0.000000 0.000000 0.000000 0.044743 0.000000 0.026906
# 5 0.002823 0.001194 0.007976 0.000000 0.026643 0.000000
# 6 0.000000 0.000000 0.000000 0.026906 0.000000 0.064172
#
#
# Mechanical properties :
#
#
# Convention : Reuss Voigt Hill
#
# Bulk Modulus (GPa) = 38.22541 63.01232 50.61887
# Shear Modulus (GPa) = 24.10772 34.89935 29.50354
#
# Velocity S-wave (km/s) = 3.35541 4.03716 3.71197
# Velocity P-wave (km/s) = 5.73268 7.15258 6.48163
#
# Compressibility (1/GPa) = 0.02616061
#
# Stress axis : x y z
#
# Youngs Moduli (GPa) = 72.68736 151.44801 41.18354
#
# Poissons Ratio (x) = 0.24800 0.15574
# Poissons Ratio (y) = 0.11903 0.15739
# Poissons Ratio (z) = 0.27487 0.57877
#
# Static dielectric constant tensor:
#      x y z
#    x 1.879840 0.000000 0.052820 
#    y 0.000000 1.899320 0.000000 
#    z 0.052820 0.000000 1.823980 
# 
# From -- ./inp_files/29914.got.cif
#   From: 2010.05.17/outbox.cif.g08.bks.cpg/sg11_15_cif.got.tgz:29914.got - 2010.06.03 12:22:45.
