data_PCOD9166134
_publ_section_title
;
Structure prediction by ZEFSAII (Michael W. Deem and Ramdas Pophale) SiO2 
 PCOD9166134
Probable space group: P 21/M
;
_chemical_formula_sum "Si O2"
_cell_formula_units_Z 28
_cell_length_a 8.005339
_cell_length_b 15.791065
_cell_length_c 9.976716
_cell_angle_alpha 90.000000
_cell_angle_beta 81.710714
_cell_angle_gamma 90.000000
_cell_volume 1248.008995
_symmetry_space_group_name_H-M "P 21/M"
_symmetry_group_IT_number 11
_symmetry_cell_setting 'monoclinic'
loop_
_space_group_symop_operation_xyz
x,y,z
-x,1/2+y,-z
-x,-y,-z
x,1/2-y,z
loop_
_atom_site_type_symbol
_atom_site_label
_atom_site_fract_x
_atom_site_fract_y
_atom_site_fract_z
Si Si1 0.797901 0.652444 0.477043
Si Si2 0.149059 0.846966 0.301663
Si Si3 0.669425 0.840736 0.961706
Si Si4 0.170136 0.974283 0.050982
Si Si5 0.470775 0.377770 0.731548
Si Si6 0.525273 0.551657 0.633498
Si Si7 0.661811 0.156913 0.172487
O O1 0.787356 0.750000 0.520677
O O2 0.676876 0.642192 0.358617
O O3 0.708306 0.593450 0.597087
O O4 0.992038 0.633517 0.418117
O O5 0.118034 0.750000 0.255806
O O6 0.146017 0.917126 0.185637
O O7 0.341976 0.847813 0.333021
O O8 0.767582 0.750000 0.943202
O O9 0.582612 0.842594 0.118733
O O10 0.524394 0.835526 0.868347
O O11 0.748054 0.933560 0.934771
O O12 0.253572 0.910600 0.934320
O O13 0.000000 0.000000 0.000000
O O14 0.495720 0.478690 0.745391
O O15 0.500000 0.500000 0.500000
O O16 0.378892 0.619928 0.676196
O O17 0.741597 0.250000 0.164133
#
# Coordination Sequence:
#
# PCOD9166134 Si02
#       7
#     4   4   4   4   4   4   4
#     4  10  22  39  61  90 126 167 215 260 307 373
#     4  11  23  39  63  96 125 161 210 259 316 379
#     4  11  22  39  64  92 125 164 208 258 320 381
#     4  12  24  37  61  94 133 163 202 257 322 384
#     4  11  20  39  64  91 123 164 210 261 314 373
#     4  10  22  38  63  89 122 168 214 256 311 372
#     4  11  22  40  66  94 124 163 210 260 316 378
#
# _framework density 22.435737
#
# number of rings (size 3 to 8) (size 9 to 14) (size 15 to 20)
#    0.000    1.143    2.857    4.286    2.000    2.857 
#    0.000    0.000    0.000    0.000    0.000    0.000 
#    0.000    0.000    0.000    0.000    0.000    0.000 
#
# Total GULP energy -156208.755121 kJ/mol
# GULP energy per Si atom -5578.884111 kJ/mol
# Density = 2.238467 g / cm^3
# Si number density = 22.435737 Si / 1000 Ang^3
#
#
#
# Elastic Constant Matrix: (Units=GPa)
#
#
# Indices 1 2 3 4 5 6 
#
# 1 47.8700 17.0902 -22.8225 0.0000 -6.0316 0.0000
# 2 17.0902 194.7562 35.0595 0.0000 -31.3392 0.0000
# 3 -22.8225 35.0595 41.3433 0.0000 -4.7322 0.0000
# 4 0.0000 0.0000 0.0000 21.4558 0.0000 1.4482
# 5 -6.0316 -31.3392 -4.7322 0.0000 28.1657 0.0000
# 6 0.0000 0.0000 0.0000 1.4482 0.0000 3.8116
#
#
#
# Elastic Compliance Matrix: (Units=1/GPa)
#
#
# Indices 1 2 3 4 5 6 
#
# 1 0.037135 -0.007506 0.027345 0.000000 0.004195 0.000000
# 2 -0.007506 0.008764 -0.010852 0.000000 0.006321 0.000000
# 3 0.027345 -0.010852 0.048711 0.000000 0.001965 0.000000
# 4 0.000000 0.000000 0.000000 0.047834 0.000000 -0.018174
# 5 0.004195 0.006321 0.001965 0.000000 0.043765 0.000000
# 6 0.000000 0.000000 0.000000 -0.018174 0.000000 0.269261
#
#
# Mechanical properties :
#
#
# Convention : Reuss Voigt Hill
#
# Bulk Modulus (GPa) = 8.88228 38.06932 23.47580
# Shear Modulus (GPa) = 10.52576 27.66278 19.09427
#
# Velocity S-wave (km/s) = 2.16834 3.51519 2.92047
# Velocity P-wave (km/s) = 3.19946 5.78622 4.67530
#
# Compressibility (1/GPa) = 0.11258373
#
# Stress axis : x y z
#
# Youngs Moduli (GPa) = 26.92845 114.10345 20.52938
#
# Poissons Ratio (x) = 0.85650 -0.56138
# Poissons Ratio (y) = 0.20213 0.22279
# Poissons Ratio (z) = -0.73637 1.23827
#
# Static dielectric constant tensor:
#      x y z
#    x 1.829110 0.000000 0.023990 
#    y 0.000000 2.073250 0.000000 
#    z 0.023990 0.000000 1.882490 
# 
# From -- ./inp_files/31672.got.cif
#   From: 2010.05.17/outbox.cif.g08.bks.cpg/sg11_16_cif.got.tgz:31672.got - 2010.06.03 12:22:45.
