data_PCOD9166348
_publ_section_title
;
Structure prediction by ZEFSAII (Michael W. Deem and Ramdas Pophale) SiO2 
 PCOD9166348
Probable space group: P 21/M
;
_chemical_formula_sum "Si O2"
_cell_formula_units_Z 20
_cell_length_a 13.860542
_cell_length_b 10.267693
_cell_length_c 18.921113
_cell_angle_alpha 90.000000
_cell_angle_beta 159.905683
_cell_angle_gamma 90.000000
_cell_volume 925.146771
_symmetry_space_group_name_H-M "P 21/M"
_symmetry_group_IT_number 11
_symmetry_cell_setting 'monoclinic'
loop_
_space_group_symop_operation_xyz
x,y,z
-x,1/2+y,-z
-x,-y,-z
x,1/2-y,z
loop_
_atom_site_type_symbol
_atom_site_label
_atom_site_fract_x
_atom_site_fract_y
_atom_site_fract_z
Si Si1 0.724612 0.607474 0.132757
Si Si2 0.832260 0.402857 0.436652
Si Si3 0.928385 0.026222 0.760800
Si Si4 0.351521 0.894673 0.139194
Si Si5 0.401306 0.607577 0.335078
O O1 0.591330 0.750000 0.046582
O O2 0.981749 0.601118 0.364465
O O3 0.855628 0.588287 0.145543
O O4 0.500000 0.500000 0.000000
O O5 0.795868 0.250000 0.389037
O O6 0.548942 0.483252 0.256505
O O7 0.000000 0.500000 0.500000
O O8 0.829347 0.103325 0.762069
O O9 0.645606 0.992748 0.523412
O O10 0.085889 0.904450 0.904996
O O11 0.483857 0.750000 0.220906
O O12 0.281908 0.909104 0.174320
O O13 0.537730 0.750000 0.429653
#
# Coordination Sequence:
#
# PCOD9166348 Si02
#       5
#     4   4   4   4   4
#     4  11  25  43  66  95 130 170 219 270 327 389
#     4  11  24  43  64  94 130 173 218 271 326 390
#     4  11  22  41  66  96 130 175 221 266 325 388
#     4  11  23  41  65  98 133 173 217 266 324 391
#     4  10  22  40  64  95 134 174 217 270 325 384
#
# _framework density 21.618192000000001
#
# number of rings (size 3 to 8) (size 9 to 14) (size 15 to 20)
#    0.000    1.200    2.000    3.600    0.000    8.000 
#    0.000    1.000    0.000    0.000    0.000    0.000 
#    0.000    0.000    0.000    0.000    0.000    0.000 
#
# Total GULP energy -111611.028443 kJ/mol
# GULP energy per Si atom -5580.551422 kJ/mol
# Density = 2.156899 g / cm^3
# Si number density = 21.618192 Si / 1000 Ang^3
#
#
#
# Elastic Constant Matrix: (Units=GPa)
#
#
# Indices 1 2 3 4 5 6 
#
# 1 125.7778 52.3083 24.6218 0.0000 -0.6827 0.0000
# 2 52.3083 157.5781 31.2135 0.0000 8.4762 0.0000
# 3 24.6218 31.2135 60.1024 0.0000 -5.7865 0.0000
# 4 0.0000 0.0000 0.0000 29.4466 0.0000 0.5505
# 5 -0.6827 8.4762 -5.7865 0.0000 38.6813 0.0000
# 6 0.0000 0.0000 0.0000 0.5505 0.0000 18.3726
#
#
#
# Elastic Compliance Matrix: (Units=1/GPa)
#
#
# Indices 1 2 3 4 5 6 
#
# 1 0.009562 -0.002705 -0.002475 0.000000 0.000391 0.000000
# 2 -0.002705 0.008016 -0.003276 0.000000 -0.002294 0.000000
# 3 -0.002475 -0.003276 0.019702 0.000000 0.003622 0.000000
# 4 0.000000 0.000000 0.000000 0.033979 0.000000 -0.001018
# 5 0.000391 -0.002294 0.003622 0.000000 0.026904 0.000000
# 6 0.000000 0.000000 0.000000 -0.001018 0.000000 0.054460
#
#
# Mechanical properties :
#
#
# Convention : Reuss Voigt Hill
#
# Bulk Modulus (GPa) = 49.09400 62.19395 55.64398
# Shear Modulus (GPa) = 28.35695 32.98772 30.67233
#
# Velocity S-wave (km/s) = 3.62569 3.91055 3.77081
# Velocity P-wave (km/s) = 6.34716 7.01581 6.68984
#
# Compressibility (1/GPa) = 0.02036909
#
# Stress axis : x y z
#
# Youngs Moduli (GPa) = 104.58018 124.74566 50.75600
#
# Poissons Ratio (x) = 0.33743 0.12561
# Poissons Ratio (y) = 0.28289 0.16627
# Poissons Ratio (z) = 0.25881 0.40866
#
# Static dielectric constant tensor:
#      x y z
#    x 1.775430 0.000000 0.001120 
#    y 0.000000 1.825830 0.000000 
#    z 0.001120 0.000000 1.794000 
# 
# From -- ./inp_files/65323.got.cif
#   From: 2010.05.17/outbox.cif.g08.bks.cpg/sg11_33_cif.got.tgz:65323.got - 2010.06.03 12:22:45.
