data_PCOD9166670
_publ_section_title
;
Structure prediction by ZEFSAII (Michael W. Deem and Ramdas Pophale) SiO2 
 PCOD9166670
Probable space group: P 21/M
;
_chemical_formula_sum "Si O2"
_cell_formula_units_Z 28
_cell_length_a 9.369307
_cell_length_b 8.864283
_cell_length_c 29.891661
_cell_angle_alpha 90.000000
_cell_angle_beta 141.627136
_cell_angle_gamma 90.000000
_cell_volume 1541.119903
_symmetry_space_group_name_H-M "P 21/M"
_symmetry_group_IT_number 11
_symmetry_cell_setting 'monoclinic'
loop_
_space_group_symop_operation_xyz
x,y,z
-x,1/2+y,-z
-x,-y,-z
x,1/2-y,z
loop_
_atom_site_type_symbol
_atom_site_label
_atom_site_fract_x
_atom_site_fract_y
_atom_site_fract_z
Si Si1 0.509951 0.568735 0.136524
Si Si2 0.650338 0.931613 0.996850
Si Si3 0.008647 0.432168 0.271441
Si Si4 0.652370 0.568427 0.727856
Si Si5 0.750354 0.431217 0.433391
Si Si6 0.417535 0.069172 0.433656
Si Si7 0.815009 0.068648 0.860671
O O1 0.505789 0.750000 0.131301
O O2 0.765213 0.512911 0.211112
O O3 0.333654 0.523248 0.132591
O O4 0.437480 0.494634 0.071935
O O5 0.632274 0.750000 0.992964
O O6 0.917933 0.974548 0.068640
O O7 0.500000 0.000000 0.000000
O O8 0.979066 0.250000 0.264894
O O9 0.155527 0.468464 0.262672
O O10 0.168622 0.476090 0.352935
O O11 0.649784 0.750000 0.730815
O O12 0.404932 0.520039 0.647103
O O13 0.713348 0.498599 0.790223
O O14 0.768434 0.250000 0.435731
O O15 0.599408 0.470115 0.439724
O O16 0.000000 0.500000 0.500000
O O17 0.413613 0.250000 0.436659
O O18 0.500000 0.000000 0.500000
O O19 0.805689 0.250000 0.855563
#
# Coordination Sequence:
#
# PCOD9166670 Si02
#       7
#     4   4   4   4   4   4   4
#     4  11  23  38  56  82 113 143 177 220 267 317
#     4  11  23  40  61  84 110 143 181 220 263 316
#     4   9  19  37  57  78 106 143 183 224 269 320
#     4   9  19  36  57  78 104 140 182 222 265 318
#     4   9  19  35  53  77 107 140 178 222 268 318
#     4   9  19  35  54  77 108 142 180 224 271 322
#     4  10  23  39  55  80 113 143 175 218 268 317
#
# _framework density 18.168606
#
# number of rings (size 3 to 8) (size 9 to 14) (size 15 to 20)
#    0.000    2.286    0.000    3.857    0.000    8.000 
#    0.000    8.571    0.000    0.000    0.000    0.000 
#    0.000    0.000    0.000    0.000    0.000    0.000 
#
# Total GULP energy -156309.154632 kJ/mol
# GULP energy per Si atom -5582.469808 kJ/mol
# Density = 1.812725 g / cm^3
# Si number density = 18.168606 Si / 1000 Ang^3
#
#
#
# Elastic Constant Matrix: (Units=GPa)
#
#
# Indices 1 2 3 4 5 6 
#
# 1 134.2293 47.8533 120.8039 0.0000 3.4983 0.0000
# 2 47.8533 29.6670 55.6366 0.0000 1.6761 0.0000
# 3 120.8039 55.6366 213.7698 0.0000 -0.5143 0.0000
# 4 0.0000 0.0000 0.0000 38.6139 0.0000 -2.9586
# 5 3.4983 1.6761 -0.5143 0.0000 39.7238 0.0000
# 6 0.0000 0.0000 0.0000 -2.9586 0.0000 32.7028
#
#
#
# Elastic Compliance Matrix: (Units=1/GPa)
#
#
# Indices 1 2 3 4 5 6 
#
# 1 0.020773 -0.022335 -0.005928 0.000000 -0.000964 0.000000
# 2 -0.022335 0.090220 -0.010864 0.000000 -0.001981 0.000000
# 3 -0.005928 -0.010864 0.010858 0.000000 0.001121 0.000000
# 4 0.000000 0.000000 0.000000 0.026078 0.000000 0.002359
# 5 -0.000964 -0.001981 0.001121 0.000000 0.025357 0.000000
# 6 0.000000 0.000000 0.000000 0.002359 0.000000 0.030792
#
#
# Mechanical properties :
#
#
# Convention : Reuss Voigt Hill
#
# Bulk Modulus (GPa) = 22.93747 91.80598 57.37173
# Shear Modulus (GPa) = 16.84266 32.43291 24.63779
#
# Velocity S-wave (km/s) = 3.04800 4.22964 3.68647
# Velocity P-wave (km/s) = 5.00393 8.63092 7.05451
#
# Compressibility (1/GPa) = 0.04359679
#
# Stress axis : x y z
#
# Youngs Moduli (GPa) = 48.13950 11.08402 92.09412
#
# Poissons Ratio (x) = 0.24756 0.54598
# Poissons Ratio (y) = 1.07518 1.00053
# Poissons Ratio (z) = 0.28539 0.12042
#
# Static dielectric constant tensor:
#      x y z
#    x 1.598920 0.000000 0.014870 
#    y 0.000000 1.611300 0.000000 
#    z 0.014870 0.000000 1.599620 
# 
# From -- ./inp_files/26076.got.cif
#   From: 2010.05.17/outbox.cif.g08.bks.cpg/sg11_14_cif.got.tgz:26076.got - 2010.06.03 12:22:45.
