data_PCOD9166972
_publ_section_title
;
Structure prediction by ZEFSAII (Michael W. Deem and Ramdas Pophale) SiO2 
 PCOD9166972
Probable space group: P 21/M
;
_chemical_formula_sum "Si O2"
_cell_formula_units_Z 22
_cell_length_a 9.531899
_cell_length_b 20.462767
_cell_length_c 9.450850
_cell_angle_alpha 90.000000
_cell_angle_beta 31.617083
_cell_angle_gamma 90.000000
_cell_volume 966.372749
_symmetry_space_group_name_H-M "P 21/M"
_symmetry_group_IT_number 11
_symmetry_cell_setting 'monoclinic'
loop_
_space_group_symop_operation_xyz
x,y,z
-x,1/2+y,-z
-x,-y,-z
x,1/2-y,z
loop_
_atom_site_type_symbol
_atom_site_label
_atom_site_fract_x
_atom_site_fract_y
_atom_site_fract_z
Si Si1 0.292008 0.750000 0.927842
Si Si2 0.707815 0.178228 0.343979
Si Si3 0.476322 0.378430 0.119370
Si Si4 0.116743 0.404982 0.169483
Si Si5 0.019342 0.045869 0.683629
Si Si6 0.683026 0.938708 0.303989
O O1 0.179666 0.694261 0.908941
O O2 0.429911 0.808364 0.903592
O O3 0.610045 0.250000 0.476448
O O4 0.469092 0.127984 0.529096
O O5 0.911919 0.146757 0.278576
O O6 0.319859 0.374057 0.105505
O O7 0.263480 0.414409 0.404711
O O8 0.738267 0.423424 0.880526
O O9 0.972509 0.468802 0.358900
O O10 0.267230 0.434332 0.904518
O O11 0.058646 0.053737 0.819336
O O12 0.500000 0.000000 0.500000
#
# Coordination Sequence:
#
# PCOD9166972 Si02
#       6
#     2   4   4   4   4   4
#     4  10  24  50  70 104 146 206 236 304 368 458
#     4  10  24  46  71 103 146 190 250 293 370 436
#     4  12  28  48  73 109 152 196 241 303 381 441
#     4  12  27  42  77 109 146 186 250 313 362 437
#     4  12  25  48  75 107 151 194 244 303 373 442
#     4  12  24  45  76 110 145 195 253 306 364 437
#
# _framework density 22.765542
#
# number of rings (size 3 to 8) (size 9 to 14) (size 15 to 20)
#    0.545    0.000    3.636    3.818    3.818    1.455 
#    4.909    0.000    0.000    0.000    0.000    0.000 
#    0.000    0.000    0.000    0.000    0.000    0.000 
#
# Total GULP energy -122555.195210 kJ/mol
# GULP energy per Si atom -5570.690691 kJ/mol
# Density = 2.271373 g / cm^3
# Si number density = 22.765542 Si / 1000 Ang^3
#
#
#
# Elastic Constant Matrix: (Units=GPa)
#
#
# Indices 1 2 3 4 5 6 
#
# 1 196.6103 60.2895 4.1510 0.0000 -14.1028 0.0000
# 2 60.2895 182.5863 15.8618 0.0000 -14.4715 0.0000
# 3 4.1510 15.8618 55.3885 0.0000 -1.0232 0.0000
# 4 0.0000 0.0000 0.0000 7.8766 0.0000 9.2944
# 5 -14.1028 -14.4715 -1.0232 0.0000 34.3175 0.0000
# 6 0.0000 0.0000 0.0000 9.2944 0.0000 35.3036
#
#
#
# Elastic Compliance Matrix: (Units=1/GPa)
#
#
# Indices 1 2 3 4 5 6 
#
# 1 0.005745 -0.001779 0.000109 0.000000 0.001614 0.000000
# 2 -0.001779 0.006358 -0.001652 0.000000 0.001901 0.000000
# 3 0.000109 -0.001652 0.018518 0.000000 -0.000100 0.000000
# 4 0.000000 0.000000 0.000000 0.184174 0.000000 -0.048488
# 5 0.001614 0.001901 -0.000100 0.000000 0.030602 0.000000
# 6 0.000000 0.000000 0.000000 -0.048488 0.000000 0.041091
#
#
# Mechanical properties :
#
#
# Convention : Reuss Voigt Hill
#
# Bulk Modulus (GPa) = 41.70806 66.13219 53.92013
# Shear Modulus (GPa) = 16.60441 39.11839 27.86140
#
# Velocity S-wave (km/s) = 2.70361 4.14975 3.50214
# Velocity P-wave (km/s) = 5.30155 7.21616 6.33164
#
# Compressibility (1/GPa) = 0.02397618
#
# Stress axis : x y z
#
# Youngs Moduli (GPa) = 174.06249 157.27342 54.00289
#
# Poissons Ratio (x) = 0.27971 -0.00586
# Poissons Ratio (y) = 0.30957 0.08924
# Poissons Ratio (z) = -0.01890 0.25989
#
# Static dielectric constant tensor:
#      x y z
#    x 1.849420 0.000000 0.078500 
#    y 0.000000 1.842790 0.000000 
#    z 0.078500 0.000000 1.963920 
# 
# From -- ./inp_files/14189.got.cif
#   From: 2010.05.17/outbox.cif.g08.bks.cpg/sg11_8_cif.got.tgz:14189.got - 2010.06.03 12:22:45.
