data_PCOD9166950
_publ_section_title
;
Structure prediction by ZEFSAII (Michael W. Deem and Ramdas Pophale) SiO2 
 PCOD9166950
Probable space group: P 21/M
;
_chemical_formula_sum "Si O2"
_cell_formula_units_Z 16
_cell_length_a 5.264283
_cell_length_b 16.774283
_cell_length_c 9.247609
_cell_angle_alpha 90.000000
_cell_angle_beta 51.723220
_cell_angle_gamma 90.000000
_cell_volume 641.058279
_symmetry_space_group_name_H-M "P 21/M"
_symmetry_group_IT_number 11
_symmetry_cell_setting 'monoclinic'
loop_
_space_group_symop_operation_xyz
x,y,z
-x,1/2+y,-z
-x,-y,-z
x,1/2-y,z
loop_
_atom_site_type_symbol
_atom_site_label
_atom_site_fract_x
_atom_site_fract_y
_atom_site_fract_z
Si Si1 0.630945 0.611658 0.009276
Si Si2 0.851793 0.250000 0.827994
Si Si3 0.377576 0.750000 0.418389
Si Si4 0.695196 0.334932 0.280100
Si Si5 0.682493 0.984100 0.703489
O O1 0.343000 0.669836 0.059233
O O2 0.522439 0.563612 0.189349
O O3 0.735753 0.550200 0.846467
O O4 0.953341 0.661968 0.914700
O O5 0.792872 0.250000 0.674560
O O6 0.231422 0.250000 0.727951
O O7 0.274175 0.823768 0.557467
O O8 0.534161 0.250000 0.293010
O O9 0.510138 0.414306 0.307912
O O10 0.000000 0.000000 0.500000
#
# Coordination Sequence:
#
# PCOD9166950 Si02
#       5
#     4   2   2   4   4
#     4  11  26  44  75 106 150 197 253 313 379 451
#     4  12  25  49  74 117 148 199 261 304 386 452
#     4  10  27  41  80 111 146 201 255 312 370 456
#     4  10  24  44  71 107 145 198 251 314 371 456
#     4  11  26  47  71 107 153 199 250 319 379 456
#
# _framework density 24.958729000000002
#
# number of rings (size 3 to 8) (size 9 to 14) (size 15 to 20)
#    0.750    0.500    1.250    2.250   12.250    1.000 
#    0.000    0.000    0.000    0.000    0.000    0.000 
#    0.000    0.000    0.000    0.000    0.000    0.000 
#
# Total GULP energy -89565.494965 kJ/mol
# GULP energy per Si atom -5597.843435 kJ/mol
# Density = 2.490192 g / cm^3
# Si number density = 24.958729 Si / 1000 Ang^3
#
#
#
# Elastic Constant Matrix: (Units=GPa)
#
#
# Indices 1 2 3 4 5 6 
#
# 1 70.6742 13.7331 49.5710 0.0000 -12.3077 0.0000
# 2 13.7331 111.7634 64.6857 0.0000 -21.7540 0.0000
# 3 49.5710 64.6857 209.0268 0.0000 -21.9873 0.0000
# 4 0.0000 0.0000 0.0000 46.3712 0.0000 3.2750
# 5 -12.3077 -21.7540 -21.9873 0.0000 52.9398 0.0000
# 6 0.0000 0.0000 0.0000 3.2750 0.0000 35.0583
#
#
#
# Elastic Compliance Matrix: (Units=1/GPa)
#
#
# Indices 1 2 3 4 5 6 
#
# 1 0.017311 0.000734 -0.004054 0.000000 0.002642 0.000000
# 2 0.000734 0.011482 -0.003360 0.000000 0.003493 0.000000
# 3 -0.004054 -0.003360 0.006840 0.000000 0.000518 0.000000
# 4 0.000000 0.000000 0.000000 0.021708 0.000000 -0.002028
# 5 0.002642 0.003493 0.000518 0.000000 0.021154 0.000000
# 6 0.000000 0.000000 0.000000 -0.002028 0.000000 0.028713
#
#
# Mechanical properties :
#
#
# Convention : Reuss Voigt Hill
#
# Bulk Modulus (GPa) = 44.90037 71.93821 58.41929
# Shear Modulus (GPa) = 39.06476 44.43884 41.75180
#
# Velocity S-wave (km/s) = 3.96052 4.22417 4.09447
# Velocity P-wave (km/s) = 6.24045 7.25788 6.76831
#
# Compressibility (1/GPa) = 0.02227153
#
# Stress axis : x y z
#
# Youngs Moduli (GPa) = 57.76755 87.09449 146.20449
#
# Poissons Ratio (x) = -0.06391 0.59278
# Poissons Ratio (y) = -0.04239 0.49121
# Poissons Ratio (z) = 0.23421 0.29261
#
# Static dielectric constant tensor:
#      x y z
#    x 1.979140 0.000000 0.065260 
#    y 0.000000 2.073960 0.000000 
#    z 0.065260 0.000000 1.991640 
# 
# From -- ./inp_files/1815.got.cif
#   From: 2010.05.17/outbox.cif.g08.bks.cpg/sg11_1_cif.got.tgz:1815.got - 2010.06.03 12:22:45.
