data_PCOD9166720
_publ_section_title
;
Structure prediction by ZEFSAII (Michael W. Deem and Ramdas Pophale) SiO2 
 PCOD9166720
Probable space group: P 21/M
;
_chemical_formula_sum "Si O2"
_cell_formula_units_Z 20
_cell_length_a 10.876025
_cell_length_b 8.539951
_cell_length_c 22.428356
_cell_angle_alpha 90.000000
_cell_angle_beta 152.677164
_cell_angle_gamma 90.000000
_cell_volume 956.178980
_symmetry_space_group_name_H-M "P 21/M"
_symmetry_group_IT_number 11
_symmetry_cell_setting 'monoclinic'
loop_
_space_group_symop_operation_xyz
x,y,z
-x,1/2+y,-z
-x,-y,-z
x,1/2-y,z
loop_
_atom_site_type_symbol
_atom_site_label
_atom_site_fract_x
_atom_site_fract_y
_atom_site_fract_z
Si Si1 0.602934 0.562254 0.830913
Si Si2 0.050210 0.561501 0.117694
Si Si3 0.804611 0.561116 0.137407
Si Si4 0.229608 0.438288 0.413208
Si Si5 0.007096 0.937810 0.569690
O O1 0.620468 0.750000 0.836228
O O2 0.685157 0.498763 0.801398
O O3 0.304400 0.519255 0.720140
O O4 0.812153 0.506582 0.970865
O O5 0.059014 0.750000 0.121089
O O6 0.974190 0.512993 0.151429
O O7 0.797620 0.750000 0.136733
O O8 0.970903 0.495644 0.264800
O O9 0.500000 0.500000 0.000000
O O10 0.500000 0.500000 0.500000
O O11 0.233148 0.250000 0.414014
O O12 0.200390 0.491842 0.469474
O O13 0.987173 0.750000 0.557921
O O14 0.000000 0.000000 0.500000
#
# Coordination Sequence:
#
# PCOD9166720 Si02
#       5
#     4   4   4   4   4
#     4   9  18  35  57  84 116 152 196 248 306 363
#     4   9  19  35  57  85 119 154 194 249 307 363
#     4  11  23  40  64  93 127 167 214 264 320 382
#     4  11  25  45  66  93 132 172 215 268 322 383
#     4  10  23  41  62  87 120 161 208 260 311 368
#
# _framework density 20.916585000000001
#
# number of rings (size 3 to 8) (size 9 to 14) (size 15 to 20)
#    0.000    2.000    0.000    2.400    2.800    7.200 
#    0.000    4.000    0.000    0.000    0.000    0.000 
#    0.000    0.000    0.000    0.000    0.000    0.000 
#
# Total GULP energy -111688.639273 kJ/mol
# GULP energy per Si atom -5584.431964 kJ/mol
# Density = 2.086898 g / cm^3
# Si number density = 20.916585 Si / 1000 Ang^3
#
#
#
# Elastic Constant Matrix: (Units=GPa)
#
#
# Indices 1 2 3 4 5 6 
#
# 1 193.4131 34.3976 49.7411 0.0000 0.0295 0.0000
# 2 34.3976 30.9431 22.1794 0.0000 3.5352 0.0000
# 3 49.7411 22.1794 69.0381 0.0000 -0.6730 0.0000
# 4 0.0000 0.0000 0.0000 31.1075 0.0000 2.3196
# 5 0.0295 3.5352 -0.6730 0.0000 33.4209 0.0000
# 6 0.0000 0.0000 0.0000 2.3196 0.0000 32.2389
#
#
#
# Elastic Compliance Matrix: (Units=1/GPa)
#
#
# Indices 1 2 3 4 5 6 
#
# 1 0.006985 -0.005481 -0.003267 0.000000 0.000508 0.000000
# 2 -0.005481 0.047043 -0.011214 0.000000 -0.005197 0.000000
# 3 -0.003267 -0.011214 0.020457 0.000000 0.001601 0.000000
# 4 0.000000 0.000000 0.000000 0.032320 0.000000 -0.002325
# 5 0.000508 -0.005197 0.001601 0.000000 0.030503 0.000000
# 6 0.000000 0.000000 0.000000 -0.002325 0.000000 0.031186
#
#
# Mechanical properties :
#
#
# Convention : Reuss Voigt Hill
#
# Bulk Modulus (GPa) = 28.93568 56.22562 42.58065
# Shear Modulus (GPa) = 22.73362 31.82521 27.27941
#
# Velocity S-wave (km/s) = 3.30035 3.90491 3.61529
# Velocity P-wave (km/s) = 5.32794 6.87534 6.15050
#
# Compressibility (1/GPa) = 0.03455940
#
# Stress axis : x y z
#
# Youngs Moduli (GPa) = 143.15985 21.25726 48.88344
#
# Poissons Ratio (x) = 0.11652 0.15969
# Poissons Ratio (y) = 0.78472 0.54820
# Poissons Ratio (z) = 0.46768 0.23839
#
# Static dielectric constant tensor:
#      x y z
#    x 1.767040 0.000000 -0.013340 
#    y 0.000000 1.714890 0.000000 
#    z -0.013340 0.000000 1.778980 
# 
# From -- ./inp_files/63320.got.cif
#   From: 2010.05.17/outbox.cif.g08.bks.cpg/sg11_32_cif.got.tgz:63320.got - 2010.06.03 12:22:45.
