data_PCOD9166205
_publ_section_title
;
Structure prediction by ZEFSAII (Michael W. Deem and Ramdas Pophale) SiO2 
 PCOD9166205
Probable space group: P 21/M
;
_chemical_formula_sum "Si O2"
_cell_formula_units_Z 28
_cell_length_a 7.189540
_cell_length_b 17.307389
_cell_length_c 14.189089
_cell_angle_alpha 90.000000
_cell_angle_beta 131.695105
_cell_angle_gamma 90.000000
_cell_volume 1318.349087
_symmetry_space_group_name_H-M "P 21/M"
_symmetry_group_IT_number 11
_symmetry_cell_setting 'monoclinic'
loop_
_space_group_symop_operation_xyz
x,y,z
-x,1/2+y,-z
-x,-y,-z
x,1/2-y,z
loop_
_atom_site_type_symbol
_atom_site_label
_atom_site_fract_x
_atom_site_fract_y
_atom_site_fract_z
Si Si1 0.527316 0.085787 0.891354
Si Si2 0.063923 0.338760 0.640495
Si Si3 0.926562 0.880401 0.720857
Si Si4 0.475976 0.591081 0.883232
Si Si5 0.949938 0.837565 0.941696
Si Si6 0.357385 0.337804 0.560336
Si Si7 0.284330 0.542935 0.369346
O O1 0.327163 0.143269 0.779107
O O2 0.473827 0.997232 0.846299
O O3 0.497021 0.090270 0.994394
O O4 0.808043 0.109543 0.960956
O O5 0.986877 0.250000 0.630620
O O6 0.124535 0.350519 0.551028
O O7 0.872222 0.400294 0.616942
O O8 0.206343 0.870993 0.776228
O O9 0.897941 0.841157 0.812024
O O10 0.736586 0.849974 0.578134
O O11 0.883659 0.972648 0.723971
O O12 0.707453 0.633718 0.914635
O O13 0.010415 0.750000 0.989275
O O14 0.443798 0.250000 0.603334
O O15 0.571362 0.400530 0.653227
O O16 0.500000 0.500000 0.500000
#
# Coordination Sequence:
#
# PCOD9166205 Si02
#       7
#     4   4   4   4   4   4   4
#     4  10  22  42  64  92 126 160 209 257 304 373
#     4  11  23  40  65  93 127 166 206 255 312 368
#     4  10  22  40  63  91 123 161 209 257 300 371
#     4  10  22  41  67  91 121 166 208 254 312 363
#     4  11  24  39  63  95 125 162 205 257 313 365
#     4  10  23  40  61  91 128 164 202 254 313 367
#     4  10  22  39  61  88 120 164 211 253 302 361
#
# _framework density 21.238683999999999
#
# number of rings (size 3 to 8) (size 9 to 14) (size 15 to 20)
#    0.000    1.714    1.429    1.714    2.000    9.143 
#    0.000    2.857    0.000    0.000    0.000    0.000 
#    0.000    0.000    0.000    0.000    0.000    0.000 
#
# Total GULP energy -156480.581852 kJ/mol
# GULP energy per Si atom -5588.592209 kJ/mol
# Density = 2.119034 g / cm^3
# Si number density = 21.238684 Si / 1000 Ang^3
#
#
#
# Elastic Constant Matrix: (Units=GPa)
#
#
# Indices 1 2 3 4 5 6 
#
# 1 109.5931 33.3798 -0.6153 0.0000 26.0128 0.0000
# 2 33.3798 82.4585 -15.2540 0.0000 -0.2848 0.0000
# 3 -0.6153 -15.2540 41.2416 0.0000 6.9684 0.0000
# 4 0.0000 0.0000 0.0000 5.3586 0.0000 5.2407
# 5 26.0128 -0.2848 6.9684 0.0000 18.1418 0.0000
# 6 0.0000 0.0000 0.0000 5.2407 0.0000 27.7989
#
#
#
# Elastic Compliance Matrix: (Units=1/GPa)
#
#
# Indices 1 2 3 4 5 6 
#
# 1 0.017269 -0.006686 0.002124 0.000000 -0.025682 0.000000
# 2 -0.006686 0.015660 0.004311 0.000000 0.008177 0.000000
# 3 0.002124 0.004311 0.028207 0.000000 -0.013812 0.000000
# 4 0.000000 0.000000 0.000000 0.228804 0.000000 -0.043135
# 5 -0.025682 0.008177 -0.013812 0.000000 0.097380 0.000000
# 6 0.000000 0.000000 0.000000 -0.043135 0.000000 0.044105
#
#
# Mechanical properties :
#
#
# Convention : Reuss Voigt Hill
#
# Bulk Modulus (GPa) = 16.49289 29.81268 23.15278
# Shear Modulus (GPa) = 11.05856 24.64538 17.85197
#
# Velocity S-wave (km/s) = 2.28432 3.41016 2.90235
# Velocity P-wave (km/s) = 3.83925 5.43811 4.70706
#
# Compressibility (1/GPa) = 0.06063218
#
# Stress axis : x y z
#
# Youngs Moduli (GPa) = 57.90723 63.85830 35.45191
#
# Poissons Ratio (x) = 0.42698 -0.07530
# Poissons Ratio (y) = 0.38719 -0.15282
# Poissons Ratio (z) = -0.12299 -0.27527
#
# Static dielectric constant tensor:
#      x y z
#    x 1.750560 0.000000 -0.003870 
#    y 0.000000 1.770130 0.000000 
#    z -0.003870 0.000000 1.769840 
# 
# From -- ./inp_files/45982.got.cif
#   From: 2010.05.17/outbox.cif.g08.bks.cpg/sg11_23_cif.got.tgz:45982.got - 2010.06.03 12:22:45.
