data_PCOD9166533
_publ_section_title
;
Structure prediction by ZEFSAII (Michael W. Deem and Ramdas Pophale) SiO2 
 PCOD9166533
Probable space group: P 21/M
;
_chemical_formula_sum "Si O2"
_cell_formula_units_Z 28
_cell_length_a 11.643565
_cell_length_b 17.432171
_cell_length_c 6.427291
_cell_angle_alpha 90.000000
_cell_angle_beta 93.482884
_cell_angle_gamma 90.000000
_cell_volume 1302.154527
_symmetry_space_group_name_H-M "P 21/M"
_symmetry_group_IT_number 11
_symmetry_cell_setting 'monoclinic'
loop_
_space_group_symop_operation_xyz
x,y,z
-x,1/2+y,-z
-x,-y,-z
x,1/2-y,z
loop_
_atom_site_type_symbol
_atom_site_label
_atom_site_fract_x
_atom_site_fract_y
_atom_site_fract_z
Si Si1 0.524616 0.113447 0.402545
Si Si2 0.660221 0.839048 0.277841
Si Si3 0.102914 0.593206 0.602727
Si Si4 0.156200 0.072811 0.428638
Si Si5 0.685716 0.126313 0.084125
Si Si6 0.344893 0.041927 0.103182
Si Si7 0.267803 0.834578 0.362049
O O1 0.444219 0.151887 0.566635
O O2 0.579126 0.156477 0.208486
O O3 0.448784 0.048544 0.282662
O O4 0.645627 0.101265 0.533809
O O5 0.671306 0.750000 0.222328
O O6 0.770257 0.870300 0.418669
O O7 0.644205 0.892481 0.072982
O O8 0.131670 0.504375 0.558849
O O9 0.194206 0.624948 0.778662
O O10 0.139640 0.638329 0.397910
O O11 0.970402 0.602978 0.642752
O O12 0.230797 0.054342 0.230905
O O13 0.704518 0.168777 0.873976
O O14 0.658186 0.038472 0.015832
O O15 0.288689 0.750000 0.454537
#
# Coordination Sequence:
#
# PCOD9166533 Si02
#       7
#     4   4   4   4   4   4   4
#     4  10  24  39  63  89 130 165 205 253 314 376
#     4  11  24  41  61  92 129 165 208 260 317 370
#     4  10  22  42  66  91 124 164 209 258 312 374
#     4  10  22  42  66  91 124 164 209 258 312 374
#     4  11  22  39  65  98 124 163 214 260 309 372
#     4  11  22  39  65  98 124 163 214 260 309 372
#     4  11  24  41  61  92 129 165 208 260 317 370
#
# _framework density 21.502825000000001
#
# number of rings (size 3 to 8) (size 9 to 14) (size 15 to 20)
#    0.000    1.429    2.857    1.714    0.000    9.143 
#    0.000    0.000    0.000    0.000    0.000    0.000 
#    0.000    0.000    0.000    0.000    0.000    0.000 
#
# Total GULP energy -156238.728939 kJ/mol
# GULP energy per Si atom -5579.954605 kJ/mol
# Density = 2.145388 g / cm^3
# Si number density = 21.502825 Si / 1000 Ang^3
#
#
#
# Elastic Constant Matrix: (Units=GPa)
#
#
# Indices 1 2 3 4 5 6 
#
# 1 155.3680 17.2816 34.5654 0.0000 -15.4891 0.0000
# 2 17.2816 103.8306 21.6299 0.0000 -3.5017 0.0000
# 3 34.5654 21.6299 79.5274 0.0000 -15.1345 0.0000
# 4 0.0000 0.0000 0.0000 29.2513 0.0000 2.5891
# 5 -15.4891 -3.5017 -15.1345 0.0000 34.8436 0.0000
# 6 0.0000 0.0000 0.0000 2.5891 0.0000 1.2631
#
#
#
# Elastic Compliance Matrix: (Units=1/GPa)
#
#
# Indices 1 2 3 4 5 6 
#
# 1 0.007289 -0.000599 -0.002616 0.000000 0.002044 0.000000
# 2 -0.000599 0.010260 -0.002599 0.000000 -0.000364 0.000000
# 3 -0.002616 -0.002599 0.015422 0.000000 0.005274 0.000000
# 4 0.000000 0.000000 0.000000 0.041764 0.000000 -0.085608
# 5 0.002044 -0.000364 0.005274 0.000000 0.031862 0.000000
# 6 0.000000 0.000000 0.000000 -0.085608 0.000000 0.967190
#
#
# Mechanical properties :
#
#
# Convention : Reuss Voigt Hill
#
# Bulk Modulus (GPa) = 46.85732 53.96444 50.41088
# Shear Modulus (GPa) = 4.57653 30.75488 17.66571
#
# Velocity S-wave (km/s) = 1.46047 3.78600 2.86938
# Velocity P-wave (km/s) = 4.96815 6.65302 5.87133
#
# Compressibility (1/GPa) = 0.02134138
#
# Stress axis : x y z
#
# Youngs Moduli (GPa) = 137.19832 97.46562 64.84218
#
# Poissons Ratio (x) = 0.05841 0.16963
# Poissons Ratio (y) = 0.08221 0.16855
# Poissons Ratio (z) = 0.35892 0.25335
#
# Static dielectric constant tensor:
#      x y z
#    x 1.778070 0.000000 -0.006820 
#    y 0.000000 1.775220 0.000000 
#    z -0.006820 0.000000 1.826240 
# 
# From -- ./inp_files/4903.got.cif
#   From: 2010.05.17/outbox.cif.g08.bks.cpg/sg11_3_cif.got.tgz:4903.got - 2010.06.03 12:22:45.
