data_PCOD9166291
_publ_section_title
;
Structure prediction by ZEFSAII (Michael W. Deem and Ramdas Pophale) SiO2 
 PCOD9166291
Probable space group: P 21/M
;
_chemical_formula_sum "Si O2"
_cell_formula_units_Z 28
_cell_length_a 12.285853
_cell_length_b 15.377176
_cell_length_c 9.037276
_cell_angle_alpha 90.000000
_cell_angle_beta 121.733604
_cell_angle_gamma 90.000000
_cell_volume 1452.095502
_symmetry_space_group_name_H-M "P 21/M"
_symmetry_group_IT_number 11
_symmetry_cell_setting 'monoclinic'
loop_
_space_group_symop_operation_xyz
x,y,z
-x,1/2+y,-z
-x,-y,-z
x,1/2-y,z
loop_
_atom_site_type_symbol
_atom_site_label
_atom_site_fract_x
_atom_site_fract_y
_atom_site_fract_z
Si Si1 0.620969 0.995802 0.906914
Si Si2 0.855898 0.465617 0.891899
Si Si3 0.205604 0.429498 0.423173
Si Si4 0.065461 0.651012 0.812243
Si Si5 0.430045 0.648679 0.658642
Si Si6 0.761882 0.046669 0.289701
Si Si7 0.490852 0.147477 0.623015
O O1 0.758487 0.982607 0.927118
O O2 0.558239 0.081294 0.785436
O O3 0.536327 0.913200 0.807443
O O4 0.651536 0.013502 0.099141
O O5 0.805051 0.486990 0.693288
O O6 0.869869 0.372886 0.983022
O O7 0.000000 0.500000 0.000000
O O8 0.192353 0.466185 0.578977
O O9 0.342736 0.383216 0.504227
O O10 0.085888 0.368947 0.295541
O O11 0.090269 0.750000 0.793231
O O12 0.130929 0.589604 0.736602
O O13 0.451279 0.750000 0.704105
O O14 0.300036 0.616293 0.642573
O O15 0.443254 0.636407 0.490934
O O16 0.497794 0.250000 0.668343
#
# Coordination Sequence:
#
# PCOD9166291 Si02
#       7
#     4   4   4   4   4   4   4
#     4  11  21  40  58  87 127 158 199 246 305 362
#     4   9  20  37  64  85 114 156 198 246 304 357
#     4  11  20  40  63  88 119 158 205 247 304 358
#     4  10  22  40  61  89 120 156 204 253 299 360
#     4  11  22  37  58  88 119 158 201 249 298 352
#     4  11  23  38  61  86 122 165 200 241 301 366
#     4  11  23  37  63  92 118 157 206 254 304 357
#
# _framework density 19.282478999999999
#
# number of rings (size 3 to 8) (size 9 to 14) (size 15 to 20)
#    0.000    1.429    2.857    3.000    0.000    2.857 
#    0.000    2.143    0.000    0.000    0.000    0.000 
#    0.000    0.000    0.000    0.000    0.000    0.000 
#
# Total GULP energy -156201.399736 kJ/mol
# GULP energy per Si atom -5578.621419 kJ/mol
# Density = 1.923859 g / cm^3
# Si number density = 19.282479 Si / 1000 Ang^3
#
#
#
# Elastic Constant Matrix: (Units=GPa)
#
#
# Indices 1 2 3 4 5 6 
#
# 1 52.4906 -7.0113 -11.8372 0.0000 11.0699 0.0000
# 2 -7.0113 70.1481 30.4322 0.0000 3.0593 0.0000
# 3 -11.8372 30.4322 69.1744 0.0000 -15.1333 0.0000
# 4 0.0000 0.0000 0.0000 12.9974 0.0000 -7.0297
# 5 11.0699 3.0593 -15.1333 0.0000 27.8991 0.0000
# 6 0.0000 0.0000 0.0000 -7.0297 0.0000 23.7282
#
#
#
# Elastic Compliance Matrix: (Units=1/GPa)
#
#
# Indices 1 2 3 4 5 6 
#
# 1 0.021259 0.002071 0.000944 0.000000 -0.008151 0.000000
# 2 0.002071 0.019098 -0.009855 0.000000 -0.008262 0.000000
# 3 0.000944 -0.009855 0.021681 0.000000 0.012466 0.000000
# 4 0.000000 0.000000 0.000000 0.091619 0.000000 0.027143
# 5 -0.008151 -0.008262 0.012466 0.000000 0.046746 0.000000
# 6 0.000000 0.000000 0.000000 0.027143 0.000000 0.050185
#
#
# Mechanical properties :
#
#
# Convention : Reuss Voigt Hill
#
# Bulk Modulus (GPa) = 20.67933 23.88674 22.28303
# Shear Modulus (GPa) = 17.83247 24.94024 21.38635
#
# Velocity S-wave (km/s) = 3.04435 3.60031 3.33394
# Velocity P-wave (km/s) = 4.80678 5.44956 5.13823
#
# Compressibility (1/GPa) = 0.04835747
#
# Stress axis : x y z
#
# Youngs Moduli (GPa) = 47.03808 52.36084 46.12432
#
# Poissons Ratio (x) = -0.10844 -0.04353
# Poissons Ratio (y) = -0.09741 0.45456
# Poissons Ratio (z) = -0.04439 0.51602
#
# Static dielectric constant tensor:
#      x y z
#    x 1.699890 0.000000 -0.006980 
#    y 0.000000 1.642800 0.000000 
#    z -0.006980 0.000000 1.695740 
# 
# From -- ./inp_files/17945.got.cif
#   From: 2010.05.17/outbox.cif.g08.bks.cpg/sg11_9_cif.got.tgz:17945.got - 2010.06.03 12:22:45.
