data_PCOD9166475
_publ_section_title
;
Structure prediction by ZEFSAII (Michael W. Deem and Ramdas Pophale) SiO2 
 PCOD9166475
Probable space group: P 21/M
;
_chemical_formula_sum "Si O2"
_cell_formula_units_Z 24
_cell_length_a 4.892995
_cell_length_b 14.159618
_cell_length_c 14.841272
_cell_angle_alpha 90.000000
_cell_angle_beta 101.773808
_cell_angle_gamma 90.000000
_cell_volume 1006.613433
_symmetry_space_group_name_H-M "P 21/M"
_symmetry_group_IT_number 11
_symmetry_cell_setting 'monoclinic'
loop_
_space_group_symop_operation_xyz
x,y,z
-x,1/2+y,-z
-x,-y,-z
x,1/2-y,z
loop_
_atom_site_type_symbol
_atom_site_label
_atom_site_fract_x
_atom_site_fract_y
_atom_site_fract_z
Si Si1 0.246703 0.456684 0.869643
Si Si2 0.084258 0.916460 0.435555
Si Si3 0.786011 0.591403 0.778306
Si Si4 0.572074 0.854648 0.949449
Si Si5 0.474938 0.440093 0.696339
Si Si6 0.997586 0.250000 0.333793
Si Si7 0.417782 0.750000 0.553787
O O1 0.372059 0.555313 0.917874
O O2 0.422057 0.411922 0.798299
O O3 0.954305 0.494947 0.812374
O O4 0.244772 0.384038 0.951846
O O5 0.265433 0.839894 0.500659
O O6 0.785002 0.893147 0.372362
O O7 0.721790 0.066303 0.638955
O O8 0.000000 0.000000 0.500000
O O9 0.743770 0.644493 0.868651
O O10 0.496493 0.553273 0.716550
O O11 0.943524 0.657809 0.720636
O O12 0.447481 0.750000 0.953356
O O13 0.247314 0.250000 0.425730
O O14 0.687785 0.250000 0.350661
#
# Coordination Sequence:
#
# PCOD9166475 Si02
#       7
#     4   4   4   4   4   2   2
#     4  10  23  42  66 103 143 185 236 285 344 424
#     4  12  24  46  71  98 138 181 230 287 355 409
#     4  11  22  40  69 103 140 181 232 289 347 411
#     4  10  22  41  67 102 142 186 233 286 352 408
#     4  11  23  43  70  97 135 186 227 281 342 416
#     4  12  26  40  70 104 139 174 231 292 354 404
#     4  12  28  46  68 106 137 178 235 296 346 428
#
# _framework density 23.842320999999998
#
# number of rings (size 3 to 8) (size 9 to 14) (size 15 to 20)
#    0.000    1.000    2.500    4.000    5.833    0.000 
#    3.000    0.000    1.833    0.000    0.000    0.000 
#    0.000    0.000    0.000    0.000    0.000    0.000 
#
# Total GULP energy -133775.724598 kJ/mol
# GULP energy per Si atom -5573.988525 kJ/mol
# Density = 2.378805 g / cm^3
# Si number density = 23.842321 Si / 1000 Ang^3
#
#
#
# Elastic Constant Matrix: (Units=GPa)
#
#
# Indices 1 2 3 4 5 6 
#
# 1 78.8698 4.7569 5.1064 0.0000 -0.9169 0.0000
# 2 4.7569 41.2372 26.5945 0.0000 -6.5345 0.0000
# 3 5.1064 26.5945 74.3025 0.0000 -6.6621 0.0000
# 4 0.0000 0.0000 0.0000 23.6207 0.0000 3.8789
# 5 -0.9169 -6.5345 -6.6621 0.0000 27.0998 0.0000
# 6 0.0000 0.0000 0.0000 3.8789 0.0000 26.3185
#
#
#
# Elastic Compliance Matrix: (Units=1/GPa)
#
#
# Indices 1 2 3 4 5 6 
#
# 1 0.012780 -0.001175 -0.000454 0.000000 0.000037 0.000000
# 2 -0.001175 0.032295 -0.011027 0.000000 0.005037 0.000000
# 3 -0.000454 -0.011027 0.017584 0.000000 0.001649 0.000000
# 4 0.000000 0.000000 0.000000 0.043386 0.000000 -0.006394
# 5 0.000037 0.005037 0.001649 0.000000 0.038522 0.000000
# 6 0.000000 0.000000 0.000000 -0.006394 0.000000 0.038939
#
#
# Mechanical properties :
#
#
# Convention : Reuss Voigt Hill
#
# Bulk Modulus (GPa) = 26.77634 29.70280 28.23957
# Shear Modulus (GPa) = 22.59720 25.93790 24.26755
#
# Velocity S-wave (km/s) = 3.08194 3.30190 3.19381
# Velocity P-wave (km/s) = 4.89075 5.19825 5.04684
#
# Compressibility (1/GPa) = 0.03734640
#
# Stress axis : x y z
#
# Youngs Moduli (GPa) = 78.24808 30.96464 56.86915
#
# Poissons Ratio (x) = 0.03639 0.02583
# Poissons Ratio (y) = 0.09197 0.62708
# Poissons Ratio (z) = 0.03555 0.34144
#
# Static dielectric constant tensor:
#      x y z
#    x 2.040060 0.000000 0.063660 
#    y 0.000000 1.904340 0.000000 
#    z 0.063660 0.000000 2.050350 
# 
# From -- ./inp_files/45769.got.cif
#   From: 2010.05.17/outbox.cif.g08.bks.cpg/sg11_23_cif.got.tgz:45769.got - 2010.06.03 12:22:45.
