data_PCOD9166630
_publ_section_title
;
Structure prediction by ZEFSAII (Michael W. Deem and Ramdas Pophale) SiO2 
 PCOD9166630
Probable space group: P 21/M
;
_chemical_formula_sum "Si O2"
_cell_formula_units_Z 32
_cell_length_a 11.241269
_cell_length_b 16.841957
_cell_length_c 14.625374
_cell_angle_alpha 90.000000
_cell_angle_beta 29.320830
_cell_angle_gamma 90.000000
_cell_volume 1355.952581
_symmetry_space_group_name_H-M "P 21/M"
_symmetry_group_IT_number 11
_symmetry_cell_setting 'monoclinic'
loop_
_space_group_symop_operation_xyz
x,y,z
-x,1/2+y,-z
-x,-y,-z
x,1/2-y,z
loop_
_atom_site_type_symbol
_atom_site_label
_atom_site_fract_x
_atom_site_fract_y
_atom_site_fract_z
Si Si1 0.682033 0.157925 0.259153
Si Si2 0.559456 0.653263 0.060311
Si Si3 0.329892 0.909854 0.388910
Si Si4 0.005478 0.657200 0.205005
Si Si5 0.903356 0.342669 0.286754
Si Si6 0.136242 0.080881 0.878366
Si Si7 0.567497 0.657074 0.845883
Si Si8 0.776515 0.587759 0.532501
O O1 0.605480 0.250000 0.306403
O O2 0.709056 0.125963 0.344524
O O3 0.485584 0.108138 0.336482
O O4 0.953166 0.148935 0.038034
O O5 0.543642 0.750000 0.074142
O O6 0.370167 0.617551 0.258309
O O7 0.549080 0.627631 0.961968
O O8 0.828440 0.625069 0.909856
O O9 0.177142 0.852072 0.555646
O O10 0.598066 0.915050 0.255725
O O11 0.197863 0.993961 0.484445
O O12 0.935215 0.750000 0.240113
O O13 0.867203 0.598789 0.227964
O O14 0.957432 0.632117 0.342222
O O15 0.292190 0.650522 0.993353
O O16 0.917732 0.250000 0.255565
O O17 0.000000 0.000000 0.000000
O O18 0.629897 0.750000 0.807904
O O19 0.753167 0.616729 0.652179
#
# Coordination Sequence:
#
# PCOD9166630 Si02
#       8
#     4   4   4   4   4   4   4   4
#     4  11  21  38  64  91 124 164 207 254 307 370
#     4  10  23  44  68  90 121 164 214 267 317 375
#     4  12  25  39  64  93 131 168 205 256 320 387
#     4  11  24  41  66  95 127 168 215 260 313 379
#     4  10  23  40  63  93 125 163 209 260 314 380
#     4  12  23  39  65  95 130 169 205 255 318 378
#     4  10  22  44  68  90 120 164 216 268 315 368
#     4  12  25  40  63  94 130 167 206 262 317 379
#
# _framework density 23.599644999999999
#
# number of rings (size 3 to 8) (size 9 to 14) (size 15 to 20)
#    0.000    1.000    3.750    2.625    1.750    6.000 
#    0.000    5.000    0.000    0.000    0.000    0.000 
#    0.000    0.000    0.000    0.000    0.000    0.000 
#
# Total GULP energy -179015.055724 kJ/mol
# GULP energy per Si atom -5594.220491 kJ/mol
# Density = 2.354593 g / cm^3
# Si number density = 23.599645 Si / 1000 Ang^3
#
#
#
# Elastic Constant Matrix: (Units=GPa)
#
#
# Indices 1 2 3 4 5 6 
#
# 1 78.2454 21.7477 5.5292 0.0000 35.8534 0.0000
# 2 21.7477 57.1060 9.0256 0.0000 6.9654 0.0000
# 3 5.5292 9.0256 96.8253 0.0000 25.8338 0.0000
# 4 0.0000 0.0000 0.0000 28.8312 0.0000 5.4368
# 5 35.8534 6.9654 25.8338 0.0000 45.4289 0.0000
# 6 0.0000 0.0000 0.0000 5.4368 0.0000 13.4892
#
#
#
# Elastic Compliance Matrix: (Units=1/GPa)
#
#
# Indices 1 2 3 4 5 6 
#
# 1 0.023825 -0.007339 0.004763 0.000000 -0.020386 0.000000
# 2 -0.007339 0.020206 -0.002574 0.000000 0.004158 0.000000
# 3 0.004763 -0.002574 0.013196 0.000000 -0.010868 0.000000
# 4 0.000000 0.000000 0.000000 0.037538 0.000000 -0.015129
# 5 -0.020386 0.004158 -0.010868 0.000000 0.043644 0.000000
# 6 0.000000 0.000000 0.000000 -0.015129 0.000000 0.080231
#
#
# Mechanical properties :
#
#
# Convention : Reuss Voigt Hill
#
# Bulk Modulus (GPa) = 21.31025 33.86463 27.58744
# Shear Modulus (GPa) = 20.44301 30.60815 25.52558
#
# Velocity S-wave (km/s) = 2.94639 3.60526 3.29235
# Velocity P-wave (km/s) = 4.54142 5.63128 5.11546
#
# Compressibility (1/GPa) = 0.04692577
#
# Stress axis : x y z
#
# Youngs Moduli (GPa) = 41.97262 49.49022 75.78326
#
# Poissons Ratio (x) = 0.36323 -0.36095
# Poissons Ratio (y) = 0.30806 0.19505
# Poissons Ratio (z) = -0.19991 0.12738
#
# Static dielectric constant tensor:
#      x y z
#    x 1.987890 0.000000 0.013650 
#    y 0.000000 1.894560 0.000000 
#    z 0.013650 0.000000 1.883700 
# 
# From -- ./inp_files/50678.got.cif
#   From: 2010.05.17/outbox.cif.g08.bks.cpg/sg11_26_cif.got.tgz:50678.got - 2010.06.03 12:22:45.
