data_PCOD9166991
_publ_section_title
;
Structure prediction by ZEFSAII (Michael W. Deem and Ramdas Pophale) SiO2 
 PCOD9166991
Probable space group: P 21/M
;
_chemical_formula_sum "Si O2"
_cell_formula_units_Z 26
_cell_length_a 9.535958
_cell_length_b 19.568212
_cell_length_c 8.166950
_cell_angle_alpha 90.000000
_cell_angle_beta 47.137855
_cell_angle_gamma 90.000000
_cell_volume 1117.055869
_symmetry_space_group_name_H-M "P 21/M"
_symmetry_group_IT_number 11
_symmetry_cell_setting 'monoclinic'
loop_
_space_group_symop_operation_xyz
x,y,z
-x,1/2+y,-z
-x,-y,-z
x,1/2-y,z
loop_
_atom_site_type_symbol
_atom_site_label
_atom_site_fract_x
_atom_site_fract_y
_atom_site_fract_z
Si Si1 0.711113 0.866279 0.544481
Si Si2 0.293004 0.378684 0.830461
Si Si3 0.665756 0.176332 0.680631
Si Si4 0.877660 0.419316 0.265758
Si Si5 0.529196 0.250000 0.080192
Si Si6 0.039061 0.955901 0.310571
Si Si7 0.379445 0.964118 0.822068
O O1 0.701906 0.852379 0.358548
O O2 0.605918 0.808972 0.729444
O O3 0.929348 0.884694 0.412484
O O4 0.590723 0.935731 0.671068
O O5 0.441144 0.335198 0.818444
O O6 0.370139 0.456827 0.777994
O O7 0.075797 0.381164 0.066574
O O8 0.725741 0.250000 0.557305
O O9 0.781826 0.116789 0.499078
O O10 0.659109 0.191294 0.878591
O O11 0.938719 0.498012 0.247986
O O12 0.730919 0.420403 0.230669
O O13 0.000000 0.000000 0.500000
O O14 0.258094 0.955630 0.083743
#
# Coordination Sequence:
#
# PCOD9166991 Si02
#       7
#     4   4   4   4   2   4   4
#     4  12  23  44  67  95 137 175 214 273 324 385
#     4  11  21  40  73 100 124 164 221 279 322 381
#     4  10  25  45  61  88 130 177 223 256 318 389
#     4  11  21  43  69  99 129 161 223 276 319 389
#     4  10  30  44  58  94 138 178 224 254 324 414
#     4  11  25  38  66 105 137 167 209 270 343 393
#     4  11  22  41  70 106 127 163 220 275 331 389
#
# _framework density 23.275469000000001
#
# number of rings (size 3 to 8) (size 9 to 14) (size 15 to 20)
#    0.462    0.615    4.615    2.308    7.538    1.231 
#    0.000    2.308    0.000    0.000    0.000    0.000 
#    0.000    0.000    0.000    0.000    0.000    0.000 
#
# Total GULP energy -144851.247615 kJ/mol
# GULP energy per Si atom -5571.201831 kJ/mol
# Density = 2.322249 g / cm^3
# Si number density = 23.275469 Si / 1000 Ang^3
#
#
#
# Elastic Constant Matrix: (Units=GPa)
#
#
# Indices 1 2 3 4 5 6 
#
# 1 27.4312 -3.0339 4.4873 0.0000 -8.3849 0.0000
# 2 -3.0339 71.6041 17.8312 0.0000 0.9110 0.0000
# 3 4.4873 17.8312 154.8996 0.0000 -6.9825 0.0000
# 4 0.0000 0.0000 0.0000 53.3919 0.0000 -3.8646
# 5 -8.3849 0.9110 -6.9825 0.0000 30.6886 0.0000
# 6 0.0000 0.0000 0.0000 -3.8646 0.0000 -4.3467
#
#
#
# Elastic Compliance Matrix: (Units=1/GPa)
#
#
# Indices 1 2 3 4 5 6 
#
# 1 0.040065 0.001782 -0.000884 0.000000 0.010693 0.000000
# 2 0.001782 0.014477 -0.001733 0.000000 -0.000337 0.000000
# 3 -0.000884 -0.001733 0.006742 0.000000 0.001344 0.000000
# 4 0.000000 0.000000 0.000000 0.017597 0.000000 -0.015645
# 5 0.010693 -0.000337 0.001344 0.000000 0.035823 0.000000
# 6 0.000000 0.000000 0.000000 -0.015645 0.000000 -0.216149
#
#
# Mechanical properties :
#
#
# Convention : Reuss Voigt Hill
#
# Bulk Modulus (GPa) = 16.77499 32.50046 24.63773
# Shear Modulus (GPa) = -62.57507 31.59011 -15.49248
#
# Velocity S-wave (km/s) = -5.19066 3.68805 -2.58275
# Velocity P-wave (km/s) = 5.35734 5.66828 1.30925
#
# Compressibility (1/GPa) = 0.05961255
#
# Stress axis : x y z
#
# Youngs Moduli (GPa) = 24.95953 69.07456 148.33482
#
# Poissons Ratio (x) = -0.12306 0.13109
# Poissons Ratio (y) = -0.04447 0.25712
# Poissons Ratio (z) = 0.02206 0.11973
#
# Static dielectric constant tensor:
#      x y z
#    x 1.919080 0.000000 0.038820 
#    y 0.000000 1.913900 0.000000 
#    z 0.038820 0.000000 1.853530 
# 
# From -- ./inp_files/19309.got.cif
#   From: 2010.05.17/outbox.cif.g08.bks.cpg/sg11_10_cif.got.tgz:19309.got - 2010.06.03 12:22:45.
