data_PCOD9166141
_publ_section_title
;
Structure prediction by ZEFSAII (Michael W. Deem and Ramdas Pophale) SiO2 
 PCOD9166141
Probable space group: P 21/M
;
_chemical_formula_sum "Si O2"
_cell_formula_units_Z 28
_cell_length_a 5.685202
_cell_length_b 17.061116
_cell_length_c 13.917728
_cell_angle_alpha 90.000000
_cell_angle_beta 64.509788
_cell_angle_gamma 90.000000
_cell_volume 1218.555485
_symmetry_space_group_name_H-M "P 21/M"
_symmetry_group_IT_number 11
_symmetry_cell_setting 'monoclinic'
loop_
_space_group_symop_operation_xyz
x,y,z
-x,1/2+y,-z
-x,-y,-z
x,1/2-y,z
loop_
_atom_site_type_symbol
_atom_site_label
_atom_site_fract_x
_atom_site_fract_y
_atom_site_fract_z
Si Si1 0.695154 0.158852 0.810578
Si Si2 0.787430 0.050684 0.173672
Si Si3 0.683933 0.840409 0.697215
Si Si4 0.270272 0.338133 0.739566
Si Si5 0.684181 0.936155 0.015372
Si Si6 0.338235 0.118117 0.517660
Si Si7 0.857245 0.033953 0.379996
O O1 0.745722 0.250000 0.786642
O O2 0.975614 0.126128 0.795732
O O3 0.486710 0.139049 0.929216
O O4 0.536060 0.130281 0.743525
O O5 0.572688 0.119978 0.210570
O O6 0.769590 0.018544 0.285351
O O7 0.755321 0.981011 0.102087
O O8 0.071009 0.082515 0.094152
O O9 0.729946 0.750000 0.720357
O O10 0.667763 0.840099 0.583427
O O11 0.906587 0.905933 0.673042
O O12 0.247629 0.250000 0.786008
O O13 0.312489 0.333348 0.618447
O O14 0.500000 0.000000 0.000000
O O15 0.620652 0.078244 0.472197
O O16 0.123226 0.048418 0.567576
#
# Coordination Sequence:
#
# PCOD9166141 Si02
#       7
#     4   4   4   4   4   4   4
#     4  10  24  42  65  96 135 171 217 279 344 407
#     4  10  24  42  64  95 126 167 219 276 337 402
#     4  11  24  41  63  96 134 177 222 271 333 405
#     4  10  22  40  64  98 132 175 218 275 344 404
#     4  11  24  42  70  97 124 168 223 276 338 404
#     4  10  22  38  64  91 129 172 222 274 328 396
#     4  10  22  41  62  93 125 170 222 272 333 392
#
# _framework density 22.978026
#
# number of rings (size 3 to 8) (size 9 to 14) (size 15 to 20)
#    0.000    1.714    0.000    2.571   10.000    3.429 
#    0.000    2.143    0.000    0.000    0.000    0.000 
#    0.000    0.000    0.000    0.000    0.000    0.000 
#
# Total GULP energy -156093.063221 kJ/mol
# GULP energy per Si atom -5574.752258 kJ/mol
# Density = 2.292573 g / cm^3
# Si number density = 22.978026 Si / 1000 Ang^3
#
#
#
# Elastic Constant Matrix: (Units=GPa)
#
#
# Indices 1 2 3 4 5 6 
#
# 1 116.1690 32.3976 25.9094 0.0000 -21.6489 0.0000
# 2 32.3976 90.0749 20.4932 0.0000 -22.5795 0.0000
# 3 25.9094 20.4932 106.7757 0.0000 -29.4588 0.0000
# 4 0.0000 0.0000 0.0000 27.0580 0.0000 1.3902
# 5 -21.6489 -22.5795 -29.4588 0.0000 41.9842 0.0000
# 6 0.0000 0.0000 0.0000 1.3902 0.0000 17.1451
#
#
#
# Elastic Compliance Matrix: (Units=1/GPa)
#
#
# Indices 1 2 3 4 5 6 
#
# 1 0.010159 -0.002639 -0.001122 0.000000 0.003032 0.000000
# 2 -0.002639 0.013559 -0.000404 0.000000 0.005648 0.000000
# 3 -0.001122 -0.000404 0.011775 0.000000 0.007466 0.000000
# 4 0.000000 0.000000 0.000000 0.037112 0.000000 -0.003009
# 5 0.003032 0.005648 0.007466 0.000000 0.033658 0.000000
# 6 0.000000 0.000000 0.000000 -0.003009 0.000000 0.058570
#
#
# Mechanical properties :
#
#
# Convention : Reuss Voigt Hill
#
# Bulk Modulus (GPa) = 36.81357 52.29111 44.55234
# Shear Modulus (GPa) = 27.43975 32.85209 30.14592
#
# Velocity S-wave (km/s) = 3.45943 3.78526 3.62601
# Velocity P-wave (km/s) = 5.65799 6.47385 6.07962
#
# Compressibility (1/GPa) = 0.02716390
#
# Stress axis : x y z
#
# Youngs Moduli (GPa) = 98.43127 73.75386 84.92446
#
# Poissons Ratio (x) = 0.19461 0.09530
# Poissons Ratio (y) = 0.25973 0.03429
# Poissons Ratio (z) = 0.11046 0.02978
#
# Static dielectric constant tensor:
#      x y z
#    x 1.954590 0.000000 0.027580 
#    y 0.000000 1.914430 0.000000 
#    z 0.027580 0.000000 1.847280 
# 
# From -- ./inp_files/45977.got.cif
#   From: 2010.05.17/outbox.cif.g08.bks.cpg/sg11_23_cif.got.tgz:45977.got - 2010.06.03 12:22:45.
