data_PCOD9166215
_publ_section_title
;
Structure prediction by ZEFSAII (Michael W. Deem and Ramdas Pophale) SiO2 
 PCOD9166215
Probable space group: P 21/M
;
_chemical_formula_sum "Si O2"
_cell_formula_units_Z 20
_cell_length_a 11.970898
_cell_length_b 14.267335
_cell_length_c 10.616986
_cell_angle_alpha 90.000000
_cell_angle_beta 154.677317
_cell_angle_gamma 90.000000
_cell_volume 775.579063
_symmetry_space_group_name_H-M "P 21/M"
_symmetry_group_IT_number 11
_symmetry_cell_setting 'monoclinic'
loop_
_space_group_symop_operation_xyz
x,y,z
-x,1/2+y,-z
-x,-y,-z
x,1/2-y,z
loop_
_atom_site_type_symbol
_atom_site_label
_atom_site_fract_x
_atom_site_fract_y
_atom_site_fract_z
Si Si1 0.743847 0.953848 0.681889
Si Si2 0.309959 0.917375 0.887729
Si Si3 0.092469 0.750000 0.399917
Si Si4 0.610100 0.750000 0.092623
Si Si5 0.390987 0.250000 0.499521
Si Si6 0.058912 0.543696 0.360447
Si Si7 0.915818 0.250000 0.188487
O O1 0.695265 0.844565 0.655197
O O2 0.500000 0.000000 0.500000
O O3 0.784796 0.976981 0.575874
O O4 0.000000 0.000000 0.000000
O O5 0.557019 0.848720 0.111390
O O6 0.213911 0.948252 0.651061
O O7 0.133994 0.839957 0.777869
O O8 0.229950 0.005193 0.896486
O O9 0.381329 0.750000 0.753574
O O10 0.051445 0.648737 0.294962
O O11 0.882231 0.750000 0.298736
O O12 0.203260 0.250000 0.428844
O O13 0.692679 0.250000 0.851466
#
# Coordination Sequence:
#
# PCOD9166215 Si02
#       7
#     4   4   2   2   2   4   2
#     4  12  29  52  79 111 152 209 271 325 387 454
#     4   9  20  40  69 110 147 191 236 311 382 471
#     4  10  22  39  61  94 143 186 228 297 363 449
#     4   9  20  38  57  98 139 183 230 278 373 448
#     4  12  26  51  79 110 152 197 264 322 385 468
#     4  10  22  44  71 107 153 193 255 310 392 451
#     4  11  22  44  75 114 154 196 244 313 397 477
#
# _framework density 25.787184
#
# number of rings (size 3 to 8) (size 9 to 14) (size 15 to 20)
#    0.000    1.600    2.000    1.800    0.000   12.000 
#    0.000    0.000    0.000    0.000    0.000    0.000 
#    0.000    0.000    0.000    0.000    0.000    0.000 
#
# Total GULP energy -111810.783756 kJ/mol
# GULP energy per Si atom -5590.539188 kJ/mol
# Density = 2.572849 g / cm^3
# Si number density = 25.787184 Si / 1000 Ang^3
#
#
#
# Elastic Constant Matrix: (Units=GPa)
#
#
# Indices 1 2 3 4 5 6 
#
# 1 64.8281 32.3492 9.9110 0.0000 2.7122 0.0000
# 2 32.3492 223.7665 32.4539 0.0000 -4.4816 0.0000
# 3 9.9110 32.4539 128.7198 0.0000 -6.1268 0.0000
# 4 0.0000 0.0000 0.0000 18.4347 0.0000 5.0448
# 5 2.7122 -4.4816 -6.1268 0.0000 34.5344 0.0000
# 6 0.0000 0.0000 0.0000 5.0448 0.0000 47.5931
#
#
#
# Elastic Compliance Matrix: (Units=1/GPa)
#
#
# Indices 1 2 3 4 5 6 
#
# 1 0.016791 -0.002349 -0.000785 0.000000 -0.001763 0.000000
# 2 -0.002349 0.004973 -0.001042 0.000000 0.000645 0.000000
# 3 -0.000785 -0.001042 0.008157 0.000000 0.001374 0.000000
# 4 0.000000 0.000000 0.000000 0.055866 0.000000 -0.005922
# 5 -0.001763 0.000645 0.001374 0.000000 0.029422 0.000000
# 6 0.000000 0.000000 0.000000 -0.005922 0.000000 0.021639
#
#
# Mechanical properties :
#
#
# Convention : Reuss Voigt Hill
#
# Bulk Modulus (GPa) = 46.36103 62.97139 54.66621
# Shear Modulus (GPa) = 32.81050 42.95245 37.88148
#
# Velocity S-wave (km/s) = 3.57088 4.08567 3.83692
# Velocity P-wave (km/s) = 5.91768 6.83590 6.39330
#
# Compressibility (1/GPa) = 0.02156984
#
# Stress axis : x y z
#
# Youngs Moduli (GPa) = 59.55489 201.10221 122.58865
#
# Poissons Ratio (x) = 0.47238 0.09617
# Poissons Ratio (y) = 0.13989 0.12776
# Poissons Ratio (z) = 0.04672 0.20958
#
# Static dielectric constant tensor:
#      x y z
#    x 2.019230 0.000000 -0.067780 
#    y 0.000000 2.099280 0.000000 
#    z -0.067780 0.000000 2.074800 
# 
# From -- ./inp_files/35774.got.cif
#   From: 2010.05.17/outbox.cif.g08.bks.cpg/sg11_18_cif.got.tgz:35774.got - 2010.06.03 12:22:45.
