data_PCOD9166300
_publ_section_title
;
Structure prediction by ZEFSAII (Michael W. Deem and Ramdas Pophale) SiO2 
 PCOD9166300
Probable space group: P 21/M
;
_chemical_formula_sum "Si O2"
_cell_formula_units_Z 28
_cell_length_a 27.884192
_cell_length_b 8.659232
_cell_length_c 9.542103
_cell_angle_alpha 90.000000
_cell_angle_beta 37.760082
_cell_angle_gamma 90.000000
_cell_volume 1410.866117
_symmetry_space_group_name_H-M "P 21/M"
_symmetry_group_IT_number 11
_symmetry_cell_setting 'monoclinic'
loop_
_space_group_symop_operation_xyz
x,y,z
-x,1/2+y,-z
-x,-y,-z
x,1/2-y,z
loop_
_atom_site_type_symbol
_atom_site_label
_atom_site_fract_x
_atom_site_fract_y
_atom_site_fract_z
Si Si1 0.203581 0.436291 0.847713
Si Si2 0.520385 0.935836 0.798245
Si Si3 0.660859 0.064715 0.293666
Si Si4 0.238549 0.436579 0.454403
Si Si5 0.374317 0.564083 0.943531
Si Si6 0.021762 0.434908 0.300403
Si Si7 0.067503 0.434376 0.745876
O O1 0.207455 0.250000 0.850707
O O2 0.252741 0.510043 0.859979
O O3 0.241955 0.481479 0.610011
O O4 0.111678 0.479002 0.056511
O O5 0.522474 0.750000 0.802097
O O6 0.454038 0.983669 0.838080
O O7 0.601301 0.996471 0.546313
O O8 0.500000 0.000000 0.000000
O O9 0.656983 0.250000 0.306005
O O10 0.637010 0.011445 0.191449
O O11 0.243511 0.250000 0.437251
O O12 0.153272 0.484829 0.595395
O O13 0.304573 0.506170 0.203498
O O14 0.373536 0.750000 0.942318
O O15 0.018061 0.250000 0.302529
O O16 0.000000 0.500000 0.500000
O O17 0.957719 0.506271 0.346040
O O18 0.066133 0.250000 0.756094
O O19 0.000000 0.500000 0.000000
#
# Coordination Sequence:
#
# PCOD9166300 Si02
#       7
#     4   4   4   4   4   4   4
#     4  10  22  42  62  86 122 163 205 252 307 367
#     4  11  23  42  67  94 124 161 202 247 301 361
#     4  11  24  41  62  92 126 160 202 250 301 360
#     4  10  22  40  62  88 120 159 205 251 305 366
#     4  10  24  42  61  91 126 159 200 249 301 358
#     4  11  24  42  62  89 125 164 210 263 318 378
#     4  11  22  40  63  91 122 164 212 261 316 372
#
# _framework density 19.845965
#
# number of rings (size 3 to 8) (size 9 to 14) (size 15 to 20)
#    0.000    1.429    1.429    3.000    2.000    7.429 
#    0.000    0.000    0.000    0.000    0.000    0.000 
#    0.000    0.000    0.000    0.000    0.000    0.000 
#
# Total GULP energy -156487.043615 kJ/mol
# GULP energy per Si atom -5588.822986 kJ/mol
# Density = 1.980079 g / cm^3
# Si number density = 19.845965 Si / 1000 Ang^3
#
#
#
# Elastic Constant Matrix: (Units=GPa)
#
#
# Indices 1 2 3 4 5 6 
#
# 1 132.6678 22.3885 14.9554 0.0000 5.5173 0.0000
# 2 22.3885 26.3106 9.0919 0.0000 -3.0529 0.0000
# 3 14.9554 9.0919 65.9888 0.0000 4.9372 0.0000
# 4 0.0000 0.0000 0.0000 35.8008 0.0000 -0.2507
# 5 5.5173 -3.0529 4.9372 0.0000 42.4942 0.0000
# 6 0.0000 0.0000 0.0000 -0.2507 0.0000 34.3391
#
#
#
# Elastic Compliance Matrix: (Units=1/GPa)
#
#
# Indices 1 2 3 4 5 6 
#
# 1 0.008972 -0.007517 -0.000878 0.000000 -0.001603 0.000000
# 2 -0.007517 0.046740 -0.005105 0.000000 0.004927 0.000000
# 3 -0.000878 -0.005105 0.016216 0.000000 -0.002137 0.000000
# 4 0.000000 0.000000 0.000000 0.027934 0.000000 0.000204
# 5 -0.001603 0.004927 -0.002137 0.000000 0.024343 0.000000
# 6 0.000000 0.000000 0.000000 0.000204 0.000000 0.029123
#
#
# Mechanical properties :
#
#
# Convention : Reuss Voigt Hill
#
# Bulk Modulus (GPa) = 22.25755 35.31542 28.78649
# Shear Modulus (GPa) = 25.60133 34.42892 30.01513
#
# Velocity S-wave (km/s) = 3.59556 4.16962 3.89318
# Velocity P-wave (km/s) = 5.33637 6.40425 5.89454
#
# Compressibility (1/GPa) = 0.04492858
#
# Stress axis : x y z
#
# Youngs Moduli (GPa) = 111.46075 21.39513 61.66669
#
# Poissons Ratio (x) = 0.16083 0.05412
# Poissons Ratio (y) = 0.83785 0.31479
# Poissons Ratio (z) = 0.09783 0.10922
#
# Static dielectric constant tensor:
#      x y z
#    x 1.615530 0.000000 -0.025330 
#    y 0.000000 1.670400 0.000000 
#    z -0.025330 0.000000 1.660580 
# 
# From -- ./inp_files/28317.got.cif
#   From: 2010.05.17/outbox.cif.g08.bks.cpg/sg11_15_cif.got.tgz:28317.got - 2010.06.03 12:22:45.
