data_PCOD9166833
_publ_section_title
;
Structure prediction by ZEFSAII (Michael W. Deem and Ramdas Pophale) SiO2 
 PCOD9166833
Probable space group: P 21/M
;
_chemical_formula_sum "Si O2"
_cell_formula_units_Z 20
_cell_length_a 12.043932
_cell_length_b 8.514522
_cell_length_c 9.741547
_cell_angle_alpha 90.000000
_cell_angle_beta 104.824142
_cell_angle_gamma 90.000000
_cell_volume 965.728959
_symmetry_space_group_name_H-M "P 21/M"
_symmetry_group_IT_number 11
_symmetry_cell_setting 'monoclinic'
loop_
_space_group_symop_operation_xyz
x,y,z
-x,1/2+y,-z
-x,-y,-z
x,1/2-y,z
loop_
_atom_site_type_symbol
_atom_site_label
_atom_site_fract_x
_atom_site_fract_y
_atom_site_fract_z
Si Si1 0.605243 0.436466 0.624298
Si Si2 0.964431 0.936162 0.136888
Si Si3 0.517740 0.436668 0.158031
Si Si4 0.228479 0.059596 0.725172
Si Si5 0.153179 0.063748 0.402736
O O1 0.500000 0.500000 0.500000
O O2 0.616664 0.250000 0.609953
O O3 0.570912 0.479455 0.768142
O O4 0.721535 0.520871 0.615955
O O5 0.956541 0.750000 0.122301
O O6 0.843193 0.990967 0.163447
O O7 0.059716 0.978674 0.280182
O O8 0.000000 0.000000 0.000000
O O9 0.501731 0.250000 0.159759
O O10 0.647191 0.481547 0.242618
O O11 0.500000 0.500000 0.000000
O O12 0.243025 0.250000 0.731508
O O13 0.157321 0.019790 0.564942
O O14 0.133997 0.250000 0.387055
#
# Coordination Sequence:
#
# PCOD9166833 Si02
#       5
#     4   4   4   4   4
#     4  12  24  42  67  99 134 171 218 267 324 389
#     4  11  25  44  66  95 131 171 218 272 329 388
#     4  12  26  43  67  97 134 176 218 269 327 388
#     4  10  23  44  68  94 129 171 221 270 322 388
#     4  11  23  42  69  97 129 171 218 270 326 387
#
# _framework density 20.709745000000002
#
# number of rings (size 3 to 8) (size 9 to 14) (size 15 to 20)
#    0.000    0.800    2.000    5.400    2.800    2.400 
#    0.000    0.000    0.000    0.000    0.000    0.000 
#    0.000    0.000    0.000    0.000    0.000    0.000 
#
# Total GULP energy -111945.337846 kJ/mol
# GULP energy per Si atom -5597.266892 kJ/mol
# Density = 2.066261 g / cm^3
# Si number density = 20.709745 Si / 1000 Ang^3
#
#
#
# Elastic Constant Matrix: (Units=GPa)
#
#
# Indices 1 2 3 4 5 6 
#
# 1 63.7398 -12.2345 1.2447 0.0000 -22.9705 0.0000
# 2 -12.2345 32.7315 7.8345 0.0000 -7.8685 0.0000
# 3 1.2447 7.8345 95.4788 0.0000 -25.9256 0.0000
# 4 0.0000 0.0000 0.0000 39.3538 0.0000 4.4332
# 5 -22.9705 -7.8685 -25.9256 0.0000 41.7385 0.0000
# 6 0.0000 0.0000 0.0000 4.4332 0.0000 31.8884
#
#
#
# Elastic Compliance Matrix: (Units=1/GPa)
#
#
# Indices 1 2 3 4 5 6 
#
# 1 0.024596 0.012703 0.003564 0.000000 0.018145 0.000000
# 2 0.012703 0.038675 0.000648 0.000000 0.014684 0.000000
# 3 0.003564 0.000648 0.013159 0.000000 0.010257 0.000000
# 4 0.000000 0.000000 0.000000 0.025815 0.000000 -0.003589
# 5 0.018145 0.014684 0.010257 0.000000 0.043084 0.000000
# 6 0.000000 0.000000 0.000000 -0.003589 0.000000 0.031858
#
#
# Mechanical properties :
#
#
# Convention : Reuss Voigt Hill
#
# Bulk Modulus (GPa) = 9.06947 20.62660 14.84804
# Shear Modulus (GPa) = 27.76068 35.60318 31.68193
#
# Velocity S-wave (km/s) = 3.66521 4.15076 3.91552
# Velocity P-wave (km/s) = 4.72234 5.74049 5.25613
#
# Compressibility (1/GPa) = 0.11026006
#
# Stress axis : x y z
#
# Youngs Moduli (GPa) = 40.65622 25.85674 75.99325
#
# Poissons Ratio (x) = -0.32845 -0.27084
# Poissons Ratio (y) = -0.51644 -0.04926
# Poissons Ratio (z) = -0.14490 -0.01676
#
# Static dielectric constant tensor:
#      x y z
#    x 1.745040 0.000000 -0.032670 
#    y 0.000000 1.697990 0.000000 
#    z -0.032670 0.000000 1.690310 
# 
# From -- ./inp_files/15887.got.cif
#   From: 2010.05.17/outbox.cif.g08.bks.cpg/sg11_8_cif.got.tgz:15887.got - 2010.06.03 12:22:45.
