data_PCOD9166037
_publ_section_title
;
Structure prediction by ZEFSAII (Michael W. Deem and Ramdas Pophale) SiO2 
 PCOD9166037
Probable space group: P 21/M
;
_chemical_formula_sum "Si O2"
_cell_formula_units_Z 26
_cell_length_a 9.236893
_cell_length_b 21.839622
_cell_length_c 6.832415
_cell_angle_alpha 90.000000
_cell_angle_beta 126.300826
_cell_angle_gamma 90.000000
_cell_volume 1110.803054
_symmetry_space_group_name_H-M "P 21/M"
_symmetry_group_IT_number 11
_symmetry_cell_setting 'monoclinic'
loop_
_space_group_symop_operation_xyz
x,y,z
-x,1/2+y,-z
-x,-y,-z
x,1/2-y,z
loop_
_atom_site_type_symbol
_atom_site_label
_atom_site_fract_x
_atom_site_fract_y
_atom_site_fract_z
Si Si1 0.743300 0.549604 0.657080
Si Si2 0.717982 0.645113 0.301566
Si Si3 0.876480 0.652305 0.014762
Si Si4 0.238934 0.684791 0.113094
Si Si5 0.718131 0.750000 0.631583
Si Si6 0.656150 0.179989 0.211004
Si Si7 0.354850 0.917945 0.465262
O O1 0.724270 0.582187 0.430502
O O2 0.768333 0.477575 0.648475
O O3 0.558230 0.558073 0.632613
O O4 0.878753 0.588615 0.897629
O O5 0.854047 0.644902 0.227392
O O6 0.747027 0.696851 0.486686
O O7 0.528062 0.661797 0.047172
O O8 0.057396 0.685754 0.090901
O O9 0.718688 0.695461 0.802643
O O10 0.342295 0.750000 0.227530
O O11 0.343476 0.625972 0.268526
O O12 0.201733 0.680374 0.853743
O O13 0.649880 0.250000 0.282628
O O14 0.690031 0.127971 0.395659
#
# Coordination Sequence:
#
# PCOD9166037 Si02
#       7
#     4   4   4   4   2   4   4
#     4  10  24  41  67  97 126 172 220 265 306 389
#     4  11  21  39  67  97 121 167 220 259 311 377
#     4  11  23  42  64  95 130 168 208 265 326 372
#     4  11  25  43  62  96 133 170 206 269 330 381
#     4  10  22  36  62  92 132 156 216 256 310 382
#     4  11  23  39  65  96 125 168 213 268 321 375
#     4  11  23  43  66  94 133 169 216 266 320 376
#
# _framework density 23.406489000000001
#
# number of rings (size 3 to 8) (size 9 to 14) (size 15 to 20)
#    0.000    1.231    4.615    0.923    0.000    4.923 
#    0.000    1.538    0.000    0.000    0.000    0.000 
#    0.000    0.000    0.000    0.000    0.000    0.000 
#
# Total GULP energy -144891.776509 kJ/mol
# GULP energy per Si atom -5572.760635 kJ/mol
# Density = 2.335322 g / cm^3
# Si number density = 23.406489 Si / 1000 Ang^3
#
#
#
# Elastic Constant Matrix: (Units=GPa)
#
#
# Indices 1 2 3 4 5 6 
#
# 1 69.4992 17.1844 20.3507 0.0000 -27.7900 0.0000
# 2 17.1844 214.0911 69.9463 0.0000 -12.2828 0.0000
# 3 20.3507 69.9463 112.4710 0.0000 -43.4326 0.0000
# 4 0.0000 0.0000 0.0000 22.7452 0.0000 9.7041
# 5 -27.7900 -12.2828 -43.4326 0.0000 41.7818 0.0000
# 6 0.0000 0.0000 0.0000 9.7041 0.0000 -3.8651
#
#
#
# Elastic Compliance Matrix: (Units=1/GPa)
#
#
# Indices 1 2 3 4 5 6 
#
# 1 0.020704 -0.002080 0.004392 0.000000 0.017725 0.000000
# 2 -0.002080 0.006385 -0.005687 0.000000 -0.005418 0.000000
# 3 0.004392 -0.005687 0.020241 0.000000 0.022290 0.000000
# 4 0.000000 0.000000 0.000000 0.021227 0.000000 0.053295
# 5 0.017725 -0.005418 0.022290 0.000000 0.057301 0.000000
# 6 0.000000 0.000000 0.000000 0.053295 0.000000 -0.124917
#
#
# Mechanical properties :
#
#
# Convention : Reuss Voigt Hill
#
# Bulk Modulus (GPa) = 24.64196 67.89157 46.26676
# Shear Modulus (GPa) = 235.65155 31.37102 133.51128
#
# Velocity S-wave (km/s) = 10.04472 3.66494 7.56070
# Velocity P-wave (km/s) = 12.04489 6.85401 9.79941
#
# Compressibility (1/GPa) = 0.04058119
#
# Stress axis : x y z
#
# Youngs Moduli (GPa) = 48.29872 156.61917 49.40565
#
# Poissons Ratio (x) = 0.32575 -0.21699
# Poissons Ratio (y) = 0.10046 0.28095
# Poissons Ratio (z) = -0.21213 0.89063
#
# Static dielectric constant tensor:
#      x y z
#    x 2.061340 0.000000 0.089410 
#    y 0.000000 1.872930 0.000000 
#    z 0.089410 0.000000 1.921140 
# 
# From -- ./inp_files/4938.got.cif
#   From: 2010.05.17/outbox.cif.g08.bks.cpg/sg11_3_cif.got.tgz:4938.got - 2010.06.03 12:22:45.
