data_PCOD9166842
_publ_section_title
;
Structure prediction by ZEFSAII (Michael W. Deem and Ramdas Pophale) SiO2 
 PCOD9166842
Probable space group: P 21/M
;
_chemical_formula_sum "Si O2"
_cell_formula_units_Z 28
_cell_length_a 7.535200
_cell_length_b 16.021431
_cell_length_c 13.441641
_cell_angle_alpha 90.000000
_cell_angle_beta 136.479455
_cell_angle_gamma 90.000000
_cell_volume 1117.441067
_symmetry_space_group_name_H-M "P 21/M"
_symmetry_group_IT_number 11
_symmetry_cell_setting 'monoclinic'
loop_
_space_group_symop_operation_xyz
x,y,z
-x,1/2+y,-z
-x,-y,-z
x,1/2-y,z
loop_
_atom_site_type_symbol
_atom_site_label
_atom_site_fract_x
_atom_site_fract_y
_atom_site_fract_z
Si Si1 0.277435 0.888171 0.521117
Si Si2 0.776387 0.599783 0.054761
Si Si3 0.802984 0.153168 0.149725
Si Si4 0.715544 0.837914 0.314942
Si Si5 0.222914 0.431254 0.178314
Si Si6 0.870060 0.498659 0.289583
Si Si7 0.681629 0.117349 0.691608
O O1 0.517255 0.881066 0.689224
O O2 0.362952 0.872996 0.443202
O O3 0.024452 0.837382 0.447428
O O4 0.141162 0.979509 0.452081
O O5 0.825511 0.528680 0.157700
O O6 0.034037 0.654271 0.170882
O O7 0.216105 0.433879 0.055466
O O8 0.507616 0.640411 0.978414
O O9 0.862989 0.250000 0.182816
O O10 0.978770 0.116069 0.130066
O O11 0.861402 0.099352 0.273363
O O12 0.643985 0.750000 0.232273
O O13 0.677342 0.932897 0.258320
O O14 0.546609 0.840208 0.343534
O O15 0.282930 0.521140 0.254717
#
# Coordination Sequence:
#
# PCOD9166842 Si02
#       7
#     4   4   4   4   4   4   4
#     4   9  23  44  71 102 143 185 232 295 356 428
#     4  11  25  43  69 102 142 182 234 297 351 424
#     4  12  27  45  70 104 149 193 238 294 360 426
#     4  10  23  44  75 108 140 187 243 303 358 418
#     4  12  24  43  75 103 140 189 235 288 369 427
#     4   9  22  48  73  99 144 184 237 295 353 413
#     4  11  23  41  74 103 135 182 242 291 355 425
#
# _framework density 25.057248999999999
#
# number of rings (size 3 to 8) (size 9 to 14) (size 15 to 20)
#    0.857    0.571    2.857    2.143    2.000    4.571 
#    0.000    1.429    0.000    0.000    0.000    0.000 
#    0.000    0.000    0.000    0.000    0.000    0.000 
#
# Total GULP energy -155987.564019 kJ/mol
# GULP energy per Si atom -5570.984429 kJ/mol
# Density = 2.500022 g / cm^3
# Si number density = 25.057249 Si / 1000 Ang^3
#
#
#
# Elastic Constant Matrix: (Units=GPa)
#
#
# Indices 1 2 3 4 5 6 
#
# 1 187.3368 62.7594 29.7149 0.0000 -4.8316 0.0000
# 2 62.7594 137.2181 10.6165 0.0000 1.7604 0.0000
# 3 29.7149 10.6165 59.6773 0.0000 -25.5384 0.0000
# 4 0.0000 0.0000 0.0000 7.4759 0.0000 -12.3387
# 5 -4.8316 1.7604 -25.5384 0.0000 24.7164 0.0000
# 6 0.0000 0.0000 0.0000 -12.3387 0.0000 -19.1817
#
#
#
# Elastic Compliance Matrix: (Units=1/GPa)
#
#
# Indices 1 2 3 4 5 6 
#
# 1 0.006844 -0.002783 -0.004043 0.000000 -0.002641 0.000000
# 2 -0.002783 0.008682 -0.001176 0.000000 -0.002378 0.000000
# 3 -0.004043 -0.001176 0.033481 0.000000 0.033888 0.000000
# 4 0.000000 0.000000 0.000000 0.064881 0.000000 -0.041735
# 5 -0.002641 -0.002378 0.033888 0.000000 0.075127 0.000000
# 6 0.000000 0.000000 0.000000 -0.041735 0.000000 -0.025287
#
#
# Mechanical properties :
#
#
# Convention : Reuss Voigt Hill
#
# Bulk Modulus (GPa) = 30.30074 65.60152 47.95113
# Shear Modulus (GPa) = 26.21455 21.34487 23.77971
#
# Velocity S-wave (km/s) = 3.23799 2.92180 3.08395
# Velocity P-wave (km/s) = 5.10865 6.13352 5.64439
#
# Compressibility (1/GPa) = 0.03300250
#
# Stress axis : x y z
#
# Youngs Moduli (GPa) = 146.12284 115.17808 29.86753
#
# Poissons Ratio (x) = 0.32058 0.12074
# Poissons Ratio (y) = 0.40671 0.03513
# Poissons Ratio (z) = 0.59072 0.13547
#
# Static dielectric constant tensor:
#      x y z
#    x 2.037880 0.000000 0.023760 
#    y 0.000000 2.174410 0.000000 
#    z 0.023760 0.000000 1.995300 
# 
# From -- ./inp_files/48023.got.cif
#   From: 2010.05.17/outbox.cif.g08.bks.cpg/sg11_25_cif.got.tgz:48023.got - 2010.06.03 12:22:45.
