data_PCOD9166645
_publ_section_title
;
Structure prediction by ZEFSAII (Michael W. Deem and Ramdas Pophale) SiO2 
 PCOD9166645
Probable space group: P 21/M
;
_chemical_formula_sum "Si O2"
_cell_formula_units_Z 30
_cell_length_a 15.588504
_cell_length_b 15.187379
_cell_length_c 20.357124
_cell_angle_alpha 90.000000
_cell_angle_beta 18.258857
_cell_angle_gamma 90.000000
_cell_volume 1510.006424
_symmetry_space_group_name_H-M "P 21/M"
_symmetry_group_IT_number 11
_symmetry_cell_setting 'monoclinic'
loop_
_space_group_symop_operation_xyz
x,y,z
-x,1/2+y,-z
-x,-y,-z
x,1/2-y,z
loop_
_atom_site_type_symbol
_atom_site_label
_atom_site_fract_x
_atom_site_fract_y
_atom_site_fract_z
Si Si1 0.173170 0.479711 0.537125
Si Si2 0.868173 0.418436 0.884267
Si Si3 0.733840 0.888437 0.035197
Si Si4 0.717702 0.850103 0.663080
Si Si5 0.599690 0.601612 0.419449
Si Si6 0.890980 0.350977 0.498134
Si Si7 0.828712 0.250000 0.282666
Si Si8 0.730736 0.942485 0.182027
O O1 0.216077 0.417941 0.443045
O O2 0.077402 0.575401 0.580916
O O3 0.467399 0.496374 0.357938
O O4 0.967722 0.437008 0.738222
O O5 0.127701 0.384860 0.736670
O O6 0.786785 0.512455 0.974890
O O7 0.599483 0.359973 0.086394
O O8 0.421725 0.861612 0.249055
O O9 0.767143 0.884181 0.090421
O O10 0.962412 0.826033 0.840021
O O11 0.773140 0.750000 0.601480
O O12 0.902886 0.868663 0.592128
O O13 0.500000 0.500000 0.500000
O O14 0.369482 0.671898 0.603104
O O15 0.666273 0.612745 0.293769
O O16 0.926981 0.250000 0.449347
O O17 0.000000 0.000000 0.000000
#
# Coordination Sequence:
#
# PCOD9166645 Si02
#       8
#     4   4   4   4   4   4   2   4
#     4  11  23  41  69  96 130 177 217 277 330 403
#     4  12  24  44  67  96 136 174 226 271 335 395
#     4  11  22  40  67  95 123 176 221 271 328 389
#     4  11  25  46  69  96 135 174 223 280 332 401
#     4  12  23  42  60  93 135 173 213 270 323 388
#     4  10  22  45  70  97 133 170 224 280 334 394
#     4  12  24  40  62  96 134 168 222 272 328 382
#     4  11  19  39  67  87 130 175 219 264 326 388
#
# _framework density 19.867464999999999
#
# number of rings (size 3 to 8) (size 9 to 14) (size 15 to 20)
#    0.000    0.800    7.333    0.400    0.933    1.600 
#    7.200    0.000    0.000    0.000    0.000    0.000 
#    0.000    0.000    0.000    0.000    0.000    0.000 
#
# Total GULP energy -167132.973200 kJ/mol
# GULP energy per Si atom -5571.099107 kJ/mol
# Density = 1.982225 g / cm^3
# Si number density = 19.867465 Si / 1000 Ang^3
#
#
#
# Elastic Constant Matrix: (Units=GPa)
#
#
# Indices 1 2 3 4 5 6 
#
# 1 86.4401 23.4022 46.1046 0.0000 -10.2392 0.0000
# 2 23.4022 65.7862 10.9178 0.0000 -6.8447 0.0000
# 3 46.1046 10.9178 75.1555 0.0000 -19.8612 0.0000
# 4 0.0000 0.0000 0.0000 25.0002 0.0000 -12.4178
# 5 -10.2392 -6.8447 -19.8612 0.0000 43.9977 0.0000
# 6 0.0000 0.0000 0.0000 -12.4178 0.0000 8.0056
#
#
#
# Elastic Compliance Matrix: (Units=1/GPa)
#
#
# Indices 1 2 3 4 5 6 
#
# 1 0.018663 -0.004945 -0.011112 0.000000 -0.001442 0.000000
# 2 -0.004945 0.016985 0.001090 0.000000 0.001984 0.000000
# 3 -0.011112 0.001090 0.021943 0.000000 0.007489 0.000000
# 4 0.000000 0.000000 0.000000 0.174262 0.000000 0.270304
# 5 -0.001442 0.001984 0.007489 0.000000 0.026082 0.000000
# 6 0.000000 0.000000 0.000000 0.270304 0.000000 0.544190
#
#
# Mechanical properties :
#
#
# Convention : Reuss Voigt Hill
#
# Bulk Modulus (GPa) = 36.15495 43.13677 39.64586
# Shear Modulus (GPa) = 5.94333 25.19786 15.57060
#
# Velocity S-wave (km/s) = 1.73147 3.56518 2.80254
# Velocity P-wave (km/s) = 4.71539 6.22147 5.52004
#
# Compressibility (1/GPa) = 0.02765873
#
# Stress axis : x y z
#
# Youngs Moduli (GPa) = 53.58061 58.87440 45.57226
#
# Poissons Ratio (x) = 0.29114 0.50640
# Poissons Ratio (y) = 0.26496 -0.04969
# Poissons Ratio (z) = 0.59538 -0.06420
#
# Static dielectric constant tensor:
#      x y z
#    x 1.694350 0.000000 0.024540 
#    y 0.000000 1.595750 0.000000 
#    z 0.024540 0.000000 1.725650 
# 
# From -- ./inp_files/65689.got.cif
#   From: 2010.05.17/outbox.cif.g08.bks.cpg/sg11_33_cif.got.tgz:65689.got - 2010.06.03 12:22:45.
