data_PCOD9166512
_publ_section_title
;
Structure prediction by ZEFSAII (Michael W. Deem and Ramdas Pophale) SiO2 
 PCOD9166512
Probable space group: P 21/M
;
_chemical_formula_sum "Si O2"
_cell_formula_units_Z 28
_cell_length_a 15.277795
_cell_length_b 9.035196
_cell_length_c 11.275818
_cell_angle_alpha 90.000000
_cell_angle_beta 116.555602
_cell_angle_gamma 90.000000
_cell_volume 1392.281690
_symmetry_space_group_name_H-M "P 21/M"
_symmetry_group_IT_number 11
_symmetry_cell_setting 'monoclinic'
loop_
_space_group_symop_operation_xyz
x,y,z
-x,1/2+y,-z
-x,-y,-z
x,1/2-y,z
loop_
_atom_site_type_symbol
_atom_site_label
_atom_site_fract_x
_atom_site_fract_y
_atom_site_fract_z
Si Si1 0.197873 0.926785 0.145662
Si Si2 0.614563 0.926718 0.858427
Si Si3 0.086544 0.579225 0.847307
Si Si4 0.697513 0.077878 0.135772
Si Si5 0.536118 0.575284 0.401769
Si Si6 0.263393 0.423676 0.594912
Si Si7 0.105743 0.575290 0.346833
O O1 0.219036 0.750000 0.145079
O O2 0.161108 0.954603 0.255571
O O3 0.293111 0.017679 0.164705
O O4 0.112880 0.962073 0.998770
O O5 0.609504 0.750000 0.855905
O O6 0.520221 0.998259 0.740592
O O7 0.633152 0.990152 0.001007
O O8 0.052966 0.750000 0.824770
O O9 0.190627 0.570800 0.844229
O O10 0.004514 0.479313 0.738680
O O11 0.668210 0.250000 0.121659
O O12 0.699582 0.005745 0.265502
O O13 0.500000 0.500000 0.500000
O O14 0.513495 0.750000 0.389773
O O15 0.651752 0.557590 0.451972
O O16 0.252270 0.250000 0.612731
O O17 0.163579 0.491580 0.484860
O O18 0.108772 0.750000 0.370811
#
# Coordination Sequence:
#
# PCOD9166512 Si02
#       7
#     4   4   4   4   4   4   4
#     4   9  19  36  57  85 120 155 195 241 288 342
#     4  11  22  37  62  91 119 155 193 235 290 346
#     4   9  19  36  58  84 115 151 192 241 292 343
#     4  10  22  42  64  86 115 152 195 242 289 339
#     4  11  24  42  64  91 121 153 191 236 288 344
#     4  11  25  42  60  84 115 152 195 242 288 342
#     4  11  22  35  56  85 117 156 196 239 293 345
#
# _framework density 20.110873000000002
#
# number of rings (size 3 to 8) (size 9 to 14) (size 15 to 20)
#    0.000    1.714    0.000    5.143    0.000    9.714 
#    0.000    0.000    0.000    0.000    0.000    0.000 
#    0.000    0.000    0.000    0.000    0.000    0.000 
#
# Total GULP energy -156582.922250 kJ/mol
# GULP energy per Si atom -5592.247223 kJ/mol
# Density = 2.006510 g / cm^3
# Si number density = 20.110873 Si / 1000 Ang^3
#
#
#
# Elastic Constant Matrix: (Units=GPa)
#
#
# Indices 1 2 3 4 5 6 
#
# 1 13.9290 23.6198 17.0248 0.0000 4.3833 0.0000
# 2 23.6198 98.2660 49.4751 0.0000 6.3036 0.0000
# 3 17.0248 49.4751 103.8267 0.0000 7.4453 0.0000
# 4 0.0000 0.0000 0.0000 36.8866 0.0000 0.2707
# 5 4.3833 6.3036 7.4453 0.0000 32.4495 0.0000
# 6 0.0000 0.0000 0.0000 0.2707 0.0000 27.4953
#
#
#
# Elastic Compliance Matrix: (Units=1/GPa)
#
#
# Indices 1 2 3 4 5 6 
#
# 1 0.129755 -0.026550 -0.007867 0.000000 -0.010565 0.000000
# 2 -0.026550 0.018864 -0.004707 0.000000 0.001002 0.000000
# 3 -0.007867 -0.004707 0.013241 0.000000 -0.001061 0.000000
# 4 0.000000 0.000000 0.000000 0.027112 0.000000 -0.000267
# 5 -0.010565 0.001002 -0.001061 0.000000 0.032293 0.000000
# 6 0.000000 0.000000 0.000000 -0.000267 0.000000 0.036372
#
#
# Mechanical properties :
#
#
# Convention : Reuss Voigt Hill
#
# Bulk Modulus (GPa) = 11.96023 44.02898 27.99460
# Shear Modulus (GPa) = 13.74548 27.75974 20.75261
#
# Velocity S-wave (km/s) = 2.61719 3.71932 3.21582
# Velocity P-wave (km/s) = 3.88497 6.35492 5.26678
#
# Compressibility (1/GPa) = 0.08361044
#
# Stress axis : x y z
#
# Youngs Moduli (GPa) = 7.70684 53.01123 75.52503
#
# Poissons Ratio (x) = 1.40744 0.59417
# Poissons Ratio (y) = 0.20462 0.35552
# Poissons Ratio (z) = 0.06063 0.24954
#
# Static dielectric constant tensor:
#      x y z
#    x 1.721170 0.000000 -0.010750 
#    y 0.000000 1.692240 0.000000 
#    z -0.010750 0.000000 1.691290 
# 
# From -- ./inp_files/38461.got.cif
#   From: 2010.05.17/outbox.cif.g08.bks.cpg/sg11_20_cif.got.tgz:38461.got - 2010.06.03 12:22:45.
