data_PCOD9166456
_publ_section_title
;
Structure prediction by ZEFSAII (Michael W. Deem and Ramdas Pophale) SiO2 
 PCOD9166456
Probable space group: P 21/M
;
_chemical_formula_sum "Si O2"
_cell_formula_units_Z 20
_cell_length_a 9.045670
_cell_length_b 20.854578
_cell_length_c 5.042494
_cell_angle_alpha 90.000000
_cell_angle_beta 115.088892
_cell_angle_gamma 90.000000
_cell_volume 861.486384
_symmetry_space_group_name_H-M "P 21/M"
_symmetry_group_IT_number 11
_symmetry_cell_setting 'monoclinic'
loop_
_space_group_symop_operation_xyz
x,y,z
-x,1/2+y,-z
-x,-y,-z
x,1/2-y,z
loop_
_atom_site_type_symbol
_atom_site_label
_atom_site_fract_x
_atom_site_fract_y
_atom_site_fract_z
Si Si1 0.740274 0.677037 0.470406
Si Si2 0.970737 0.678171 0.134046
Si Si3 0.253436 0.914091 0.544691
Si Si4 0.823302 0.007292 0.992645
Si Si5 0.429180 0.073927 0.958897
O O1 0.675306 0.750000 0.474666
O O2 0.870498 0.660517 0.795606
O O3 0.613388 0.618977 0.322950
O O4 0.843783 0.681231 0.278991
O O5 0.034673 0.750000 0.135553
O O6 0.122794 0.634343 0.326211
O O7 0.174856 0.947346 0.746465
O O8 0.282659 0.964170 0.328533
O O9 0.000000 0.000000 0.000000
O O10 0.741391 0.942234 0.030053
O O11 0.570705 0.110416 0.226306
O O12 0.500000 0.000000 0.000000
#
# Coordination Sequence:
#
# PCOD9166456 Si02
#       5
#     4   4   4   4   4
#     4  10  22  42  66  90 125 173 220 267 328 402
#     4  10  22  41  65  93 125 168 223 274 323 393
#     4  11  23  39  63  94 129 167 211 271 331 380
#     4  11  23  40  62  93 130 174 216 263 320 391
#     4  10  24  42  63  98 137 170 213 273 332 392
#
# _framework density 23.215689999999999
#
# number of rings (size 3 to 8) (size 9 to 14) (size 15 to 20)
#    0.000    1.600    0.000    3.600    0.000   12.000 
#    0.000    0.000    0.000    8.400    0.000    0.000 
#    0.000    0.000    0.000    0.000    0.000    0.000 
#
# Total GULP energy -111741.061382 kJ/mol
# GULP energy per Si atom -5587.053069 kJ/mol
# Density = 2.316285 g / cm^3
# Si number density = 23.215690 Si / 1000 Ang^3
#
#
#
# Elastic Constant Matrix: (Units=GPa)
#
#
# Indices 1 2 3 4 5 6 
#
# 1 72.1730 50.8057 43.6576 0.0000 8.4235 0.0000
# 2 50.8057 130.6886 74.0634 0.0000 22.8535 0.0000
# 3 43.6576 74.0634 208.9921 0.0000 20.5131 0.0000
# 4 0.0000 0.0000 0.0000 23.9518 0.0000 -2.9508
# 5 8.4235 22.8535 20.5131 0.0000 43.6233 0.0000
# 6 0.0000 0.0000 0.0000 -2.9508 0.0000 20.4150
#
#
#
# Elastic Compliance Matrix: (Units=1/GPa)
#
#
# Indices 1 2 3 4 5 6 
#
# 1 0.019582 -0.006709 -0.001768 0.000000 0.000565 0.000000
# 2 -0.006709 0.012440 -0.002615 0.000000 -0.003992 0.000000
# 3 -0.001768 -0.002615 0.006199 0.000000 -0.001204 0.000000
# 4 0.000000 0.000000 0.000000 0.042508 0.000000 0.006144
# 5 0.000565 -0.003992 -0.001204 0.000000 0.025472 0.000000
# 6 0.000000 0.000000 0.000000 0.006144 0.000000 0.049872
#
#
# Mechanical properties :
#
#
# Convention : Reuss Voigt Hill
#
# Bulk Modulus (GPa) = 62.36086 83.21192 72.78639
# Shear Modulus (GPa) = 27.23252 33.81982 30.52617
#
# Velocity S-wave (km/s) = 3.42866 3.82090 3.63008
# Velocity P-wave (km/s) = 6.52641 7.44221 6.99931
#
# Compressibility (1/GPa) = 0.01603570
#
# Stress axis : x y z
#
# Youngs Moduli (GPa) = 51.06631 80.38435 161.31050
#
# Poissons Ratio (x) = 0.53933 0.28527
# Poissons Ratio (y) = 0.34262 0.42187
# Poissons Ratio (z) = 0.09031 0.21022
#
# Static dielectric constant tensor:
#      x y z
#    x 1.926990 0.000000 -0.004770 
#    y 0.000000 2.002540 0.000000 
#    z -0.004770 0.000000 1.865310 
# 
# From -- ./inp_files/2610.got.cif
#   From: 2010.05.17/outbox.cif.g08.bks.cpg/sg11_2_cif.got.tgz:2610.got - 2010.06.03 12:22:45.
