data_PCOD9166839
_publ_section_title
;
Structure prediction by ZEFSAII (Michael W. Deem and Ramdas Pophale) SiO2 
 PCOD9166839
Probable space group: P 21/M
;
_chemical_formula_sum "Si O2"
_cell_formula_units_Z 28
_cell_length_a 9.498092
_cell_length_b 14.553752
_cell_length_c 12.122013
_cell_angle_alpha 90.000000
_cell_angle_beta 55.920737
_cell_angle_gamma 90.000000
_cell_volume 1387.888091
_symmetry_space_group_name_H-M "P 21/M"
_symmetry_group_IT_number 11
_symmetry_cell_setting 'monoclinic'
loop_
_space_group_symop_operation_xyz
x,y,z
-x,1/2+y,-z
-x,-y,-z
x,1/2-y,z
loop_
_atom_site_type_symbol
_atom_site_label
_atom_site_fract_x
_atom_site_fract_y
_atom_site_fract_z
Si Si1 0.430801 0.522500 0.181349
Si Si2 0.629260 0.359156 0.000663
Si Si3 0.254967 0.640861 0.647872
Si Si4 0.301158 0.149013 0.833775
Si Si5 0.351681 0.140986 0.553632
Si Si6 0.171775 0.992754 0.492838
Si Si7 0.929036 0.397321 0.040598
O O1 0.476333 0.418969 0.123298
O O2 0.606774 0.573971 0.132058
O O3 0.319848 0.523928 0.339330
O O4 0.344451 0.584128 0.124138
O O5 0.594264 0.250000 0.001903
O O6 0.793776 0.370516 0.006200
O O7 0.248324 0.750000 0.633522
O O8 0.454763 0.614119 0.562026
O O9 0.170046 0.587605 0.584054
O O10 0.163593 0.617408 0.802350
O O11 0.382982 0.250000 0.812265
O O12 0.321239 0.122858 0.696559
O O13 0.104687 0.156169 0.950264
O O14 0.333657 0.250000 0.544057
O O15 0.220449 0.084067 0.538779
O O16 0.000000 0.000000 0.500000
O O17 0.000000 0.500000 0.000000
#
# Coordination Sequence:
#
# PCOD9166839 Si02
#       7
#     4   4   4   4   4   4   4
#     4  11  25  44  68  99 134 180 226 271 336 407
#     4  11  25  45  69  98 137 178 221 279 342 400
#     4  11  24  44  71 101 135 179 228 275 333 401
#     4  11  22  41  68 100 134 173 223 275 329 392
#     4  10  23  44  70  99 130 177 230 276 331 401
#     4  12  27  42  67  97 137 179 219 277 341 399
#     4  12  24  41  69 102 135 172 224 284 334 393
#
# _framework density 20.174537000000001
#
# number of rings (size 3 to 8) (size 9 to 14) (size 15 to 20)
#    0.000    0.857    2.857    3.857    4.000    2.857 
#    0.000    1.429    0.000    0.000    0.000    0.000 
#    0.000    0.000    0.000    0.000    0.000    0.000 
#
# Total GULP energy -156560.447734 kJ/mol
# GULP energy per Si atom -5591.444562 kJ/mol
# Density = 2.012862 g / cm^3
# Si number density = 20.174537 Si / 1000 Ang^3
#
#
#
# Elastic Constant Matrix: (Units=GPa)
#
#
# Indices 1 2 3 4 5 6 
#
# 1 -62.6489 23.0517 -134.1340 0.0000 26.4360 0.0000
# 2 23.0517 128.5860 -1.5433 0.0000 13.6064 0.0000
# 3 -134.1340 -1.5433 -43.7198 0.0000 19.8058 0.0000
# 4 0.0000 0.0000 0.0000 27.5692 0.0000 -2.9029
# 5 26.4360 13.6064 19.8058 0.0000 27.5027 0.0000
# 6 0.0000 0.0000 0.0000 -2.9029 0.0000 14.4666
#
#
#
# Elastic Compliance Matrix: (Units=1/GPa)
#
#
# Indices 1 2 3 4 5 6 
#
# 1 0.003293 -0.001060 -0.008491 0.000000 0.003474 0.000000
# 2 -0.001060 0.008401 0.001156 0.000000 -0.003970 0.000000
# 3 -0.008491 0.001156 0.004957 0.000000 0.004020 0.000000
# 4 0.000000 0.000000 0.000000 0.037055 0.000000 0.007435
# 5 0.003474 -0.003970 0.004020 0.000000 0.032090 0.000000
# 6 0.000000 0.000000 0.000000 0.007435 0.000000 0.070617
#
#
# Mechanical properties :
#
#
# Convention : Reuss Voigt Hill
#
# Bulk Modulus (GPa) = -7240.16145 -22.55933 -3631.36039
# Shear Modulus (GPa) = 28.87596 22.89723 25.88660
#
# Velocity S-wave (km/s) = 3.78737 3.37257 3.58597
# Velocity P-wave (km/s) = 59.81160 1.98979 42.26978
#
# Compressibility (1/GPa) = -0.00013812
#
# Stress axis : x y z
#
# Youngs Moduli (GPa) = 303.71684 119.03545 201.75281
#
# Poissons Ratio (x) = 0.12615 1.71299
# Poissons Ratio (y) = 0.32186 -0.23327
# Poissons Ratio (z) = 2.57872 -0.13763
#
# Static dielectric constant tensor:
#      x y z
#    x 1.590420 0.000000 0.069870 
#    y 0.000000 1.792050 0.000000 
#    z 0.069870 0.000000 1.640710 
# 
# From -- ./inp_files/31796.got.cif
#   From: 2010.05.17/outbox.cif.g08.bks.cpg/sg11_16_cif.got.tgz:31796.got - 2010.06.03 12:22:45.
