data_PCOD9166989
_publ_section_title
;
Structure prediction by ZEFSAII (Michael W. Deem and Ramdas Pophale) SiO2 
 PCOD9166989
Probable space group: P 21/M
;
_chemical_formula_sum "Si O2"
_cell_formula_units_Z 20
_cell_length_a 9.746943
_cell_length_b 8.843733
_cell_length_c 12.170676
_cell_angle_alpha 90.000000
_cell_angle_beta 76.283605
_cell_angle_gamma 90.000000
_cell_volume 1019.185413
_symmetry_space_group_name_H-M "P 21/M"
_symmetry_group_IT_number 11
_symmetry_cell_setting 'monoclinic'
loop_
_space_group_symop_operation_xyz
x,y,z
-x,1/2+y,-z
-x,-y,-z
x,1/2-y,z
loop_
_atom_site_type_symbol
_atom_site_label
_atom_site_fract_x
_atom_site_fract_y
_atom_site_fract_z
Si Si1 0.380872 0.929391 0.600632
Si Si2 0.153544 0.571279 0.462565
Si Si3 0.586035 0.931223 0.166420
Si Si4 0.283958 0.068570 0.220194
Si Si5 0.860637 0.931739 0.972079
O O1 0.405896 0.750000 0.611047
O O2 0.236214 0.949914 0.561116
O O3 0.500000 0.000000 0.500000
O O4 0.383370 0.012146 0.716218
O O5 0.145042 0.750000 0.443160
O O6 0.239500 0.495984 0.346539
O O7 0.000000 0.500000 0.500000
O O8 0.570573 0.750000 0.167222
O O9 0.438236 0.006082 0.159832
O O10 0.719523 0.973943 0.066278
O O11 0.290051 0.250000 0.223780
O O12 0.170609 0.024353 0.148198
O O13 0.872922 0.750000 0.973374
O O14 0.000000 0.000000 0.000000
#
# Coordination Sequence:
#
# PCOD9166989 Si02
#       5
#     4   4   4   4   4
#     4  11  23  40  64  94 127 164 208 255 308 370
#     4  11  25  42  63  93 129 167 208 256 312 371
#     4  11  23  41  65  94 126 164 210 257 310 371
#     4  11  23  42  66  93 125 164 211 258 309 371
#     4  10  25  44  64  93 126 162 207 258 313 370
#
# _framework density 19.623515000000001
#
# number of rings (size 3 to 8) (size 9 to 14) (size 15 to 20)
#    0.000    1.200    2.000    3.000    2.800    5.600 
#    0.000    0.000    0.000    0.000    0.000    0.000 
#    0.000    0.000    0.000    0.000    0.000    0.000 
#
# Total GULP energy -111858.100798 kJ/mol
# GULP energy per Si atom -5592.905040 kJ/mol
# Density = 1.957885 g / cm^3
# Si number density = 19.623515 Si / 1000 Ang^3
#
#
#
# Elastic Constant Matrix: (Units=GPa)
#
#
# Indices 1 2 3 4 5 6 
#
# 1 125.7029 45.5781 15.9648 0.0000 10.7811 0.0000
# 2 45.5781 59.0475 11.6525 0.0000 11.4496 0.0000
# 3 15.9648 11.6525 60.4396 0.0000 17.4021 0.0000
# 4 0.0000 0.0000 0.0000 27.7123 0.0000 0.5604
# 5 10.7811 11.4496 17.4021 0.0000 32.8580 0.0000
# 6 0.0000 0.0000 0.0000 0.5604 0.0000 40.9298
#
#
#
# Elastic Compliance Matrix: (Units=1/GPa)
#
#
# Indices 1 2 3 4 5 6 
#
# 1 0.011150 -0.008335 -0.001323 0.000000 -0.000053 0.000000
# 2 -0.008335 0.024597 -0.001015 0.000000 -0.005299 0.000000
# 3 -0.001323 -0.001015 0.019898 0.000000 -0.009751 0.000000
# 4 0.000000 0.000000 0.000000 0.036095 0.000000 -0.000494
# 5 -0.000053 -0.005299 -0.009751 0.000000 0.037462 0.000000
# 6 0.000000 0.000000 0.000000 -0.000494 0.000000 0.024439
#
#
# Mechanical properties :
#
#
# Convention : Reuss Voigt Hill
#
# Bulk Modulus (GPa) = 29.15519 43.50897 36.33208
# Shear Modulus (GPa) = 26.82115 31.76633 29.29374
#
# Velocity S-wave (km/s) = 3.70102 4.02778 3.86785
# Velocity P-wave (km/s) = 5.75786 6.62199 6.20498
#
# Compressibility (1/GPa) = 0.03429921
#
# Stress axis : x y z
#
# Youngs Moduli (GPa) = 89.68540 40.65521 50.25633
#
# Poissons Ratio (x) = 0.33887 0.06648
# Poissons Ratio (y) = 0.74755 0.05101
# Poissons Ratio (z) = 0.11864 0.04126
#
# Static dielectric constant tensor:
#      x y z
#    x 1.673660 0.000000 0.008190 
#    y 0.000000 1.661230 0.000000 
#    z 0.008190 0.000000 1.661160 
# 
# From -- ./inp_files/15905.got.cif
#   From: 2010.05.17/outbox.cif.g08.bks.cpg/sg11_8_cif.got.tgz:15905.got - 2010.06.03 12:22:45.
