data_PCOD9166898
_publ_section_title
;
Structure prediction by ZEFSAII (Michael W. Deem and Ramdas Pophale) SiO2 
 PCOD9166898
Probable space group: P 21/M
;
_chemical_formula_sum "Si O2"
_cell_formula_units_Z 18
_cell_length_a 4.878664
_cell_length_b 10.023821
_cell_length_c 17.489168
_cell_angle_alpha 90.000000
_cell_angle_beta 67.588744
_cell_angle_gamma 90.000000
_cell_volume 790.672665
_symmetry_space_group_name_H-M "P 21/M"
_symmetry_group_IT_number 11
_symmetry_cell_setting 'monoclinic'
loop_
_space_group_symop_operation_xyz
x,y,z
-x,1/2+y,-z
-x,-y,-z
x,1/2-y,z
loop_
_atom_site_type_symbol
_atom_site_label
_atom_site_fract_x
_atom_site_fract_y
_atom_site_fract_z
Si Si1 0.464369 0.250000 0.464967
Si Si2 0.074845 0.404521 0.231828
Si Si3 0.009624 0.250000 0.997356
Si Si4 0.429615 0.029155 0.339153
Si Si5 0.189282 0.750000 0.423176
Si Si6 0.611001 0.498192 0.075855
O O1 0.459970 0.121630 0.410610
O O2 0.735464 0.250000 0.494590
O O3 0.164700 0.250000 0.546886
O O4 0.066375 0.250000 0.207659
O O5 0.189666 0.410878 0.306647
O O6 0.318253 0.483194 0.157465
O O7 0.747978 0.465209 0.263849
O O8 0.204276 0.367700 0.933802
O O9 0.814241 0.367652 0.061315
O O10 0.328951 0.882196 0.372551
O O11 0.500000 0.500000 0.000000
#
# Coordination Sequence:
#
# PCOD9166898 Si02
#       6
#     2   4   2   4   2   4
#     4  12  22  46  74 102 139 183 230 274 344 429
#     4  12  25  46  72  97 143 187 229 292 341 415
#     4  10  24  42  66 100 134 170 248 284 348 406
#     4  12  26  45  71 106 140 180 233 278 357 415
#     4  12  26  44  72 106 141 175 226 292 342 411
#     4  11  25  43  72  99 138 185 243 285 351 413
#
# _framework density 22.765422999999998
#
# number of rings (size 3 to 8) (size 9 to 14) (size 15 to 20)
#    0.000    0.444    3.333    4.667    6.222    1.778 
#    0.000    0.000    0.000    0.000    0.000    0.000 
#    0.000    0.000    0.000    0.000    0.000    0.000 
#
# Total GULP energy -100367.711745 kJ/mol
# GULP energy per Si atom -5575.983986 kJ/mol
# Density = 2.271361 g / cm^3
# Si number density = 22.765423 Si / 1000 Ang^3
#
#
#
# Elastic Constant Matrix: (Units=GPa)
#
#
# Indices 1 2 3 4 5 6 
#
# 1 71.9717 14.1888 21.4947 0.0000 -18.3268 0.0000
# 2 14.1888 198.4281 33.4895 0.0000 -34.7773 0.0000
# 3 21.4947 33.4895 58.5139 0.0000 -30.7969 0.0000
# 4 0.0000 0.0000 0.0000 27.7026 0.0000 -26.6405
# 5 -18.3268 -34.7773 -30.7969 0.0000 64.2130 0.0000
# 6 0.0000 0.0000 0.0000 -26.6405 0.0000 70.0021
#
#
#
# Elastic Compliance Matrix: (Units=1/GPa)
#
#
# Indices 1 2 3 4 5 6 
#
# 1 0.015861 0.000057 -0.004628 0.000000 0.002338 0.000000
# 2 0.000057 0.005776 -0.002236 0.000000 0.002072 0.000000
# 3 -0.004628 -0.002236 0.025064 0.000000 0.009489 0.000000
# 4 0.000000 0.000000 0.000000 0.056934 0.000000 0.021667
# 5 0.002338 0.002072 0.009489 0.000000 0.021913 0.000000
# 6 0.000000 0.000000 0.000000 0.021667 0.000000 0.022531
#
#
# Mechanical properties :
#
#
# Convention : Reuss Voigt Hill
#
# Bulk Modulus (GPa) = 30.22498 51.91774 41.07136
# Shear Modulus (GPa) = 28.94791 49.69960 39.32375
#
# Velocity S-wave (km/s) = 3.56978 4.67745 4.16064
# Velocity P-wave (km/s) = 5.50424 7.21294 6.41573
#
# Compressibility (1/GPa) = 0.03308522
#
# Stress axis : x y z
#
# Youngs Moduli (GPa) = 63.04883 173.12702 39.89763
#
# Poissons Ratio (x) = -0.00982 0.18466
# Poissons Ratio (y) = -0.00358 0.08922
# Poissons Ratio (z) = 0.29182 0.38714
#
# Static dielectric constant tensor:
#      x y z
#    x 1.858860 0.000000 0.019750 
#    y 0.000000 1.762290 0.000000 
#    z 0.019750 0.000000 1.846630 
# 
# From -- ./inp_files/56637.got.cif
#   From: 2010.05.17/outbox.cif.g08.bks.cpg/sg11_29_cif.got.tgz:56637.got - 2010.06.03 12:22:45.
