data_PCOD9166997
_publ_section_title
;
Structure prediction by ZEFSAII (Michael W. Deem and Ramdas Pophale) SiO2 
 PCOD9166997
Probable space group: P 21/M
;
_chemical_formula_sum "Si O2"
_cell_formula_units_Z 20
_cell_length_a 9.319544
_cell_length_b 17.512212
_cell_length_c 9.531254
_cell_angle_alpha 90.000000
_cell_angle_beta 31.363069
_cell_angle_gamma 90.000000
_cell_volume 809.603784
_symmetry_space_group_name_H-M "P 21/M"
_symmetry_group_IT_number 11
_symmetry_cell_setting 'monoclinic'
loop_
_space_group_symop_operation_xyz
x,y,z
-x,1/2+y,-z
-x,-y,-z
x,1/2-y,z
loop_
_atom_site_type_symbol
_atom_site_label
_atom_site_fract_x
_atom_site_fract_y
_atom_site_fract_z
Si Si1 0.090834 0.601965 0.213837
Si Si2 0.012037 0.329603 0.980334
Si Si3 0.521192 0.166402 0.746586
Si Si4 0.684560 0.840085 0.774001
Si Si5 0.752062 0.461912 0.377924
O O1 0.969289 0.523594 0.254240
O O2 0.952733 0.625313 0.476174
O O3 0.988491 0.662593 0.184662
O O4 0.419094 0.611366 0.944795
O O5 0.871658 0.250000 0.139866
O O6 0.876888 0.402668 0.162997
O O7 0.316594 0.327559 0.786466
O O8 0.667124 0.250000 0.641425
O O9 0.677051 0.089663 0.575578
O O10 0.337008 0.156469 0.039688
O O11 0.655534 0.750000 0.761098
O O12 0.500000 0.500000 0.500000
#
# Coordination Sequence:
#
# PCOD9166997 Si02
#       5
#     4   4   4   4   4
#     4  12  26  44  75 106 142 186 232 297 357 418
#     4  11  24  45  73 100 134 188 242 286 347 425
#     4  10  25  46  72 100 138 188 237 287 349 424
#     4  11  26  48  70 104 145 187 237 292 352 422
#     4  12  25  44  71 105 145 179 238 297 357 411
#
# _framework density 24.703443
#
# number of rings (size 3 to 8) (size 9 to 14) (size 15 to 20)
#    0.000    0.800    2.000    4.200    5.600    1.600 
#    0.000    0.000    0.000    0.000    0.000    0.000 
#    0.000    0.000    0.000    0.000    0.000    0.000 
#
# Total GULP energy -111940.019112 kJ/mol
# GULP energy per Si atom -5597.000956 kJ/mol
# Density = 2.464722 g / cm^3
# Si number density = 24.703443 Si / 1000 Ang^3
#
#
#
# Elastic Constant Matrix: (Units=GPa)
#
#
# Indices 1 2 3 4 5 6 
#
# 1 65.9522 -9.6333 -0.8292 0.0000 1.9841 0.0000
# 2 -9.6333 154.3016 48.7618 0.0000 -7.1920 0.0000
# 3 -0.8292 48.7618 69.5986 0.0000 16.8237 0.0000
# 4 0.0000 0.0000 0.0000 1.5151 0.0000 78.2161
# 5 1.9841 -7.1920 16.8237 0.0000 43.7234 0.0000
# 6 0.0000 0.0000 0.0000 78.2161 0.0000 -92.2393
#
#
#
# Elastic Compliance Matrix: (Units=1/GPa)
#
#
# Indices 1 2 3 4 5 6 
#
# 1 0.015327 0.001105 -0.000515 0.000000 -0.000315 0.000000
# 2 0.001105 0.009084 -0.007388 0.000000 0.004287 0.000000
# 3 -0.000515 -0.007388 0.021859 0.000000 -0.009603 0.000000
# 4 0.000000 0.000000 0.000000 0.014741 0.000000 0.012500
# 5 -0.000315 0.004287 -0.009603 0.000000 0.027285 0.000000
# 6 0.000000 0.000000 0.000000 0.012500 0.000000 -0.000242
#
#
# Mechanical properties :
#
#
# Convention : Reuss Voigt Hill
#
# Bulk Modulus (GPa) = 30.60503 40.71679 35.66091
# Shear Modulus (GPa) = 44.42824 7.37004 25.89914
#
# Velocity S-wave (km/s) = 4.24543 1.72913 3.24142
# Velocity P-wave (km/s) = 6.03717 4.52819 5.33629
#
# Compressibility (1/GPa) = 0.03267436
#
# Stress axis : x y z
#
# Youngs Moduli (GPa) = 65.24466 110.08130 45.74779
#
# Poissons Ratio (x) = -0.12164 0.02358
# Poissons Ratio (y) = -0.07210 0.33796
# Poissons Ratio (z) = 0.03362 0.81323
#
# Static dielectric constant tensor:
#      x y z
#    x 1.938810 0.000000 -0.023820 
#    y 0.000000 2.014450 0.000000 
#    z -0.023820 0.000000 1.987800 
# 
# From -- ./inp_files/35372.got.cif
#   From: 2010.05.17/outbox.cif.g08.bks.cpg/sg11_18_cif.got.tgz:35372.got - 2010.06.03 12:22:45.
