data_PCOD9166956
_publ_section_title
;
Structure prediction by ZEFSAII (Michael W. Deem and Ramdas Pophale) SiO2 
 PCOD9166956
Probable space group: P 21/M
;
_chemical_formula_sum "Si O2"
_cell_formula_units_Z 30
_cell_length_a 10.354392
_cell_length_b 14.587005
_cell_length_c 9.288418
_cell_angle_alpha 90.000000
_cell_angle_beta 75.864814
_cell_angle_gamma 90.000000
_cell_volume 1360.441387
_symmetry_space_group_name_H-M "P 21/M"
_symmetry_group_IT_number 11
_symmetry_cell_setting 'monoclinic'
loop_
_space_group_symop_operation_xyz
x,y,z
-x,1/2+y,-z
-x,-y,-z
x,1/2-y,z
loop_
_atom_site_type_symbol
_atom_site_label
_atom_site_fract_x
_atom_site_fract_y
_atom_site_fract_z
Si Si1 0.207548 0.104102 0.162129
Si Si2 0.041106 0.394662 0.479228
Si Si3 0.748576 0.143814 0.257945
Si Si4 0.709653 0.956124 0.413075
Si Si5 0.821320 0.852599 0.148004
Si Si6 0.872239 0.250000 0.700667
Si Si7 0.121631 0.593040 0.076176
Si Si8 0.440781 0.355754 0.316492
O O1 0.090209 0.129931 0.305808
O O2 0.344121 0.118915 0.211414
O O3 0.181585 0.000447 0.118928
O O4 0.205612 0.155430 0.012678
O O5 0.172984 0.397024 0.542615
O O6 0.000000 0.500000 0.500000
O O7 0.932566 0.329414 0.576063
O O8 0.774159 0.250000 0.297108
O O9 0.596719 0.141142 0.240853
O O10 0.748576 0.062642 0.378375
O O11 0.841121 0.115976 0.098729
O O12 0.705803 0.909500 0.257470
O O13 0.588272 0.928571 0.548431
O O14 0.840667 0.750000 0.203628
O O15 0.960740 0.905847 0.128893
O O16 0.830317 0.171327 0.829945
O O17 0.410844 0.250000 0.369319
#
# Coordination Sequence:
#
# PCOD9166956 Si02
#       8
#     4   4   4   4   4   2   4   4
#     4  11  24  38  64  95 127 162 219 260 314 372
#     4  11  23  39  59  92 132 166 199 255 319 383
#     4  11  24  43  66  93 126 171 219 259 315 378
#     4  11  22  40  67  91 124 165 216 262 313 369
#     4  12  22  37  64  99 129 167 209 257 316 380
#     4  12  22  40  62  88 136 174 204 240 334 382
#     4  12  22  41  62  94 132 170 202 263 318 383
#     4  10  24  45  67  91 125 169 215 266 320 373
#
# _framework density 22.051665
#
# number of rings (size 3 to 8) (size 9 to 14) (size 15 to 20)
#    0.000    0.800    5.333    1.600    6.533    0.533 
#    1.200    0.000    0.000    0.000    0.000    0.000 
#    0.000    0.000    0.000    0.000    0.000    0.000 
#
# Total GULP energy -167161.794879 kJ/mol
# GULP energy per Si atom -5572.059829 kJ/mol
# Density = 2.200147 g / cm^3
# Si number density = 22.051665 Si / 1000 Ang^3
#
#
#
# Elastic Constant Matrix: (Units=GPa)
#
#
# Indices 1 2 3 4 5 6 
#
# 1 39.9541 6.4954 0.7326 0.0000 4.2784 0.0000
# 2 6.4954 169.9238 20.0427 0.0000 11.4582 0.0000
# 3 0.7326 20.0427 70.7820 0.0000 9.1082 0.0000
# 4 0.0000 0.0000 0.0000 40.6566 0.0000 1.4312
# 5 4.2784 11.4582 9.1082 0.0000 20.1010 0.0000
# 6 0.0000 0.0000 0.0000 1.4312 0.0000 9.3159
#
#
#
# Elastic Compliance Matrix: (Units=1/GPa)
#
#
# Indices 1 2 3 4 5 6 
#
# 1 0.025704 -0.000694 0.000620 0.000000 -0.005356 0.000000
# 2 -0.000694 0.006266 -0.001409 0.000000 -0.002785 0.000000
# 3 0.000620 -0.001409 0.015328 0.000000 -0.006274 0.000000
# 4 0.000000 0.000000 0.000000 0.024730 0.000000 -0.003799
# 5 -0.005356 -0.002785 -0.006274 0.000000 0.055320 0.000000
# 6 0.000000 0.000000 0.000000 -0.003799 0.000000 0.107927
#
#
# Mechanical properties :
#
#
# Convention : Reuss Voigt Hill
#
# Bulk Modulus (GPa) = 22.55779 37.24458 29.90118
# Shear Modulus (GPa) = 19.76156 30.90731 25.33443
#
# Velocity S-wave (km/s) = 2.99682 3.74784 3.39317
# Velocity P-wave (km/s) = 4.71448 5.97116 5.37964
#
# Compressibility (1/GPa) = 0.04433059
#
# Stress axis : x y z
#
# Youngs Moduli (GPa) = 38.90472 159.60409 65.24142
#
# Poissons Ratio (x) = 0.11084 -0.04044
# Poissons Ratio (y) = 0.02702 0.09189
# Poissons Ratio (z) = -0.02411 0.22481
#
# Static dielectric constant tensor:
#      x y z
#    x 1.841630 0.000000 0.022010 
#    y 0.000000 1.819630 0.000000 
#    z 0.022010 0.000000 1.845680 
# 
# From -- ./inp_files/18021.got.cif
#   From: 2010.05.17/outbox.cif.g08.bks.cpg/sg11_10_cif.got.tgz:18021.got - 2010.06.03 12:22:45.
