data_PCOD9166612
_publ_section_title
;
Structure prediction by ZEFSAII (Michael W. Deem and Ramdas Pophale) SiO2 
 PCOD9166612
Probable space group: P 21/M
;
_chemical_formula_sum "Si O2"
_cell_formula_units_Z 28
_cell_length_a 5.564862
_cell_length_b 29.179430
_cell_length_c 7.820166
_cell_angle_alpha 90.000000
_cell_angle_beta 115.819117
_cell_angle_gamma 90.000000
_cell_volume 1143.071511
_symmetry_space_group_name_H-M "P 21/M"
_symmetry_group_IT_number 11
_symmetry_cell_setting 'monoclinic'
loop_
_space_group_symop_operation_xyz
x,y,z
-x,1/2+y,-z
-x,-y,-z
x,1/2-y,z
loop_
_atom_site_type_symbol
_atom_site_label
_atom_site_fract_x
_atom_site_fract_y
_atom_site_fract_z
Si Si1 0.354918 0.080196 0.924621
Si Si2 0.936548 0.847054 0.636178
Si Si3 0.567059 0.382611 0.660433
Si Si4 0.065555 0.341990 0.979994
Si Si5 0.024572 0.750000 0.649186
Si Si6 0.859065 0.445263 0.281652
Si Si7 0.338074 0.250000 0.115875
Si Si8 0.837337 0.025613 0.647926
O O1 0.405270 0.115834 0.787195
O O2 0.126593 0.045909 0.791927
O O3 0.243508 0.112197 0.039856
O O4 0.628214 0.057424 0.070632
O O5 0.623764 0.859891 0.537063
O O6 0.043961 0.837747 0.860796
O O7 0.976329 0.799644 0.548416
O O8 0.076543 0.894438 0.629113
O O9 0.638526 0.436388 0.660233
O O10 0.832620 0.353883 0.775884
O O11 0.228534 0.296193 0.995670
O O12 0.806220 0.750000 0.739446
O O13 0.342065 0.750000 0.785629
O O14 0.778394 0.472297 0.427546
O O15 0.119970 0.472326 0.291911
#
# Coordination Sequence:
#
# PCOD9166612 Si02
#       8
#     4   4   4   4   2   4   2   4
#     4  11  21  41  61  90 128 169 219 277 329 402
#     4  11  22  43  67  93 129 173 218 276 335 403
#     4  11  23  40  63  95 131 167 224 270 331 407
#     4  10  23  41  66  90 127 173 215 274 339 396
#     4  10  24  43  71 102 131 173 227 278 335 403
#     4  11  21  40  65  88 131 176 216 275 344 391
#     4  10  22  43  71 100 133 171 231 278 335 417
#     4  10  24  40  59  95 128 172 224 274 329 409
#
# _framework density 24.495405999999999
#
# number of rings (size 3 to 8) (size 9 to 14) (size 15 to 20)
#    0.000    1.429    2.857    2.143    2.000    2.857 
#    2.571    0.714    0.000    0.000    0.000    0.000 
#    0.000    0.000    0.000    0.000    0.000    0.000 
#
# Total GULP energy -156385.954279 kJ/mol
# GULP energy per Si atom -5585.212653 kJ/mol
# Density = 2.443965 g / cm^3
# Si number density = 24.495406 Si / 1000 Ang^3
#
#
#
# Elastic Constant Matrix: (Units=GPa)
#
#
# Indices 1 2 3 4 5 6 
#
# 1 63.9945 27.6992 21.1255 0.0000 30.2449 0.0000
# 2 27.6992 159.2147 31.7558 0.0000 25.5291 0.0000
# 3 21.1255 31.7558 100.8331 0.0000 30.2305 0.0000
# 4 0.0000 0.0000 0.0000 27.1004 0.0000 6.8939
# 5 30.2449 25.5291 30.2305 0.0000 42.2713 0.0000
# 6 0.0000 0.0000 0.0000 6.8939 0.0000 29.8814
#
#
#
# Elastic Compliance Matrix: (Units=1/GPa)
#
#
# Indices 1 2 3 4 5 6 
#
# 1 0.023975 -0.001613 0.000427 0.000000 -0.016485 0.000000
# 2 -0.001613 0.007176 -0.001233 0.000000 -0.002298 0.000000
# 3 0.000427 -0.001233 0.012837 0.000000 -0.008742 0.000000
# 4 0.000000 0.000000 0.000000 0.039200 0.000000 -0.009044
# 5 -0.016485 -0.002298 -0.008742 0.000000 0.043091 0.000000
# 6 0.000000 0.000000 0.000000 -0.009044 0.000000 0.035552
#
#
# Mechanical properties :
#
#
# Convention : Reuss Voigt Hill
#
# Bulk Modulus (GPa) = 25.54254 53.91147 39.72701
# Shear Modulus (GPa) = 27.82133 36.08141 31.95137
#
# Velocity S-wave (km/s) = 3.37379 3.84211 3.61554
# Velocity P-wave (km/s) = 5.06228 6.46058 5.80369
#
# Compressibility (1/GPa) = 0.03915037
#
# Stress axis : x y z
#
# Youngs Moduli (GPa) = 41.71085 139.35692 77.90018
#
# Poissons Ratio (x) = 0.22477 -0.03330
# Poissons Ratio (y) = 0.06728 0.09606
# Poissons Ratio (z) = -0.01783 0.17184
#
# Static dielectric constant tensor:
#      x y z
#    x 2.016580 0.000000 -0.037420 
#    y 0.000000 2.005960 0.000000 
#    z -0.037420 0.000000 1.895710 
# 
# From -- ./inp_files/3364.got.cif
#   From: 2010.05.17/outbox.cif.g08.bks.cpg/sg11_2_cif.got.tgz:3364.got - 2010.06.03 12:22:45.
