data_PCOD9166249
_publ_section_title
;
Structure prediction by ZEFSAII (Michael W. Deem and Ramdas Pophale) SiO2 
 PCOD9166249
Probable space group: P 21/M
;
_chemical_formula_sum "Si O2"
_cell_formula_units_Z 26
_cell_length_a 9.256568
_cell_length_b 20.131173
_cell_length_c 9.444181
_cell_angle_alpha 90.000000
_cell_angle_beta 47.436288
_cell_angle_gamma 90.000000
_cell_volume 1296.197699
_symmetry_space_group_name_H-M "P 21/M"
_symmetry_group_IT_number 11
_symmetry_cell_setting 'monoclinic'
loop_
_space_group_symop_operation_xyz
x,y,z
-x,1/2+y,-z
-x,-y,-z
x,1/2-y,z
loop_
_atom_site_type_symbol
_atom_site_label
_atom_site_fract_x
_atom_site_fract_y
_atom_site_fract_z
Si Si1 0.667474 0.868829 0.380237
Si Si2 0.235881 0.250000 0.473386
Si Si3 0.271765 0.018170 0.163614
Si Si4 0.819671 0.860369 0.965278
Si Si5 0.770457 0.129787 0.435210
Si Si6 0.801087 0.250000 0.635129
Si Si7 0.853596 0.524405 0.444685
Si Si8 0.412569 0.250000 0.054806
O O1 0.727077 0.813687 0.454075
O O2 0.435368 0.869758 0.508364
O O3 0.746178 0.938080 0.389750
O O4 0.762102 0.853063 0.165570
O O5 0.376886 0.250000 0.244470
O O6 0.017972 0.250000 0.553833
O O7 0.230891 0.067001 0.060585
O O8 0.229324 0.048651 0.348316
O O9 0.089808 0.965839 0.277961
O O10 0.500000 0.000000 0.000000
O O11 0.694301 0.811920 0.949102
O O12 0.048924 0.850201 0.784751
O O13 0.768305 0.184370 0.561041
O O14 0.810929 0.054790 0.463613
O O15 0.638696 0.250000 0.864037
#
# Coordination Sequence:
#
# PCOD9166249 Si02
#       8
#     4   2   4   4   4   2   4   2
#     4  12  25  43  66 102 140 171 219 281 338 388
#     4  12  28  42  68 100 134 166 230 286 322 392
#     4  10  22  39  65  94 132 178 220 263 324 392
#     4  11  23  41  69  95 131 176 222 264 334 403
#     4  11  23  44  70  96 135 182 216 273 335 400
#     4  12  25  43  73  93 128 177 228 270 337 396
#     4  10  24  40  66 100 140 172 225 275 324 394
#     4  12  23  43  69  93 122 175 226 268 331 400
#
# _framework density 20.058668000000001
#
# number of rings (size 3 to 8) (size 9 to 14) (size 15 to 20)
#    0.000    0.923    3.077    3.231    4.308    4.923 
#    0.000    0.000    0.000    0.000    0.000    0.000 
#    0.000    0.000    0.000    0.000    0.000    0.000 
#
# Total GULP energy -145311.711452 kJ/mol
# GULP energy per Si atom -5588.911979 kJ/mol
# Density = 2.001301 g / cm^3
# Si number density = 20.058668 Si / 1000 Ang^3
#
#
#
# Elastic Constant Matrix: (Units=GPa)
#
#
# Indices 1 2 3 4 5 6 
#
# 1 107.6128 25.5499 34.8622 0.0000 -22.1479 0.0000
# 2 25.5499 79.9098 24.5305 0.0000 7.0727 0.0000
# 3 34.8622 24.5305 140.5836 0.0000 -14.5054 0.0000
# 4 0.0000 0.0000 0.0000 18.4466 0.0000 7.3382
# 5 -22.1479 7.0727 -14.5054 0.0000 53.4392 0.0000
# 6 0.0000 0.0000 0.0000 7.3382 0.0000 43.1076
#
#
#
# Elastic Compliance Matrix: (Units=1/GPa)
#
#
# Indices 1 2 3 4 5 6 
#
# 1 0.011731 -0.003637 -0.001773 0.000000 0.004862 0.000000
# 2 -0.003637 0.014668 -0.002071 0.000000 -0.004011 0.000000
# 3 -0.001773 -0.002071 0.008093 0.000000 0.001736 0.000000
# 4 0.000000 0.000000 0.000000 0.058148 0.000000 -0.009899
# 5 0.004862 -0.004011 0.001736 0.000000 0.021730 0.000000
# 6 0.000000 0.000000 0.000000 -0.009899 0.000000 0.024883
#
#
# Mechanical properties :
#
#
# Convention : Reuss Voigt Hill
#
# Bulk Modulus (GPa) = 51.20303 55.33238 53.26770
# Shear Modulus (GPa) = 31.10893 39.20960 35.15927
#
# Velocity S-wave (km/s) = 3.94242 4.42605 4.19121
# Velocity P-wave (km/s) = 6.80482 7.33246 7.07356
#
# Compressibility (1/GPa) = 0.01953009
#
# Stress axis : x y z
#
# Youngs Moduli (GPa) = 85.24378 68.17650 123.55742
#
# Poissons Ratio (x) = 0.24795 0.21904
# Poissons Ratio (y) = 0.31003 0.25593
# Poissons Ratio (z) = 0.15112 0.14122
#
# Static dielectric constant tensor:
#      x y z
#    x 1.678360 0.000000 -0.017090 
#    y 0.000000 1.532280 0.000000 
#    z -0.017090 0.000000 1.700010 
# 
# From -- ./inp_files/14540.got.cif
#   From: 2010.05.17/outbox.cif.g08.bks.cpg/sg11_8_cif.got.tgz:14540.got - 2010.06.03 12:22:45.
