data_PCOD9166048
_publ_section_title
;
Structure prediction by ZEFSAII (Michael W. Deem and Ramdas Pophale) SiO2 
 PCOD9166048
Probable space group: P 21/M
;
_chemical_formula_sum "Si O2"
_cell_formula_units_Z 32
_cell_length_a 5.174882
_cell_length_b 20.324908
_cell_length_c 15.052890
_cell_angle_alpha 90.000000
_cell_angle_beta 78.099029
_cell_angle_gamma 90.000000
_cell_volume 1549.216788
_symmetry_space_group_name_H-M "P 21/M"
_symmetry_group_IT_number 11
_symmetry_cell_setting 'monoclinic'
loop_
_space_group_symop_operation_xyz
x,y,z
-x,1/2+y,-z
-x,-y,-z
x,1/2-y,z
loop_
_atom_site_type_symbol
_atom_site_label
_atom_site_fract_x
_atom_site_fract_y
_atom_site_fract_z
Si Si1 0.748905 0.876163 0.800457
Si Si2 0.899292 0.478909 0.769058
Si Si3 0.477239 0.603208 0.534394
Si Si4 0.869150 0.824630 0.979025
Si Si5 0.709609 0.435685 0.089619
Si Si6 0.445988 0.426742 0.922860
Si Si7 0.541019 0.971243 0.351231
Si Si8 0.061023 0.326093 0.401617
O O1 0.765196 0.828568 0.884351
O O2 0.449615 0.903647 0.817548
O O3 0.842611 0.841979 0.704975
O O4 0.911712 0.944690 0.800863
O O5 0.718210 0.438258 0.851103
O O6 0.711724 0.478862 0.694632
O O7 0.190231 0.455720 0.721421
O O8 0.414069 0.539108 0.598551
O O9 0.487253 0.581991 0.431310
O O10 0.757686 0.630473 0.546663
O O11 0.243439 0.654297 0.567814
O O12 0.954478 0.750000 0.991014
O O13 0.084476 0.882746 0.959483
O O14 0.669599 0.853220 0.067647
O O15 0.751470 0.514196 0.094595
O O16 0.495118 0.436422 0.024335
O O17 0.101367 0.250000 0.418095
#
# Coordination Sequence:
#
# PCOD9166048 Si02
#       8
#     4   4   4   4   4   4   4   4
#     4  10  22  37  54  90 128 160 202 248 309 382
#     4  11  22  37  67  99 124 156 207 275 320 369
#     4  11  23  42  62  93 129 164 205 255 320 381
#     4  11  23  37  59  85 127 174 209 254 314 387
#     4   9  20  37  57  85 118 168 202 261 310 363
#     4   9  21  37  59  87 120 160 211 266 311 369
#     4  11  22  40  67  96 124 155 204 274 325 365
#     4  12  24  39  61  91 130 173 207 244 301 393
#
# _framework density 20.6556
#
# number of rings (size 3 to 8) (size 9 to 14) (size 15 to 20)
#    0.000    1.500    2.500    2.625    7.000    4.500 
#    0.000    0.000    0.000    4.500    0.000    0.000 
#    0.000    0.000    0.000    0.000    0.000    0.000 
#
# Total GULP energy -178616.445209 kJ/mol
# GULP energy per Si atom -5581.763913 kJ/mol
# Density = 2.060859 g / cm^3
# Si number density = 20.655600 Si / 1000 Ang^3
#
#
#
# Elastic Constant Matrix: (Units=GPa)
#
#
# Indices 1 2 3 4 5 6 
#
# 1 60.7569 10.8997 3.9298 0.0000 -9.2483 0.0000
# 2 10.8997 87.1270 28.7143 0.0000 -5.2516 0.0000
# 3 3.9298 28.7143 81.1563 0.0000 -10.6242 0.0000
# 4 0.0000 0.0000 0.0000 16.4900 0.0000 0.4418
# 5 -9.2483 -5.2516 -10.6242 0.0000 25.4053 0.0000
# 6 0.0000 0.0000 0.0000 0.4418 0.0000 16.8419
#
#
#
# Elastic Compliance Matrix: (Units=1/GPa)
#
#
# Indices 1 2 3 4 5 6 
#
# 1 0.017748 -0.002070 0.000701 0.000000 0.006326 0.000000
# 2 -0.002070 0.013250 -0.004578 0.000000 0.000071 0.000000
# 3 0.000701 -0.004578 0.014618 0.000000 0.005422 0.000000
# 4 0.000000 0.000000 0.000000 0.060686 0.000000 -0.001592
# 5 0.006326 0.000071 0.005422 0.000000 0.043947 0.000000
# 6 0.000000 0.000000 0.000000 -0.001592 0.000000 0.059418
#
#
# Mechanical properties :
#
#
# Convention : Reuss Voigt Hill
#
# Bulk Modulus (GPa) = 29.65541 35.12529 32.39035
# Shear Modulus (GPa) = 21.47767 24.11386 22.79576
#
# Velocity S-wave (km/s) = 3.22809 3.42047 3.32567
# Velocity P-wave (km/s) = 5.31811 5.71328 5.51924
#
# Compressibility (1/GPa) = 0.03372066
#
# Stress axis : x y z
#
# Youngs Moduli (GPa) = 56.34435 75.47373 68.41046
#
# Poissons Ratio (x) = 0.15624 -0.04797
# Poissons Ratio (y) = 0.11664 0.31321
# Poissons Ratio (z) = -0.03951 0.34555
#
# Static dielectric constant tensor:
#      x y z
#    x 1.831800 0.000000 0.015790 
#    y 0.000000 1.739130 0.000000 
#    z 0.015790 0.000000 1.754070 
# 
# From -- ./inp_files/46205.got.cif
#   From: 2010.05.17/outbox.cif.g08.bks.cpg/sg11_24_cif.got.tgz:46205.got - 2010.06.03 12:22:45.
