data_PCOD9166124
_publ_section_title
;
Structure prediction by ZEFSAII (Michael W. Deem and Ramdas Pophale) SiO2 
 PCOD9166124
Probable space group: P 21/M
;
_chemical_formula_sum "Si O2"
_cell_formula_units_Z 28
_cell_length_a 8.765656
_cell_length_b 13.387352
_cell_length_c 15.420325
_cell_angle_alpha 90.000000
_cell_angle_beta 45.427902
_cell_angle_gamma 90.000000
_cell_volume 1289.071399
_symmetry_space_group_name_H-M "P 21/M"
_symmetry_group_IT_number 11
_symmetry_cell_setting 'monoclinic'
loop_
_space_group_symop_operation_xyz
x,y,z
-x,1/2+y,-z
-x,-y,-z
x,1/2-y,z
loop_
_atom_site_type_symbol
_atom_site_label
_atom_site_fract_x
_atom_site_fract_y
_atom_site_fract_z
Si Si1 0.791936 0.143988 0.096269
Si Si2 0.492696 0.560814 0.374627
Si Si3 0.791649 0.864491 0.530649
Si Si4 0.759674 0.924466 0.120112
Si Si5 0.054225 0.443434 0.706742
Si Si6 0.953738 0.361829 0.390887
Si Si7 0.316398 0.542586 0.014792
O O1 0.757626 0.250000 0.153405
O O2 0.028011 0.139760 0.958898
O O3 0.631085 0.125554 0.079848
O O4 0.790869 0.038265 0.146370
O O5 0.389465 0.450300 0.402896
O O6 0.560346 0.609409 0.255464
O O7 0.706997 0.560703 0.347527
O O8 0.300044 0.623582 0.492442
O O9 0.713360 0.750000 0.563012
O O10 0.933698 0.880864 0.387290
O O11 0.927076 0.880974 0.564763
O O12 0.500000 0.000000 0.000000
O O13 0.735287 0.949576 0.029035
O O14 0.991520 0.554672 0.700860
O O15 0.875325 0.417715 0.848642
O O16 0.003531 0.250000 0.343243
#
# Coordination Sequence:
#
# PCOD9166124 Si02
#       7
#     4   4   4   4   4   4   4
#     4   9  18  37  59  82 116 158 197 235 289 350
#     4  11  20  37  63  86 118 157 192 241 295 345
#     4  10  23  38  58  88 118 154 197 241 295 354
#     4   9  20  38  57  87 119 150 199 237 294 352
#     4  11  21  38  61  85 116 155 195 243 297 342
#     4  10  23  39  59  88 118 154 197 242 297 353
#     4  10  22  38  61  85 120 155 194 247 298 349
#
# _framework density 21.721062
#
# number of rings (size 3 to 8) (size 9 to 14) (size 15 to 20)
#    0.857    1.143    1.429    3.429    4.000    4.000 
#    0.000    3.571    0.000    0.000    0.000    0.000 
#    0.000    0.000    0.000    0.000    0.000    0.000 
#
# Total GULP energy -155900.063949 kJ/mol
# GULP energy per Si atom -5567.859427 kJ/mol
# Density = 2.167162 g / cm^3
# Si number density = 21.721062 Si / 1000 Ang^3
#
#
#
# Elastic Constant Matrix: (Units=GPa)
#
#
# Indices 1 2 3 4 5 6 
#
# 1 80.4066 3.8790 -8.7790 0.0000 11.8750 0.0000
# 2 3.8790 73.6761 -27.8493 0.0000 0.0652 0.0000
# 3 -8.7790 -27.8493 54.2458 0.0000 3.5433 0.0000
# 4 0.0000 0.0000 0.0000 -3.8510 0.0000 7.8836
# 5 11.8750 0.0652 3.5433 0.0000 20.0719 0.0000
# 6 0.0000 0.0000 0.0000 7.8836 0.0000 7.7292
#
#
#
# Elastic Compliance Matrix: (Units=1/GPa)
#
#
# Indices 1 2 3 4 5 6 
#
# 1 0.014061 0.000430 0.003075 0.000000 -0.008863 0.000000
# 2 0.000430 0.016905 0.008871 0.000000 -0.001875 0.000000
# 3 0.003075 0.008871 0.023883 0.000000 -0.006064 0.000000
# 4 0.000000 0.000000 0.000000 -0.084090 0.000000 0.085769
# 5 -0.008863 -0.001875 -0.006064 0.000000 0.056141 0.000000
# 6 0.000000 0.000000 0.000000 0.085769 0.000000 0.041896
#
#
# Mechanical properties :
#
#
# Convention : Reuss Voigt Hill
#
# Bulk Modulus (GPa) = 12.56263 15.86998 14.21631
# Shear Modulus (GPa) = 70.84423 20.86189 45.85306
#
# Velocity S-wave (km/s) = 5.71719 3.10247 4.59954
# Velocity P-wave (km/s) = 7.02694 4.48953 5.89634
#
# Compressibility (1/GPa) = 0.07960115
#
# Stress axis : x y z
#
# Youngs Moduli (GPa) = 71.11998 59.15354 41.87125
#
# Poissons Ratio (x) = -0.02543 -0.12876
# Poissons Ratio (y) = -0.03058 -0.37144
# Poissons Ratio (z) = -0.21871 -0.52475
#
# Static dielectric constant tensor:
#      x y z
#    x 1.814550 0.000000 -0.017560 
#    y 0.000000 1.817760 0.000000 
#    z -0.017560 0.000000 1.851840 
# 
# From -- ./inp_files/47396.got.cif
#   From: 2010.05.17/outbox.cif.g08.bks.cpg/sg11_24_cif.got.tgz:47396.got - 2010.06.03 12:22:45.
