data_PCOD9166975
_publ_section_title
;
Structure prediction by ZEFSAII (Michael W. Deem and Ramdas Pophale) SiO2 
 PCOD9166975
Probable space group: P 21/M
;
_chemical_formula_sum "Si O2"
_cell_formula_units_Z 18
_cell_length_a 8.347752
_cell_length_b 20.365342
_cell_length_c 5.302256
_cell_angle_alpha 90.000000
_cell_angle_beta 59.897662
_cell_angle_gamma 90.000000
_cell_volume 779.836916
_symmetry_space_group_name_H-M "P 21/M"
_symmetry_group_IT_number 11
_symmetry_cell_setting 'monoclinic'
loop_
_space_group_symop_operation_xyz
x,y,z
-x,1/2+y,-z
-x,-y,-z
x,1/2-y,z
loop_
_atom_site_type_symbol
_atom_site_label
_atom_site_fract_x
_atom_site_fract_y
_atom_site_fract_z
Si Si1 0.429596 0.064816 0.195111
Si Si2 0.292508 0.641553 0.689336
Si Si3 0.882735 0.012157 0.341557
Si Si4 0.649516 0.680308 0.096659
Si Si5 0.986553 0.750000 0.048668
O O1 0.603196 0.102510 0.172961
O O2 0.290304 0.037865 0.516005
O O3 0.328554 0.116739 0.093059
O O4 0.500000 0.000000 0.000000
O O5 0.191631 0.586317 0.602939
O O6 0.457071 0.673386 0.395559
O O7 0.147266 0.693161 0.908655
O O8 0.000000 0.000000 0.500000
O O9 0.000000 0.000000 0.000000
O O10 0.646709 0.750000 0.945405
O O11 0.821109 0.693459 0.146752
#
# Coordination Sequence:
#
# PCOD9166975 Si02
#       5
#     4   4   4   4   2
#     4  12  26  48  77 113 158 209 262 336 410 478
#     4  12  25  47  77 109 155 209 263 330 405 479
#     4  12  28  47  78 119 157 203 267 330 401 483
#     4  10  25  48  75 107 156 206 263 325 405 486
#     4  10  24  46  72 108 152 202 272 324 402 486
#
# _framework density 23.081748999999999
#
# number of rings (size 3 to 8) (size 9 to 14) (size 15 to 20)
#    0.667    0.000    3.333    3.333    7.778    0.000 
#    0.000    2.222    0.000    0.000    0.000    0.000 
#    0.000    0.000    0.000    0.000    0.000    0.000 
#
# Total GULP energy -100240.405621 kJ/mol
# GULP energy per Si atom -5568.911423 kJ/mol
# Density = 2.302921 g / cm^3
# Si number density = 23.081749 Si / 1000 Ang^3
#
#
#
# Elastic Constant Matrix: (Units=GPa)
#
#
# Indices 1 2 3 4 5 6 
#
# 1 123.0206 45.1445 39.3935 0.0000 -26.5311 0.0000
# 2 45.1445 161.6993 39.0380 0.0000 -16.8939 0.0000
# 3 39.3935 39.0380 107.8657 0.0000 -20.3583 0.0000
# 4 0.0000 0.0000 0.0000 26.3642 0.0000 -11.2945
# 5 -26.5311 -16.8939 -20.3583 0.0000 37.9833 0.0000
# 6 0.0000 0.0000 0.0000 -11.2945 0.0000 75.4104
#
#
#
# Elastic Compliance Matrix: (Units=1/GPa)
#
#
# Indices 1 2 3 4 5 6 
#
# 1 0.010702 -0.001888 -0.002195 0.000000 0.005459 0.000000
# 2 -0.001888 0.007234 -0.001747 0.000000 0.000963 0.000000
# 3 -0.002195 -0.001747 0.011424 0.000000 0.003813 0.000000
# 4 0.000000 0.000000 0.000000 0.040531 0.000000 0.006070
# 5 0.005459 0.000963 0.003813 0.000000 0.032612 0.000000
# 6 0.000000 0.000000 0.000000 0.006070 0.000000 0.014170
#
#
# Mechanical properties :
#
#
# Convention : Reuss Voigt Hill
#
# Bulk Modulus (GPa) = 56.49449 71.08195 63.78822
# Shear Modulus (GPa) = 37.24911 45.88556 41.56733
#
# Velocity S-wave (km/s) = 4.02156 4.46349 4.24827
# Velocity P-wave (km/s) = 6.78917 7.57801 7.19441
#
# Compressibility (1/GPa) = 0.01770084
#
# Stress axis : x y z
#
# Youngs Moduli (GPa) = 93.44469 138.24372 87.53283
#
# Poissons Ratio (x) = 0.26094 0.19212
# Poissons Ratio (y) = 0.17638 0.15291
# Poissons Ratio (z) = 0.20510 0.24150
#
# Static dielectric constant tensor:
#      x y z
#    x 1.910820 0.000000 0.052810 
#    y 0.000000 1.873180 0.000000 
#    z 0.052810 0.000000 1.837610 
# 
# From -- ./inp_files/2070.got.cif
#   From: 2010.05.17/outbox.cif.g08.bks.cpg/sg11_2_cif.got.tgz:2070.got - 2010.06.03 12:22:45.
