data_PCOD9166196
_publ_section_title
;
Structure prediction by ZEFSAII (Michael W. Deem and Ramdas Pophale) SiO2 
 PCOD9166196
Probable space group: P 21/M
;
_chemical_formula_sum "Si O2"
_cell_formula_units_Z 32
_cell_length_a 18.945432
_cell_length_b 14.567388
_cell_length_c 12.492420
_cell_angle_alpha 90.000000
_cell_angle_beta 152.044418
_cell_angle_gamma 90.000000
_cell_volume 1616.248995
_symmetry_space_group_name_H-M "P 21/M"
_symmetry_group_IT_number 11
_symmetry_cell_setting 'monoclinic'
loop_
_space_group_symop_operation_xyz
x,y,z
-x,1/2+y,-z
-x,-y,-z
x,1/2-y,z
loop_
_atom_site_type_symbol
_atom_site_label
_atom_site_fract_x
_atom_site_fract_y
_atom_site_fract_z
Si Si1 0.721620 0.509271 0.843531
Si Si2 0.443340 0.097356 0.966379
Si Si3 0.234393 0.850309 0.546572
Si Si4 0.890348 0.143391 0.381606
Si Si5 0.789637 0.950797 0.163696
Si Si6 0.475143 0.138489 0.565307
Si Si7 0.047944 0.008766 0.187221
Si Si8 0.320226 0.352497 0.574082
O O1 0.659466 0.583157 0.674623
O O2 0.620558 0.417047 0.716628
O O3 0.711892 0.558379 0.945378
O O4 0.894238 0.484566 0.048894
O O5 0.310737 0.081000 0.871975
O O6 0.388219 0.145590 0.784209
O O7 0.585963 0.140645 0.217009
O O8 0.500000 0.000000 0.000000
O O9 0.185915 0.750000 0.447436
O O10 0.194915 0.861341 0.619127
O O11 0.142516 0.922169 0.355178
O O12 0.880892 0.250000 0.330705
O O13 0.060487 0.110728 0.631756
O O14 0.826425 0.059999 0.224566
O O15 0.480433 0.250000 0.555752
O O16 0.444010 0.119980 0.650258
O O17 0.169156 0.088743 0.366316
O O18 0.000000 0.000000 0.000000
O O19 0.277714 0.250000 0.487325
#
# Coordination Sequence:
#
# PCOD9166196 Si02
#       8
#     4   4   4   4   4   4   4   4
#     4  11  24  43  66  95 131 172 218 267 329 389
#     4  12  22  41  67  95 134 172 216 274 330 388
#     4  11  24  43  67  96 129 172 219 269 327 393
#     4  10  22  39  60  92 128 166 210 257 324 394
#     4  11  23  40  63  93 130 170 207 267 325 382
#     4  10  24  45  68  93 126 174 222 269 324 390
#     4  12  24  43  68  96 133 173 218 275 327 387
#     4  11  24  43  68  98 132 175 223 273 331 391
#
# _framework density 19.798929000000001
#
# number of rings (size 3 to 8) (size 9 to 14) (size 15 to 20)
#    0.000    1.000    5.000    1.125    1.750    3.500 
#    0.000    1.250    0.000    0.000    0.000    0.000 
#    0.000    0.000    0.000    0.000    0.000    0.000 
#
# Total GULP energy -178656.219131 kJ/mol
# GULP energy per Si atom -5583.006848 kJ/mol
# Density = 1.975387 g / cm^3
# Si number density = 19.798929 Si / 1000 Ang^3
#
#
#
# Elastic Constant Matrix: (Units=GPa)
#
#
# Indices 1 2 3 4 5 6 
#
# 1 50.0694 36.6453 14.5622 0.0000 -5.4373 0.0000
# 2 36.6453 95.3843 34.9701 0.0000 9.7778 0.0000
# 3 14.5622 34.9701 81.4251 0.0000 8.6865 0.0000
# 4 0.0000 0.0000 0.0000 -304.7191 0.0000 -8.6766
# 5 -5.4373 9.7778 8.6865 0.0000 32.7402 0.0000
# 6 0.0000 0.0000 0.0000 -8.6766 0.0000 24.4408
#
#
#
# Elastic Compliance Matrix: (Units=1/GPa)
#
#
# Indices 1 2 3 4 5 6 
#
# 1 0.030096 -0.012051 -0.001157 0.000000 0.008904 0.000000
# 2 -0.012051 0.017449 -0.004702 0.000000 -0.005965 0.000000
# 3 -0.001157 -0.004702 0.014797 0.000000 -0.002714 0.000000
# 4 0.000000 0.000000 0.000000 -0.003249 0.000000 -0.001153
# 5 0.008904 -0.005965 -0.002714 0.000000 0.034524 0.000000
# 6 0.000000 0.000000 0.000000 -0.001153 0.000000 0.040506
#
#
# Mechanical properties :
#
#
# Convention : Reuss Voigt Hill
#
# Bulk Modulus (GPa) = 37.70478 44.35932 41.03205
# Shear Modulus (GPa) = 27.96684 -40.12755 -6.08035
#
# Velocity S-wave (km/s) = 3.76246 -4.50683 -1.75434
# Velocity P-wave (km/s) = 6.16117 2.15139 4.08237
#
# Compressibility (1/GPa) = 0.02652184
#
# Stress axis : x y z
#
# Youngs Moduli (GPa) = 33.22750 57.30921 67.58054
#
# Poissons Ratio (x) = 0.69063 0.07816
# Poissons Ratio (y) = 0.40042 0.31780
# Poissons Ratio (z) = 0.03843 0.26949
#
# Static dielectric constant tensor:
#      x y z
#    x 1.691570 0.000000 -0.013930 
#    y 0.000000 1.685730 0.000000 
#    z -0.013930 0.000000 1.638220 
# 
# From -- ./inp_files/41716.got.cif
#   From: 2010.05.17/outbox.cif.g08.bks.cpg/sg11_21_cif.got.tgz:41716.got - 2010.06.03 12:22:45.
