data_PCOD9166160
_publ_section_title
;
Structure prediction by ZEFSAII (Michael W. Deem and Ramdas Pophale) SiO2 
 PCOD9166160
Probable space group: P 21/M
;
_chemical_formula_sum "Si O2"
_cell_formula_units_Z 28
_cell_length_a 29.544775
_cell_length_b 8.858481
_cell_length_c 9.186477
_cell_angle_alpha 90.000000
_cell_angle_beta 140.823514
_cell_angle_gamma 90.000000
_cell_volume 1518.824255
_symmetry_space_group_name_H-M "P 21/M"
_symmetry_group_IT_number 11
_symmetry_cell_setting 'monoclinic'
loop_
_space_group_symop_operation_xyz
x,y,z
-x,1/2+y,-z
-x,-y,-z
x,1/2-y,z
loop_
_atom_site_type_symbol
_atom_site_label
_atom_site_fract_x
_atom_site_fract_y
_atom_site_fract_z
Si Si1 0.343636 0.431210 0.279627
Si Si2 0.208645 0.068370 0.428280
Si Si3 0.066129 0.068381 0.254060
Si Si4 0.933751 0.068382 0.423685
Si Si5 0.351263 0.431679 0.955867
Si Si6 0.502103 0.430750 0.667388
Si Si7 0.209626 0.569900 0.111347
O O1 0.335224 0.250000 0.267515
O O2 0.423837 0.469066 0.536063
O O3 0.280829 0.508600 0.211598
O O4 0.340465 0.472262 0.099709
O O5 0.210292 0.250000 0.417954
O O6 0.139960 0.030038 0.355248
O O7 0.282039 0.022060 0.691435
O O8 0.202810 0.996989 0.255302
O O9 0.059941 0.250000 0.245771
O O10 0.066805 0.999787 0.416587
O O11 0.000000 0.000000 0.000000
O O12 0.939894 0.250000 0.445192
O O13 0.860014 0.028448 0.157503
O O14 0.000000 0.000000 0.500000
O O15 0.358088 0.250000 0.967784
O O16 0.425358 0.503504 0.084545
O O17 0.500000 0.500000 0.500000
O O18 0.506674 0.250000 0.669673
O O19 0.212674 0.750000 0.127320
#
# Coordination Sequence:
#
# PCOD9166160 Si02
#       7
#     4   4   4   4   4   4   4
#     4   9  18  34  56  80 109 144 183 225 276 337
#     4  10  22  39  58  80 111 150 187 225 278 337
#     4  11  23  40  63  89 116 149 187 229 278 334
#     4  11  24  41  61  87 117 150 188 232 279 330
#     4   9  18  34  56  82 108 140 184 230 275 329
#     4   9  17  30  51  80 110 142 180 225 275 328
#     4  11  24  38  55  82 113 145 187 234 276 321
#
# _framework density 18.435312
#
# number of rings (size 3 to 8) (size 9 to 14) (size 15 to 20)
#    0.000    2.000    0.000    4.286    0.000   10.286 
#    0.000    0.714    0.000    0.000    0.000    0.000 
#    0.000    0.000    0.000    0.000    0.000    0.000 
#
# Total GULP energy -156355.556156 kJ/mol
# GULP energy per Si atom -5584.127006 kJ/mol
# Density = 1.839335 g / cm^3
# Si number density = 18.435312 Si / 1000 Ang^3
#
#
#
# Elastic Constant Matrix: (Units=GPa)
#
#
# Indices 1 2 3 4 5 6 
#
# 1 162.9121 59.6058 113.6274 0.0000 15.9417 0.0000
# 2 59.6058 43.2624 64.9504 0.0000 10.3592 0.0000
# 3 113.6274 64.9504 192.2600 0.0000 19.6865 0.0000
# 4 0.0000 0.0000 0.0000 32.3900 0.0000 1.1547
# 5 15.9417 10.3592 19.6865 0.0000 36.4176 0.0000
# 6 0.0000 0.0000 0.0000 1.1547 0.0000 32.2996
#
#
#
# Elastic Compliance Matrix: (Units=1/GPa)
#
#
# Indices 1 2 3 4 5 6 
#
# 1 0.013400 -0.013294 -0.003403 0.000000 -0.000244 0.000000
# 2 -0.013294 0.060988 -0.012244 0.000000 -0.004910 0.000000
# 3 -0.003403 -0.012244 0.011475 0.000000 -0.001230 0.000000
# 4 0.000000 0.000000 0.000000 0.030913 0.000000 -0.001105
# 5 -0.000244 -0.004910 -0.001230 0.000000 0.029628 0.000000
# 6 0.000000 0.000000 0.000000 -0.001105 0.000000 0.031000
#
#
# Mechanical properties :
#
#
# Convention : Reuss Voigt Hill
#
# Bulk Modulus (GPa) = 35.73857 97.20019 66.46938
# Shear Modulus (GPa) = 20.44039 30.90485 25.67262
#
# Velocity S-wave (km/s) = 3.33342 4.09882 3.73578
# Velocity P-wave (km/s) = 5.85180 8.67409 7.39877
#
# Compressibility (1/GPa) = 0.02798098
#
# Stress axis : x y z
#
# Youngs Moduli (GPa) = 74.62702 16.39655 87.14592
#
# Poissons Ratio (x) = 0.21798 0.29659
# Poissons Ratio (y) = 0.99209 1.06700
# Poissons Ratio (z) = 0.25399 0.20076
#
# Static dielectric constant tensor:
#      x y z
#    x 1.610920 0.000000 0.011170 
#    y 0.000000 1.617440 0.000000 
#    z 0.011170 0.000000 1.647530 
# 
# From -- ./inp_files/28333.got.cif
#   From: 2010.05.17/outbox.cif.g08.bks.cpg/sg11_15_cif.got.tgz:28333.got - 2010.06.03 12:22:45.
