data_PCOD9166422
_publ_section_title
;
Structure prediction by ZEFSAII (Michael W. Deem and Ramdas Pophale) SiO2 
 PCOD9166422
Probable space group: P 21/M
;
_chemical_formula_sum "Si O2"
_cell_formula_units_Z 32
_cell_length_a 15.385231
_cell_length_b 9.026056
_cell_length_c 11.828950
_cell_angle_alpha 90.000000
_cell_angle_beta 93.464636
_cell_angle_gamma 90.000000
_cell_volume 1639.659803
_symmetry_space_group_name_H-M "P 21/M"
_symmetry_group_IT_number 11
_symmetry_cell_setting 'monoclinic'
loop_
_space_group_symop_operation_xyz
x,y,z
-x,1/2+y,-z
-x,-y,-z
x,1/2-y,z
loop_
_atom_site_type_symbol
_atom_site_label
_atom_site_fract_x
_atom_site_fract_y
_atom_site_fract_z
Si Si1 0.736941 0.072062 0.492346
Si Si2 0.420557 0.575436 0.927544
Si Si3 0.388225 0.573985 0.314775
Si Si4 0.434225 0.574679 0.660781
Si Si5 0.685167 0.923347 0.908667
Si Si6 0.113425 0.075491 0.074189
Si Si7 0.955705 0.572312 0.174716
Si Si8 0.082775 0.070593 0.571402
O O1 0.751397 0.250000 0.484779
O O2 0.693524 0.040410 0.610554
O O3 0.657446 0.030938 0.401991
O O4 0.826419 0.988827 0.472799
O O5 0.421035 0.750000 0.950245
O O6 0.426522 0.553021 0.794687
O O7 0.500000 0.500000 0.000000
O O8 0.335954 0.500491 0.974722
O O9 0.394875 0.750000 0.303968
O O10 0.479290 0.512079 0.369334
O O11 0.370575 0.498973 0.193473
O O12 0.446605 0.750000 0.638104
O O13 0.663447 0.750000 0.913289
O O14 0.786165 0.941095 0.889120
O O15 0.090748 0.250000 0.078236
O O16 0.097549 0.026360 0.942412
O O17 0.051573 0.987967 0.154208
O O18 0.956440 0.750000 0.176239
O O19 0.922689 0.525980 0.295742
O O20 0.079064 0.250000 0.563462
O O21 0.000000 0.000000 0.500000
#
# Coordination Sequence:
#
# PCOD9166422 Si02
#       8
#     4   4   4   4   4   4   4   4
#     4  10  24  44  64  91 122 158 204 253 304 361
#     4  11  22  37  58  87 121 159 198 239 295 354
#     4  11  23  39  62  89 122 161 206 254 302 358
#     4  10  22  41  64  89 123 160 201 252 303 361
#     4  11  23  37  58  87 122 159 200 248 297 358
#     4   9  20  38  61  89 118 153 195 242 296 356
#     4   9  20  40  62  87 118 151 194 245 299 355
#     4  11  25  43  65  91 122 161 202 251 303 360
#
# _framework density 19.516245000000001
#
# number of rings (size 3 to 8) (size 9 to 14) (size 15 to 20)
#    0.000    1.750    1.250    1.875    3.500    4.000 
#    0.000    0.000    0.000    0.000    0.000    0.000 
#    0.000    0.000    0.000    0.000    0.000    0.000 
#
# Total GULP energy -178709.598030 kJ/mol
# GULP energy per Si atom -5584.674938 kJ/mol
# Density = 1.947182 g / cm^3
# Si number density = 19.516245 Si / 1000 Ang^3
#
#
#
# Elastic Constant Matrix: (Units=GPa)
#
#
# Indices 1 2 3 4 5 6 
#
# 1 112.1998 51.7276 45.0118 0.0000 -18.5457 0.0000
# 2 51.7276 47.8290 46.2419 0.0000 -10.7734 0.0000
# 3 45.0118 46.2419 70.7508 0.0000 -13.3141 0.0000
# 4 0.0000 0.0000 0.0000 23.1733 0.0000 -5.7871
# 5 -18.5457 -10.7734 -13.3141 0.0000 21.9434 0.0000
# 6 0.0000 0.0000 0.0000 -5.7871 0.0000 38.6273
#
#
#
# Elastic Compliance Matrix: (Units=1/GPa)
#
#
# Indices 1 2 3 4 5 6 
#
# 1 0.019083 -0.023308 0.004487 0.000000 0.007407 0.000000
# 2 -0.023308 0.085990 -0.041923 0.000000 -0.002918 0.000000
# 3 0.004487 -0.041923 0.040098 0.000000 0.007540 0.000000
# 4 0.000000 0.000000 0.000000 0.044830 0.000000 0.006716
# 5 0.007407 -0.002918 0.007540 0.000000 0.054974 0.000000
# 6 0.000000 0.000000 0.000000 0.006716 0.000000 0.026895
#
#
# Mechanical properties :
#
#
# Convention : Reuss Voigt Hill
#
# Bulk Modulus (GPa) = 42.22188 57.41580 49.81884
# Shear Modulus (GPa) = 12.46102 22.60200 17.53151
#
# Velocity S-wave (km/s) = 2.52959 3.40680 3.00042
# Velocity P-wave (km/s) = 5.49663 6.70510 6.13071
#
# Compressibility (1/GPa) = 0.02368440
#
# Stress axis : x y z
#
# Youngs Moduli (GPa) = 52.40395 11.62924 24.93882
#
# Poissons Ratio (x) = 0.27106 -0.11191
# Poissons Ratio (y) = 1.22144 1.04550
# Poissons Ratio (z) = -0.23516 0.48753
#
# Static dielectric constant tensor:
#      x y z
#    x 1.719020 0.000000 -0.043950 
#    y 0.000000 1.647370 0.000000 
#    z -0.043950 0.000000 1.745700 
# 
# From -- ./inp_files/38216.got.cif
#   From: 2010.05.17/outbox.cif.g08.bks.cpg/sg11_20_cif.got.tgz:38216.got - 2010.06.03 12:22:45.
