data_PCOD9166990
_publ_section_title
;
Structure prediction by ZEFSAII (Michael W. Deem and Ramdas Pophale) SiO2 
 PCOD9166990
Probable space group: P 21/M
;
_chemical_formula_sum "Si O2"
_cell_formula_units_Z 18
_cell_length_a 15.995537
_cell_length_b 9.248802
_cell_length_c 5.602771
_cell_angle_alpha 90.000000
_cell_angle_beta 113.513750
_cell_angle_gamma 90.000000
_cell_volume 760.045571
_symmetry_space_group_name_H-M "P 21/M"
_symmetry_group_IT_number 11
_symmetry_cell_setting 'monoclinic'
loop_
_space_group_symop_operation_xyz
x,y,z
-x,1/2+y,-z
-x,-y,-z
x,1/2-y,z
loop_
_atom_site_type_symbol
_atom_site_label
_atom_site_fract_x
_atom_site_fract_y
_atom_site_fract_z
Si Si1 0.301072 0.250000 0.435739
Si Si2 0.617532 0.250000 0.456333
Si Si3 0.112868 0.250000 0.350450
Si Si4 0.758699 0.250000 0.239860
Si Si5 0.444471 0.250000 0.981291
Si Si6 0.000000 0.000000 0.000000
Si Si7 0.346188 0.502070 0.158225
Si Si8 0.962673 0.250000 0.586352
O O1 0.219540 0.250000 0.532456
O O2 0.292377 0.391009 0.264437
O O3 0.400458 0.250000 0.670530
O O4 0.720190 0.250000 0.467558
O O5 0.551843 0.250000 0.151417
O O6 0.601581 0.389417 0.602933
O O7 0.083215 0.387264 0.162188
O O8 0.046322 0.250000 0.500296
O O9 0.866975 0.250000 0.336389
O O10 0.717505 0.392943 0.069075
O O11 0.406791 0.395600 0.065212
O O12 0.965657 0.109702 0.751764
#
# Coordination Sequence:
#
# PCOD9166990 Si02
#       8
#     2   2   2   2   2   2   4   2
#     4  11  26  44  69 102 141 181 231 286 341 403
#     4  11  24  45  69 105 138 180 234 280 341 413
#     4  11  26  45  73 102 137 182 232 277 343 406
#     4  11  26  44  73 101 139 187 227 283 344 411
#     4  11  24  44  72 102 140 183 227 284 345 409
#     4  10  26  46  70 100 134 178 226 288 332 406
#     4  10  25  44  68 102 139 183 227 287 338 408
#     4  11  26  48  72 102 141 181 231 276 350 406
#
# _framework density 23.682789
#
# number of rings (size 3 to 8) (size 9 to 14) (size 15 to 20)
#    0.000    1.333    0.000    2.667    9.333   12.444 
#    0.000    0.000    0.000    0.000    0.000    0.000 
#    0.000    0.000    0.000    0.000    0.000    0.000 
#
# Total GULP energy -100247.466076 kJ/mol
# GULP energy per Si atom -5569.303671 kJ/mol
# Density = 2.362889 g / cm^3
# Si number density = 23.682789 Si / 1000 Ang^3
#
#
#
# Elastic Constant Matrix: (Units=GPa)
#
#
# Indices 1 2 3 4 5 6 
#
# 1 75.0937 38.2453 6.1278 0.0000 0.7226 0.0000
# 2 38.2453 126.7464 33.4076 0.0000 0.0571 0.0000
# 3 6.1278 33.4076 69.0412 0.0000 5.0002 0.0000
# 4 0.0000 0.0000 0.0000 38.3346 0.0000 5.8887
# 5 0.7226 0.0571 5.0002 0.0000 18.2866 0.0000
# 6 0.0000 0.0000 0.0000 5.8887 0.0000 3.5950
#
#
#
# Elastic Compliance Matrix: (Units=1/GPa)
#
#
# Indices 1 2 3 4 5 6 
#
# 1 0.015814 -0.005065 0.001113 0.000000 -0.000914 0.000000
# 2 -0.005065 0.010691 -0.004831 0.000000 0.001488 0.000000
# 3 0.001113 -0.004831 0.017063 0.000000 -0.004695 0.000000
# 4 0.000000 0.000000 0.000000 0.034857 0.000000 -0.057096
# 5 -0.000914 0.001488 -0.004695 0.000000 0.056000 0.000000
# 6 0.000000 0.000000 0.000000 -0.057096 0.000000 0.371688
#
#
# Mechanical properties :
#
#
# Convention : Reuss Voigt Hill
#
# Bulk Modulus (GPa) = 38.45798 47.38252 42.92025
# Shear Modulus (GPa) = 9.39239 24.91661 17.15450
#
# Velocity S-wave (km/s) = 1.99362 3.24712 2.69428
# Velocity P-wave (km/s) = 4.64472 5.84029 5.27648
#
# Compressibility (1/GPa) = 0.02600241
#
# Stress axis : x y z
#
# Youngs Moduli (GPa) = 63.23424 93.53788 58.60626
#
# Poissons Ratio (x) = 0.47376 -0.06525
# Poissons Ratio (y) = 0.32028 0.28314
# Poissons Ratio (z) = -0.07040 0.45191
#
# Static dielectric constant tensor:
#      x y z
#    x 1.913390 0.000000 0.001510 
#    y 0.000000 1.853160 0.000000 
#    z 0.001510 0.000000 1.913860 
# 
# From -- ./inp_files/5906.got.cif
#   From: 2010.05.17/outbox.cif.g08.bks.cpg/sg11_3_cif.got.tgz:5906.got - 2010.06.03 12:22:45.
