data_PCOD9166515
_publ_section_title
;
Structure prediction by ZEFSAII (Michael W. Deem and Ramdas Pophale) SiO2 
 PCOD9166515
Probable space group: P 21/M
;
_chemical_formula_sum "Si O2"
_cell_formula_units_Z 28
_cell_length_a 12.964046
_cell_length_b 8.551120
_cell_length_c 13.692318
_cell_angle_alpha 90.000000
_cell_angle_beta 68.015771
_cell_angle_gamma 90.000000
_cell_volume 1407.520344
_symmetry_space_group_name_H-M "P 21/M"
_symmetry_group_IT_number 11
_symmetry_cell_setting 'monoclinic'
loop_
_space_group_symop_operation_xyz
x,y,z
-x,1/2+y,-z
-x,-y,-z
x,1/2-y,z
loop_
_atom_site_type_symbol
_atom_site_label
_atom_site_fract_x
_atom_site_fract_y
_atom_site_fract_z
Si Si1 0.835456 0.061849 0.810050
Si Si2 0.403619 0.435211 0.103319
Si Si3 0.489114 0.562946 0.276903
Si Si4 0.278422 0.440422 0.728819
Si Si5 0.966015 0.939533 0.117971
Si Si6 0.678596 0.937348 0.509295
Si Si7 0.878551 0.061659 0.569667
O O1 0.830365 0.250000 0.816456
O O2 0.940028 0.010087 0.837792
O O3 0.852910 0.018392 0.690811
O O4 0.717426 0.995672 0.885454
O O5 0.404320 0.250000 0.099491
O O6 0.429046 0.490718 0.204541
O O7 0.500000 0.500000 0.000000
O O8 0.484401 0.750000 0.269182
O O9 0.617683 0.512482 0.240645
O O10 0.424705 0.514007 0.397867
O O11 0.276251 0.250000 0.729363
O O12 0.304988 0.488675 0.608350
O O13 0.157393 0.493589 0.807206
O O14 0.964613 0.750000 0.117656
O O15 0.000000 0.000000 0.000000
O O16 0.665730 0.750000 0.515515
O O17 0.787583 0.985982 0.531313
O O18 0.873669 0.250000 0.563185
O O19 0.000000 0.000000 0.500000
#
# Coordination Sequence:
#
# PCOD9166515 Si02
#       7
#     4   4   4   4   4   4   4
#     4  10  22  42  65  90 127 165 206 255 312 373
#     4  12  26  43  66  94 126 164 211 263 315 373
#     4  11  22  40  64  94 129 167 208 254 312 374
#     4   9  21  40  63  89 126 169 208 254 312 374
#     4  10  22  42  64  90 121 162 208 259 310 367
#     4  11  21  38  62  92 125 164 210 256 313 375
#     4  11  22  37  61  90 125 166 207 258 312 371
#
# _framework density 19.893139999999999
#
# number of rings (size 3 to 8) (size 9 to 14) (size 15 to 20)
#    0.000    1.429    1.429    3.857    2.000    3.429 
#    0.000    5.714    0.000    0.000    0.000    0.000 
#    0.000    0.000    0.000    0.000    0.000    0.000 
#
# Total GULP energy -156574.493330 kJ/mol
# GULP energy per Si atom -5591.946190 kJ/mol
# Density = 1.984786 g / cm^3
# Si number density = 19.893140 Si / 1000 Ang^3
#
#
#
# Elastic Constant Matrix: (Units=GPa)
#
#
# Indices 1 2 3 4 5 6 
#
# 1 135.1458 10.1726 25.0416 0.0000 -26.4864 0.0000
# 2 10.1726 19.8670 0.4911 0.0000 -5.8410 0.0000
# 3 25.0416 0.4911 78.7906 0.0000 -25.8301 0.0000
# 4 0.0000 0.0000 0.0000 35.3842 0.0000 -3.5936
# 5 -26.4864 -5.8410 -25.8301 0.0000 41.3246 0.0000
# 6 0.0000 0.0000 0.0000 -3.5936 0.0000 22.5480
#
#
#
# Elastic Compliance Matrix: (Units=1/GPa)
#
#
# Indices 1 2 3 4 5 6 
#
# 1 0.008731 -0.003171 -0.001343 0.000000 0.004309 0.000000
# 2 -0.003171 0.054112 0.003159 0.000000 0.007591 0.000000
# 3 -0.001343 0.003159 0.016304 0.000000 0.009777 0.000000
# 4 0.000000 0.000000 0.000000 0.028726 0.000000 0.004578
# 5 0.004309 0.007591 0.009777 0.000000 0.034144 0.000000
# 6 0.000000 0.000000 0.000000 0.004578 0.000000 0.045080
#
#
# Mechanical properties :
#
#
# Convention : Reuss Voigt Hill
#
# Bulk Modulus (GPa) = 13.08247 33.91265 23.49756
# Shear Modulus (GPa) = 23.22497 33.05789 28.14143
#
# Velocity S-wave (km/s) = 3.42056 4.08091 3.76524
# Velocity P-wave (km/s) = 4.71072 6.26813 5.54439
#
# Compressibility (1/GPa) = 0.07643819
#
# Stress axis : x y z
#
# Youngs Moduli (GPa) = 114.53014 18.48027 61.33433
#
# Poissons Ratio (x) = 0.05860 0.08235
# Poissons Ratio (y) = 0.36314 -0.19375
# Poissons Ratio (z) = 0.15378 -0.05838
#
# Static dielectric constant tensor:
#      x y z
#    x 1.705920 0.000000 -0.009910 
#    y 0.000000 1.672730 0.000000 
#    z -0.009910 0.000000 1.676880 
# 
# From -- ./inp_files/49115.got.cif
#   From: 2010.05.17/outbox.cif.g08.bks.cpg/sg11_25_cif.got.tgz:49115.got - 2010.06.03 12:22:45.
