data_PCOD9166525
_publ_section_title
;
Structure prediction by ZEFSAII (Michael W. Deem and Ramdas Pophale) SiO2 
 PCOD9166525
Probable space group: P 21/M
;
_chemical_formula_sum "Si O2"
_cell_formula_units_Z 24
_cell_length_a 14.711227
_cell_length_b 8.718611
_cell_length_c 14.626395
_cell_angle_alpha 90.000000
_cell_angle_beta 39.154881
_cell_angle_gamma 90.000000
_cell_volume 1184.543581
_symmetry_space_group_name_H-M "P 21/M"
_symmetry_group_IT_number 11
_symmetry_cell_setting 'monoclinic'
loop_
_space_group_symop_operation_xyz
x,y,z
-x,1/2+y,-z
-x,-y,-z
x,1/2-y,z
loop_
_atom_site_type_symbol
_atom_site_label
_atom_site_fract_x
_atom_site_fract_y
_atom_site_fract_z
Si Si1 0.134029 0.066941 0.452124
Si Si2 0.099756 0.065658 0.002162
Si Si3 0.573618 0.568450 0.224152
Si Si4 0.899995 0.067264 0.318729
Si Si5 0.433440 0.930465 0.143346
Si Si6 0.613613 0.929744 0.481472
O O1 0.133085 0.250000 0.448799
O O2 0.115334 0.013020 0.571652
O O3 0.284010 0.006134 0.292823
O O4 0.000000 0.000000 0.500000
O O5 0.092878 0.250000 0.001591
O O6 0.037215 0.022735 0.150611
O O7 0.267379 0.023230 0.867194
O O8 0.000000 0.000000 0.000000
O O9 0.549906 0.750000 0.265405
O O10 0.548222 0.552969 0.136258
O O11 0.456855 0.464704 0.365506
O O12 0.899663 0.250000 0.333331
O O13 0.763664 0.018213 0.363867
O O14 0.406445 0.750000 0.151653
O O15 0.500000 0.000000 0.000000
O O16 0.635082 0.750000 0.448821
O O17 0.500000 0.000000 0.500000
#
# Coordination Sequence:
#
# PCOD9166525 Si02
#       6
#     4   4   4   4   4   4
#     4  12  26  45  69  99 132 171 219 272 331 396
#     4  10  23  41  63  93 128 170 214 262 318 380
#     4  10  22  42  65  91 128 169 211 263 323 387
#     4  11  23  42  66  95 131 169 213 268 326 389
#     4  11  24  43  69  99 133 172 216 270 328 393
#     4  12  24  39  63  93 126 168 215 266 322 386
#
# _framework density 20.260967999999998
#
# number of rings (size 3 to 8) (size 9 to 14) (size 15 to 20)
#    0.000    1.000    1.667    5.000    2.333    5.333 
#    0.000    0.000    0.000    0.000    0.000    0.000 
#    0.000    0.000    0.000    0.000    0.000    0.000 
#
# Total GULP energy -134249.076679 kJ/mol
# GULP energy per Si atom -5593.711528 kJ/mol
# Density = 2.021485 g / cm^3
# Si number density = 20.260968 Si / 1000 Ang^3
#
#
#
# Elastic Constant Matrix: (Units=GPa)
#
#
# Indices 1 2 3 4 5 6 
#
# 1 85.3283 24.3244 9.0343 0.0000 -3.2407 0.0000
# 2 24.3244 89.2939 26.6747 0.0000 7.9983 0.0000
# 3 9.0343 26.6747 82.7512 0.0000 1.0955 0.0000
# 4 0.0000 0.0000 0.0000 31.8640 0.0000 4.1600
# 5 -3.2407 7.9983 1.0955 0.0000 39.7183 0.0000
# 6 0.0000 0.0000 0.0000 4.1600 0.0000 38.1499
#
#
#
# Elastic Compliance Matrix: (Units=1/GPa)
#
#
# Indices 1 2 3 4 5 6 
#
# 1 0.012834 -0.003574 -0.000273 0.000000 0.001774 0.000000
# 2 -0.003574 0.013618 -0.003961 0.000000 -0.002925 0.000000
# 3 -0.000273 -0.003961 0.013386 0.000000 0.000406 0.000000
# 4 0.000000 0.000000 0.000000 0.031837 0.000000 -0.003472
# 5 0.001774 -0.002925 0.000406 0.000000 0.025900 0.000000
# 6 0.000000 0.000000 0.000000 -0.003472 0.000000 0.026591
#
#
# Mechanical properties :
#
#
# Convention : Reuss Voigt Hill
#
# Bulk Modulus (GPa) = 41.28248 41.93781 41.61014
# Shear Modulus (GPa) = 33.81719 35.10243 34.45981
#
# Velocity S-wave (km/s) = 4.08987 4.16686 4.12855
# Velocity P-wave (km/s) = 6.53623 6.62526 6.58090
#
# Compressibility (1/GPa) = 0.02422335
#
# Stress axis : x y z
#
# Youngs Moduli (GPa) = 77.91525 73.43418 74.70739
#
# Poissons Ratio (x) = 0.26243 0.02037
# Poissons Ratio (y) = 0.27844 0.29590
# Poissons Ratio (z) = 0.02125 0.29086
#
# Static dielectric constant tensor:
#      x y z
#    x 1.762690 0.000000 0.006560 
#    y 0.000000 1.687960 0.000000 
#    z 0.006560 0.000000 1.734170 
# 
# From -- ./inp_files/51501.got.cif
#   From: 2010.05.17/outbox.cif.g08.bks.cpg/sg11_26_cif.got.tgz:51501.got - 2010.06.03 12:22:45.
