data_PCOD9166261
_publ_section_title
;
Structure prediction by ZEFSAII (Michael W. Deem and Ramdas Pophale) SiO2 
 PCOD9166261
Probable space group: P 21/M
;
_chemical_formula_sum "Si O2"
_cell_formula_units_Z 28
_cell_length_a 9.741876
_cell_length_b 13.735845
_cell_length_c 13.222092
_cell_angle_alpha 90.000000
_cell_angle_beta 36.761665
_cell_angle_gamma 90.000000
_cell_volume 1058.896214
_symmetry_space_group_name_H-M "P 21/M"
_symmetry_group_IT_number 11
_symmetry_cell_setting 'monoclinic'
loop_
_space_group_symop_operation_xyz
x,y,z
-x,1/2+y,-z
-x,-y,-z
x,1/2-y,z
loop_
_atom_site_type_symbol
_atom_site_label
_atom_site_fract_x
_atom_site_fract_y
_atom_site_fract_z
Si Si1 0.948243 0.863937 0.906108
Si Si2 0.621888 0.863807 0.347005
Si Si3 0.130132 0.633768 0.358115
Si Si4 0.080252 0.866980 0.163770
Si Si5 0.119727 0.632523 0.586211
Si Si6 0.548568 0.499272 0.148172
Si Si7 0.462637 0.858894 0.673003
O O1 0.883264 0.750000 0.940663
O O2 0.991634 0.899064 0.763983
O O3 0.186692 0.868911 0.825132
O O4 0.744896 0.926630 0.071736
O O5 0.646936 0.750000 0.304472
O O6 0.880416 0.902825 0.205458
O O7 0.544392 0.870374 0.510451
O O8 0.184954 0.750000 0.330883
O O9 0.004267 0.619763 0.325693
O O10 0.026032 0.608570 0.530141
O O11 0.356515 0.567978 0.215214
O O12 0.109674 0.750000 0.131865
O O13 0.313944 0.923909 0.004282
O O14 0.121338 0.750000 0.594369
O O15 0.387579 0.602342 0.432479
O O16 0.454825 0.431627 0.291798
O O17 0.521068 0.750000 0.671059
#
# Coordination Sequence:
#
# PCOD9166261 Si02
#       7
#     4   4   4   4   4   4   4
#     4   9  19  36  57  84 117 149 185 231 280 330
#     4   8  16  35  61  83 106 142 188 235 279 325
#     4  10  22  40  59  81 112 148 187 232 280 332
#     4  10  22  40  59  81 112 148 187 232 280 332
#     4   8  16  35  61  83 106 142 188 235 279 325
#     4  12  22  34  54  84 115 152 187 224 275 338
#     4   9  19  36  57  84 117 149 185 231 280 330
#
# _framework density 26.442627000000002
#
# number of rings (size 3 to 8) (size 9 to 14) (size 15 to 20)
#    0.000    2.571    0.000    3.429    0.000    3.429 
#    0.000   10.000    0.000    6.857    0.000    0.000 
#    0.000    0.000    0.000    0.000    0.000    0.000 
#
# Total GULP energy -156777.089688 kJ/mol
# GULP energy per Si atom -5599.181775 kJ/mol
# Density = 2.638244 g / cm^3
# Si number density = 26.442627 Si / 1000 Ang^3
#
#
#
# Elastic Constant Matrix: (Units=GPa)
#
#
# Indices 1 2 3 4 5 6 
#
# 1 95.6560 43.7880 17.6912 0.0000 20.8122 0.0000
# 2 43.7880 102.5981 29.0277 0.0000 12.3953 0.0000
# 3 17.6912 29.0277 87.8859 0.0000 11.3069 0.0000
# 4 0.0000 0.0000 0.0000 34.9093 0.0000 -3.4840
# 5 20.8122 12.3953 11.3069 0.0000 38.9695 0.0000
# 6 0.0000 0.0000 0.0000 -3.4840 0.0000 20.1508
#
#
#
# Elastic Compliance Matrix: (Units=1/GPa)
#
#
# Indices 1 2 3 4 5 6 
#
# 1 0.014188 -0.005248 -0.000377 0.000000 -0.005799 0.000000
# 2 -0.005248 0.012929 -0.003163 0.000000 -0.000392 0.000000
# 3 -0.000377 -0.003163 0.012822 0.000000 -0.002513 0.000000
# 4 0.000000 0.000000 0.000000 0.029149 0.000000 0.005040
# 5 -0.005799 -0.000392 -0.002513 0.000000 0.029612 0.000000
# 6 0.000000 0.000000 0.000000 0.005040 0.000000 0.050497
#
#
# Mechanical properties :
#
#
# Convention : Reuss Voigt Hill
#
# Bulk Modulus (GPa) = 44.71702 51.90597 48.31150
# Shear Modulus (GPa) = 28.69815 31.84812 30.27314
#
# Velocity S-wave (km/s) = 3.29796 3.47425 3.38725
# Velocity P-wave (km/s) = 5.60801 5.98048 5.79723
#
# Compressibility (1/GPa) = 0.02236285
#
# Stress axis : x y z
#
# Youngs Moduli (GPa) = 70.48303 77.34561 77.98880
#
# Poissons Ratio (x) = 0.40592 0.02937
# Poissons Ratio (y) = 0.36990 0.24671
# Poissons Ratio (z) = 0.02654 0.24468
#
# Static dielectric constant tensor:
#      x y z
#    x 2.002170 0.000000 0.031380 
#    y 0.000000 2.056850 0.000000 
#    z 0.031380 0.000000 2.112500 
# 
# From -- ./inp_files/53686.got.cif
#   From: 2010.05.17/outbox.cif.g08.bks.cpg/sg11_27_cif.got.tgz:53686.got - 2010.06.03 12:22:45.
