data_PCOD9166059
_publ_section_title
;
Structure prediction by ZEFSAII (Michael W. Deem and Ramdas Pophale) SiO2 
 PCOD9166059
Probable space group: P 21/M
;
_chemical_formula_sum "Si O2"
_cell_formula_units_Z 28
_cell_length_a 16.584496
_cell_length_b 14.155069
_cell_length_c 5.101899
_cell_angle_alpha 90.000000
_cell_angle_beta 74.952055
_cell_angle_gamma 90.000000
_cell_volume 1156.624436
_symmetry_space_group_name_H-M "P 21/M"
_symmetry_group_IT_number 11
_symmetry_cell_setting 'monoclinic'
loop_
_space_group_symop_operation_xyz
x,y,z
-x,1/2+y,-z
-x,-y,-z
x,1/2-y,z
loop_
_atom_site_type_symbol
_atom_site_label
_atom_site_fract_x
_atom_site_fract_y
_atom_site_fract_z
Si Si1 0.880998 0.084230 0.178993
Si Si2 0.410645 0.635144 0.119817
Si Si3 0.954385 0.570453 0.742927
Si Si4 0.690707 0.634787 0.198391
Si Si5 0.219556 0.859761 0.243397
Si Si6 0.508514 0.865257 0.539454
Si Si7 0.211802 0.362706 0.383348
O O1 0.826241 0.082014 0.489016
O O2 0.969545 0.129802 0.195799
O O3 0.828914 0.132234 0.990304
O O4 0.911666 0.987609 0.015275
O O5 0.413434 0.750000 0.112244
O O6 0.315681 0.610788 0.134377
O O7 0.440023 0.606951 0.382493
O O8 0.477323 0.602458 0.848297
O O9 0.880904 0.619033 0.643298
O O10 0.000000 0.500000 0.500000
O O11 0.688492 0.750000 0.189099
O O12 0.599377 0.604004 0.366358
O O13 0.757762 0.604638 0.359060
O O14 0.722875 0.601884 0.890357
O O15 0.217876 0.750000 0.330208
O O16 0.511664 0.750000 0.544858
O O17 0.220880 0.250000 0.386451
#
# Coordination Sequence:
#
# PCOD9166059 Si02
#       7
#     4   4   4   4   4   4   4
#     4  11  24  41  62  84 116 163 200 248 296 358
#     4   9  17  28  49  80 118 156 188 233 287 347
#     4  11  25  45  64  86 118 155 211 244 298 375
#     4   9  18  32  52  85 120 149 190 241 297 353
#     4  11  22  38  59  93 127 154 200 249 299 350
#     4   9  15  27  48  77 117 157 186 227 292 348
#     4  10  22  37  59  88 118 149 190 252 304 344
#
# _framework density 24.208378
#
# number of rings (size 3 to 8) (size 9 to 14) (size 15 to 20)
#    0.000    2.000    1.429    2.143    4.000    6.857 
#    0.000    0.000    0.000    0.000    0.000   20.000 
#    0.000    0.000    0.000    0.000    0.000    0.000 
#
# Total GULP energy -156666.586351 kJ/mol
# GULP energy per Si atom -5595.235227 kJ/mol
# Density = 2.415328 g / cm^3
# Si number density = 24.208378 Si / 1000 Ang^3
#
#
#
# Elastic Constant Matrix: (Units=GPa)
#
#
# Indices 1 2 3 4 5 6 
#
# 1 98.7368 7.8693 8.0609 0.0000 -8.7787 0.0000
# 2 7.8693 50.9439 2.0980 0.0000 0.6078 0.0000
# 3 8.0609 2.0980 122.0248 0.0000 -8.2118 0.0000
# 4 0.0000 0.0000 0.0000 22.9956 0.0000 4.4487
# 5 -8.7787 0.6078 -8.2118 0.0000 44.8066 0.0000
# 6 0.0000 0.0000 0.0000 4.4487 0.0000 58.6354
#
#
#
# Elastic Compliance Matrix: (Units=1/GPa)
#
#
# Indices 1 2 3 4 5 6 
#
# 1 0.010476 -0.001620 -0.000531 0.000000 0.001977 0.000000
# 2 -0.001620 0.019899 -0.000278 0.000000 -0.000638 0.000000
# 3 -0.000531 -0.000278 0.008331 0.000000 0.001427 0.000000
# 4 0.000000 0.000000 0.000000 0.044134 0.000000 -0.003348
# 5 0.001977 -0.000638 0.001427 0.000000 0.022976 0.000000
# 6 0.000000 0.000000 0.000000 -0.003348 0.000000 0.017309
#
#
# Mechanical properties :
#
#
# Convention : Reuss Voigt Hill
#
# Bulk Modulus (GPa) = 29.54426 34.19576 31.87001
# Shear Modulus (GPa) = 35.90270 42.19934 39.05102
#
# Velocity S-wave (km/s) = 3.85524 4.17966 4.02072
# Velocity P-wave (km/s) = 5.66108 6.11956 5.89478
#
# Compressibility (1/GPa) = 0.03384752
#
# Stress axis : x y z
#
# Youngs Moduli (GPa) = 95.45444 50.25440 120.03474
#
# Poissons Ratio (x) = 0.08141 0.06376
# Poissons Ratio (y) = 0.15463 0.03338
# Poissons Ratio (z) = 0.05070 0.01397
#
# Static dielectric constant tensor:
#      x y z
#    x 1.901390 0.000000 0.004040 
#    y 0.000000 2.004170 0.000000 
#    z 0.004040 0.000000 1.867810 
# 
# From -- ./inp_files/6660.got.cif
#   From: 2010.05.17/outbox.cif.g08.bks.cpg/sg11_4_cif.got.tgz:6660.got - 2010.06.03 12:22:45.
