data_PCOD9166446
_publ_section_title
;
Structure prediction by ZEFSAII (Michael W. Deem and Ramdas Pophale) SiO2 
 PCOD9166446
Probable space group: P 21/M
;
_chemical_formula_sum "Si O2"
_cell_formula_units_Z 24
_cell_length_a 4.919919
_cell_length_b 18.230367
_cell_length_c 12.295802
_cell_angle_alpha 90.000000
_cell_angle_beta 79.173922
_cell_angle_gamma 90.000000
_cell_volume 1083.205806
_symmetry_space_group_name_H-M "P 21/M"
_symmetry_group_IT_number 11
_symmetry_cell_setting 'monoclinic'
loop_
_space_group_symop_operation_xyz
x,y,z
-x,1/2+y,-z
-x,-y,-z
x,1/2-y,z
loop_
_atom_site_type_symbol
_atom_site_label
_atom_site_fract_x
_atom_site_fract_y
_atom_site_fract_z
Si Si1 0.092090 0.139909 0.082443
Si Si2 0.672764 0.330605 0.940894
Si Si3 0.351062 0.475966 0.353444
Si Si4 0.734329 0.750000 0.744595
Si Si5 0.722721 0.010185 0.886753
Si Si6 0.703974 0.250000 0.409588
Si Si7 0.197948 0.906834 0.534574
O O1 0.197099 0.181038 0.182239
O O2 0.056166 0.053185 0.103170
O O3 0.344939 0.156276 0.980057
O O4 0.814082 0.169785 0.049793
O O5 0.721069 0.250000 0.888365
O O6 0.798884 0.404029 0.878504
O O7 0.382757 0.487499 0.223747
O O8 0.636316 0.452605 0.386700
O O9 0.245504 0.550646 0.418505
O O10 0.121106 0.415673 0.405817
O O11 0.454227 0.750000 0.695219
O O12 0.971295 0.750000 0.637895
O O13 0.500000 0.000000 0.000000
O O14 0.667823 0.326407 0.474466
#
# Coordination Sequence:
#
# PCOD9166446 Si02
#       7
#     4   4   4   2   4   2   4
#     4  11  21  37  54  82 118 157 196 242 296 354
#     4  11  21  38  54  80 121 158 195 241 291 356
#     4  10  22  43  62  89 123 164 201 253 306 356
#     4  12  22  34  60  86 126 150 198 268 309 338
#     4  10  23  38  63  91 120 164 205 244 294 376
#     4  12  22  34  58  96 112 150 202 256 307 358
#     4  10  22  41  65  87 124 159 205 257 305 359
#
# _framework density 22.156452999999999
#
# number of rings (size 3 to 8) (size 9 to 14) (size 15 to 20)
#    0.000    1.333    1.667    4.500    0.000    6.667 
#    1.500    0.000    0.000    0.000    0.000    0.000 
#    0.000    0.000    0.000    0.000    0.000    0.000 
#
# Total GULP energy -134014.821468 kJ/mol
# GULP energy per Si atom -5583.950894 kJ/mol
# Density = 2.210602 g / cm^3
# Si number density = 22.156453 Si / 1000 Ang^3
#
#
#
# Elastic Constant Matrix: (Units=GPa)
#
#
# Indices 1 2 3 4 5 6 
#
# 1 75.0507 0.2945 10.7857 0.0000 10.4727 0.0000
# 2 0.2945 166.6026 5.8214 0.0000 1.0012 0.0000
# 3 10.7857 5.8214 72.8307 0.0000 4.6613 0.0000
# 4 0.0000 0.0000 0.0000 30.1555 0.0000 8.3402
# 5 10.4727 1.0012 4.6613 0.0000 17.1792 0.0000
# 6 0.0000 0.0000 0.0000 8.3402 0.0000 17.6294
#
#
#
# Elastic Compliance Matrix: (Units=1/GPa)
#
#
# Indices 1 2 3 4 5 6 
#
# 1 0.014754 0.000083 -0.001644 0.000000 -0.008553 0.000000
# 2 0.000083 0.006020 -0.000476 0.000000 -0.000272 0.000000
# 3 -0.001644 -0.000476 0.014193 0.000000 -0.002821 0.000000
# 4 0.000000 0.000000 0.000000 0.038154 0.000000 -0.018050
# 5 -0.008553 -0.000272 -0.002821 0.000000 0.064205 0.000000
# 6 0.000000 0.000000 0.000000 -0.018050 0.000000 0.065262
#
#
# Mechanical properties :
#
#
# Convention : Reuss Voigt Hill
#
# Bulk Modulus (GPa) = 32.37093 38.69855 35.53474
# Shear Modulus (GPa) = 23.04575 32.83166 27.93871
#
# Velocity S-wave (km/s) = 3.22861 3.85361 3.55487
# Velocity P-wave (km/s) = 5.34233 6.10773 5.73780
#
# Compressibility (1/GPa) = 0.03089191
#
# Stress axis : x y z
#
# Youngs Moduli (GPa) = 67.77938 166.10106 70.45949
#
# Poissons Ratio (x) = -0.01375 0.11584
# Poissons Ratio (y) = -0.00561 0.03354
# Poissons Ratio (z) = 0.11144 0.07907
#
# Static dielectric constant tensor:
#      x y z
#    x 1.779710 0.000000 -0.006280 
#    y 0.000000 1.920880 0.000000 
#    z -0.006280 0.000000 1.787470 
# 
# From -- ./inp_files/29780.got.cif
#   From: 2010.05.17/outbox.cif.g08.bks.cpg/sg11_15_cif.got.tgz:29780.got - 2010.06.03 12:22:45.
