data_PCOD9166077
_publ_section_title
;
Structure prediction by ZEFSAII (Michael W. Deem and Ramdas Pophale) SiO2 
 PCOD9166077
Probable space group: P 21/M
;
_chemical_formula_sum "Si O2"
_cell_formula_units_Z 28
_cell_length_a 23.053376
_cell_length_b 10.127483
_cell_length_c 20.489808
_cell_angle_alpha 90.000000
_cell_angle_beta 161.420962
_cell_angle_gamma 90.000000
_cell_volume 1524.181942
_symmetry_space_group_name_H-M "P 21/M"
_symmetry_group_IT_number 11
_symmetry_cell_setting 'monoclinic'
loop_
_space_group_symop_operation_xyz
x,y,z
-x,1/2+y,-z
-x,-y,-z
x,1/2-y,z
loop_
_atom_site_type_symbol
_atom_site_label
_atom_site_fract_x
_atom_site_fract_y
_atom_site_fract_z
Si Si1 0.571340 0.402163 0.778233
Si Si2 0.624878 0.595837 0.949208
Si Si3 0.968608 0.905487 0.405621
Si Si4 0.800366 0.404176 0.476013
Si Si5 0.506738 0.898505 0.448263
Si Si6 0.864356 0.597833 0.657454
Si Si7 0.065222 0.398508 0.123701
O O1 0.630480 0.250000 0.849784
O O2 0.655842 0.501654 0.920267
O O3 0.594118 0.438311 0.726346
O O4 0.353571 0.405047 0.560624
O O5 0.642339 0.750000 0.948691
O O6 0.417943 0.575911 0.753646
O O7 0.773161 0.570413 0.163123
O O8 0.978015 0.750000 0.433746
O O9 0.117052 0.929654 0.507046
O O10 0.000000 0.000000 0.500000
O O11 0.835849 0.250000 0.529445
O O12 0.891273 0.498332 0.626835
O O13 0.446964 0.750000 0.402877
O O14 0.718171 0.890019 0.654523
O O15 0.500000 0.000000 0.500000
O O16 0.911070 0.750000 0.691752
O O17 0.961840 0.561691 0.829603
O O18 0.991055 0.250000 0.035149
O O19 0.000000 0.500000 0.000000
#
# Coordination Sequence:
#
# PCOD9166077 Si02
#       7
#     4   4   4   4   4   4   4
#     4   8  15  30  51  72  96 128 168 212 253 298
#     4   9  18  34  55  77 102 134 170 207 253 305
#     4  10  22  38  54  78 110 136 166 210 252 302
#     4   9  18  34  55  77 102 134 170 207 253 305
#     4   9  18  32  48  69  99 133 170 213 259 308
#     4   8  15  30  51  72  96 128 168 212 253 298
#     4   9  18  32  48  69  99 133 170 213 259 308
#
# _framework density 18.370508999999998
#
# number of rings (size 3 to 8) (size 9 to 14) (size 15 to 20)
#    0.000    3.143    0.000    1.714    0.000    3.429 
#    2.571    2.857    0.000    0.000    0.000    0.000 
#    0.000    0.000    0.000    0.000    0.000    0.000 
#
# Total GULP energy -156081.122283 kJ/mol
# GULP energy per Si atom -5574.325796 kJ/mol
# Density = 1.832870 g / cm^3
# Si number density = 18.370509 Si / 1000 Ang^3
#
#
#
# Elastic Constant Matrix: (Units=GPa)
#
#
# Indices 1 2 3 4 5 6 
#
# 1 144.0962 113.0483 59.1660 0.0000 -36.4764 0.0000
# 2 113.0483 124.8030 64.1545 0.0000 -46.1905 0.0000
# 3 59.1660 64.1545 83.9128 0.0000 -20.3119 0.0000
# 4 0.0000 0.0000 0.0000 23.6944 0.0000 -13.7170
# 5 -36.4764 -46.1905 -20.3119 0.0000 38.3874 0.0000
# 6 0.0000 0.0000 0.0000 -13.7170 0.0000 38.1991
#
#
#
# Elastic Compliance Matrix: (Units=1/GPa)
#
#
# Indices 1 2 3 4 5 6 
#
# 1 0.024787 -0.024710 -0.000093 0.000000 -0.006229 0.000000
# 2 -0.024710 0.045612 -0.011294 0.000000 0.025427 0.000000
# 3 -0.000093 -0.011294 0.019849 0.000000 -0.003176 0.000000
# 4 0.000000 0.000000 0.000000 0.053280 0.000000 0.019132
# 5 -0.006229 0.025427 -0.003176 0.000000 0.049047 0.000000
# 6 0.000000 0.000000 0.000000 0.019132 0.000000 0.033049
#
#
# Mechanical properties :
#
#
# Convention : Reuss Voigt Hill
#
# Bulk Modulus (GPa) = 55.39235 91.72774 73.56005
# Shear Modulus (GPa) = 16.45624 27.81908 22.13766
#
# Velocity S-wave (km/s) = 2.99623 3.89567 3.47517
# Velocity P-wave (km/s) = 6.49525 8.38304 7.49879
#
# Compressibility (1/GPa) = 0.01805303
#
# Stress axis : x y z
#
# Youngs Moduli (GPa) = 40.34374 21.92414 50.38037
#
# Poissons Ratio (x) = 0.54174 0.00470
# Poissons Ratio (y) = 0.99689 0.56901
# Poissons Ratio (z) = 0.00376 0.24762
#
# Static dielectric constant tensor:
#      x y z
#    x 1.625150 0.000000 0.035930 
#    y 0.000000 1.625150 0.000000 
#    z 0.035930 0.000000 1.663090 
# 
# From -- ./inp_files/29104.got.cif
#   From: 2010.05.17/outbox.cif.g08.bks.cpg/sg11_15_cif.got.tgz:29104.got - 2010.06.03 12:22:45.
