data_PCOD9166867
_publ_section_title
;
Structure prediction by ZEFSAII (Michael W. Deem and Ramdas Pophale) SiO2 
 PCOD9166867
Probable space group: P 21/M
;
_chemical_formula_sum "Si O2"
_cell_formula_units_Z 20
_cell_length_a 9.010096
_cell_length_b 18.530343
_cell_length_c 5.042954
_cell_angle_alpha 90.000000
_cell_angle_beta 118.437530
_cell_angle_gamma 90.000000
_cell_volume 740.377397
_symmetry_space_group_name_H-M "P 21/M"
_symmetry_group_IT_number 11
_symmetry_cell_setting 'monoclinic'
loop_
_space_group_symop_operation_xyz
x,y,z
-x,1/2+y,-z
-x,-y,-z
x,1/2-y,z
loop_
_atom_site_type_symbol
_atom_site_label
_atom_site_fract_x
_atom_site_fract_y
_atom_site_fract_z
Si Si1 0.262233 0.035663 0.273453
Si Si2 0.811477 0.831913 0.407024
Si Si3 0.498025 0.878313 0.806982
Si Si4 0.707927 0.332459 0.879049
Si Si5 0.944788 0.087825 0.733477
O O1 0.246287 0.108075 0.432469
O O2 0.210514 0.968314 0.412824
O O3 0.429520 0.045729 0.242236
O O4 0.108441 0.039354 0.932119
O O5 0.818675 0.750000 0.511163
O O6 0.665756 0.837168 0.056374
O O7 0.988480 0.858026 0.431173
O O8 0.374944 0.877598 0.954883
O O9 0.408721 0.839052 0.483830
O O10 0.716402 0.250000 0.971856
O O11 0.885129 0.363017 0.927189
#
# Coordination Sequence:
#
# PCOD9166867 Si02
#       5
#     4   4   4   4   4
#     4  10  23  47  69  98 135 183 231 274 332 412
#     4  11  22  42  71  99 132 179 230 278 338 405
#     4  11  25  44  70  97 135 181 223 279 339 406
#     4  12  25  44  67 102 139 174 224 285 342 397
#     4  10  25  43  67 100 138 181 224 283 338 401
#
# _framework density 27.013252000000001
#
# number of rings (size 3 to 8) (size 9 to 14) (size 15 to 20)
#    0.000    1.200    2.000    3.000    2.800    6.400 
#    0.000    0.000    0.000    0.000    0.000    0.000 
#    0.000    0.000    0.000    0.000    0.000    0.000 
#
# Total GULP energy -112017.109295 kJ/mol
# GULP energy per Si atom -5600.855465 kJ/mol
# Density = 2.695177 g / cm^3
# Si number density = 27.013252 Si / 1000 Ang^3
#
#
#
# Elastic Constant Matrix: (Units=GPa)
#
#
# Indices 1 2 3 4 5 6 
#
# 1 149.5383 -11.6683 27.5843 0.0000 -19.8125 0.0000
# 2 -11.6683 118.0328 13.8922 0.0000 -17.7137 0.0000
# 3 27.5843 13.8922 95.4973 0.0000 -17.0748 0.0000
# 4 0.0000 0.0000 0.0000 36.9170 0.0000 -8.9278
# 5 -19.8125 -17.7137 -17.0748 0.0000 54.9918 0.0000
# 6 0.0000 0.0000 0.0000 -8.9278 0.0000 27.1843
#
#
#
# Elastic Compliance Matrix: (Units=1/GPa)
#
#
# Indices 1 2 3 4 5 6 
#
# 1 0.007479 0.001344 -0.001902 0.000000 0.002537 0.000000
# 2 0.001344 0.009206 -0.001176 0.000000 0.003085 0.000000
# 3 -0.001902 -0.001176 0.011648 0.000000 0.002553 0.000000
# 4 0.000000 0.000000 0.000000 0.029425 0.000000 0.009664
# 5 0.002537 0.003085 0.002553 0.000000 0.020885 0.000000
# 6 0.000000 0.000000 0.000000 0.009664 0.000000 0.039960
#
#
# Mechanical properties :
#
#
# Convention : Reuss Voigt Hill
#
# Bulk Modulus (GPa) = 40.21642 46.96500 43.59071
# Shear Modulus (GPa) = 38.35530 46.03595 42.19563
#
# Velocity S-wave (km/s) = 3.77220 4.13267 3.95655
# Velocity P-wave (km/s) = 5.82174 6.34000 6.08639
#
# Compressibility (1/GPa) = 0.02486547
#
# Stress axis : x y z
#
# Youngs Moduli (GPa) = 133.70541 108.61998 85.84834
#
# Poissons Ratio (x) = -0.14598 0.16331
# Poissons Ratio (y) = -0.17970 0.10095
# Poissons Ratio (z) = 0.25434 0.12773
#
# Static dielectric constant tensor:
#      x y z
#    x 2.095420 0.000000 0.081930 
#    y 0.000000 2.056310 0.000000 
#    z 0.081930 0.000000 2.161160 
# 
# From -- ./inp_files/2203.got.cif
#   From: 2010.05.17/outbox.cif.g08.bks.cpg/sg11_2_cif.got.tgz:2203.got - 2010.06.03 12:22:45.
