data_PCOD9166490
_publ_section_title
;
Structure prediction by ZEFSAII (Michael W. Deem and Ramdas Pophale) SiO2 
 PCOD9166490
Probable space group: P 21/M
;
_chemical_formula_sum "Si O2"
_cell_formula_units_Z 20
_cell_length_a 7.689657
_cell_length_b 22.416607
_cell_length_c 9.329306
_cell_angle_alpha 90.000000
_cell_angle_beta 32.614421
_cell_angle_gamma 90.000000
_cell_volume 866.764463
_symmetry_space_group_name_H-M "P 21/M"
_symmetry_group_IT_number 11
_symmetry_cell_setting 'monoclinic'
loop_
_space_group_symop_operation_xyz
x,y,z
-x,1/2+y,-z
-x,-y,-z
x,1/2-y,z
loop_
_atom_site_type_symbol
_atom_site_label
_atom_site_fract_x
_atom_site_fract_y
_atom_site_fract_z
Si Si1 0.937136 0.619630 0.145574
Si Si2 0.636851 0.622979 0.814077
Si Si3 0.987355 0.750000 0.145445
Si Si4 0.783286 0.534968 0.482051
Si Si5 0.260136 0.449547 0.984272
Si Si6 0.259634 0.250000 0.366724
O O1 0.283277 0.621846 0.985416
O O2 0.835496 0.688215 0.197966
O O3 0.702663 0.583204 0.414601
O O4 0.948749 0.584288 0.989756
O O5 0.847849 0.576017 0.575474
O O6 0.777455 0.689095 0.696283
O O7 0.613010 0.599122 0.991242
O O8 0.957203 0.750000 0.340053
O O9 0.365405 0.750000 0.842122
O O10 0.519611 0.487810 0.716283
O O11 0.068133 0.497427 0.212703
#
# Coordination Sequence:
#
# PCOD9166490 Si02
#       6
#     4   4   2   4   4   2
#     4  11  25  44  68  93 131 169 213 264 316 375
#     4  11  25  44  68  93 131 169 213 264 316 375
#     4  10  22  41  68  91 121 171 214 255 317 373
#     4  12  24  43  66  95 132 172 206 262 322 380
#     4  12  28  39  66 101 128 166 216 258 320 382
#     4  10  22  41  68  91 121 171 214 255 317 373
#
# _framework density 23.07432
#
# number of rings (size 3 to 8) (size 9 to 14) (size 15 to 20)
#    0.000    0.800    4.000    2.400    5.600    0.800 
#    0.000    0.000    0.000    7.200    0.000    0.000 
#    0.000    0.000    0.000    0.000    0.000    0.000 
#
# Total GULP energy -111914.650385 kJ/mol
# GULP energy per Si atom -5595.732519 kJ/mol
# Density = 2.302180 g / cm^3
# Si number density = 23.074320 Si / 1000 Ang^3
#
#
#
# Elastic Constant Matrix: (Units=GPa)
#
#
# Indices 1 2 3 4 5 6 
#
# 1 64.6277 18.0153 13.9787 0.0000 13.3853 0.0000
# 2 18.0153 132.1306 3.1921 0.0000 3.6525 0.0000
# 3 13.9787 3.1921 96.0551 0.0000 -4.1024 0.0000
# 4 0.0000 0.0000 0.0000 24.2706 0.0000 6.6279
# 5 13.3853 3.6525 -4.1024 0.0000 24.0232 0.0000
# 6 0.0000 0.0000 0.0000 6.6279 0.0000 -11.4424
#
#
#
# Elastic Compliance Matrix: (Units=1/GPa)
#
#
# Indices 1 2 3 4 5 6 
#
# 1 0.019009 -0.002217 -0.003154 0.000000 -0.010793 0.000000
# 2 -0.002217 0.007868 0.000063 0.000000 0.000050 0.000000
# 3 -0.003154 0.000063 0.011023 0.000000 0.003630 0.000000
# 4 0.000000 0.000000 0.000000 0.035575 0.000000 0.020606
# 5 -0.010793 0.000050 0.003630 0.000000 0.048252 0.000000
# 6 0.000000 0.000000 0.000000 0.020606 0.000000 -0.075458
#
#
# Mechanical properties :
#
#
# Convention : Reuss Voigt Hill
#
# Bulk Modulus (GPa) = 36.65140 40.35393 38.50266
# Shear Modulus (GPa) = 75.78323 24.54542 50.16432
#
# Velocity S-wave (km/s) = 5.73711 3.26506 4.66771
# Velocity P-wave (km/s) = 7.73333 5.63390 6.76555
#
# Compressibility (1/GPa) = 0.02728409
#
# Stress axis : x y z
#
# Youngs Moduli (GPa) = 52.60744 127.10255 90.72317
#
# Poissons Ratio (x) = 0.28181 0.28610
# Poissons Ratio (y) = 0.11664 -0.00575
# Poissons Ratio (z) = 0.16590 -0.00805
#
# Static dielectric constant tensor:
#      x y z
#    x 1.886070 0.000000 -0.051430 
#    y 0.000000 1.898960 0.000000 
#    z -0.051430 0.000000 1.863550 
# 
# From -- ./inp_files/13914.got.cif
#   From: 2010.05.17/outbox.cif.g08.bks.cpg/sg11_7_cif.got.tgz:13914.got - 2010.06.03 12:22:45.
