data_PCOD9166177
_publ_section_title
;
Structure prediction by ZEFSAII (Michael W. Deem and Ramdas Pophale) SiO2 
 PCOD9166177
Probable space group: P 21/M
;
_chemical_formula_sum "Si O2"
_cell_formula_units_Z 32
_cell_length_a 29.604980
_cell_length_b 7.944092
_cell_length_c 12.391537
_cell_angle_alpha 90.000000
_cell_angle_beta 149.745881
_cell_angle_gamma 90.000000
_cell_volume 1468.329340
_symmetry_space_group_name_H-M "P 21/M"
_symmetry_group_IT_number 11
_symmetry_cell_setting 'monoclinic'
loop_
_space_group_symop_operation_xyz
x,y,z
-x,1/2+y,-z
-x,-y,-z
x,1/2-y,z
loop_
_atom_site_type_symbol
_atom_site_label
_atom_site_fract_x
_atom_site_fract_y
_atom_site_fract_z
Si Si1 0.781484 0.456212 0.537169
Si Si2 0.013470 0.557225 0.650217
Si Si3 0.314333 0.045501 0.045165
Si Si4 0.844813 0.052081 0.435426
Si Si5 0.422990 0.952135 0.925932
Si Si6 0.159275 0.945297 0.112818
Si Si7 0.308667 0.055115 0.274074
Si Si8 0.509122 0.553302 0.701106
O O1 0.781658 0.250000 0.538833
O O2 0.830063 0.508665 0.527131
O O3 0.676613 0.505901 0.316667
O O4 0.829749 0.518860 0.745039
O O5 0.040574 0.750000 0.694643
O O6 0.921536 0.539639 0.526462
O O7 0.000000 0.500000 0.500000
O O8 0.089771 0.475403 0.883939
O O9 0.311856 0.250000 0.034519
O O10 0.285299 0.995016 0.105182
O O11 0.415994 0.992873 0.228970
O O12 0.248100 0.972915 0.819639
O O13 0.866938 0.250000 0.483257
O O14 0.422060 0.750000 0.936503
O O15 0.500000 0.000000 0.000000
O O16 0.447060 0.031631 0.090703
O O17 0.133014 0.750000 0.074447
O O18 0.256034 0.954034 0.255844
O O19 0.282480 0.250000 0.230468
O O20 0.415305 0.041068 0.504499
O O21 0.490875 0.750000 0.643783
#
# Coordination Sequence:
#
# PCOD9166177 Si02
#       8
#     4   4   4   4   4   4   4   4
#     4   9  20  39  61  86 119 157 201 250 302 360
#     4  11  24  42  66  95 125 160 201 250 305 369
#     4  10  22  39  59  86 122 160 204 257 306 364
#     4  11  22  39  65  92 121 161 202 251 311 370
#     4  11  21  36  58  86 120 162 209 258 307 364
#     4  10  22  42  64  87 119 159 202 248 304 366
#     4  11  23  38  58  87 121 158 203 256 310 365
#     4  11  22  37  57  84 119 161 205 252 307 367
#
# _framework density 21.793476999999999
#
# number of rings (size 3 to 8) (size 9 to 14) (size 15 to 20)
#    0.000    1.500    1.250    3.750    0.000    6.000 
#    0.000    1.875    0.000    0.000    0.000    0.000 
#    0.000    0.000    0.000    0.000    0.000    0.000 
#
# Total GULP energy -178891.470332 kJ/mol
# GULP energy per Si atom -5590.358448 kJ/mol
# Density = 2.174387 g / cm^3
# Si number density = 21.793477 Si / 1000 Ang^3
#
#
#
# Elastic Constant Matrix: (Units=GPa)
#
#
# Indices 1 2 3 4 5 6 
#
# 1 119.6528 -4.0782 52.1227 0.0000 -26.5429 0.0000
# 2 -4.0782 25.6231 1.6928 0.0000 -7.4389 0.0000
# 3 52.1227 1.6928 111.5849 0.0000 -27.7868 0.0000
# 4 0.0000 0.0000 0.0000 18.1506 0.0000 -2.1895
# 5 -26.5429 -7.4389 -27.7868 0.0000 41.8876 0.0000
# 6 0.0000 0.0000 0.0000 -2.1895 0.0000 -1.5595
#
#
#
# Elastic Compliance Matrix: (Units=1/GPa)
#
#
# Indices 1 2 3 4 5 6 
#
# 1 0.011407 0.003580 -0.004102 0.000000 0.005143 0.000000
# 2 0.003580 0.042464 0.000151 0.000000 0.009910 0.000000
# 3 -0.004102 0.000151 0.012260 0.000000 0.005561 0.000000
# 4 0.000000 0.000000 0.000000 0.047115 0.000000 -0.066148
# 5 0.005143 0.009910 0.005561 0.000000 0.032581 0.000000
# 6 0.000000 0.000000 0.000000 -0.066148 0.000000 -0.548357
#
#
# Mechanical properties :
#
#
# Convention : Reuss Voigt Hill
#
# Bulk Modulus (GPa) = 15.29283 39.59284 27.44284
# Shear Modulus (GPa) = -13.15823 25.50395 6.17286
#
# Velocity S-wave (km/s) = -2.45984 3.42461 1.68481
# Velocity P-wave (km/s) = 1.01752 5.81756 4.05023
#
# Compressibility (1/GPa) = 0.06539011
#
# Stress axis : x y z
#
# Youngs Moduli (GPa) = 87.66261 23.54925 81.56382
#
# Poissons Ratio (x) = -0.08430 0.33458
# Poissons Ratio (y) = -0.31381 -0.01235
# Poissons Ratio (z) = 0.35960 -0.00357
#
# Static dielectric constant tensor:
#      x y z
#    x 1.773200 0.000000 -0.015060 
#    y 0.000000 1.828350 0.000000 
#    z -0.015060 0.000000 1.807910 
# 
# From -- ./inp_files/45265.got.cif
#   From: 2010.05.17/outbox.cif.g08.bks.cpg/sg11_23_cif.got.tgz:45265.got - 2010.06.03 12:22:45.
