data_PCOD9166085
_publ_section_title
;
Structure prediction by ZEFSAII (Michael W. Deem and Ramdas Pophale) SiO2 
 PCOD9166085
Probable space group: P 21/M
;
_chemical_formula_sum "Si O2"
_cell_formula_units_Z 32
_cell_length_a 5.522967
_cell_length_b 12.860533
_cell_length_c 22.806442
_cell_angle_alpha 90.000000
_cell_angle_beta 112.544503
_cell_angle_gamma 90.000000
_cell_volume 1496.113082
_symmetry_space_group_name_H-M "P 21/M"
_symmetry_group_IT_number 11
_symmetry_cell_setting 'monoclinic'
loop_
_space_group_symop_operation_xyz
x,y,z
-x,1/2+y,-z
-x,-y,-z
x,1/2-y,z
loop_
_atom_site_type_symbol
_atom_site_label
_atom_site_fract_x
_atom_site_fract_y
_atom_site_fract_z
Si Si1 0.999342 0.460710 0.590025
Si Si2 0.713002 0.368624 0.464155
Si Si3 0.777140 0.869454 0.185532
Si Si4 0.832584 0.873570 0.880946
Si Si5 0.588199 0.639858 0.302979
Si Si6 0.762863 0.963657 0.754531
Si Si7 0.582350 0.024966 0.073575
Si Si8 0.150715 0.359859 0.349251
O O1 0.748587 0.413201 0.533323
O O2 0.967794 0.530454 0.644498
O O3 0.130514 0.547120 0.559844
O O4 0.175247 0.366571 0.629165
O O5 0.819790 0.250000 0.472066
O O6 0.423112 0.361794 0.410506
O O7 0.844776 0.750000 0.176069
O O8 0.655950 0.864183 0.239873
O O9 0.607152 0.923332 0.118286
O O10 0.016858 0.949467 0.213454
O O11 0.852498 0.750000 0.880736
O O12 0.683902 0.918106 0.809679
O O13 0.649755 0.907599 0.918196
O O14 0.129152 0.920419 0.904294
O O15 0.444473 0.750000 0.299485
O O16 0.445441 0.531618 0.300046
O O17 0.830241 0.868577 0.718678
O O18 0.500000 0.000000 0.000000
O O19 0.015800 0.250000 0.352146
#
# Coordination Sequence:
#
# PCOD9166085 Si02
#       8
#     4   4   4   4   4   4   4   4
#     4  11  21  38  59  82 116 153 204 259 312 378
#     4  10  22  38  56  81 115 155 199 254 318 382
#     4  10  22  40  63  90 125 167 211 262 319 381
#     4  11  24  43  69 100 138 177 221 273 328 389
#     4  11  21  37  60  86 116 157 206 258 315 375
#     4  11  21  40  60  92 124 163 206 265 317 386
#     4  11  24  45  69 101 138 179 224 273 324 390
#     4  11  22  37  58  84 116 157 202 249 314 383
#
# _framework density 21.388756000000001
#
# number of rings (size 3 to 8) (size 9 to 14) (size 15 to 20)
#    0.000    1.250    3.750    2.625    0.000    1.000 
#    0.000    1.250    0.000    0.000    0.000    0.000 
#    0.000    0.000    0.000    0.000    0.000    0.000 
#
# Total GULP energy -178273.034612 kJ/mol
# GULP energy per Si atom -5571.032332 kJ/mol
# Density = 2.134007 g / cm^3
# Si number density = 21.388756 Si / 1000 Ang^3
#
#
#
# Elastic Constant Matrix: (Units=GPa)
#
#
# Indices 1 2 3 4 5 6 
#
# 1 41.0543 21.8184 -5.5408 0.0000 -3.0602 0.0000
# 2 21.8184 155.5991 37.3376 0.0000 3.5416 0.0000
# 3 -5.5408 37.3376 74.9587 0.0000 -3.3115 0.0000
# 4 0.0000 0.0000 0.0000 25.0317 0.0000 -0.1873
# 5 -3.0602 3.5416 -3.3115 0.0000 29.6911 0.0000
# 6 0.0000 0.0000 0.0000 -0.1873 0.0000 11.7361
#
#
#
# Elastic Compliance Matrix: (Units=1/GPa)
#
#
# Indices 1 2 3 4 5 6 
#
# 1 0.028071 -0.005190 0.004839 0.000000 0.004052 0.000000
# 2 -0.005190 0.008308 -0.004612 0.000000 -0.002040 0.000000
# 3 0.004839 -0.004612 0.016121 0.000000 0.002847 0.000000
# 4 0.000000 0.000000 0.000000 0.039954 0.000000 0.000638
# 5 0.004052 -0.002040 0.002847 0.000000 0.034659 0.000000
# 6 0.000000 0.000000 0.000000 0.000638 0.000000 0.085217
#
#
# Mechanical properties :
#
#
# Convention : Reuss Voigt Hill
#
# Bulk Modulus (GPa) = 23.48789 42.09361 32.79075
# Shear Modulus (GPa) = 21.14644 27.82492 24.48568
#
# Velocity S-wave (km/s) = 3.14772 3.61073 3.38715
# Velocity P-wave (km/s) = 4.92099 6.09148 5.53725
#
# Compressibility (1/GPa) = 0.04257513
#
# Stress axis : x y z
#
# Youngs Moduli (GPa) = 35.62379 120.37253 62.02970
#
# Poissons Ratio (x) = 0.62468 -0.30016
# Poissons Ratio (y) = 0.18487 0.28607
# Poissons Ratio (z) = -0.17238 0.55513
#
# Static dielectric constant tensor:
#      x y z
#    x 1.903340 0.000000 0.000450 
#    y 0.000000 1.744750 0.000000 
#    z 0.000450 0.000000 1.781830 
# 
# From -- ./inp_files/9429.got.cif
#   From: 2010.05.17/outbox.cif.g08.bks.cpg/sg11_5_cif.got.tgz:9429.got - 2010.06.03 12:22:45.
