data_PCOD9166514
_publ_section_title
;
Structure prediction by ZEFSAII (Michael W. Deem and Ramdas Pophale) SiO2 
 PCOD9166514
Probable space group: P 21/M
;
_chemical_formula_sum "Si O2"
_cell_formula_units_Z 32
_cell_length_a 18.613553
_cell_length_b 8.613461
_cell_length_c 31.016355
_cell_angle_alpha 90.000000
_cell_angle_beta 19.014838
_cell_angle_gamma 90.000000
_cell_volume 1620.190748
_symmetry_space_group_name_H-M "P 21/M"
_symmetry_group_IT_number 11
_symmetry_cell_setting 'monoclinic'
loop_
_space_group_symop_operation_xyz
x,y,z
-x,1/2+y,-z
-x,-y,-z
x,1/2-y,z
loop_
_atom_site_type_symbol
_atom_site_label
_atom_site_fract_x
_atom_site_fract_y
_atom_site_fract_z
Si Si1 0.508368 0.062703 0.623750
Si Si2 0.329063 0.062214 0.632051
Si Si3 0.555839 0.936470 0.921364
Si Si4 0.016166 0.434418 0.626026
Si Si5 0.604540 0.435111 0.136583
Si Si6 0.164895 0.938989 0.079270
Si Si7 0.865414 0.065128 0.616410
Si Si8 0.247210 0.064214 0.857322
O O1 0.507331 0.250000 0.625240
O O2 0.399707 0.014162 0.640251
O O3 0.373716 0.008681 0.742456
O O4 0.758635 0.005163 0.484228
O O5 0.332817 0.250000 0.628271
O O6 0.076110 0.010578 0.768420
O O7 0.500000 0.000000 0.500000
O O8 0.555003 0.750000 0.921937
O O9 0.795873 0.995376 0.771491
O O10 0.365838 0.990279 0.995707
O O11 0.500000 0.000000 0.000000
O O12 0.016402 0.250000 0.632894
O O13 0.996405 0.464693 0.586102
O O14 0.618221 0.250000 0.134273
O O15 0.369744 0.481058 0.249855
O O16 0.632907 0.512479 0.166870
O O17 0.785783 0.484228 0.998230
O O18 0.166314 0.750000 0.078894
O O19 0.832182 0.250000 0.631201
O O20 0.000000 0.000000 0.500000
O O21 0.238827 0.250000 0.860357
O O22 0.000000 0.000000 0.000000
#
# Coordination Sequence:
#
# PCOD9166514 Si02
#       8
#     4   4   4   4   4   4   4   4
#     4  10  23  42  63  88 126 168 207 254 314 380
#     4  10  22  42  64  90 119 156 203 252 306 367
#     4  11  23  41  65  94 125 165 208 257 317 378
#     4  11  24  41  62  91 128 166 210 262 310 371
#     4  11  21  38  63  90 121 162 204 252 312 375
#     4   9  20  40  65  89 122 163 202 247 312 380
#     4  11  23  38  58  88 124 164 208 256 307 368
#     4  11  23  40  63  92 125 166 212 262 314 373
#
# _framework density 19.750761000000001
#
# number of rings (size 3 to 8) (size 9 to 14) (size 15 to 20)
#    0.000    1.500    1.250    3.375    1.750    7.000 
#    0.000    3.125    0.000    0.000    0.000    0.000 
#    0.000    0.000    0.000    0.000    0.000    0.000 
#
# Total GULP energy -178883.684075 kJ/mol
# GULP energy per Si atom -5590.115127 kJ/mol
# Density = 1.970581 g / cm^3
# Si number density = 19.750761 Si / 1000 Ang^3
#
#
#
# Elastic Constant Matrix: (Units=GPa)
#
#
# Indices 1 2 3 4 5 6 
#
# 1 110.3005 24.1736 58.5266 0.0000 8.0593 0.0000
# 2 24.1736 20.1252 16.4935 0.0000 5.1422 0.0000
# 3 58.5266 16.4935 159.7751 0.0000 6.3934 0.0000
# 4 0.0000 0.0000 0.0000 33.8730 0.0000 1.1701
# 5 8.0593 5.1422 6.3934 0.0000 40.7523 0.0000
# 6 0.0000 0.0000 0.0000 1.1701 0.0000 30.1366
#
#
#
# Elastic Compliance Matrix: (Units=1/GPa)
#
#
# Indices 1 2 3 4 5 6 
#
# 1 0.014090 -0.013754 -0.003723 0.000000 -0.000467 0.000000
# 2 -0.013754 0.069210 -0.001877 0.000000 -0.005718 0.000000
# 3 -0.003723 -0.001877 0.007826 0.000000 -0.000255 0.000000
# 4 0.000000 0.000000 0.000000 0.029562 0.000000 -0.001148
# 5 -0.000467 -0.005718 -0.000255 0.000000 0.025392 0.000000
# 6 0.000000 0.000000 0.000000 -0.001148 0.000000 0.033227
#
#
# Mechanical properties :
#
#
# Convention : Reuss Voigt Hill
#
# Bulk Modulus (GPa) = 19.07757 54.28758 36.68257
# Shear Modulus (GPa) = 21.23251 33.68617 27.45934
#
# Velocity S-wave (km/s) = 3.28231 4.13433 3.73271
# Velocity P-wave (km/s) = 4.90356 7.09480 6.09840
#
# Compressibility (1/GPa) = 0.05241757
#
# Stress axis : x y z
#
# Youngs Moduli (GPa) = 70.97273 14.44885 127.77172
#
# Poissons Ratio (x) = 0.19873 0.47566
# Poissons Ratio (y) = 0.97616 0.23989
# Poissons Ratio (z) = 0.26421 0.02713
#
# Static dielectric constant tensor:
#      x y z
#    x 1.694830 0.000000 0.002730 
#    y 0.000000 1.673950 0.000000 
#    z 0.002730 0.000000 1.679010 
# 
# From -- ./inp_files/73497.got.cif
#   From: 2010.05.17/outbox.cif.g08.bks.cpg/sg11_37_cif.got.tgz:73497.got - 2010.06.03 12:22:45.
