data_PCOD9166275
_publ_section_title
;
Structure prediction by ZEFSAII (Michael W. Deem and Ramdas Pophale) SiO2 
 PCOD9166275
Probable space group: P 21/M
;
_chemical_formula_sum "Si O2"
_cell_formula_units_Z 26
_cell_length_a 15.162653
_cell_length_b 9.775087
_cell_length_c 12.644624
_cell_angle_alpha 90.000000
_cell_angle_beta 136.638875
_cell_angle_gamma 90.000000
_cell_volume 1286.773143
_symmetry_space_group_name_H-M "P 21/M"
_symmetry_group_IT_number 11
_symmetry_cell_setting 'monoclinic'
loop_
_space_group_symop_operation_xyz
x,y,z
-x,1/2+y,-z
-x,-y,-z
x,1/2-y,z
loop_
_atom_site_type_symbol
_atom_site_label
_atom_site_fract_x
_atom_site_fract_y
_atom_site_fract_z
Si Si1 0.134381 0.909397 0.234645
Si Si2 0.023921 0.250000 0.548820
Si Si3 0.307901 0.590647 0.959684
Si Si4 0.104542 0.590502 0.955811
Si Si5 0.821240 0.479043 0.370452
Si Si6 0.574577 0.089936 0.480400
Si Si7 0.543439 0.089346 0.209995
O O1 0.113084 0.750000 0.241526
O O2 0.275726 0.950630 0.394084
O O3 0.132143 0.923034 0.104692
O O4 0.019272 0.000352 0.178003
O O5 0.119010 0.371427 0.585347
O O6 0.923595 0.370669 0.503321
O O7 0.345292 0.750000 0.000292
O O8 0.226927 0.550937 0.992943
O O9 0.212634 0.572462 0.778090
O O10 0.431361 0.495209 0.055999
O O11 0.078118 0.750000 0.910261
O O12 0.684540 0.468606 0.309309
O O13 0.571573 0.250000 0.509751
O O14 0.519133 0.078788 0.314445
O O15 0.500000 0.000000 0.500000
O O16 0.541850 0.250000 0.178545
#
# Coordination Sequence:
#
# PCOD9166275 Si02
#       7
#     4   2   4   4   4   4   4
#     4   9  18  35  57  81 116 156 198 254 309 365
#     4  10  24  42  68  90 128 166 204 260 312 372
#     4  11  23  40  63  91 124 167 211 259 310 375
#     4   9  19  35  55  86 117 152 204 251 302 364
#     4  11  23  45  64  96 128 165 209 257 316 375
#     4  10  22  40  60  89 122 165 207 257 312 367
#     4  11  24  41  63  93 128 164 214 263 311 378
#
# _framework density 20.205583000000001
#
# number of rings (size 3 to 8) (size 9 to 14) (size 15 to 20)
#    0.000    1.846    1.538    1.385    2.154    5.538 
#    2.769    3.077    0.000    0.000    0.000    0.000 
#    0.000    0.000    0.000    0.000    0.000    0.000 
#
# Total GULP energy -144767.997594 kJ/mol
# GULP energy per Si atom -5567.999907 kJ/mol
# Density = 2.015959 g / cm^3
# Si number density = 20.205583 Si / 1000 Ang^3
#
#
#
# Elastic Constant Matrix: (Units=GPa)
#
#
# Indices 1 2 3 4 5 6 
#
# 1 89.5793 39.2643 10.1152 0.0000 23.2614 0.0000
# 2 39.2643 74.8781 20.0293 0.0000 17.4537 0.0000
# 3 10.1152 20.0293 43.3363 0.0000 11.3768 0.0000
# 4 0.0000 0.0000 0.0000 19.8715 0.0000 14.7960
# 5 23.2614 17.4537 11.3768 0.0000 18.4618 0.0000
# 6 0.0000 0.0000 0.0000 14.7960 0.0000 24.7770
#
#
#
# Elastic Compliance Matrix: (Units=1/GPa)
#
#
# Indices 1 2 3 4 5 6 
#
# 1 0.018598 -0.006093 0.003716 0.000000 -0.019963 0.000000
# 2 -0.006093 0.019850 -0.005775 0.000000 -0.007530 0.000000
# 3 0.003716 -0.005775 0.029435 0.000000 -0.017361 0.000000
# 4 0.000000 0.000000 0.000000 0.090615 0.000000 -0.054112
# 5 -0.019963 -0.007530 -0.017361 0.000000 0.097136 0.000000
# 6 0.000000 0.000000 0.000000 -0.054112 0.000000 0.072674
#
#
# Mechanical properties :
#
#
# Convention : Reuss Voigt Hill
#
# Bulk Modulus (GPa) = 19.38816 38.51236 28.95026
# Shear Modulus (GPa) = 13.81956 21.84772 17.83364
#
# Velocity S-wave (km/s) = 2.61808 3.29184 2.97410
# Velocity P-wave (km/s) = 4.33075 5.79223 5.11396
#
# Compressibility (1/GPa) = 0.05157788
#
# Stress axis : x y z
#
# Youngs Moduli (GPa) = 53.76835 50.37709 33.97326
#
# Poissons Ratio (x) = 0.30696 -0.12624
# Poissons Ratio (y) = 0.32762 0.19621
# Poissons Ratio (z) = -0.19979 0.29095
#
# Static dielectric constant tensor:
#      x y z
#    x 1.727380 0.000000 -0.034220 
#    y 0.000000 1.676950 0.000000 
#    z -0.034220 0.000000 1.736220 
# 
# From -- ./inp_files/51962.got.cif
#   From: 2010.05.17/outbox.cif.g08.bks.cpg/sg11_26_cif.got.tgz:51962.got - 2010.06.03 12:22:45.
