data_PCOD9166143
_publ_section_title
;
Structure prediction by ZEFSAII (Michael W. Deem and Ramdas Pophale) SiO2 
 PCOD9166143
Probable space group: P 21/M
;
_chemical_formula_sum "Si O2"
_cell_formula_units_Z 30
_cell_length_a 17.282753
_cell_length_b 14.329277
_cell_length_c 11.131655
_cell_angle_alpha 90.000000
_cell_angle_beta 32.525448
_cell_angle_gamma 90.000000
_cell_volume 1482.231694
_symmetry_space_group_name_H-M "P 21/M"
_symmetry_group_IT_number 11
_symmetry_cell_setting 'monoclinic'
loop_
_space_group_symop_operation_xyz
x,y,z
-x,1/2+y,-z
-x,-y,-z
x,1/2-y,z
loop_
_atom_site_type_symbol
_atom_site_label
_atom_site_fract_x
_atom_site_fract_y
_atom_site_fract_z
Si Si1 0.220105 0.750000 0.583356
Si Si2 0.586806 0.147188 0.114958
Si Si3 0.033500 0.355879 0.599563
Si Si4 0.252188 0.895458 0.335399
Si Si5 0.291739 0.426577 0.407794
Si Si6 0.234132 0.975406 0.957938
Si Si7 0.918561 0.639097 0.738622
Si Si8 0.153721 0.553615 0.792661
O O1 0.287169 0.829384 0.401180
O O2 0.151414 0.662684 0.754599
O O3 0.595636 0.250000 0.159060
O O4 0.430659 0.130242 0.262960
O O5 0.628979 0.067854 0.154749
O O6 0.696832 0.141955 0.859043
O O7 0.979723 0.250000 0.666571
O O8 0.159076 0.366447 0.532509
O O9 0.094735 0.376774 0.386598
O O10 0.902702 0.422482 0.803856
O O11 0.077714 0.897279 0.565157
O O12 0.317858 0.997321 0.268932
O O13 0.241130 0.490493 0.584305
O O14 0.226801 0.954451 0.827289
O O15 0.201855 0.082953 0.031509
O O16 0.917624 0.750000 0.764689
O O17 0.000000 0.500000 0.000000
#
# Coordination Sequence:
#
# PCOD9166143 Si02
#       8
#     2   4   4   4   4   4   4   4
#     4  10  22  38  64  92 136 164 216 270 320 402
#     4  12  25  41  66  98 131 175 217 271 338 399
#     4  11  21  36  62  96 133 166 214 278 329 381
#     4  11  19  39  65  94 128 173 214 268 339 392
#     4  11  24  42  61  93 135 174 216 278 323 390
#     4  12  23  40  66  95 131 171 226 264 327 396
#     4  11  21  37  65  99 133 165 218 286 338 386
#     4  11  24  42  66  99 128 174 223 269 325 387
#
# _framework density 20.239750000000001
#
# number of rings (size 3 to 8) (size 9 to 14) (size 15 to 20)
#    0.000    0.800    5.333    3.200    1.867    0.533 
#    1.200    0.000    5.867    0.000    0.000    0.000 
#    0.000    0.000    0.000    0.000    0.000    0.000 
#
# Total GULP energy -167031.038753 kJ/mol
# GULP energy per Si atom -5567.701292 kJ/mol
# Density = 2.019368 g / cm^3
# Si number density = 20.239750 Si / 1000 Ang^3
#
#
#
# Elastic Constant Matrix: (Units=GPa)
#
#
# Indices 1 2 3 4 5 6 
#
# 1 77.0511 12.3245 11.0584 0.0000 -0.8086 0.0000
# 2 12.3245 73.2018 11.7090 0.0000 7.6142 0.0000
# 3 11.0584 11.7090 16.2006 0.0000 -1.3895 0.0000
# 4 0.0000 0.0000 0.0000 15.8751 0.0000 7.4395
# 5 -0.8086 7.6142 -1.3895 0.0000 32.9924 0.0000
# 6 0.0000 0.0000 0.0000 7.4395 0.0000 30.3476
#
#
#
# Elastic Compliance Matrix: (Units=1/GPa)
#
#
# Indices 1 2 3 4 5 6 
#
# 1 0.014449 -0.000993 -0.009128 0.000000 0.000199 0.000000
# 2 -0.000993 0.016074 -0.011300 0.000000 -0.004210 0.000000
# 3 -0.009128 -0.011300 0.076606 0.000000 0.005611 0.000000
# 4 0.000000 0.000000 0.000000 0.071168 0.000000 -0.017446
# 5 0.000199 -0.004210 0.005611 0.000000 0.031523 0.000000
# 6 0.000000 0.000000 0.000000 -0.017446 0.000000 0.037228
#
#
# Mechanical properties :
#
#
# Convention : Reuss Voigt Hill
#
# Bulk Modulus (GPa) = 15.55569 26.29303 20.92436
# Shear Modulus (GPa) = 16.06069 24.60045 20.33057
#
# Velocity S-wave (km/s) = 2.82001 3.49012 3.17280
# Velocity P-wave (km/s) = 4.27851 5.40927 4.87677
#
# Compressibility (1/GPa) = 0.06428516
#
# Stress axis : x y z
#
# Youngs Moduli (GPa) = 69.20674 62.21409 13.05388
#
# Poissons Ratio (x) = 0.06180 0.11916
# Poissons Ratio (y) = 0.06875 0.14751
# Poissons Ratio (z) = 0.63173 0.70303
#
# Static dielectric constant tensor:
#      x y z
#    x 1.739180 0.000000 -0.005190 
#    y 0.000000 1.771050 0.000000 
#    z -0.005190 0.000000 1.698840 
# 
# From -- ./inp_files/41556.got.cif
#   From: 2010.05.17/outbox.cif.g08.bks.cpg/sg11_21_cif.got.tgz:41556.got - 2010.06.03 12:22:45.
