data_PCOD9166139
_publ_section_title
;
Structure prediction by ZEFSAII (Michael W. Deem and Ramdas Pophale) SiO2 
 PCOD9166139
Probable space group: P 21/M
;
_chemical_formula_sum "Si O2"
_cell_formula_units_Z 24
_cell_length_a 5.463468
_cell_length_b 15.034394
_cell_length_c 15.045648
_cell_angle_alpha 90.000000
_cell_angle_beta 118.354555
_cell_angle_gamma 90.000000
_cell_volume 1087.578233
_symmetry_space_group_name_H-M "P 21/M"
_symmetry_group_IT_number 11
_symmetry_cell_setting 'monoclinic'
loop_
_space_group_symop_operation_xyz
x,y,z
-x,1/2+y,-z
-x,-y,-z
x,1/2-y,z
loop_
_atom_site_type_symbol
_atom_site_label
_atom_site_fract_x
_atom_site_fract_y
_atom_site_fract_z
Si Si1 0.098462 0.250000 0.719436
Si Si2 0.608820 0.250000 0.372702
Si Si3 0.720938 0.942721 0.933567
Si Si4 0.910413 0.579438 0.783395
Si Si5 0.579052 0.750000 0.411130
Si Si6 0.920843 0.250000 0.239713
Si Si7 0.756323 0.911653 0.130528
Si Si8 0.432145 0.097313 0.452053
O O1 0.245071 0.250000 0.648696
O O2 0.207789 0.334401 0.793473
O O3 0.759217 0.250000 0.659853
O O4 0.266888 0.250000 0.301074
O O5 0.657241 0.159923 0.438263
O O6 0.782241 0.250000 0.312557
O O7 0.731462 0.896317 0.839722
O O8 0.487077 0.018150 0.892144
O O9 0.710930 0.882809 0.020607
O O10 0.000000 0.000000 0.000000
O O11 0.143257 0.657046 0.819997
O O12 0.790355 0.580481 0.663780
O O13 0.982744 0.477476 0.814019
O O14 0.650704 0.662887 0.482232
O O15 0.500000 0.000000 0.500000
#
# Coordination Sequence:
#
# PCOD9166139 Si02
#       8
#     2   2   4   4   2   2   4   4
#     4  12  28  46  76  96 149 191 231 289 355 422
#     4   9  22  40  56  90 131 163 222 282 329 389
#     4   9  21  43  67 100 136 169 231 296 348 427
#     4  10  22  40  67  97 138 181 229 290 356 410
#     4  11  28  48  63 109 142 185 246 289 339 426
#     4  10  22  38  63  93 128 173 213 278 343 403
#     4  10  23  43  71 103 137 186 236 291 358 430
#     4  10  22  41  69  95 136 183 235 284 342 409
#
# _framework density 22.067378000000001
#
# number of rings (size 3 to 8) (size 9 to 14) (size 15 to 20)
#    0.000    2.000    0.000    1.500   11.667    6.000 
#    0.000   12.500    0.000    0.000    0.000    0.000 
#    0.000    0.000    0.000    0.000    0.000    0.000 
#
# Total GULP energy -133695.993655 kJ/mol
# GULP energy per Si atom -5570.666402 kJ/mol
# Density = 2.201715 g / cm^3
# Si number density = 22.067378 Si / 1000 Ang^3
#
#
#
# Elastic Constant Matrix: (Units=GPa)
#
#
# Indices 1 2 3 4 5 6 
#
# 1 86.1796 7.8913 54.7247 0.0000 -29.5492 0.0000
# 2 7.8913 142.1162 72.8924 0.0000 -27.5743 0.0000
# 3 54.7247 72.8924 167.4057 0.0000 -26.6271 0.0000
# 4 0.0000 0.0000 0.0000 38.1999 0.0000 -1.9977
# 5 -29.5492 -27.5743 -26.6271 0.0000 48.3792 0.0000
# 6 0.0000 0.0000 0.0000 -1.9977 0.0000 11.8032
#
#
#
# Elastic Compliance Matrix: (Units=1/GPa)
#
#
# Indices 1 2 3 4 5 6 
#
# 1 0.018806 0.004222 -0.006331 0.000000 0.010409 0.000000
# 2 0.004222 0.010509 -0.005034 0.000000 0.005798 0.000000
# 3 -0.006331 -0.005034 0.010043 0.000000 -0.001208 0.000000
# 4 0.000000 0.000000 0.000000 0.026412 0.000000 0.004470
# 5 0.010409 0.005798 -0.001208 0.000000 0.029667 0.000000
# 6 0.000000 0.000000 0.000000 0.004470 0.000000 0.085479
#
#
# Mechanical properties :
#
#
# Convention : Reuss Voigt Hill
#
# Bulk Modulus (GPa) = 39.88324 74.07980 56.98152
# Shear Modulus (GPa) = 24.56306 37.02266 30.79286
#
# Velocity S-wave (km/s) = 3.33993 4.10043 3.73956
# Velocity P-wave (km/s) = 5.74335 7.48737 6.67259
#
# Compressibility (1/GPa) = 0.02507319
#
# Stress axis : x y z
#
# Youngs Moduli (GPa) = 53.17489 95.15717 99.57566
#
# Poissons Ratio (x) = -0.40178 0.63037
# Poissons Ratio (y) = -0.22452 0.50125
# Poissons Ratio (z) = 0.33663 0.47901
#
# Static dielectric constant tensor:
#      x y z
#    x 2.003550 0.000000 0.059790 
#    y 0.000000 1.995600 0.000000 
#    z 0.059790 0.000000 1.860990 
# 
# From -- ./inp_files/45773.got.cif
#   From: 2010.05.17/outbox.cif.g08.bks.cpg/sg11_23_cif.got.tgz:45773.got - 2010.06.03 12:22:45.
