data_PCOD9166696
_publ_section_title
;
Structure prediction by ZEFSAII (Michael W. Deem and Ramdas Pophale) SiO2 
 PCOD9166696
Probable space group: P 21/M
;
_chemical_formula_sum "Si O2"
_cell_formula_units_Z 28
_cell_length_a 15.171207
_cell_length_b 8.359969
_cell_length_c 11.278719
_cell_angle_alpha 90.000000
_cell_angle_beta 112.814785
_cell_angle_gamma 90.000000
_cell_volume 1318.572177
_symmetry_space_group_name_H-M "P 21/M"
_symmetry_group_IT_number 11
_symmetry_cell_setting 'monoclinic'
loop_
_space_group_symop_operation_xyz
x,y,z
-x,1/2+y,-z
-x,-y,-z
x,1/2-y,z
loop_
_atom_site_type_symbol
_atom_site_label
_atom_site_fract_x
_atom_site_fract_y
_atom_site_fract_z
Si Si1 0.417946 0.443878 0.545910
Si Si2 0.953756 0.561443 0.352316
Si Si3 0.741752 0.939984 0.709347
Si Si4 0.249441 0.943118 0.815954
Si Si5 0.452372 0.937074 0.822988
Si Si6 0.657302 0.438644 0.902775
Si Si7 0.957144 0.942440 0.851296
O O1 0.500000 0.500000 0.500000
O O2 0.421074 0.250000 0.562919
O O3 0.316488 0.493501 0.436294
O O4 0.438710 0.534308 0.676984
O O5 0.969095 0.750000 0.355814
O O6 0.841004 0.521070 0.292423
O O7 0.000000 0.500000 0.500000
O O8 0.992405 0.490332 0.246997
O O9 0.751040 0.750000 0.702871
O O10 0.847888 0.005127 0.783521
O O11 0.677223 0.974987 0.790323
O O12 0.243699 0.750000 0.799647
O O13 0.351880 0.998933 0.820806
O O14 0.258759 0.979344 0.960735
O O15 0.460980 0.750000 0.857342
O O16 0.553422 0.020176 0.902790
O O17 0.659151 0.250000 0.882594
O O18 0.958045 0.750000 0.856458
O O19 0.000000 0.000000 0.000000
#
# Coordination Sequence:
#
# PCOD9166696 Si02
#       7
#     4   4   4   4   4   4   4
#     4  11  22  38  59  88 123 162 208 257 312 372
#     4  12  27  47  71  99 133 176 223 279 340 399
#     4  10  23  40  62  90 126 165 207 258 316 379
#     4  10  24  44  65  93 127 166 212 264 318 381
#     4  11  23  39  61  90 128 167 209 258 311 376
#     4  11  22  38  63  94 129 167 209 257 311 376
#     4  11  24  45  71 102 135 173 223 278 336 399
#
# _framework density 21.235088999999999
#
# number of rings (size 3 to 8) (size 9 to 14) (size 15 to 20)
#    0.000    1.143    1.429    4.286    2.000    6.286 
#    0.000    0.000    0.000    0.000    0.000    0.000 
#    0.000    0.000    0.000    0.000    0.000    0.000 
#
# Total GULP energy -156431.197235 kJ/mol
# GULP energy per Si atom -5586.828473 kJ/mol
# Density = 2.118676 g / cm^3
# Si number density = 21.235089 Si / 1000 Ang^3
#
#
#
# Elastic Constant Matrix: (Units=GPa)
#
#
# Indices 1 2 3 4 5 6 
#
# 1 90.4263 -0.3064 51.7197 0.0000 12.5688 0.0000
# 2 -0.3064 36.4124 26.0596 0.0000 7.7414 0.0000
# 3 51.7197 26.0596 153.3384 0.0000 24.9343 0.0000
# 4 0.0000 0.0000 0.0000 31.3734 0.0000 4.8563
# 5 12.5688 7.7414 24.9343 0.0000 41.8850 0.0000
# 6 0.0000 0.0000 0.0000 4.8563 0.0000 27.4542
#
#
#
# Elastic Compliance Matrix: (Units=1/GPa)
#
#
# Indices 1 2 3 4 5 6 
#
# 1 0.014350 0.004298 -0.005249 0.000000 -0.001976 0.000000
# 2 0.004298 0.032874 -0.006464 0.000000 -0.003517 0.000000
# 3 -0.005249 -0.006464 0.009898 0.000000 -0.003123 0.000000
# 4 0.000000 0.000000 0.000000 0.032771 0.000000 -0.005797
# 5 -0.001976 -0.003517 -0.003123 0.000000 0.026977 0.000000
# 6 0.000000 0.000000 0.000000 -0.005797 0.000000 0.037450
#
#
# Mechanical properties :
#
#
# Convention : Reuss Voigt Hill
#
# Bulk Modulus (GPa) = 23.64626 48.34698 35.99662
# Shear Modulus (GPa) = 27.28529 33.65616 30.47072
#
# Velocity S-wave (km/s) = 3.58846 3.98544 3.79215
# Velocity P-wave (km/s) = 5.32250 6.63289 6.01350
#
# Compressibility (1/GPa) = 0.04228999
#
# Stress axis : x y z
#
# Youngs Moduli (GPa) = 69.68510 30.41960 101.02590
#
# Poissons Ratio (x) = -0.13073 0.53032
# Poissons Ratio (y) = -0.29948 0.65307
# Poissons Ratio (z) = 0.36580 0.19664
#
# Static dielectric constant tensor:
#      x y z
#    x 1.297410 0.000000 0.503470 
#    y 0.000000 1.760180 0.000000 
#    z 0.503470 0.000000 1.273680 
# 
# From -- ./inp_files/38442.got.cif
#   From: 2010.05.17/outbox.cif.g08.bks.cpg/sg11_20_cif.got.tgz:38442.got - 2010.06.03 12:22:45.
