data_PCOD9166530
_publ_section_title
;
Structure prediction by ZEFSAII (Michael W. Deem and Ramdas Pophale) SiO2 
 PCOD9166530
Probable space group: P 21/M
;
_chemical_formula_sum "Si O2"
_cell_formula_units_Z 26
_cell_length_a 13.766847
_cell_length_b 15.258892
_cell_length_c 7.076235
_cell_angle_alpha 90.000000
_cell_angle_beta 46.971180
_cell_angle_gamma 90.000000
_cell_volume 1086.634235
_symmetry_space_group_name_H-M "P 21/M"
_symmetry_group_IT_number 11
_symmetry_cell_setting 'monoclinic'
loop_
_space_group_symop_operation_xyz
x,y,z
-x,1/2+y,-z
-x,-y,-z
x,1/2-y,z
loop_
_atom_site_type_symbol
_atom_site_label
_atom_site_fract_x
_atom_site_fract_y
_atom_site_fract_z
Si Si1 0.875583 0.146412 0.789073
Si Si2 0.189851 0.946439 0.733174
Si Si3 0.352198 0.650719 0.219347
Si Si4 0.584821 0.950740 0.093414
Si Si5 0.276141 0.250000 0.478673
Si Si6 0.138346 0.421900 0.485017
Si Si7 0.587569 0.907851 0.487908
O O1 0.894986 0.250000 0.787670
O O2 0.747881 0.138776 0.823459
O O3 0.009348 0.100883 0.531469
O O4 0.861316 0.098804 0.009747
O O5 0.260242 0.869469 0.522032
O O6 0.295344 0.020495 0.653553
O O7 0.110184 0.003082 0.680749
O O8 0.402769 0.750000 0.150275
O O9 0.474350 0.584635 0.093924
O O10 0.577927 0.883742 0.280544
O O11 0.536998 0.039103 0.262862
O O12 0.179197 0.329291 0.526427
O O13 0.373539 0.325932 0.440278
O O14 0.270156 0.449676 0.192544
#
# Coordination Sequence:
#
# PCOD9166530 Si02
#       7
#     4   4   4   4   2   4   4
#     4  11  24  48  72 102 147 189 240 296 355 427
#     4  10  23  45  70 102 141 192 236 293 354 424
#     4  10  24  44  69 106 141 190 235 289 361 427
#     4  10  23  47  72 109 146 184 238 298 353 435
#     4  10  22  42  66 110 138 190 234 296 350 422
#     4  11  24  45  73 106 143 185 242 299 354 420
#     4   9  22  45  73 104 147 187 238 291 367 415
#
# _framework density 23.927094
#
# number of rings (size 3 to 8) (size 9 to 14) (size 15 to 20)
#    0.000    1.846    0.769    0.923    4.308    6.154 
#   16.615    0.000    1.692    0.000    0.000    0.000 
#    0.000    0.000    0.000    0.000    0.000    0.000 
#
# Total GULP energy -144788.949547 kJ/mol
# GULP energy per Si atom -5568.805752 kJ/mol
# Density = 2.387263 g / cm^3
# Si number density = 23.927094 Si / 1000 Ang^3
#
#
#
# Elastic Constant Matrix: (Units=GPa)
#
#
# Indices 1 2 3 4 5 6 
#
# 1 114.8655 63.2575 60.1219 0.0000 -1.3738 0.0000
# 2 63.2575 165.7340 32.7474 0.0000 -10.8422 0.0000
# 3 60.1219 32.7474 105.1259 0.0000 2.3871 0.0000
# 4 0.0000 0.0000 0.0000 20.7640 0.0000 -7.8424
# 5 -1.3738 -10.8422 2.3871 0.0000 33.6720 0.0000
# 6 0.0000 0.0000 0.0000 -7.8424 0.0000 39.4820
#
#
#
# Elastic Compliance Matrix: (Units=1/GPa)
#
#
# Indices 1 2 3 4 5 6 
#
# 1 0.014766 -0.004247 -0.007116 0.000000 -0.000261 0.000000
# 2 -0.004247 0.007820 -0.000061 0.000000 0.002349 0.000000
# 3 -0.007116 -0.000061 0.013630 0.000000 -0.001276 0.000000
# 4 0.000000 0.000000 0.000000 0.052066 0.000000 0.010342
# 5 -0.000261 0.002349 -0.001276 0.000000 0.030535 0.000000
# 6 0.000000 0.000000 0.000000 0.010342 0.000000 0.027382
#
#
# Mechanical properties :
#
#
# Convention : Reuss Voigt Hill
#
# Bulk Modulus (GPa) = 74.79747 77.55325 76.17536
# Shear Modulus (GPa) = 28.81793 34.09017 31.45405
#
# Velocity S-wave (km/s) = 3.47422 3.77868 3.62965
# Velocity P-wave (km/s) = 6.88637 7.17779 7.03359
#
# Compressibility (1/GPa) = 0.01336944
#
# Stress axis : x y z
#
# Youngs Moduli (GPa) = 67.72259 127.87072 73.36815
#
# Poissons Ratio (x) = 0.54306 0.52208
# Poissons Ratio (y) = 0.28761 0.00445
# Poissons Ratio (z) = 0.48191 0.00775
#
# Static dielectric constant tensor:
#      x y z
#    x 2.016790 0.000000 0.026940 
#    y 0.000000 1.909780 0.000000 
#    z 0.026940 0.000000 2.001810 
# 
# From -- ./inp_files/18327.got.cif
#   From: 2010.05.17/outbox.cif.g08.bks.cpg/sg11_10_cif.got.tgz:18327.got - 2010.06.03 12:22:45.
