data_PCOD9166952
_publ_section_title
;
Structure prediction by ZEFSAII (Michael W. Deem and Ramdas Pophale) SiO2 
 PCOD9166952
Probable space group: P 21/M
;
_chemical_formula_sum "Si O2"
_cell_formula_units_Z 30
_cell_length_a 16.028770
_cell_length_b 9.142906
_cell_length_c 11.936211
_cell_angle_alpha 90.000000
_cell_angle_beta 130.182598
_cell_angle_gamma 90.000000
_cell_volume 1336.410161
_symmetry_space_group_name_H-M "P 21/M"
_symmetry_group_IT_number 11
_symmetry_cell_setting 'monoclinic'
loop_
_space_group_symop_operation_xyz
x,y,z
-x,1/2+y,-z
-x,-y,-z
x,1/2-y,z
loop_
_atom_site_type_symbol
_atom_site_label
_atom_site_fract_x
_atom_site_fract_y
_atom_site_fract_z
Si Si1 0.394881 0.580738 0.861475
Si Si2 0.661651 0.575127 0.575624
Si Si3 0.853585 0.084385 0.617212
Si Si4 0.504397 0.918846 0.721075
Si Si5 0.964716 0.073991 0.088031
Si Si6 0.846104 0.016111 0.353899
Si Si7 0.291307 0.923780 0.145344
Si Si8 0.999921 0.750000 0.554325
O O1 0.387714 0.750000 0.892716
O O2 0.419751 0.582125 0.750140
O O3 0.280323 0.502543 0.785913
O O4 0.500000 0.500000 0.000000
O O5 0.658323 0.750000 0.580369
O O6 0.758770 0.521611 0.578529
O O7 0.552065 0.510387 0.426352
O O8 0.688302 0.499890 0.716714
O O9 0.840095 0.250000 0.650681
O O10 0.850166 0.093014 0.480430
O O11 0.963398 0.011212 0.758523
O O12 0.523424 0.750000 0.704814
O O13 0.617786 0.996977 0.851814
O O14 0.987863 0.250000 0.107870
O O15 0.835417 0.053382 0.992868
O O16 0.000000 0.000000 0.000000
O O17 0.912319 0.123329 0.331825
O O18 0.914932 0.873349 0.434001
O O19 0.311389 0.750000 0.167859
#
# Coordination Sequence:
#
# PCOD9166952 Si02
#       8
#     4   4   4   4   4   4   4   2
#     4  11  25  46  70  98 136 180 224 279 339 404
#     4  12  24  38  68  98 130 170 221 274 323 387
#     4  12  23  40  67  97 132 174 218 269 326 392
#     4  11  24  44  67  95 130 174 223 272 331 391
#     4  11  24  41  63  92 132 176 219 266 326 390
#     4  11  23  47  71 102 138 171 224 280 340 407
#     4  11  24  44  63  94 137 176 219 274 325 389
#     4  10  24  44  74 104 132 174 218 282 342 400
#
# _framework density 22.448198000000001
#
# number of rings (size 3 to 8) (size 9 to 14) (size 15 to 20)
#    0.000    0.800    4.000    3.200    2.800    2.667 
#    4.800    0.000    0.000    0.000    0.000    0.000 
#    0.000    0.000    0.000    0.000    0.000    0.000 
#
# Total GULP energy -167339.054994 kJ/mol
# GULP energy per Si atom -5577.968500 kJ/mol
# Density = 2.239710 g / cm^3
# Si number density = 22.448198 Si / 1000 Ang^3
#
#
#
# Elastic Constant Matrix: (Units=GPa)
#
#
# Indices 1 2 3 4 5 6 
#
# 1 52.6206 32.1261 21.0507 0.0000 25.6099 0.0000
# 2 32.1261 148.7164 38.3976 0.0000 30.7916 0.0000
# 3 21.0507 38.3976 127.5605 0.0000 35.4447 0.0000
# 4 0.0000 0.0000 0.0000 22.6895 0.0000 5.2892
# 5 25.6099 30.7916 35.4447 0.0000 48.2205 0.0000
# 6 0.0000 0.0000 0.0000 5.2892 0.0000 28.4263
#
#
#
# Elastic Compliance Matrix: (Units=1/GPa)
#
#
# Indices 1 2 3 4 5 6 
#
# 1 0.026961 -0.003285 -0.000081 0.000000 -0.012162 0.000000
# 2 -0.003285 0.008299 -0.001217 0.000000 -0.002660 0.000000
# 3 -0.000081 -0.001217 0.010042 0.000000 -0.006562 0.000000
# 4 0.000000 0.000000 0.000000 0.046072 0.000000 -0.008572
# 5 -0.012162 -0.002660 -0.006562 0.000000 0.033719 0.000000
# 6 0.000000 0.000000 0.000000 -0.008572 0.000000 0.036774
#
#
# Mechanical properties :
#
#
# Convention : Reuss Voigt Hill
#
# Bulk Modulus (GPa) = 27.67318 56.89401 42.28359
# Shear Modulus (GPa) = 27.31079 35.68880 31.49980
#
# Velocity S-wave (km/s) = 3.49178 3.99159 3.75002
# Velocity P-wave (km/s) = 5.34893 6.82959 6.13410
#
# Compressibility (1/GPa) = 0.03613607
#
# Stress axis : x y z
#
# Youngs Moduli (GPa) = 37.09058 120.49898 99.57867
#
# Poissons Ratio (x) = 0.39587 0.00807
# Poissons Ratio (y) = 0.12185 0.12116
# Poissons Ratio (z) = 0.00301 0.14662
#
# Static dielectric constant tensor:
#      x y z
#    x 1.948950 0.000000 -0.021250 
#    y 0.000000 1.760590 0.000000 
#    z -0.021250 0.000000 1.815660 
# 
# From -- ./inp_files/53315.got.cif
#   From: 2010.05.17/outbox.cif.g08.bks.cpg/sg11_27_cif.got.tgz:53315.got - 2010.06.03 12:22:45.
