data_PCOD9166461
_publ_section_title
;
Structure prediction by ZEFSAII (Michael W. Deem and Ramdas Pophale) SiO2 
 PCOD9166461
Probable space group: P 21/M
;
_chemical_formula_sum "Si O2"
_cell_formula_units_Z 30
_cell_length_a 10.884121
_cell_length_b 19.710266
_cell_length_c 12.036232
_cell_angle_alpha 90.000000
_cell_angle_beta 150.605143
_cell_angle_gamma 90.000000
_cell_volume 1267.370396
_symmetry_space_group_name_H-M "P 21/M"
_symmetry_group_IT_number 11
_symmetry_cell_setting 'monoclinic'
loop_
_space_group_symop_operation_xyz
x,y,z
-x,1/2+y,-z
-x,-y,-z
x,1/2-y,z
loop_
_atom_site_type_symbol
_atom_site_label
_atom_site_fract_x
_atom_site_fract_y
_atom_site_fract_z
Si Si1 0.433155 0.873269 0.202760
Si Si2 0.092953 0.362773 0.171189
Si Si3 0.250776 0.250000 0.477018
Si Si4 0.922801 0.328458 0.499668
Si Si5 0.479384 0.383290 0.285558
Si Si6 0.311958 0.012305 0.453517
Si Si7 0.765172 0.424430 0.187427
Si Si8 0.235463 0.431538 0.884826
O O1 0.609921 0.809301 0.340918
O O2 0.567863 0.938726 0.359300
O O3 0.331414 0.890123 0.000789
O O4 0.193577 0.855355 0.092297
O O5 0.141405 0.309309 0.306465
O O6 0.312926 0.353594 0.254153
O O7 0.110111 0.439505 0.233767
O O8 0.977679 0.250000 0.520723
O O9 0.648660 0.333987 0.343239
O O10 0.920643 0.372946 0.385485
O O11 0.117561 0.366053 0.733827
O O12 0.685911 0.436929 0.493664
O O13 0.272650 0.420786 0.045101
O O14 0.500000 0.000000 0.500000
O O15 0.886118 0.497285 0.251877
O O16 0.521703 0.438300 0.070097
#
# Coordination Sequence:
#
# PCOD9166461 Si02
#       8
#     4   4   2   4   4   4   4   4
#     4  11  22  41  68  94 129 174 223 268 340 387
#     4  10  23  40  64  95 134 174 216 267 328 397
#     4  10  24  42  56  94 130 174 220 266 326 398
#     4  11  26  43  65  98 130 176 218 264 337 396
#     4  10  22  41  65  95 135 164 214 270 318 397
#     4   9  20  37  61  97 130 164 212 268 315 385
#     4  10  23  43  68  95 128 164 224 282 323 394
#     4  10  22  44  69  95 126 171 220 276 335 378
#
# _framework density 23.671059
#
# number of rings (size 3 to 8) (size 9 to 14) (size 15 to 20)
#    0.000    1.867    1.333    0.800    3.733    9.600 
#    2.400    0.000    0.000    0.000    0.000    0.000 
#    0.000    0.000    0.000    0.000    0.000    0.000 
#
# Total GULP energy -167149.582301 kJ/mol
# GULP energy per Si atom -5571.652743 kJ/mol
# Density = 2.361718 g / cm^3
# Si number density = 23.671059 Si / 1000 Ang^3
#
#
#
# Elastic Constant Matrix: (Units=GPa)
#
#
# Indices 1 2 3 4 5 6 
#
# 1 45.4836 -4.6819 5.8370 0.0000 3.3311 0.0000
# 2 -4.6819 127.2147 15.8978 0.0000 -2.0866 0.0000
# 3 5.8370 15.8978 49.3911 0.0000 -8.2589 0.0000
# 4 0.0000 0.0000 0.0000 46.8877 0.0000 -30.2587
# 5 3.3311 -2.0866 -8.2589 0.0000 27.4878 0.0000
# 6 0.0000 0.0000 0.0000 -30.2587 0.0000 35.8814
#
#
#
# Elastic Compliance Matrix: (Units=1/GPa)
#
#
# Indices 1 2 3 4 5 6 
#
# 1 0.022873 0.001247 -0.003740 0.000000 -0.003801 0.000000
# 2 0.001247 0.008259 -0.002870 0.000000 -0.000387 0.000000
# 3 -0.003740 -0.002870 0.022797 0.000000 0.007085 0.000000
# 4 0.000000 0.000000 0.000000 0.046793 0.000000 0.039461
# 5 -0.003801 -0.000387 0.007085 0.000000 0.038940 0.000000
# 6 0.000000 0.000000 0.000000 0.039461 0.000000 0.061147
#
#
# Mechanical properties :
#
#
# Convention : Reuss Voigt Hill
#
# Bulk Modulus (GPa) = 23.14720 28.46613 25.80667
# Shear Modulus (GPa) = 22.13019 35.72047 28.92533
#
# Velocity S-wave (km/s) = 3.06094 3.88884 3.49946
# Velocity P-wave (km/s) = 4.72148 5.67591 5.22055
#
# Compressibility (1/GPa) = 0.04320176
#
# Stress axis : x y z
#
# Youngs Moduli (GPa) = 43.72045 121.08045 43.86516
#
# Poissons Ratio (x) = -0.15096 0.16405
# Poissons Ratio (y) = -0.05451 0.12591
# Poissons Ratio (z) = 0.16351 0.34754
#
# Static dielectric constant tensor:
#      x y z
#    x 1.993280 0.000000 0.050610 
#    y 0.000000 1.793280 0.000000 
#    z 0.050610 0.000000 1.907970 
# 
# From -- ./inp_files/36460.got.cif
#   From: 2010.05.17/outbox.cif.g08.bks.cpg/sg11_19_cif.got.tgz:36460.got - 2010.06.03 12:22:45.
