data_PCOD9166026
_publ_section_title
;
Structure prediction by ZEFSAII (Michael W. Deem and Ramdas Pophale) SiO2 
 PCOD9166026
Probable space group: P 21/M
;
_chemical_formula_sum "Si O2"
_cell_formula_units_Z 28
_cell_length_a 16.581230
_cell_length_b 7.386882
_cell_length_c 13.980444
_cell_angle_alpha 90.000000
_cell_angle_beta 40.704612
_cell_angle_gamma 90.000000
_cell_volume 1116.741475
_symmetry_space_group_name_H-M "P 21/M"
_symmetry_group_IT_number 11
_symmetry_cell_setting 'monoclinic'
loop_
_space_group_symop_operation_xyz
x,y,z
-x,1/2+y,-z
-x,-y,-z
x,1/2-y,z
loop_
_atom_site_type_symbol
_atom_site_label
_atom_site_fract_x
_atom_site_fract_y
_atom_site_fract_z
Si Si1 0.811894 0.455353 0.766535
Si Si2 0.502133 0.465689 0.610406
Si Si3 0.385830 0.469053 0.894025
Si Si4 0.134287 0.534335 0.927123
Si Si5 0.602988 0.034885 0.826201
Si Si6 0.767487 0.467669 0.356524
Si Si7 0.970761 0.033427 0.783580
O O1 0.844115 0.250000 0.709337
O O2 0.733067 0.538949 0.749935
O O3 0.928867 0.537726 0.717380
O O4 0.712277 0.450600 0.944077
O O5 0.500000 0.500000 0.500000
O O6 0.499969 0.250000 0.626570
O O7 0.391089 0.530682 0.778772
O O8 0.639067 0.532889 0.514852
O O9 0.372151 0.250000 0.914946
O O10 0.524145 0.521077 0.805616
O O11 0.151475 0.750000 0.919062
O O12 0.219371 0.462015 0.764706
O O13 0.116259 0.461548 0.051086
O O14 0.000000 0.500000 0.000000
O O15 0.621543 0.250000 0.800513
O O16 0.500000 0.000000 0.000000
O O17 0.761133 0.250000 0.354724
O O18 0.888647 0.505104 0.310155
O O19 0.953423 0.250000 0.795788
#
# Coordination Sequence:
#
# PCOD9166026 Si02
#       7
#     4   4   4   4   4   4   4
#     4   9  17  28  48  76  99 122 152 191 239 285
#     4  10  22  36  50  69  93 126 164 198 231 273
#     4   9  18  32  48  69  97 127 158 193 233 279
#     4   8  14  25  40  58  80 109 141 179 220 260
#     4   8  14  27  46  68  95 123 152 188 233 281
#     4   9  18  32  47  62  87 122 158 190 228 275
#     4   9  17  28  45  69  93 116 149 191 235 277
#
# _framework density 25.072946999999999
#
# number of rings (size 3 to 8) (size 9 to 14) (size 15 to 20)
#    0.000    3.143    0.000    0.000    2.000    1.714 
#    0.000    0.000    0.000    0.857    0.000    0.000 
#    0.000    0.000    0.000    0.000    0.000    0.000 
#
# Total GULP energy -156063.621662 kJ/mol
# GULP energy per Si atom -5573.700774 kJ/mol
# Density = 2.501588 g / cm^3
# Si number density = 25.072947 Si / 1000 Ang^3
#
#
#
# Elastic Constant Matrix: (Units=GPa)
#
#
# Indices 1 2 3 4 5 6 
#
# 1 111.5290 -5.7702 -22.3812 0.0000 -16.5487 0.0000
# 2 -5.7702 102.2920 -5.0807 0.0000 -1.7304 0.0000
# 3 -22.3812 -5.0807 45.1786 0.0000 -12.0591 0.0000
# 4 0.0000 0.0000 0.0000 3.6124 0.0000 -5.3482
# 5 -16.5487 -1.7304 -12.0591 0.0000 26.0635 0.0000
# 6 0.0000 0.0000 0.0000 -5.3482 0.0000 13.8824
#
#
#
# Elastic Compliance Matrix: (Units=1/GPa)
#
#
# Indices 1 2 3 4 5 6 
#
# 1 0.012992 0.001453 0.010071 0.000000 0.013005 0.000000
# 2 0.001453 0.010034 0.002592 0.000000 0.002788 0.000000
# 3 0.010071 0.002592 0.033278 0.000000 0.021964 0.000000
# 4 0.000000 0.000000 0.000000 0.644325 0.000000 0.248226
# 5 0.013005 0.002788 0.021964 0.000000 0.056973 0.000000
# 6 0.000000 0.000000 0.000000 0.248226 0.000000 0.167663
#
#
# Mechanical properties :
#
#
# Convention : Reuss Voigt Hill
#
# Bulk Modulus (GPa) = 11.82913 21.39281 16.61097
# Shear Modulus (GPa) = 5.40418 28.19377 16.79897
#
# Velocity S-wave (km/s) = 1.46971 3.35695 2.59125
# Velocity P-wave (km/s) = 2.75830 4.85554 3.94870
#
# Compressibility (1/GPa) = 0.08453708
#
# Stress axis : x y z
#
# Youngs Moduli (GPa) = 76.96900 99.66274 30.05025
#
# Poissons Ratio (x) = -0.14482 -0.30264
# Poissons Ratio (y) = -0.11184 -0.07791
# Poissons Ratio (z) = -0.77516 -0.25837
#
# Static dielectric constant tensor:
#      x y z
#    x 2.071140 0.000000 0.306270 
#    y 0.000000 1.937520 0.000000 
#    z 0.306270 0.000000 0.942880 
# 
# From -- ./inp_files/53214.got.cif
#   From: 2010.05.17/outbox.cif.g08.bks.cpg/sg11_27_cif.got.tgz:53214.got - 2010.06.03 12:22:45.
