data_PCOD9166539
_publ_section_title
;
Structure prediction by ZEFSAII (Michael W. Deem and Ramdas Pophale) SiO2 
 PCOD9166539
Probable space group: P 21/M
;
_chemical_formula_sum "Si O2"
_cell_formula_units_Z 26
_cell_length_a 13.439779
_cell_length_b 16.452788
_cell_length_c 6.842361
_cell_angle_alpha 90.000000
_cell_angle_beta 56.841816
_cell_angle_gamma 90.000000
_cell_volume 1266.624868
_symmetry_space_group_name_H-M "P 21/M"
_symmetry_group_IT_number 11
_symmetry_cell_setting 'monoclinic'
loop_
_space_group_symop_operation_xyz
x,y,z
-x,1/2+y,-z
-x,-y,-z
x,1/2-y,z
loop_
_atom_site_type_symbol
_atom_site_label
_atom_site_fract_x
_atom_site_fract_y
_atom_site_fract_z
Si Si1 0.622510 0.102872 0.447640
Si Si2 0.002266 0.341960 0.195846
Si Si3 0.178604 0.443453 0.258636
Si Si4 0.344606 0.422128 0.745077
Si Si5 0.765910 0.121653 0.670395
Si Si6 0.852210 0.656062 0.316626
Si Si7 0.707337 0.250000 0.078629
O O1 0.480040 0.104681 0.577552
O O2 0.657548 0.105670 0.638363
O O3 0.677820 0.177849 0.271396
O O4 0.665296 0.015597 0.317128
O O5 0.049372 0.250000 0.186867
O O6 0.075362 0.411357 0.227855
O O7 0.869860 0.345418 0.416902
O O8 0.026669 0.354513 0.939481
O O9 0.185567 0.538352 0.290110
O O10 0.157446 0.399464 0.485544
O O11 0.299109 0.418274 0.016667
O O12 0.255433 0.367860 0.711865
O O13 0.733502 0.180458 0.880611
O O14 0.844888 0.750000 0.382248
#
# Coordination Sequence:
#
# PCOD9166539 Si02
#       7
#     4   4   4   4   4   4   2
#     4  11  25  45  68  96 135 177 215 276 337 387
#     4  10  23  42  63  97 139 170 223 282 326 392
#     4  11  22  42  69  99 129 177 225 274 333 394
#     4  10  23  45  68  95 136 171 218 282 326 393
#     4  12  24  44  68 100 131 177 226 270 336 405
#     4  10  22  42  66  96 129 175 226 273 336 387
#     4  12  26  44  66 100 134 174 226 268 330 402
#
# _framework density 20.526993000000001
#
# number of rings (size 3 to 8) (size 9 to 14) (size 15 to 20)
#    0.000    1.231    3.846    1.385    1.077    4.308 
#    2.769    0.000    0.000    0.000    0.000    0.000 
#    0.000    0.000    0.000    0.000    0.000    0.000 
#
# Total GULP energy -144768.845135 kJ/mol
# GULP energy per Si atom -5568.032505 kJ/mol
# Density = 2.048027 g / cm^3
# Si number density = 20.526993 Si / 1000 Ang^3
#
#
#
# Elastic Constant Matrix: (Units=GPa)
#
#
# Indices 1 2 3 4 5 6 
#
# 1 12.5188 7.3015 1.5360 0.0000 0.5641 0.0000
# 2 7.3015 122.6053 35.3173 0.0000 25.3394 0.0000
# 3 1.5360 35.3173 93.6989 0.0000 14.0308 0.0000
# 4 0.0000 0.0000 0.0000 46.3356 0.0000 2.9255
# 5 0.5641 25.3394 14.0308 0.0000 16.2204 0.0000
# 6 0.0000 0.0000 0.0000 2.9255 0.0000 -2.2668
#
#
#
# Elastic Compliance Matrix: (Units=1/GPa)
#
#
# Indices 1 2 3 4 5 6 
#
# 1 0.083314 -0.006441 -0.000012 0.000000 0.007175 0.000000
# 2 -0.006441 0.012871 -0.002032 0.000000 -0.018126 0.000000
# 3 -0.000012 -0.002032 0.012594 0.000000 -0.007720 0.000000
# 4 0.000000 0.000000 0.000000 0.019956 0.000000 0.025754
# 5 0.007175 -0.018126 -0.007720 0.000000 0.096396 0.000000
# 6 0.000000 0.000000 0.000000 0.025754 0.000000 -0.407912
#
#
# Mechanical properties :
#
#
# Convention : Reuss Voigt Hill
#
# Bulk Modulus (GPa) = 10.89207 35.23696 23.06451
# Shear Modulus (GPa) = -36.98041 24.36905 -6.30568
#
# Velocity S-wave (km/s) = -4.24907 3.44927 -1.75458
# Velocity P-wave (km/s) = 4.33071 5.75037 2.67504
#
# Compressibility (1/GPa) = 0.09180990
#
# Stress axis : x y z
#
# Youngs Moduli (GPa) = 12.00272 77.69248 79.39981
#
# Poissons Ratio (x) = 0.50042 0.00099
# Poissons Ratio (y) = 0.07731 0.16131
# Poissons Ratio (z) = 0.00015 0.15784
#
# Static dielectric constant tensor:
#      x y z
#    x 1.737790 0.000000 -0.019820 
#    y 0.000000 1.703250 0.000000 
#    z -0.019820 0.000000 1.727780 
# 
# From -- ./inp_files/6628.got.cif
#   From: 2010.05.17/outbox.cif.g08.bks.cpg/sg11_4_cif.got.tgz:6628.got - 2010.06.03 12:22:45.
