data_PCOD9166206
_publ_section_title
;
Structure prediction by ZEFSAII (Michael W. Deem and Ramdas Pophale) SiO2 
 PCOD9166206
Probable space group: P 21/M
;
_chemical_formula_sum "Si O2"
_cell_formula_units_Z 20
_cell_length_a 12.136253
_cell_length_b 12.922530
_cell_length_c 14.375587
_cell_angle_alpha 90.000000
_cell_angle_beta 29.180985
_cell_angle_gamma 90.000000
_cell_volume 1099.245440
_symmetry_space_group_name_H-M "P 21/M"
_symmetry_group_IT_number 11
_symmetry_cell_setting 'monoclinic'
loop_
_space_group_symop_operation_xyz
x,y,z
-x,1/2+y,-z
-x,-y,-z
x,1/2-y,z
loop_
_atom_site_type_symbol
_atom_site_label
_atom_site_fract_x
_atom_site_fract_y
_atom_site_fract_z
Si Si1 0.311676 0.488393 0.857932
Si Si2 0.728424 0.870356 0.500037
Si Si3 0.380947 0.371863 0.999188
Si Si4 0.136076 0.128130 0.810185
Si Si5 0.137844 0.965468 0.307690
O O1 0.537061 0.556322 0.683234
O O2 0.323156 0.417277 0.940416
O O3 0.276899 0.419494 0.791461
O O4 0.098603 0.565603 0.021300
O O5 0.681661 0.750000 0.554593
O O6 0.740666 0.884078 0.379694
O O7 0.968494 0.902395 0.366398
O O8 0.341830 0.250000 0.032769
O O9 0.642471 0.398779 0.827500
O O10 0.231212 0.434608 0.183956
O O11 0.094975 0.250000 0.855265
O O12 0.000000 0.000000 0.500000
#
# Coordination Sequence:
#
# PCOD9166206 Si02
#       5
#     4   4   4   4   4
#     4  11  21  40  63  88 125 154 203 251 298 362
#     4  11  22  39  63  91 121 161 202 247 302 356
#     4  11  24  41  64  92 123 161 202 250 308 358
#     4  10  22  39  61  88 121 161 200 247 303 358
#     4  11  23  44  61  89 126 159 205 251 296 365
#
# _framework density 18.194299000000001
#
# number of rings (size 3 to 8) (size 9 to 14) (size 15 to 20)
#    0.000    1.200    4.000    2.400    0.000    1.600 
#    0.000    0.000    0.000    0.000    0.000    0.000 
#    0.000    0.000    0.000    0.000    0.000    0.000 
#
# Total GULP energy -111789.486376 kJ/mol
# GULP energy per Si atom -5589.474319 kJ/mol
# Density = 1.815289 g / cm^3
# Si number density = 18.194299 Si / 1000 Ang^3
#
#
#
# Elastic Constant Matrix: (Units=GPa)
#
#
# Indices 1 2 3 4 5 6 
#
# 1 110.2802 50.9715 37.7656 0.0000 3.2167 0.0000
# 2 50.9715 125.7528 27.2823 0.0000 7.6742 0.0000
# 3 37.7656 27.2823 58.3628 0.0000 4.4367 0.0000
# 4 0.0000 0.0000 0.0000 13.5668 0.0000 3.5973
# 5 3.2167 7.6742 4.4367 0.0000 32.4159 0.0000
# 6 0.0000 0.0000 0.0000 3.5973 0.0000 18.2277
#
#
#
# Elastic Compliance Matrix: (Units=1/GPa)
#
#
# Indices 1 2 3 4 5 6 
#
# 1 0.013164 -0.003908 -0.006732 0.000000 0.000540 0.000000
# 2 -0.003908 0.010087 -0.002056 0.000000 -0.001719 0.000000
# 3 -0.006732 -0.002056 0.022599 0.000000 -0.001938 0.000000
# 4 0.000000 0.000000 0.000000 0.077780 0.000000 -0.015350
# 5 0.000540 -0.001719 -0.001938 0.000000 0.031468 0.000000
# 6 0.000000 0.000000 0.000000 -0.015350 0.000000 0.057891
#
#
# Mechanical properties :
#
#
# Convention : Reuss Voigt Hill
#
# Bulk Modulus (GPa) = 48.88188 58.49273 53.68731
# Shear Modulus (GPa) = 20.39154 24.73384 22.56269
#
# Velocity S-wave (km/s) = 3.35142 3.69104 3.52532
# Velocity P-wave (km/s) = 6.47309 7.09815 6.79282
#
# Compressibility (1/GPa) = 0.02045748
#
# Stress axis : x y z
#
# Youngs Moduli (GPa) = 75.96554 99.13673 44.24988
#
# Poissons Ratio (x) = 0.38744 0.29790
# Poissons Ratio (y) = 0.29688 0.09097
# Poissons Ratio (z) = 0.51142 0.20380
#
# Static dielectric constant tensor:
#      x y z
#    x 1.615820 0.000000 0.002880 
#    y 0.000000 1.582580 0.000000 
#    z 0.002880 0.000000 1.596220 
# 
# From -- ./inp_files/4312.got.cif
#   From: 2010.05.17/outbox.cif.g08.bks.cpg/sg11_3_cif.got.tgz:4312.got - 2010.06.03 12:22:45.
