data_PCOD9166631
_publ_section_title
;
Structure prediction by ZEFSAII (Michael W. Deem and Ramdas Pophale) SiO2 
 PCOD9166631
Probable space group: P 21/M
;
_chemical_formula_sum "Si O2"
_cell_formula_units_Z 26
_cell_length_a 11.634324
_cell_length_b 21.097171
_cell_length_c 4.807033
_cell_angle_alpha 90.000000
_cell_angle_beta 111.527768
_cell_angle_gamma 90.000000
_cell_volume 1097.583108
_symmetry_space_group_name_H-M "P 21/M"
_symmetry_group_IT_number 11
_symmetry_cell_setting 'monoclinic'
loop_
_space_group_symop_operation_xyz
x,y,z
-x,1/2+y,-z
-x,-y,-z
x,1/2-y,z
loop_
_atom_site_type_symbol
_atom_site_label
_atom_site_fract_x
_atom_site_fract_y
_atom_site_fract_z
Si Si1 0.921428 0.620652 0.914967
Si Si2 0.685937 0.062558 0.219437
Si Si3 0.170259 0.250000 0.425494
Si Si4 0.640807 0.250000 0.706968
Si Si5 0.224312 0.075967 0.680908
Si Si6 0.658010 0.750000 0.910215
Si Si7 0.794165 0.374673 0.813027
Si Si8 0.534845 0.646320 0.142014
O O1 0.900965 0.687508 0.736717
O O2 0.880627 0.569491 0.647039
O O3 0.833948 0.610421 0.103272
O O4 0.062706 0.617638 0.129298
O O5 0.713735 0.075635 0.565679
O O6 0.718538 0.990785 0.181971
O O7 0.775406 0.108408 0.120003
O O8 0.550677 0.087854 0.024558
O O9 0.219470 0.250000 0.784454
O O10 0.296447 0.250000 0.360252
O O11 0.739286 0.305821 0.701383
O O12 0.547570 0.193650 0.747197
O O13 0.335179 0.117386 0.643480
O O14 0.575180 0.689875 0.916598
#
# Coordination Sequence:
#
# PCOD9166631 Si02
#       8
#     4   4   2   2   4   2   4   4
#     4  12  25  42  72  96 141 171 233 279 339 396
#     4  11  26  44  69  95 143 177 234 268 334 400
#     4  12  21  42  60 100 128 167 208 288 328 398
#     4   9  23  44  70  96 133 171 222 274 340 403
#     4  12  25  44  67 105 132 185 219 284 334 399
#     4  11  22  38  68  92 133 160 218 264 348 387
#     4  11  25  47  67 102 129 187 224 281 332 401
#     4  10  22  44  69 100 132 174 218 279 334 401
#
# _framework density 23.688412
#
# number of rings (size 3 to 8) (size 9 to 14) (size 15 to 20)
#    0.000    0.923    3.077    2.769    0.000   12.923 
#    0.000   10.000    0.000    0.000    0.000    0.000 
#    0.000    0.000    0.000    0.000    0.000    0.000 
#
# Total GULP energy -144997.652558 kJ/mol
# GULP energy per Si atom -5576.832791 kJ/mol
# Density = 2.363450 g / cm^3
# Si number density = 23.688412 Si / 1000 Ang^3
#
#
#
# Elastic Constant Matrix: (Units=GPa)
#
#
# Indices 1 2 3 4 5 6 
#
# 1 78.4851 9.2844 15.7870 0.0000 22.2744 0.0000
# 2 9.2844 80.3237 -7.5683 0.0000 -2.0997 0.0000
# 3 15.7870 -7.5683 81.7907 0.0000 6.3677 0.0000
# 4 0.0000 0.0000 0.0000 29.8698 0.0000 -6.7769
# 5 22.2744 -2.0997 6.3677 0.0000 30.6174 0.0000
# 6 0.0000 0.0000 0.0000 -6.7769 0.0000 18.0566
#
#
#
# Elastic Compliance Matrix: (Units=1/GPa)
#
#
# Indices 1 2 3 4 5 6 
#
# 1 0.016954 -0.002515 -0.002573 0.000000 -0.011971 0.000000
# 2 -0.002515 0.012944 0.001496 0.000000 0.002406 0.000000
# 3 -0.002573 0.001496 0.012917 0.000000 -0.000712 0.000000
# 4 0.000000 0.000000 0.000000 0.036595 0.000000 0.013735
# 5 -0.011971 0.002406 -0.000712 0.000000 0.041684 0.000000
# 6 0.000000 0.000000 0.000000 0.013735 0.000000 0.060536
#
#
# Mechanical properties :
#
#
# Convention : Reuss Voigt Hill
#
# Bulk Modulus (GPa) = 28.06598 30.62288 29.34443
# Shear Modulus (GPa) = 24.91395 30.58184 27.74790
#
# Velocity S-wave (km/s) = 3.24657 3.59695 3.42624
# Velocity P-wave (km/s) = 5.09188 5.49602 5.29781
#
# Compressibility (1/GPa) = 0.03563032
#
# Stress axis : x y z
#
# Youngs Moduli (GPa) = 58.98349 77.25482 77.41840
#
# Poissons Ratio (x) = 0.19430 0.19921
# Poissons Ratio (y) = 0.14835 -0.11581
# Poissons Ratio (z) = 0.15177 -0.11556
#
# Static dielectric constant tensor:
#      x y z
#    x 1.860950 0.000000 0.022020 
#    y 0.000000 1.889440 0.000000 
#    z 0.022020 0.000000 1.895300 
# 
# From -- ./inp_files/5147.got.cif
#   From: 2010.05.17/outbox.cif.g08.bks.cpg/sg11_3_cif.got.tgz:5147.got - 2010.06.03 12:22:45.
