data_PCOD9166365
_publ_section_title
;
Structure prediction by ZEFSAII (Michael W. Deem and Ramdas Pophale) SiO2 
 PCOD9166365
Probable space group: P 21/M
;
_chemical_formula_sum "Si O2"
_cell_formula_units_Z 26
_cell_length_a 14.536736
_cell_length_b 14.943512
_cell_length_c 8.997058
_cell_angle_alpha 90.000000
_cell_angle_beta 33.998351
_cell_angle_gamma 90.000000
_cell_volume 1092.856702
_symmetry_space_group_name_H-M "P 21/M"
_symmetry_group_IT_number 11
_symmetry_cell_setting 'monoclinic'
loop_
_space_group_symop_operation_xyz
x,y,z
-x,1/2+y,-z
-x,-y,-z
x,1/2-y,z
loop_
_atom_site_type_symbol
_atom_site_label
_atom_site_fract_x
_atom_site_fract_y
_atom_site_fract_z
Si Si1 0.250538 0.534089 0.374444
Si Si2 0.526406 0.154573 0.763237
Si Si3 0.925379 0.905514 0.978205
Si Si4 0.657954 0.437541 0.301452
Si Si5 0.770063 0.750000 0.979166
Si Si6 0.136259 0.150239 0.600419
Si Si7 0.185927 0.648078 0.176233
O O1 0.420086 0.577975 0.198063
O O2 0.253783 0.428528 0.391565
O O3 0.195912 0.573968 0.289990
O O4 0.105250 0.567406 0.680143
O O5 0.589754 0.250000 0.736996
O O6 0.621707 0.129835 0.483836
O O7 0.339337 0.173168 0.966704
O O8 0.857920 0.828651 0.960410
O O9 0.919065 0.869599 0.155954
O O10 0.809269 0.993655 0.120403
O O11 0.500000 0.500000 0.500000
O O12 0.679492 0.378745 0.125517
O O13 0.207623 0.250000 0.498390
O O14 0.983617 0.146501 0.690234
O O15 0.203329 0.750000 0.209763
#
# Coordination Sequence:
#
# PCOD9166365 Si02
#       7
#     4   4   4   4   2   4   4
#     4  12  24  44  71 104 143 195 237 295 362 433
#     4  10  22  40  67 101 136 185 241 281 351 425
#     4  12  23  40  71 103 137 183 245 302 358 418
#     4  12  22  42  69  96 139 189 237 296 358 421
#     4  10  24  40  66 104 142 178 236 302 352 424
#     4  11  23  41  68 106 141 181 242 309 351 414
#     4  11  26  43  68 104 149 188 236 293 364 429
#
# _framework density 23.790859999999999
#
# number of rings (size 3 to 8) (size 9 to 14) (size 15 to 20)
#    0.462    0.308    5.385    2.769    2.154    1.231 
#    0.000    0.769    3.385    1.846    0.000    0.000 
#    0.000    0.000    0.000    0.000    0.000    0.000 
#
# Total GULP energy -145036.415184 kJ/mol
# GULP energy per Si atom -5578.323661 kJ/mol
# Density = 2.373671 g / cm^3
# Si number density = 23.790860 Si / 1000 Ang^3
#
#
#
# Elastic Constant Matrix: (Units=GPa)
#
#
# Indices 1 2 3 4 5 6 
#
# 1 111.9711 54.5916 36.1320 0.0000 3.7752 0.0000
# 2 54.5916 182.7647 31.1473 0.0000 2.3509 0.0000
# 3 36.1320 31.1473 80.0581 0.0000 4.1681 0.0000
# 4 0.0000 0.0000 0.0000 5.8481 0.0000 9.6809
# 5 3.7752 2.3509 4.1681 0.0000 26.2160 0.0000
# 6 0.0000 0.0000 0.0000 9.6809 0.0000 43.6349
#
#
#
# Elastic Compliance Matrix: (Units=1/GPa)
#
#
# Indices 1 2 3 4 5 6 
#
# 1 0.011638 -0.002761 -0.004138 0.000000 -0.000770 0.000000
# 2 -0.002761 0.006516 -0.001290 0.000000 0.000018 0.000000
# 3 -0.004138 -0.001290 0.014947 0.000000 -0.001665 0.000000
# 4 0.000000 0.000000 0.000000 0.270251 0.000000 -0.059958
# 5 -0.000770 0.000018 -0.001665 0.000000 0.038519 0.000000
# 6 0.000000 0.000000 0.000000 -0.059958 0.000000 0.036220
#
#
# Mechanical properties :
#
#
# Convention : Reuss Voigt Hill
#
# Bulk Modulus (GPa) = 59.79868 68.72619 64.26243
# Shear Modulus (GPa) = 12.49863 32.00133 22.24998
#
# Velocity S-wave (km/s) = 2.29455 3.67155 3.06147
# Velocity P-wave (km/s) = 5.67535 6.85012 6.29022
#
# Compressibility (1/GPa) = 0.01672278
#
# Stress axis : x y z
#
# Youngs Moduli (GPa) = 85.92189 153.47157 66.90248
#
# Poissons Ratio (x) = 0.42377 0.27686
# Poissons Ratio (y) = 0.23725 0.08629
# Poissons Ratio (z) = 0.35557 0.19795
#
# Static dielectric constant tensor:
#      x y z
#    x 1.874850 0.000000 -0.045360 
#    y 0.000000 1.961020 0.000000 
#    z -0.045360 0.000000 1.659880 
# 
# From -- ./inp_files/22030.got.cif
#   From: 2010.05.17/outbox.cif.g08.bks.cpg/sg11_12_cif.got.tgz:22030.got - 2010.06.03 12:22:45.
