data_PCOD9166008
_publ_section_title
;
Structure prediction by ZEFSAII (Michael W. Deem and Ramdas Pophale) SiO2 
 PCOD9166008
Probable space group: P 21/M
;
_chemical_formula_sum "Si O2"
_cell_formula_units_Z 22
_cell_length_a 25.436835
_cell_length_b 8.355808
_cell_length_c 8.114730
_cell_angle_alpha 90.000000
_cell_angle_beta 146.810984
_cell_angle_gamma 90.000000
_cell_volume 944.131774
_symmetry_space_group_name_H-M "P 21/M"
_symmetry_group_IT_number 11
_symmetry_cell_setting 'monoclinic'
loop_
_space_group_symop_operation_xyz
x,y,z
-x,1/2+y,-z
-x,-y,-z
x,1/2-y,z
loop_
_atom_site_type_symbol
_atom_site_label
_atom_site_fract_x
_atom_site_fract_y
_atom_site_fract_z
Si Si1 0.593875 0.250000 0.788730
Si Si2 0.695543 0.436704 0.627138
Si Si3 0.301688 0.993589 0.743678
Si Si4 0.534975 0.750000 0.870701
Si Si5 0.557555 0.750000 0.304867
Si Si6 0.897760 0.433480 0.285709
Si Si7 0.896721 0.063262 0.675634
O O1 0.536244 0.250000 0.469773
O O2 0.517127 0.250000 0.739702
O O3 0.666351 0.394807 0.011911
O O4 0.685692 0.250000 0.664477
O O5 0.698820 0.419209 0.439022
O O6 0.618914 0.580853 0.469994
O O7 0.799320 0.503675 0.955601
O O8 0.191724 0.040093 0.486142
O O9 0.391668 0.107253 0.961445
O O10 0.505925 0.750000 0.988147
O O11 0.897063 0.250000 0.228226
O O12 0.892472 0.441592 0.468102
O O13 0.000000 0.500000 0.500000
O O14 0.883190 0.250000 0.692713
O O15 0.000000 0.000000 0.000000
#
# Coordination Sequence:
#
# PCOD9166008 Si02
#       7
#     2   4   4   2   2   4   4
#     4  12  24  48  71 100 144 183 239 289 356 418
#     4  10  21  44  68  97 140 181 230 293 348 417
#     4  11  23  46  66 100 139 179 230 284 353 416
#     4  10  26  44  69 105 140 185 231 304 337 417
#     4  10  26  44  70 107 134 188 246 283 357 419
#     4  10  23  40  64  99 130 176 224 281 349 417
#     4  11  24  43  69  98 133 177 221 278 350 422
#
# _framework density 23.301832000000001
#
# number of rings (size 3 to 8) (size 9 to 14) (size 15 to 20)
#    0.000    1.455    1.818    1.636    5.091    5.091 
#    4.909    0.000    0.000    0.000    0.000    0.000 
#    0.000    0.000    0.000    0.000    0.000    0.000 
#
# Total GULP energy -122788.867231 kJ/mol
# GULP energy per Si atom -5581.312147 kJ/mol
# Density = 2.324880 g / cm^3
# Si number density = 23.301832 Si / 1000 Ang^3
#
#
#
# Elastic Constant Matrix: (Units=GPa)
#
#
# Indices 1 2 3 4 5 6 
#
# 1 110.7572 21.9007 65.7458 0.0000 29.4681 0.0000
# 2 21.9007 52.9471 34.1655 0.0000 -0.8436 0.0000
# 3 65.7458 34.1655 215.4112 0.0000 3.5337 0.0000
# 4 0.0000 0.0000 0.0000 7.2902 0.0000 -12.8232
# 5 29.4681 -0.8436 3.5337 0.0000 41.7018 0.0000
# 6 0.0000 0.0000 0.0000 -12.8232 0.0000 14.0986
#
#
#
# Elastic Compliance Matrix: (Units=1/GPa)
#
#
# Indices 1 2 3 4 5 6 
#
# 1 0.014688 -0.003845 -0.003707 0.000000 -0.010143 0.000000
# 2 -0.003845 0.022068 -0.002382 0.000000 0.003365 0.000000
# 3 -0.003707 -0.002382 0.006118 0.000000 0.002053 0.000000
# 4 0.000000 0.000000 0.000000 -0.228670 0.000000 -0.207985
# 5 -0.010143 0.003365 0.002053 0.000000 0.031041 0.000000
# 6 0.000000 0.000000 0.000000 -0.207985 0.000000 -0.118242
#
#
# Mechanical properties :
#
#
# Convention : Reuss Voigt Hill
#
# Bulk Modulus (GPa) = 43.46641 69.19326 56.32984
# Shear Modulus (GPa) = -20.36981 29.77167 4.70093
#
# Velocity S-wave (km/s) = -2.95985 3.57831 1.42190
# Velocity P-wave (km/s) = 2.64825 6.84333 5.18866
#
# Compressibility (1/GPa) = 0.02300627
#
# Stress axis : x y z
#
# Youngs Moduli (GPa) = 68.08290 45.31496 163.46088
#
# Poissons Ratio (x) = 0.17425 0.60589
# Poissons Ratio (y) = 0.26179 0.38931
# Poissons Ratio (z) = 0.25236 0.10793
#
# Static dielectric constant tensor:
#      x y z
#    x 1.840740 0.000000 0.034860 
#    y 0.000000 1.963810 0.000000 
#    z 0.034860 0.000000 1.872120 
# 
# From -- ./inp_files/28214.got.cif
#   From: 2010.05.17/outbox.cif.g08.bks.cpg/sg11_15_cif.got.tgz:28214.got - 2010.06.03 12:22:45.
