data_PCOD9166680
_publ_section_title
;
Structure prediction by ZEFSAII (Michael W. Deem and Ramdas Pophale) SiO2 
 PCOD9166680
Probable space group: P 21/M
;
_chemical_formula_sum "Si O2"
_cell_formula_units_Z 32
_cell_length_a 5.612027
_cell_length_b 17.624190
_cell_length_c 15.136285
_cell_angle_alpha 90.000000
_cell_angle_beta 91.859554
_cell_angle_gamma 90.000000
_cell_volume 1496.302641
_symmetry_space_group_name_H-M "P 21/M"
_symmetry_group_IT_number 11
_symmetry_cell_setting 'monoclinic'
loop_
_space_group_symop_operation_xyz
x,y,z
-x,1/2+y,-z
-x,-y,-z
x,1/2-y,z
loop_
_atom_site_type_symbol
_atom_site_label
_atom_site_fract_x
_atom_site_fract_y
_atom_site_fract_z
Si Si1 0.421033 0.481608 0.147519
Si Si2 0.008632 0.835953 0.556715
Si Si3 0.296707 0.909419 0.996744
Si Si4 0.659707 0.664802 0.392555
Si Si5 0.212327 0.072521 0.764860
Si Si6 0.104972 0.063879 0.293692
Si Si7 0.818918 0.840383 0.056870
Si Si8 0.695272 0.048062 0.554552
O O1 0.274197 0.520425 0.065924
O O2 0.515256 0.551346 0.208187
O O3 0.284919 0.427780 0.213814
O O4 0.639390 0.442923 0.098111
O O5 0.112647 0.750000 0.550454
O O6 0.150446 0.906598 0.515608
O O7 0.775151 0.834588 0.491273
O O8 0.964478 0.858998 0.657472
O O9 0.550040 0.867087 0.024586
O O10 0.048276 0.864098 0.999740
O O11 0.620909 0.750000 0.362611
O O12 0.821061 0.621487 0.323502
O O13 0.422546 0.616664 0.393860
O O14 0.127627 0.119136 0.848620
O O15 0.098699 0.990787 0.746327
O O16 0.202769 0.011626 0.374963
O O17 0.814643 0.750000 0.065501
O O18 0.500000 0.000000 0.500000
#
# Coordination Sequence:
#
# PCOD9166680 Si02
#       8
#     4   4   4   4   4   4   4   4
#     4  10  23  39  65  93 125 160 219 274 324 389
#     4  11  25  41  58  86 127 171 212 266 331 390
#     4  10  23  42  67  97 130 176 217 269 333 406
#     4  11  22  38  58  89 130 168 205 262 334 387
#     4  11  22  38  63  97 126 164 217 274 326 392
#     4  12  22  39  64  92 121 167 219 277 318 391
#     4  11  23  42  66  99 140 176 215 270 340 407
#     4  12  22  39  62  91 121 169 224 272 318 391
#
# _framework density 21.386047999999999
#
# number of rings (size 3 to 8) (size 9 to 14) (size 15 to 20)
#    0.000    1.000    5.000    2.250    1.750    1.500 
#    0.000    2.500    0.000    0.000    0.000    0.000 
#    0.000    0.000    0.000    0.000    0.000    0.000 
#
# Total GULP energy -178459.408366 kJ/mol
# GULP energy per Si atom -5576.856511 kJ/mol
# Density = 2.133737 g / cm^3
# Si number density = 21.386048 Si / 1000 Ang^3
#
#
#
# Elastic Constant Matrix: (Units=GPa)
#
#
# Indices 1 2 3 4 5 6 
#
# 1 57.5042 5.8185 28.7745 0.0000 -7.4161 0.0000
# 2 5.8185 37.9461 32.5497 0.0000 1.8374 0.0000
# 3 28.7745 32.5497 118.7505 0.0000 -12.1838 0.0000
# 4 0.0000 0.0000 0.0000 11.7439 0.0000 7.7762
# 5 -7.4161 1.8374 -12.1838 0.0000 39.0887 0.0000
# 6 0.0000 0.0000 0.0000 7.7762 0.0000 26.4345
#
#
#
# Elastic Compliance Matrix: (Units=1/GPa)
#
#
# Indices 1 2 3 4 5 6 
#
# 1 0.020028 0.001031 -0.004908 0.000000 0.002222 0.000000
# 2 0.001031 0.035369 -0.010429 0.000000 -0.004718 0.000000
# 3 -0.004908 -0.010429 0.012834 0.000000 0.003559 0.000000
# 4 0.000000 0.000000 0.000000 0.105749 0.000000 -0.031108
# 5 0.002222 -0.004718 0.003559 0.000000 0.027336 0.000000
# 6 0.000000 0.000000 0.000000 -0.031108 0.000000 0.046980
#
#
# Mechanical properties :
#
#
# Convention : Reuss Voigt Hill
#
# Bulk Modulus (GPa) = 25.23939 38.72068 31.98003
# Shear Modulus (GPa) = 17.23469 25.25728 21.24599
#
# Velocity S-wave (km/s) = 2.84189 3.44032 3.15532
# Velocity P-wave (km/s) = 4.75351 5.82460 5.31610
#
# Compressibility (1/GPa) = 0.03962061
#
# Stress axis : x y z
#
# Youngs Moduli (GPa) = 49.93023 28.27338 77.91876
#
# Poissons Ratio (x) = -0.02915 0.38240
# Poissons Ratio (y) = -0.05149 0.81258
# Poissons Ratio (z) = 0.24504 0.29485
#
# Static dielectric constant tensor:
#      x y z
#    x 1.889340 0.000000 0.003000 
#    y 0.000000 1.819830 0.000000 
#    z 0.003000 0.000000 1.838030 
# 
# From -- ./inp_files/46045.got.cif
#   From: 2010.05.17/outbox.cif.g08.bks.cpg/sg11_24_cif.got.tgz:46045.got - 2010.06.03 12:22:45.
