data_PCOD9166434
_publ_section_title
;
Structure prediction by ZEFSAII (Michael W. Deem and Ramdas Pophale) SiO2 
 PCOD9166434
Probable space group: P 21/M
;
_chemical_formula_sum "Si O2"
_cell_formula_units_Z 30
_cell_length_a 12.076732
_cell_length_b 9.349502
_cell_length_c 14.786150
_cell_angle_alpha 90.000000
_cell_angle_beta 113.715094
_cell_angle_gamma 90.000000
_cell_volume 1528.545065
_symmetry_space_group_name_H-M "P 21/M"
_symmetry_group_IT_number 11
_symmetry_cell_setting 'monoclinic'
loop_
_space_group_symop_operation_xyz
x,y,z
-x,1/2+y,-z
-x,-y,-z
x,1/2-y,z
loop_
_atom_site_type_symbol
_atom_site_label
_atom_site_fract_x
_atom_site_fract_y
_atom_site_fract_z
Si Si1 0.894228 0.918111 0.411723
Si Si2 0.339784 0.581887 0.598034
Si Si3 0.050268 0.583752 0.293549
Si Si4 0.474809 0.750000 0.973601
Si Si5 0.060149 0.419626 0.936042
Si Si6 0.339687 0.003156 0.031650
Si Si7 0.709087 0.921070 0.594326
Si Si8 0.604749 0.917643 0.757519
O O1 0.887856 0.750000 0.435153
O O2 0.934075 0.925804 0.320371
O O3 0.769854 0.998033 0.391405
O O4 0.000000 0.000000 0.500000
O O5 0.310712 0.750000 0.576023
O O6 0.358760 0.506189 0.507365
O O7 0.460494 0.572834 0.697173
O O8 0.092528 0.750000 0.312813
O O9 0.153809 0.478755 0.363256
O O10 0.013778 0.549187 0.179724
O O11 0.386210 0.627887 0.988817
O O12 0.568008 0.628292 0.964219
O O13 0.055131 0.250000 0.950391
O O14 0.199826 0.461353 0.967985
O O15 0.000000 0.500000 0.000000
O O16 0.352311 0.987868 0.144795
O O17 0.700887 0.750000 0.578049
O O18 0.660745 0.955065 0.678614
O O19 0.636245 0.750000 0.785092
#
# Coordination Sequence:
#
# PCOD9166434 Si02
#       8
#     4   4   4   2   4   4   4   4
#     4  11  22  39  63  89 125 163 208 260 313 378
#     4  11  23  40  61  91 128 165 204 260 315 372
#     4  10  23  41  62  93 125 168 208 257 322 372
#     4  10  24  40  74  90 130 172 216 268 334 380
#     4  11  24  43  68  98 136 173 218 273 326 387
#     4  11  22  47  66  98 129 172 217 272 326 385
#     4  11  22  40  65  90 126 167 209 258 310 377
#     4  10  22  41  64  93 125 166 211 258 315 373
#
# _framework density 19.626508000000001
#
# number of rings (size 3 to 8) (size 9 to 14) (size 15 to 20)
#    0.000    1.333    2.667    2.400    0.933    4.267 
#    7.200    0.000    0.000    0.000    0.000    0.000 
#    0.000    0.000    0.000    0.000    0.000    0.000 
#
# Total GULP energy -167076.321677 kJ/mol
# GULP energy per Si atom -5569.210723 kJ/mol
# Density = 1.958184 g / cm^3
# Si number density = 19.626508 Si / 1000 Ang^3
#
#
#
# Elastic Constant Matrix: (Units=GPa)
#
#
# Indices 1 2 3 4 5 6 
#
# 1 52.9625 -0.1451 -12.3042 0.0000 -8.3052 0.0000
# 2 -0.1451 75.9779 11.8138 0.0000 -5.6953 0.0000
# 3 -12.3042 11.8138 35.4923 0.0000 3.6048 0.0000
# 4 0.0000 0.0000 0.0000 -15.1105 0.0000 -15.9654
# 5 -8.3052 -5.6953 3.6048 0.0000 23.2721 0.0000
# 6 0.0000 0.0000 0.0000 -15.9654 0.0000 24.6169
#
#
#
# Elastic Compliance Matrix: (Units=1/GPa)
#
#
# Indices 1 2 3 4 5 6 
#
# 1 0.021516 -0.000562 0.006990 0.000000 0.006458 0.000000
# 2 -0.000562 0.014307 -0.005377 0.000000 0.004134 0.000000
# 3 0.006990 -0.005377 0.032784 0.000000 -0.003899 0.000000
# 4 0.000000 0.000000 0.000000 -0.039270 0.000000 -0.025469
# 5 0.006458 0.004134 -0.003899 0.000000 0.046890 0.000000
# 6 0.000000 0.000000 0.000000 -0.025469 0.000000 0.024105
#
#
# Mechanical properties :
#
#
# Convention : Reuss Voigt Hill
#
# Bulk Modulus (GPa) = 14.14206 18.12905 16.13556
# Shear Modulus (GPa) = 41.05130 17.56026 29.30578
#
# Velocity S-wave (km/s) = 4.57839 2.99443 3.86835
# Velocity P-wave (km/s) = 5.93044 4.60571 5.30955
#
# Compressibility (1/GPa) = 0.07071105
#
# Stress axis : x y z
#
# Youngs Moduli (GPa) = 46.47604 69.89830 30.50255
#
# Poissons Ratio (x) = 0.03926 -0.21322
# Poissons Ratio (y) = 0.02610 0.16400
# Poissons Ratio (z) = -0.32488 0.37581
#
# Static dielectric constant tensor:
#      x y z
#    x 1.687990 0.000000 -0.021010 
#    y 0.000000 1.669460 0.000000 
#    z -0.021010 0.000000 1.704750 
# 
# From -- ./inp_files/49444.got.cif
#   From: 2010.05.17/outbox.cif.g08.bks.cpg/sg11_25_cif.got.tgz:49444.got - 2010.06.03 12:22:45.
