data_PCOD9166183
_publ_section_title
;
Structure prediction by ZEFSAII (Michael W. Deem and Ramdas Pophale) SiO2 
 PCOD9166183
Probable space group: P 21/M
;
_chemical_formula_sum "Si O2"
_cell_formula_units_Z 24
_cell_length_a 20.616699
_cell_length_b 12.535294
_cell_length_c 16.077551
_cell_angle_alpha 90.000000
_cell_angle_beta 161.321221
_cell_angle_gamma 90.000000
_cell_volume 1330.696938
_symmetry_space_group_name_H-M "P 21/M"
_symmetry_group_IT_number 11
_symmetry_cell_setting 'monoclinic'
loop_
_space_group_symop_operation_xyz
x,y,z
-x,1/2+y,-z
-x,-y,-z
x,1/2-y,z
loop_
_atom_site_type_symbol
_atom_site_label
_atom_site_fract_x
_atom_site_fract_y
_atom_site_fract_z
Si Si1 0.697142 0.625938 0.404603
Si Si2 0.280298 0.527466 0.409183
Si Si3 0.242871 0.873249 0.784902
Si Si4 0.022522 0.472532 0.393638
Si Si5 0.841211 0.626745 0.883252
Si Si6 0.717770 0.874060 0.925241
O O1 0.718248 0.750000 0.453967
O O2 0.723660 0.549675 0.515774
O O3 0.860121 0.594906 0.532789
O O4 0.472855 0.610691 0.094176
O O5 0.268650 0.453307 0.313251
O O6 0.485221 0.594897 0.657897
O O7 0.079873 0.600060 0.167480
O O8 0.218562 0.750000 0.730014
O O9 0.095315 0.899924 0.682910
O O10 0.179448 0.953321 0.634848
O O11 0.860556 0.549666 0.152671
O O12 0.804378 0.750000 0.815839
O O13 0.769791 0.610713 0.891120
O O14 0.753173 0.750000 0.988911
#
# Coordination Sequence:
#
# PCOD9166183 Si02
#       6
#     4   4   4   4   4   4
#     4  11  22  38  60  88 119 154 196 239 289 345
#     4  11  21  39  61  86 119 155 195 238 291 343
#     4  10  22  39  60  85 118 155 195 241 288 343
#     4  11  21  39  61  86 119 155 195 238 291 343
#     4  10  22  39  60  85 118 155 195 241 288 343
#     4  11  22  38  60  88 119 154 196 239 289 345
#
# _framework density 18.035661000000001
#
# number of rings (size 3 to 8) (size 9 to 14) (size 15 to 20)
#    0.000    1.333    3.333    3.000    0.000    0.000 
#    0.000    0.000    0.000    0.000    0.000    0.000 
#    0.000    0.000    0.000    0.000    0.000    0.000 
#
# Total GULP energy -134114.405827 kJ/mol
# GULP energy per Si atom -5588.100243 kJ/mol
# Density = 1.799461 g / cm^3
# Si number density = 18.035661 Si / 1000 Ang^3
#
#
#
# Elastic Constant Matrix: (Units=GPa)
#
#
# Indices 1 2 3 4 5 6 
#
# 1 34.0210 -2.0418 -18.2939 0.0000 -0.9901 0.0000
# 2 -2.0418 32.1009 -4.7847 0.0000 4.1742 0.0000
# 3 -18.2939 -4.7847 32.7160 0.0000 2.9876 0.0000
# 4 0.0000 0.0000 0.0000 8.8906 0.0000 12.8430
# 5 -0.9901 4.1742 2.9876 0.0000 20.4340 0.0000
# 6 0.0000 0.0000 0.0000 12.8430 0.0000 17.2950
#
#
#
# Elastic Compliance Matrix: (Units=1/GPa)
#
#
# Indices 1 2 3 4 5 6 
#
# 1 0.043504 0.006986 0.025628 0.000000 -0.003066 0.000000
# 2 0.006986 0.034074 0.009623 0.000000 -0.008029 0.000000
# 3 0.025628 0.009623 0.046997 0.000000 -0.007595 0.000000
# 4 0.000000 0.000000 0.000000 -1.546943 0.000000 1.148742
# 5 -0.003066 -0.008029 -0.007595 0.000000 0.051540 0.000000
# 6 0.000000 0.000000 0.000000 1.148742 0.000000 -0.795222
#
#
# Mechanical properties :
#
#
# Convention : Reuss Voigt Hill
#
# Bulk Modulus (GPa) = 4.78357 5.39970 5.09163
# Shear Modulus (GPa) = -2.29270 17.58779 7.64755
#
# Velocity S-wave (km/s) = -1.12870 3.12616 2.06142
# Velocity P-wave (km/s) = 0.97950 4.00386 2.91464
#
# Compressibility (1/GPa) = 0.20904899
#
# Stress axis : x y z
#
# Youngs Moduli (GPa) = 22.98617 29.34750 21.27776
#
# Poissons Ratio (x) = -0.20501 -0.54531
# Poissons Ratio (y) = -0.16057 -0.20475
# Poissons Ratio (z) = -0.58909 -0.28240
#
# Static dielectric constant tensor:
#      x y z
#    x 1.587680 0.000000 -0.000770 
#    y 0.000000 1.581200 0.000000 
#    z -0.000770 0.000000 1.587930 
# 
# From -- ./inp_files/31150.got.cif
#   From: 2010.05.17/outbox.cif.g08.bks.cpg/sg11_16_cif.got.tgz:31150.got - 2010.06.03 12:22:45.
