data_PCOD9166787
_publ_section_title
;
Structure prediction by ZEFSAII (Michael W. Deem and Ramdas Pophale) SiO2 
 PCOD9166787
Probable space group: P 21/M
;
_chemical_formula_sum "Si O2"
_cell_formula_units_Z 32
_cell_length_a 12.107941
_cell_length_b 8.840164
_cell_length_c 15.722769
_cell_angle_alpha 90.000000
_cell_angle_beta 90.654520
_cell_angle_gamma 90.000000
_cell_volume 1682.795392
_symmetry_space_group_name_H-M "P 21/M"
_symmetry_group_IT_number 11
_symmetry_cell_setting 'monoclinic'
loop_
_space_group_symop_operation_xyz
x,y,z
-x,1/2+y,-z
-x,-y,-z
x,1/2-y,z
loop_
_atom_site_type_symbol
_atom_site_label
_atom_site_fract_x
_atom_site_fract_y
_atom_site_fract_z
Si Si1 0.622850 0.067041 0.500205
Si Si2 0.264006 0.073346 0.153402
Si Si3 0.734499 0.928772 0.154890
Si Si4 0.765665 0.074815 0.335701
Si Si5 0.513147 0.073669 0.091713
Si Si6 0.773671 0.430718 0.663258
Si Si7 0.876492 0.431578 0.002301
Si Si8 0.987518 0.924594 0.591035
O O1 0.617153 0.250000 0.500744
O O2 0.689318 0.024714 0.414563
O O3 0.692416 0.021289 0.584967
O O4 0.500000 0.000000 0.500000
O O5 0.231110 0.250000 0.152287
O O6 0.393580 0.064100 0.133107
O O7 0.251007 0.004480 0.246516
O O8 0.193173 0.988510 0.080323
O O9 0.744688 0.750000 0.141831
O O10 0.759119 0.975376 0.251538
O O11 0.609600 0.983232 0.138378
O O12 0.812860 0.010701 0.086357
O O13 0.735239 0.250000 0.315060
O O14 0.892174 0.073639 0.366423
O O15 0.544820 0.250000 0.085574
O O16 0.500000 0.000000 0.000000
O O17 0.766497 0.250000 0.669561
O O18 0.896564 0.481462 0.640229
O O19 0.881560 0.250000 0.002640
O O20 0.000000 0.500000 0.000000
O O21 0.951361 0.750000 0.583738
O O22 0.000000 0.000000 0.500000
#
# Coordination Sequence:
#
# PCOD9166787 Si02
#       8
#     4   4   4   4   4   4   4   4
#     4  10  23  43  64  91 129 169 212 263 319 377
#     4  11  25  44  67  98 131 170 217 266 322 386
#     4  12  26  43  66  98 132 170 218 267 323 388
#     4  10  23  44  65  91 128 170 214 267 322 379
#     4  11  23  42  69  96 129 168 215 269 323 383
#     4  11  24  43  65  95 131 169 214 267 324 383
#     4  12  26  46  70  95 131 173 215 267 324 386
#     4  11  22  41  68  94 126 166 214 268 324 384
#
# _framework density 19.015976999999999
#
# number of rings (size 3 to 8) (size 9 to 14) (size 15 to 20)
#    0.000    1.000    2.500    3.750    3.500    4.000 
#    0.000    0.000    0.000    0.000    0.000    0.000 
#    0.000    0.000    0.000    0.000    0.000    0.000 
#
# Total GULP energy -178902.324682 kJ/mol
# GULP energy per Si atom -5590.697646 kJ/mol
# Density = 1.897270 g / cm^3
# Si number density = 19.015977 Si / 1000 Ang^3
#
#
#
# Elastic Constant Matrix: (Units=GPa)
#
#
# Indices 1 2 3 4 5 6 
#
# 1 108.7720 58.4802 58.3919 0.0000 -3.4454 0.0000
# 2 58.4802 136.7219 75.4705 0.0000 -2.5408 0.0000
# 3 58.3919 75.4705 156.0399 0.0000 -10.6554 0.0000
# 4 0.0000 0.0000 0.0000 30.7404 0.0000 0.0544
# 5 -3.4454 -2.5408 -10.6554 0.0000 30.1050 0.0000
# 6 0.0000 0.0000 0.0000 0.0544 0.0000 37.4161
#
#
#
# Elastic Compliance Matrix: (Units=1/GPa)
#
#
# Indices 1 2 3 4 5 6 
#
# 1 0.012854 -0.003881 -0.002926 0.000000 0.000108 0.000000
# 2 -0.003881 0.011173 -0.004015 0.000000 -0.000922 0.000000
# 3 -0.002926 -0.004015 0.009632 0.000000 0.002735 0.000000
# 4 0.000000 0.000000 0.000000 0.032531 0.000000 -0.000047
# 5 0.000108 -0.000922 0.002735 0.000000 0.034120 0.000000
# 6 0.000000 0.000000 0.000000 -0.000047 0.000000 0.026727
#
#
# Mechanical properties :
#
#
# Convention : Reuss Voigt Hill
#
# Bulk Modulus (GPa) = 83.21933 87.35766 85.28850
# Shear Modulus (GPa) = 32.74727 33.59839 33.17283
#
# Velocity S-wave (km/s) = 4.15431 4.20795 4.18122
# Velocity P-wave (km/s) = 8.17734 8.34554 8.26187
#
# Compressibility (1/GPa) = 0.01201644
#
# Stress axis : x y z
#
# Youngs Moduli (GPa) = 77.79551 89.50028 103.82138
#
# Poissons Ratio (x) = 0.34737 0.30374
# Poissons Ratio (y) = 0.30194 0.41680
# Poissons Ratio (z) = 0.22760 0.35931
#
# Static dielectric constant tensor:
#      x y z
#    x 1.621150 0.000000 -0.016980 
#    y 0.000000 1.572590 0.000000 
#    z -0.016980 0.000000 1.718500 
# 
# From -- ./inp_files/49320.got.cif
#   From: 2010.05.17/outbox.cif.g08.bks.cpg/sg11_25_cif.got.tgz:49320.got - 2010.06.03 12:22:45.
