data_PCOD9166733
_publ_section_title
;
Structure prediction by ZEFSAII (Michael W. Deem and Ramdas Pophale) SiO2 
 PCOD9166733
Probable space group: P 21/M
;
_chemical_formula_sum "Si O2"
_cell_formula_units_Z 28
_cell_length_a 7.892458
_cell_length_b 30.771006
_cell_length_c 5.154151
_cell_angle_alpha 90.000000
_cell_angle_beta 67.570370
_cell_angle_gamma 90.000000
_cell_volume 1157.036379
_symmetry_space_group_name_H-M "P 21/M"
_symmetry_group_IT_number 11
_symmetry_cell_setting 'monoclinic'
loop_
_space_group_symop_operation_xyz
x,y,z
-x,1/2+y,-z
-x,-y,-z
x,1/2-y,z
loop_
_atom_site_type_symbol
_atom_site_label
_atom_site_fract_x
_atom_site_fract_y
_atom_site_fract_z
Si Si1 0.143599 0.405709 0.812525
Si Si2 0.780969 0.658142 0.847493
Si Si3 0.243168 0.893934 0.109268
Si Si4 0.394116 0.250000 0.203065
Si Si5 0.598916 0.568595 0.745311
Si Si6 0.207442 0.658861 0.608432
Si Si7 0.912014 0.977206 0.799535
Si Si8 0.393329 0.750000 0.416431
O O1 0.312649 0.432402 0.594060
O O2 0.210058 0.357892 0.855752
O O3 0.966586 0.408928 0.734652
O O4 0.059274 0.427299 0.122767
O O5 0.994853 0.661013 0.652667
O O6 0.700441 0.704885 0.827691
O O7 0.666930 0.618018 0.786776
O O8 0.383907 0.930061 0.924452
O O9 0.232294 0.859128 0.883334
O O10 0.304911 0.872597 0.342342
O O11 0.433493 0.250000 0.487003
O O12 0.570653 0.250000 0.911901
O O13 0.699502 0.530278 0.843427
O O14 0.287544 0.706462 0.545256
O O15 0.000000 0.000000 0.500000
O O16 0.000000 0.000000 0.000000
#
# Coordination Sequence:
#
# PCOD9166733 Si02
#       8
#     4   4   4   2   4   4   4   2
#     4  10  23  44  69  99 132 173 222 271 330 393
#     4  10  23  41  65  95 127 180 221 271 330 389
#     4  11  25  40  68  98 127 170 222 273 322 393
#     4  12  27  40  63  94 134 173 229 272 324 394
#     4  11  22  42  72  95 133 173 223 265 331 393
#     4  11  23  42  61  91 132 168 222 278 330 385
#     4  11  23  42  70 100 135 175 213 268 331 395
#     4  12  25  40  57  92 128 173 219 282 330 382
#
# _framework density 24.199759
#
# number of rings (size 3 to 8) (size 9 to 14) (size 15 to 20)
#    0.000    1.143    2.857    3.000    8.000    0.000 
#    0.000    3.571    0.000    0.000    0.000    0.000 
#    0.000    0.000    0.000    0.000    0.000    0.000 
#
# Total GULP energy -156158.426173 kJ/mol
# GULP energy per Si atom -5577.086649 kJ/mol
# Density = 2.414468 g / cm^3
# Si number density = 24.199759 Si / 1000 Ang^3
#
#
#
# Elastic Constant Matrix: (Units=GPa)
#
#
# Indices 1 2 3 4 5 6 
#
# 1 45.0032 -6.7779 3.9550 0.0000 2.1580 0.0000
# 2 -6.7779 84.4121 5.5718 0.0000 12.4626 0.0000
# 3 3.9550 5.5718 106.2508 0.0000 19.3474 0.0000
# 4 0.0000 0.0000 0.0000 31.7152 0.0000 1.0525
# 5 2.1580 12.4626 19.3474 0.0000 29.1762 0.0000
# 6 0.0000 0.0000 0.0000 1.0525 0.0000 40.4280
#
#
#
# Elastic Compliance Matrix: (Units=1/GPa)
#
#
# Indices 1 2 3 4 5 6 
#
# 1 0.022707 0.002192 -0.000550 0.000000 -0.002251 0.000000
# 2 0.002192 0.012868 0.000312 0.000000 -0.005865 0.000000
# 3 -0.000550 0.000312 0.010728 0.000000 -0.007206 0.000000
# 4 0.000000 0.000000 0.000000 0.031558 0.000000 -0.000822
# 5 -0.002251 -0.005865 -0.007206 0.000000 0.041725 0.000000
# 6 0.000000 0.000000 0.000000 -0.000822 0.000000 0.024757
#
#
# Mechanical properties :
#
#
# Convention : Reuss Voigt Hill
#
# Bulk Modulus (GPa) = 19.91645 26.79597 23.35621
# Shear Modulus (GPa) = 31.81207 35.79169 33.80188
#
# Velocity S-wave (km/s) = 3.62962 3.84996 3.74141
# Velocity P-wave (km/s) = 5.08069 5.55516 5.32322
#
# Compressibility (1/GPa) = 0.05020974
#
# Stress axis : x y z
#
# Youngs Moduli (GPa) = 44.03911 77.71197 93.21340
#
# Poissons Ratio (x) = -0.17034 0.05129
# Poissons Ratio (y) = -0.09653 -0.02905
# Poissons Ratio (z) = 0.02423 -0.02422
#
# Static dielectric constant tensor:
#      x y z
#    x 2.023680 0.000000 0.015060 
#    y 0.000000 1.960200 0.000000 
#    z 0.015060 0.000000 2.061640 
# 
# From -- ./inp_files/3370.got.cif
#   From: 2010.05.17/outbox.cif.g08.bks.cpg/sg11_2_cif.got.tgz:3370.got - 2010.06.03 12:22:45.
