data_PCOD9166354
_publ_section_title
;
Structure prediction by ZEFSAII (Michael W. Deem and Ramdas Pophale) SiO2 
 PCOD9166354
Probable space group: P 21/M
;
_chemical_formula_sum "Si O2"
_cell_formula_units_Z 24
_cell_length_a 32.936408
_cell_length_b 8.389557
_cell_length_c 9.140315
_cell_angle_alpha 90.000000
_cell_angle_beta 149.960830
_cell_angle_gamma 90.000000
_cell_volume 1264.329515
_symmetry_space_group_name_H-M "P 21/M"
_symmetry_group_IT_number 11
_symmetry_cell_setting 'monoclinic'
loop_
_space_group_symop_operation_xyz
x,y,z
-x,1/2+y,-z
-x,-y,-z
x,1/2-y,z
loop_
_atom_site_type_symbol
_atom_site_label
_atom_site_fract_x
_atom_site_fract_y
_atom_site_fract_z
Si Si1 0.642101 0.250000 0.925660
Si Si2 0.135348 0.056471 0.741684
Si Si3 0.643168 0.495148 0.188073
Si Si4 0.229377 0.750000 0.921441
Si Si5 0.979053 0.943803 0.098307
Si Si6 0.496913 0.250000 0.240492
Si Si7 0.830092 0.565940 0.818226
Si Si8 0.625992 0.250000 0.393357
O O1 0.565314 0.250000 0.578442
O O2 0.640165 0.396859 0.029700
O O3 0.723159 0.250000 0.082960
O O4 0.154841 0.250000 0.783145
O O5 0.182065 0.918793 0.793609
O O6 0.152297 0.005400 0.962846
O O7 0.042782 0.026301 0.406885
O O8 0.735241 0.557629 0.485836
O O9 0.631894 0.396730 0.301775
O O10 0.565399 0.606191 0.941034
O O11 0.298504 0.750000 0.261805
O O12 0.987032 0.750000 0.126573
O O13 0.889866 0.995460 0.877834
O O14 0.000000 0.000000 0.000000
O O15 0.545236 0.250000 0.238481
O O16 0.852694 0.750000 0.901043
#
# Coordination Sequence:
#
# PCOD9166354 Si02
#       8
#     2   4   4   2   4   2   4   2
#     4  10  26  40  62  94 133 169 214 258 339 396
#     4  11  23  43  66  96 131 171 225 268 331 380
#     4  11  21  41  65  95 126 171 213 269 325 390
#     4  11  22  44  65  94 136 172 215 286 316 381
#     4  11  24  42  63  93 137 176 218 270 323 384
#     4  11  22  42  67  92 132 166 214 269 327 396
#     4  10  22  40  65  94 125 168 222 272 323 383
#     4  10  22  40  66  98 125 165 217 267 330 391
#
# _framework density 18.982395
#
# number of rings (size 3 to 8) (size 9 to 14) (size 15 to 20)
#    0.000    1.333    3.333    2.000    2.333    0.000 
#    9.000    0.000    3.667    0.000    0.000    0.000 
#    0.000    0.000    0.000    0.000    0.000    0.000 
#
# Total GULP energy -133720.066721 kJ/mol
# GULP energy per Si atom -5571.669447 kJ/mol
# Density = 1.893919 g / cm^3
# Si number density = 18.982395 Si / 1000 Ang^3
#
#
#
# Elastic Constant Matrix: (Units=GPa)
#
#
# Indices 1 2 3 4 5 6 
#
# 1 147.5310 42.0036 43.1533 0.0000 23.2639 0.0000
# 2 42.0036 79.4586 7.6734 0.0000 13.7333 0.0000
# 3 43.1533 7.6734 76.5856 0.0000 17.2422 0.0000
# 4 0.0000 0.0000 0.0000 0.2319 0.0000 58.6548
# 5 23.2639 13.7333 17.2422 0.0000 32.3890 0.0000
# 6 0.0000 0.0000 0.0000 58.6548 0.0000 -62.3558
#
#
#
# Elastic Compliance Matrix: (Units=1/GPa)
#
#
# Indices 1 2 3 4 5 6 
#
# 1 0.009719 -0.004220 -0.004414 0.000000 -0.002842 0.000000
# 2 -0.004220 0.015413 0.001844 0.000000 -0.004486 0.000000
# 3 -0.004414 0.001844 0.016840 0.000000 -0.006576 0.000000
# 4 0.000000 0.000000 0.000000 0.018049 0.000000 0.016978
# 5 -0.002842 -0.004486 -0.006576 0.000000 0.038319 0.000000
# 6 0.000000 0.000000 0.000000 0.016978 0.000000 -0.000067
#
#
# Mechanical properties :
#
#
# Convention : Reuss Voigt Hill
#
# Bulk Modulus (GPa) = 35.22175 54.35953 44.79064
# Shear Modulus (GPa) = 41.21427 8.10267 24.65847
#
# Velocity S-wave (km/s) = 4.66465 2.06828 3.60810
# Velocity P-wave (km/s) = 6.89980 5.86538 6.40351
#
# Compressibility (1/GPa) = 0.02839155
#
# Stress axis : x y z
#
# Youngs Moduli (GPa) = 102.89239 64.87892 59.38210
#
# Poissons Ratio (x) = 0.27381 0.26209
# Poissons Ratio (y) = 0.43423 -0.10947
# Poissons Ratio (z) = 0.45413 -0.11961
#
# Static dielectric constant tensor:
#      x y z
#    x 1.658050 0.000000 0.009370 
#    y 0.000000 1.691070 0.000000 
#    z 0.009370 0.000000 1.628620 
# 
# From -- ./inp_files/29172.got.cif
#   From: 2010.05.17/outbox.cif.g08.bks.cpg/sg11_15_cif.got.tgz:29172.got - 2010.06.03 12:22:45.
