data_PCOD9166304
_publ_section_title
;
Structure prediction by ZEFSAII (Michael W. Deem and Ramdas Pophale) SiO2 
 PCOD9166304
Probable space group: P 21/M
;
_chemical_formula_sum "Si O2"
_cell_formula_units_Z 32
_cell_length_a 25.048306
_cell_length_b 8.970654
_cell_length_c 25.075410
_cell_angle_alpha 90.000000
_cell_angle_beta 162.926031
_cell_angle_gamma 90.000000
_cell_volume 1654.304737
_symmetry_space_group_name_H-M "P 21/M"
_symmetry_group_IT_number 11
_symmetry_cell_setting 'monoclinic'
loop_
_space_group_symop_operation_xyz
x,y,z
-x,1/2+y,-z
-x,-y,-z
x,1/2-y,z
loop_
_atom_site_type_symbol
_atom_site_label
_atom_site_fract_x
_atom_site_fract_y
_atom_site_fract_z
Si Si1 0.311293 0.429112 0.485732
Si Si2 0.476917 0.572417 0.919408
Si Si3 0.267841 0.570073 0.114955
Si Si4 0.732932 0.921349 0.774799
Si Si5 0.194846 0.925772 0.828939
Si Si6 0.100373 0.424730 0.545766
Si Si7 0.288434 0.920868 0.353672
Si Si8 0.037583 0.931274 0.791430
O O1 0.308397 0.250000 0.480790
O O2 0.520967 0.473347 0.693234
O O3 0.243421 0.489009 0.363943
O O4 0.170340 0.478401 0.396527
O O5 0.472867 0.750000 0.920655
O O6 0.288192 0.509789 0.716690
O O7 0.500000 0.500000 0.000000
O O8 0.640379 0.518166 0.038254
O O9 0.259406 0.750000 0.112381
O O10 0.208627 0.497578 0.114238
O O11 0.151275 0.525679 0.952371
O O12 0.790458 0.750000 0.827332
O O13 0.510357 0.923882 0.562727
O O14 0.785075 0.007588 0.770836
O O15 0.247385 0.750000 0.882837
O O16 0.128096 0.980402 0.822889
O O17 0.029283 0.934590 0.629141
O O18 0.133952 0.250000 0.589314
O O19 0.000000 0.500000 0.500000
O O20 0.231747 0.750000 0.304212
O O21 0.038179 0.750000 0.789809
#
# Coordination Sequence:
#
# PCOD9166304 Si02
#       8
#     4   4   4   4   4   4   4   4
#     4   9  17  31  52  76 103 138 177 221 274 327
#     4  12  24  39  62  90 123 158 195 238 290 348
#     4   9  17  31  53  77 104 139 178 223 273 327
#     4   9  16  27  46  73 104 136 174 221 273 330
#     4  10  22  40  62  89 119 155 197 242 290 344
#     4  11  22  37  62  92 125 159 195 237 287 345
#     4   9  16  27  46  73 103 135 174 221 273 329
#     4   9  19  36  57  81 108 140 186 232 271 326
#
# _framework density 19.343471999999998
#
# number of rings (size 3 to 8) (size 9 to 14) (size 15 to 20)
#    0.000    2.250    1.250    2.250    0.000    4.500 
#    0.000    6.250    0.000    3.000    0.000    0.000 
#    0.000    0.000    0.000    0.000    0.000    0.000 
#
# Total GULP energy -178724.395400 kJ/mol
# GULP energy per Si atom -5585.137356 kJ/mol
# Density = 1.929945 g / cm^3
# Si number density = 19.343472 Si / 1000 Ang^3
#
#
#
# Elastic Constant Matrix: (Units=GPa)
#
#
# Indices 1 2 3 4 5 6 
#
# 1 85.5027 18.6590 16.3713 0.0000 8.7600 0.0000
# 2 18.6590 67.4179 27.7080 0.0000 4.1908 0.0000
# 3 16.3713 27.7080 61.1017 0.0000 9.4066 0.0000
# 4 0.0000 0.0000 0.0000 18.5190 0.0000 0.1650
# 5 8.7600 4.1908 9.4066 0.0000 29.3197 0.0000
# 6 0.0000 0.0000 0.0000 0.1650 0.0000 26.9756
#
#
#
# Elastic Compliance Matrix: (Units=1/GPa)
#
#
# Indices 1 2 3 4 5 6 
#
# 1 0.012918 -0.002650 -0.001813 0.000000 -0.002899 0.000000
# 2 -0.002650 0.018774 -0.007903 0.000000 0.000644 0.000000
# 3 -0.001813 -0.007903 0.021227 0.000000 -0.005139 0.000000
# 4 0.000000 0.000000 0.000000 0.054002 0.000000 -0.000330
# 5 -0.002899 0.000644 -0.005139 0.000000 0.036530 0.000000
# 6 0.000000 0.000000 0.000000 -0.000330 0.000000 0.037073
#
#
# Mechanical properties :
#
#
# Convention : Reuss Voigt Hill
#
# Bulk Modulus (GPa) = 35.47685 37.72210 36.59948
# Shear Modulus (GPa) = 23.29375 25.04847 24.17111
#
# Velocity S-wave (km/s) = 3.47395 3.60242 3.53877
# Velocity P-wave (km/s) = 5.87123 6.07015 5.97152
#
# Compressibility (1/GPa) = 0.02818739
#
# Stress axis : x y z
#
# Youngs Moduli (GPa) = 77.41136 53.26476 47.11040
#
# Poissons Ratio (x) = 0.14114 0.08542
# Poissons Ratio (y) = 0.20513 0.37230
# Poissons Ratio (z) = 0.14037 0.42093
#
# Static dielectric constant tensor:
#      x y z
#    x 1.650360 0.000000 0.023270 
#    y 0.000000 1.648020 0.000000 
#    z 0.023270 0.000000 1.706800 
# 
# From -- ./inp_files/70030.got.cif
#   From: 2010.05.17/outbox.cif.g08.bks.cpg/sg11_36_cif.got.tgz:70030.got - 2010.06.03 12:22:45.
