data_PCOD9166832
_publ_section_title
;
Structure prediction by ZEFSAII (Michael W. Deem and Ramdas Pophale) SiO2 
 PCOD9166832
Probable space group: P 21/M
;
_chemical_formula_sum "Si O2"
_cell_formula_units_Z 24
_cell_length_a 13.710655
_cell_length_b 14.636960
_cell_length_c 7.614302
_cell_angle_alpha 90.000000
_cell_angle_beta 39.799361
_cell_angle_gamma 90.000000
_cell_volume 978.110185
_symmetry_space_group_name_H-M "P 21/M"
_symmetry_group_IT_number 11
_symmetry_cell_setting 'monoclinic'
loop_
_space_group_symop_operation_xyz
x,y,z
-x,1/2+y,-z
-x,-y,-z
x,1/2-y,z
loop_
_atom_site_type_symbol
_atom_site_label
_atom_site_fract_x
_atom_site_fract_y
_atom_site_fract_z
Si Si1 0.104431 0.853767 0.038054
Si Si2 0.009738 0.356801 0.177891
Si Si3 0.648287 0.012036 0.407015
Si Si4 0.645992 0.860169 0.677606
Si Si5 0.661853 0.142692 0.716462
Si Si6 0.113226 0.084923 0.374741
O O1 0.162292 0.750000 0.928921
O O2 0.013060 0.887930 0.990796
O O3 0.231713 0.930964 0.875569
O O4 0.994807 0.851737 0.355291
O O5 0.027195 0.250000 0.134821
O O6 0.841684 0.374911 0.498079
O O7 0.136196 0.384548 0.143176
O O8 0.689652 0.915795 0.442496
O O9 0.500000 0.000000 0.500000
O O10 0.620798 0.079889 0.609273
O O11 0.678529 0.750000 0.628319
O O12 0.734086 0.909835 0.718811
O O13 0.464097 0.872009 0.959797
O O14 0.650048 0.250000 0.687827
O O15 0.000000 0.000000 0.500000
#
# Coordination Sequence:
#
# PCOD9166832 Si02
#       6
#     4   4   4   4   4   4
#     4  10  23  44  67  96 132 176 231 286 333 410
#     4   9  19  39  66  91 121 173 226 268 327 401
#     4  11  24  39  67  97 134 173 229 279 340 406
#     4  11  25  43  64  98 141 176 221 288 351 404
#     4   9  20  41  66  93 130 171 221 282 339 406
#     4  12  25  40  68  97 136 178 227 275 344 406
#
# _framework density 24.537110999999999
#
# number of rings (size 3 to 8) (size 9 to 14) (size 15 to 20)
#    0.000    1.667    0.000    5.500    4.667    4.000 
#    0.000    0.000    0.000    0.000    0.000    0.000 
#    0.000    0.000    0.000    0.000    0.000    0.000 
#
# Total GULP energy -133999.529654 kJ/mol
# GULP energy per Si atom -5583.313736 kJ/mol
# Density = 2.448126 g / cm^3
# Si number density = 24.537111 Si / 1000 Ang^3
#
#
#
# Elastic Constant Matrix: (Units=GPa)
#
#
# Indices 1 2 3 4 5 6 
#
# 1 144.6162 29.9044 -3.0436 0.0000 0.6836 0.0000
# 2 29.9044 107.3407 18.9445 0.0000 -2.9672 0.0000
# 3 -3.0436 18.9445 76.7660 0.0000 4.9947 0.0000
# 4 0.0000 0.0000 0.0000 34.4834 0.0000 -1.3242
# 5 0.6836 -2.9672 4.9947 0.0000 24.0323 0.0000
# 6 0.0000 0.0000 0.0000 -1.3242 0.0000 14.0551
#
#
#
# Elastic Compliance Matrix: (Units=1/GPa)
#
#
# Indices 1 2 3 4 5 6 
#
# 1 0.007399 -0.002237 0.000889 0.000000 -0.000671 0.000000
# 2 -0.002237 0.010488 -0.002803 0.000000 0.001941 0.000000
# 3 0.000889 -0.002803 0.013967 0.000000 -0.003274 0.000000
# 4 0.000000 0.000000 0.000000 0.029105 0.000000 0.002742
# 5 -0.000671 0.001941 -0.003274 0.000000 0.042550 0.000000
# 6 0.000000 0.000000 0.000000 0.002742 0.000000 0.071407
#
#
# Mechanical properties :
#
#
# Convention : Reuss Voigt Hill
#
# Bulk Modulus (GPa) = 42.45974 46.70372 44.58173
# Shear Modulus (GPa) = 26.16869 33.37530 29.77200
#
# Velocity S-wave (km/s) = 3.26927 3.69209 3.48709
# Velocity P-wave (km/s) = 5.62073 6.10332 5.86699
#
# Compressibility (1/GPa) = 0.02355172
#
# Stress axis : x y z
#
# Youngs Moduli (GPa) = 135.14805 95.34985 71.59912
#
# Poissons Ratio (x) = 0.21329 -0.06366
# Poissons Ratio (y) = 0.30231 0.20070
# Poissons Ratio (z) = -0.12016 0.26728
#
# Static dielectric constant tensor:
#      x y z
#    x 3.181290 0.000000 0.110720 
#    y 0.000000 1.952510 0.000000 
#    z 0.110720 0.000000 2.061190 
# 
# From -- ./inp_files/21990.got.cif
#   From: 2010.05.17/outbox.cif.g08.bks.cpg/sg11_11_cif.got.tgz:21990.got - 2010.06.03 12:22:45.
