data_PCOD9166002
_publ_section_title
;
Structure prediction by ZEFSAII (Michael W. Deem and Ramdas Pophale) SiO2 
 PCOD9166002
Probable space group: P 21/M
;
_chemical_formula_sum "Si O2"
_cell_formula_units_Z 18
_cell_length_a 11.833530
_cell_length_b 10.315492
_cell_length_c 11.523433
_cell_angle_alpha 90.000000
_cell_angle_beta 34.792376
_cell_angle_gamma 90.000000
_cell_volume 802.640707
_symmetry_space_group_name_H-M "P 21/M"
_symmetry_group_IT_number 11
_symmetry_cell_setting 'monoclinic'
loop_
_space_group_symop_operation_xyz
x,y,z
-x,1/2+y,-z
-x,-y,-z
x,1/2-y,z
loop_
_atom_site_type_symbol
_atom_site_label
_atom_site_fract_x
_atom_site_fract_y
_atom_site_fract_z
Si Si1 0.207138 0.979347 0.936463
Si Si2 0.088996 0.250000 0.146307
Si Si3 0.243710 0.750000 0.396010
Si Si4 0.610682 0.532714 0.701158
Si Si5 0.229353 0.396470 0.686299
Si Si6 0.186063 0.250000 0.320167
O O1 0.288939 0.003726 0.737736
O O2 0.381211 0.934146 0.873751
O O3 0.136641 0.121846 0.036011
O O4 0.010237 0.895235 0.103859
O O5 0.866250 0.250000 0.385014
O O6 0.216613 0.250000 0.156776
O O7 0.362442 0.617067 0.287335
O O8 0.054358 0.750000 0.468534
O O9 0.713101 0.557508 0.490166
O O10 0.718503 0.625022 0.701296
O O11 0.305850 0.250000 0.640688
#
# Coordination Sequence:
#
# PCOD9166002 Si02
#       6
#     4   2   2   4   4   2
#     4  11  24  41  65  96 128 172 208 267 321 388
#     4  10  21  44  62  91 131 167 216 250 340 366
#     4  10  23  41  67  90 133 174 202 267 319 382
#     4  12  23  44  68  97 128 169 221 258 323 382
#     4  11  23  41  65  95 133 167 211 268 320 379
#     4  10  24  41  69  97 124 167 224 269 309 382
#
# _framework density 22.425975000000001
#
# number of rings (size 3 to 8) (size 9 to 14) (size 15 to 20)
#    0.667    0.444    4.444    2.000    1.556    0.889 
#    0.000    2.222    0.000    0.000    0.000    0.000 
#    0.000    0.000    0.000    0.000    0.000    0.000 
#
# Total GULP energy -100639.712018 kJ/mol
# GULP energy per Si atom -5591.095112 kJ/mol
# Density = 2.237493 g / cm^3
# Si number density = 22.425975 Si / 1000 Ang^3
#
#
#
# Elastic Constant Matrix: (Units=GPa)
#
#
# Indices 1 2 3 4 5 6 
#
# 1 92.3647 17.2788 4.2649 0.0000 -11.9015 0.0000
# 2 17.2788 83.4868 0.7026 0.0000 16.5251 0.0000
# 3 4.2649 0.7026 33.5538 0.0000 -11.9865 0.0000
# 4 0.0000 0.0000 0.0000 9.1384 0.0000 5.0394
# 5 -11.9015 16.5251 -11.9865 0.0000 32.5588 0.0000
# 6 0.0000 0.0000 0.0000 5.0394 0.0000 18.6362
#
#
#
# Elastic Compliance Matrix: (Units=1/GPa)
#
#
# Indices 1 2 3 4 5 6 
#
# 1 0.012407 -0.003940 0.000967 0.000000 0.006891 0.000000
# 2 -0.003940 0.014853 -0.003475 0.000000 -0.010258 0.000000
# 3 0.000967 -0.003475 0.035129 0.000000 0.015050 0.000000
# 4 0.000000 0.000000 0.000000 0.128606 0.000000 -0.034776
# 5 0.006891 -0.010258 0.015050 0.000000 0.043979 0.000000
# 6 0.000000 0.000000 0.000000 -0.034776 0.000000 0.063063
#
#
# Mechanical properties :
#
#
# Convention : Reuss Voigt Hill
#
# Bulk Modulus (GPa) = 20.20441 28.21086 24.20764
# Shear Modulus (GPa) = 15.27045 24.54395 19.90720
#
# Velocity S-wave (km/s) = 2.61229 3.31183 2.98264
# Velocity P-wave (km/s) = 4.25766 5.21834 4.76229
#
# Compressibility (1/GPa) = 0.04949414
#
# Stress axis : x y z
#
# Youngs Moduli (GPa) = 80.59985 67.32631 28.46649
#
# Poissons Ratio (x) = 0.26526 -0.02753
# Poissons Ratio (y) = 0.31756 0.09891
# Poissons Ratio (z) = -0.07795 0.23394
#
# Static dielectric constant tensor:
#      x y z
#    x 1.812210 0.000000 -0.010870 
#    y 0.000000 1.768770 0.000000 
#    z -0.010870 0.000000 1.837970 
# 
# From -- ./inp_files/34574.got.cif
#   From: 2010.05.17/outbox.cif.g08.bks.cpg/sg11_18_cif.got.tgz:34574.got - 2010.06.03 12:22:45.
