data_PCOD9166368
_publ_section_title
;
Structure prediction by ZEFSAII (Michael W. Deem and Ramdas Pophale) SiO2 
 PCOD9166368
Probable space group: P 21/M
;
_chemical_formula_sum "Si O2"
_cell_formula_units_Z 20
_cell_length_a 11.273718
_cell_length_b 7.930168
_cell_length_c 19.704981
_cell_angle_alpha 90.000000
_cell_angle_beta 25.522013
_cell_angle_gamma 90.000000
_cell_volume 759.031104
_symmetry_space_group_name_H-M "P 21/M"
_symmetry_group_IT_number 11
_symmetry_cell_setting 'monoclinic'
loop_
_space_group_symop_operation_xyz
x,y,z
-x,1/2+y,-z
-x,-y,-z
x,1/2-y,z
loop_
_atom_site_type_symbol
_atom_site_label
_atom_site_fract_x
_atom_site_fract_y
_atom_site_fract_z
Si Si1 0.659091 0.250000 0.362516
Si Si2 0.241410 0.250000 0.031773
Si Si3 0.920708 0.988102 0.677960
Si Si4 0.900904 0.750000 0.302339
Si Si5 0.459917 0.062922 0.674846
Si Si6 0.560669 0.456376 0.161851
Si Si7 0.488235 0.750000 0.972036
O O1 0.622325 0.418511 0.336491
O O2 0.427154 0.250000 0.540567
O O3 0.976471 0.250000 0.217837
O O4 0.248824 0.417929 0.981740
O O5 0.489643 0.250000 0.957691
O O6 0.743059 0.028930 0.702452
O O7 0.668865 0.898853 0.847929
O O8 0.208543 0.920007 0.500875
O O9 0.043760 0.097889 0.675008
O O10 0.167791 0.750000 0.117133
O O11 0.335716 0.250000 0.730066
O O12 0.384950 0.995089 0.787891
O O13 0.565671 0.250000 0.151231
#
# Coordination Sequence:
#
# PCOD9166368 Si02
#       7
#     2   2   4   2   4   4   2
#     4  10  26  47  65  96 136 186 229 270 344 400
#     4  12  28  45  65 100 141 177 231 285 323 394
#     4  11  22  39  69 102 137 169 226 278 341 397
#     4  10  22  40  67  93 132 182 216 279 335 389
#     4  11  22  43  69 100 138 176 219 280 339 405
#     4  12  23  41  68 107 134 176 221 280 341 404
#     4  12  22  42  71  99 137 175 228 280 332 393
#
# _framework density 26.349383
#
# number of rings (size 3 to 8) (size 9 to 14) (size 15 to 20)
#    0.000    0.800    6.000    1.200    0.000    1.600 
#    0.000    4.000    0.000    0.000    0.000    0.000 
#    0.000    0.000    0.000    0.000    0.000    0.000 
#
# Total GULP energy -111576.481577 kJ/mol
# GULP energy per Si atom -5578.824079 kJ/mol
# Density = 2.628941 g / cm^3
# Si number density = 26.349383 Si / 1000 Ang^3
#
#
#
# Elastic Constant Matrix: (Units=GPa)
#
#
# Indices 1 2 3 4 5 6 
#
# 1 77.4780 22.0401 23.8177 0.0000 15.9718 0.0000
# 2 22.0401 164.5217 31.6967 0.0000 14.6991 0.0000
# 3 23.8177 31.6967 160.6462 0.0000 -15.7491 0.0000
# 4 0.0000 0.0000 0.0000 31.2888 0.0000 14.6980
# 5 15.9718 14.6991 -15.7491 0.0000 54.5643 0.0000
# 6 0.0000 0.0000 0.0000 14.6980 0.0000 26.4269
#
#
#
# Elastic Compliance Matrix: (Units=1/GPa)
#
#
# Indices 1 2 3 4 5 6 
#
# 1 0.014969 -0.001100 -0.002473 0.000000 -0.004799 0.000000
# 2 -0.001100 0.006647 -0.001330 0.000000 -0.001853 0.000000
# 3 -0.002473 -0.001330 0.007163 0.000000 0.003150 0.000000
# 4 0.000000 0.000000 0.000000 0.043264 0.000000 -0.024062
# 5 -0.004799 -0.001853 0.003150 0.000000 0.021140 0.000000
# 6 0.000000 0.000000 0.000000 -0.024062 0.000000 0.051223
#
#
# Mechanical properties :
#
#
# Convention : Reuss Voigt Hill
#
# Bulk Modulus (GPa) = 52.70568 61.97277 57.33922
# Shear Modulus (GPa) = 31.14560 44.12876 37.63718
#
# Velocity S-wave (km/s) = 3.44179 4.09682 3.78350
# Velocity P-wave (km/s) = 5.98670 6.77859 6.39491
#
# Compressibility (1/GPa) = 0.01897329
#
# Stress axis : x y z
#
# Youngs Moduli (GPa) = 66.80323 150.43511 139.61245
#
# Poissons Ratio (x) = 0.16551 0.34523
# Poissons Ratio (y) = 0.07350 0.18570
# Poissons Ratio (z) = 0.16519 0.20009
#
# Static dielectric constant tensor:
#      x y z
#    x 2.039930 0.000000 -0.037520 
#    y 0.000000 2.206520 0.000000 
#    z -0.037520 0.000000 2.021430 
# 
# From -- ./inp_files/68854.got.cif
#   From: 2010.05.17/outbox.cif.g08.bks.cpg/sg11_35_cif.got.tgz:68854.got - 2010.06.03 12:22:45.
