data_PCOD9166565
_publ_section_title
;
Structure prediction by ZEFSAII (Michael W. Deem and Ramdas Pophale) SiO2 
 PCOD9166565
Probable space group: P 21/M
;
_chemical_formula_sum "Si O2"
_cell_formula_units_Z 20
_cell_length_a 14.534536
_cell_length_b 9.898850
_cell_length_c 6.000586
_cell_angle_alpha 90.000000
_cell_angle_beta 78.099861
_cell_angle_gamma 90.000000
_cell_volume 844.781074
_symmetry_space_group_name_H-M "P 21/M"
_symmetry_group_IT_number 11
_symmetry_cell_setting 'monoclinic'
loop_
_space_group_symop_operation_xyz
x,y,z
-x,1/2+y,-z
-x,-y,-z
x,1/2-y,z
loop_
_atom_site_type_symbol
_atom_site_label
_atom_site_fract_x
_atom_site_fract_y
_atom_site_fract_z
Si Si1 0.731309 0.250000 0.752076
Si Si2 0.854663 0.533055 0.176029
Si Si3 0.655991 0.484717 0.507706
Si Si4 0.902859 0.250000 0.309850
Si Si5 0.388327 0.750000 0.799909
Si Si6 0.927346 0.750000 0.439530
Si Si7 0.411095 0.250000 0.222005
Si Si8 0.786129 0.750000 0.872024
O O1 0.679513 0.386484 0.701727
O O2 0.825219 0.250000 0.552025
O O3 0.712687 0.250000 0.025052
O O4 0.754947 0.527481 0.351804
O O5 0.891491 0.381326 0.162449
O O6 0.928773 0.619605 0.282728
O O7 0.829482 0.617532 0.968686
O O8 0.608650 0.384028 0.353487
O O9 0.604387 0.616867 0.620230
O O10 0.999101 0.250000 0.398813
O O11 0.480630 0.750000 0.909071
O O12 0.824821 0.750000 0.604242
O O13 0.327155 0.250000 0.081233
#
# Coordination Sequence:
#
# PCOD9166565 Si02
#       8
#     2   4   4   2   2   2   2   2
#     4   9  23  45  63  94 130 169 212 261 333 381
#     4  10  22  43  64  96 133 171 214 261 324 382
#     4  10  22  45  64  92 133 169 208 274 322 379
#     4  10  22  42  72  94 135 171 211 272 321 371
#     4  11  25  42  69  94 127 167 225 267 320 385
#     4  11  21  42  68  99 129 170 216 269 318 385
#     4  12  23  44  66  98 128 174 212 271 324 378
#     4  11  24  41  66  93 135 169 218 260 322 392
#
# _framework density 23.674772999999998
#
# number of rings (size 3 to 8) (size 9 to 14) (size 15 to 20)
#    0.000    1.600    2.000    2.400    2.800    1.600 
#    7.200    9.000    0.000    0.000    0.000    0.000 
#    0.000    0.000    0.000    0.000    0.000    0.000 
#
# Total GULP energy -111784.547295 kJ/mol
# GULP energy per Si atom -5589.227365 kJ/mol
# Density = 2.362089 g / cm^3
# Si number density = 23.674773 Si / 1000 Ang^3
#
#
#
# Elastic Constant Matrix: (Units=GPa)
#
#
# Indices 1 2 3 4 5 6 
#
# 1 113.0935 39.6067 15.0683 0.0000 17.5635 0.0000
# 2 39.6067 187.1132 39.8864 0.0000 10.1610 0.0000
# 3 15.0683 39.8864 47.3836 0.0000 7.0468 0.0000
# 4 0.0000 0.0000 0.0000 31.9175 0.0000 7.8528
# 5 17.5635 10.1610 7.0468 0.0000 36.1688 0.0000
# 6 0.0000 0.0000 0.0000 7.8528 0.0000 9.1339
#
#
#
# Elastic Compliance Matrix: (Units=1/GPa)
#
#
# Indices 1 2 3 4 5 6 
#
# 1 0.010256 -0.001681 -0.001211 0.000000 -0.004272 0.000000
# 2 -0.001681 0.006810 -0.005185 0.000000 -0.000087 0.000000
# 3 -0.001211 -0.005185 0.026313 0.000000 -0.003082 0.000000
# 4 0.000000 0.000000 0.000000 0.039736 0.000000 -0.034163
# 5 -0.004272 -0.000087 -0.003082 0.000000 0.030347 0.000000
# 6 0.000000 0.000000 0.000000 -0.034163 0.000000 0.138853
#
#
# Mechanical properties :
#
#
# Convention : Reuss Voigt Hill
#
# Bulk Modulus (GPa) = 36.73225 59.63479 48.18352
# Shear Modulus (GPa) = 18.01519 32.31263 25.16391
#
# Velocity S-wave (km/s) = 2.76151 3.69840 3.26375
# Velocity P-wave (km/s) = 5.07119 6.59405 5.88211
#
# Compressibility (1/GPa) = 0.02722403
#
# Stress axis : x y z
#
# Youngs Moduli (GPa) = 97.50717 146.83968 38.00452
#
# Poissons Ratio (x) = 0.24678 0.04604
# Poissons Ratio (y) = 0.16387 0.19706
# Poissons Ratio (z) = 0.11811 0.76140
#
# Static dielectric constant tensor:
#      x y z
#    x 1.892300 0.000000 0.018930 
#    y 0.000000 1.921000 0.000000 
#    z 0.018930 0.000000 1.905860 
# 
# From -- ./inp_files/6257.got.cif
#   From: 2010.05.17/outbox.cif.g08.bks.cpg/sg11_4_cif.got.tgz:6257.got - 2010.06.03 12:22:45.
