data_PCOD9166791
_publ_section_title
;
Structure prediction by ZEFSAII (Michael W. Deem and Ramdas Pophale) SiO2 
 PCOD9166791
Probable space group: P 21/M
;
_chemical_formula_sum "Si O2"
_cell_formula_units_Z 32
_cell_length_a 11.000781
_cell_length_b 16.499248
_cell_length_c 11.994622
_cell_angle_alpha 90.000000
_cell_angle_beta 36.843963
_cell_angle_gamma 90.000000
_cell_volume 1305.459052
_symmetry_space_group_name_H-M "P 21/M"
_symmetry_group_IT_number 11
_symmetry_cell_setting 'monoclinic'
loop_
_space_group_symop_operation_xyz
x,y,z
-x,1/2+y,-z
-x,-y,-z
x,1/2-y,z
loop_
_atom_site_type_symbol
_atom_site_label
_atom_site_fract_x
_atom_site_fract_y
_atom_site_fract_z
Si Si1 0.519545 0.843128 0.283909
Si Si2 0.180927 0.842913 0.841431
Si Si3 0.630630 0.846027 0.458677
Si Si4 0.909818 0.618343 0.849867
Si Si5 0.266963 0.925400 0.292795
Si Si6 0.582038 0.158767 0.019746
Si Si7 0.159597 0.385614 0.355438
Si Si8 0.040364 0.928398 0.146700
O O1 0.447336 0.750000 0.332482
O O2 0.581781 0.862589 0.364189
O O3 0.356515 0.902264 0.346950
O O4 0.720718 0.850046 0.060509
O O5 0.146752 0.750000 0.904834
O O6 0.418196 0.862558 0.675046
O O7 0.107754 0.848155 0.767477
O O8 0.050472 0.906115 0.008298
O O9 0.676082 0.750000 0.435229
O O10 0.824375 0.898223 0.350420
O O11 0.884686 0.640178 0.739553
O O12 0.921184 0.520949 0.851493
O O13 0.427167 0.897543 0.082905
O O14 0.056012 0.877706 0.426094
O O15 0.216012 0.019253 0.319540
O O16 0.621155 0.250000 0.955557
O O17 0.770700 0.123937 0.948213
O O18 0.366595 0.156440 0.240382
#
# Coordination Sequence:
#
# PCOD9166791 Si02
#       8
#     4   4   4   4   4   4   4   4
#     4  11  22  40  69  97 127 167 213 270 326 379
#     4  11  24  43  67  96 129 168 215 270 323 379
#     4  10  23  43  65  93 128 166 211 266 323 377
#     4  12  23  42  68  99 127 171 217 266 327 384
#     4  11  23  44  68  95 132 171 215 270 327 384
#     4  12  25  42  67  96 131 177 219 263 324 392
#     4  11  25  45  67  96 134 171 215 274 325 382
#     4  12  25  44  64  94 134 173 215 262 320 390
#
# _framework density 24.512449
#
# number of rings (size 3 to 8) (size 9 to 14) (size 15 to 20)
#    0.000    0.750    3.750    4.125    0.000    3.000 
#    2.250    0.000    0.000    0.000    0.000    0.000 
#    0.000    0.000    0.000    0.000    0.000    0.000 
#
# Total GULP energy -179281.433252 kJ/mol
# GULP energy per Si atom -5602.544789 kJ/mol
# Density = 2.445666 g / cm^3
# Si number density = 24.512449 Si / 1000 Ang^3
#
#
#
# Elastic Constant Matrix: (Units=GPa)
#
#
# Indices 1 2 3 4 5 6 
#
# 1 77.3434 2.1257 2.2887 0.0000 -14.1417 0.0000
# 2 2.1257 69.1288 14.8949 0.0000 -8.0268 0.0000
# 3 2.2887 14.8949 101.6589 0.0000 -20.4383 0.0000
# 4 0.0000 0.0000 0.0000 4.7858 0.0000 11.5224
# 5 -14.1417 -8.0268 -20.4383 0.0000 35.9113 0.0000
# 6 0.0000 0.0000 0.0000 11.5224 0.0000 13.8096
#
#
#
# Elastic Compliance Matrix: (Units=1/GPa)
#
#
# Indices 1 2 3 4 5 6 
#
# 1 0.014005 0.000079 0.000887 0.000000 0.006038 0.000000
# 2 0.000079 0.015118 -0.001729 0.000000 0.002426 0.000000
# 3 0.000887 -0.001729 0.011363 0.000000 0.006430 0.000000
# 4 0.000000 0.000000 0.000000 -0.207117 0.000000 0.172813
# 5 0.006038 0.002426 0.006430 0.000000 0.034426 0.000000
# 6 0.000000 0.000000 0.000000 0.172813 0.000000 -0.071777
#
#
# Mechanical properties :
#
#
# Convention : Reuss Voigt Hill
#
# Bulk Modulus (GPa) = 25.66757 31.86109 28.76433
# Shear Modulus (GPa) = -26.38931 26.15612 -0.11659
#
# Velocity S-wave (km/s) = -3.28467 3.27012 -0.21833
# Velocity P-wave (km/s) = 1.97267 5.22345 3.42001
#
# Compressibility (1/GPa) = 0.03895967
#
# Stress axis : x y z
#
# Youngs Moduli (GPa) = 71.40385 66.14818 88.00598
#
# Poissons Ratio (x) = -0.00524 -0.07805
# Poissons Ratio (y) = -0.00566 0.15216
# Poissons Ratio (z) = -0.06333 0.11437
#
# Static dielectric constant tensor:
#      x y z
#    x 2.010770 0.000000 0.017240 
#    y 0.000000 1.845340 0.000000 
#    z 0.017240 0.000000 1.941420 
# 
# From -- ./inp_files/50683.got.cif
#   From: 2010.05.17/outbox.cif.g08.bks.cpg/sg11_26_cif.got.tgz:50683.got - 2010.06.03 12:22:45.
