data_PCOD9166978
_publ_section_title
;
Structure prediction by ZEFSAII (Michael W. Deem and Ramdas Pophale) SiO2 
 PCOD9166978
Probable space group: P 21/M
;
_chemical_formula_sum "Si O2"
_cell_formula_units_Z 24
_cell_length_a 10.028831
_cell_length_b 17.790102
_cell_length_c 7.194712
_cell_angle_alpha 90.000000
_cell_angle_beta 48.662411
_cell_angle_gamma 90.000000
_cell_volume 963.794285
_symmetry_space_group_name_H-M "P 21/M"
_symmetry_group_IT_number 11
_symmetry_cell_setting 'monoclinic'
loop_
_space_group_symop_operation_xyz
x,y,z
-x,1/2+y,-z
-x,-y,-z
x,1/2-y,z
loop_
_atom_site_type_symbol
_atom_site_label
_atom_site_fract_x
_atom_site_fract_y
_atom_site_fract_z
Si Si1 0.786275 0.410092 0.015988
Si Si2 0.051339 0.666819 0.571611
Si Si3 0.896283 0.832587 0.128524
Si Si4 0.442560 0.836708 0.049426
Si Si5 0.693864 0.518488 0.396475
Si Si6 0.756641 0.950238 0.764835
O O1 0.801241 0.451371 0.200497
O O2 0.951542 0.354027 0.863639
O O3 0.617946 0.361281 0.103737
O O4 0.779055 0.480936 0.883952
O O5 0.004783 0.750000 0.538601
O O6 0.260928 0.656792 0.336995
O O7 0.993371 0.669911 0.840188
O O8 0.933545 0.599239 0.602496
O O9 0.819069 0.750000 0.235654
O O10 0.758446 0.900639 0.264744
O O11 0.501320 0.750000 0.002174
O O12 0.595534 0.894289 0.968167
O O13 0.500000 0.500000 0.500000
O O14 0.714675 0.520090 0.597642
#
# Coordination Sequence:
#
# PCOD9166978 Si02
#       6
#     4   4   4   4   4   4
#     4  12  26  47  74 110 148 192 253 310 375 450
#     4  10  24  47  77 110 149 199 255 314 377 453
#     4  11  26  50  76 109 154 201 251 311 381 453
#     4  11  25  46  74 107 147 200 254 311 383 450
#     4  12  27  48  75 113 152 195 255 312 379 451
#     4  12  26  47  77 108 151 198 251 315 378 454
#
# _framework density 24.901579999999999
#
# number of rings (size 3 to 8) (size 9 to 14) (size 15 to 20)
#    0.000    0.667    3.333    3.000    2.333    4.000 
#    0.000    0.000    0.000    0.000    0.000    0.000 
#    0.000    0.000    0.000    0.000    0.000    0.000 
#
# Total GULP energy -134487.114029 kJ/mol
# GULP energy per Si atom -5603.629751 kJ/mol
# Density = 2.484490 g / cm^3
# Si number density = 24.901580 Si / 1000 Ang^3
#
#
#
# Elastic Constant Matrix: (Units=GPa)
#
#
# Indices 1 2 3 4 5 6 
#
# 1 101.0318 37.0229 24.7619 0.0000 1.1755 0.0000
# 2 37.0229 158.2113 27.7635 0.0000 -8.6774 0.0000
# 3 24.7619 27.7635 73.0498 0.0000 -1.6230 0.0000
# 4 0.0000 0.0000 0.0000 38.1058 0.0000 -2.9629
# 5 1.1755 -8.6774 -1.6230 0.0000 40.7422 0.0000
# 6 0.0000 0.0000 0.0000 -2.9629 0.0000 39.4924
#
#
#
# Elastic Compliance Matrix: (Units=1/GPa)
#
#
# Indices 1 2 3 4 5 6 
#
# 1 0.011466 -0.002194 -0.003073 0.000000 -0.000921 0.000000
# 2 -0.002194 0.007266 -0.001984 0.000000 0.001532 0.000000
# 3 -0.003073 -0.001984 0.015491 0.000000 0.000283 0.000000
# 4 0.000000 0.000000 0.000000 0.026397 0.000000 0.001980
# 5 -0.000921 0.001532 0.000283 0.000000 0.024909 0.000000
# 6 0.000000 0.000000 0.000000 0.001980 0.000000 0.025470
#
#
# Mechanical properties :
#
#
# Convention : Reuss Voigt Hill
#
# Bulk Modulus (GPa) = 50.70739 56.82104 53.76422
# Shear Modulus (GPa) = 37.85733 39.85105 38.85419
#
# Velocity S-wave (km/s) = 3.90330 4.00477 3.95436
# Velocity P-wave (km/s) = 6.38136 6.65222 6.51819
#
# Compressibility (1/GPa) = 0.01972099
#
# Stress axis : x y z
#
# Youngs Moduli (GPa) = 87.21532 137.62167 64.55256
#
# Poissons Ratio (x) = 0.30199 0.19838
# Poissons Ratio (y) = 0.19138 0.12806
# Poissons Ratio (z) = 0.26802 0.27301
#
# Static dielectric constant tensor:
#      x y z
#    x 1.941890 0.000000 0.039010 
#    y 0.000000 1.979870 0.000000 
#    z 0.039010 0.000000 2.179570 
# 
# From -- ./inp_files/19058.got.cif
#   From: 2010.05.17/outbox.cif.g08.bks.cpg/sg11_10_cif.got.tgz:19058.got - 2010.06.03 12:22:45.
