data_PCOD9166343
_publ_section_title
;
Structure prediction by ZEFSAII (Michael W. Deem and Ramdas Pophale) SiO2 
 PCOD9166343
Probable space group: P 21/M
;
_chemical_formula_sum "Si O2"
_cell_formula_units_Z 28
_cell_length_a 5.026997
_cell_length_b 14.585660
_cell_length_c 19.417882
_cell_angle_alpha 90.000000
_cell_angle_beta 63.528622
_cell_angle_gamma 90.000000
_cell_volume 1274.488300
_symmetry_space_group_name_H-M "P 21/M"
_symmetry_group_IT_number 11
_symmetry_cell_setting 'monoclinic'
loop_
_space_group_symop_operation_xyz
x,y,z
-x,1/2+y,-z
-x,-y,-z
x,1/2-y,z
loop_
_atom_site_type_symbol
_atom_site_label
_atom_site_fract_x
_atom_site_fract_y
_atom_site_fract_z
Si Si1 0.075415 0.850032 0.032648
Si Si2 0.696836 0.913187 0.953289
Si Si3 0.021874 0.462659 0.420968
Si Si4 0.819181 0.641043 0.786332
Si Si5 0.635713 0.039405 0.737796
Si Si6 0.391425 0.855275 0.622821
Si Si7 0.037514 0.139033 0.798669
O O1 0.930567 0.750000 0.047250
O O2 0.007683 0.887792 0.116072
O O3 0.943859 0.901363 0.982638
O O4 0.426778 0.841907 0.986143
O O5 0.833137 0.898048 0.862247
O O6 0.500000 0.000000 0.000000
O O7 0.130952 0.535965 0.351907
O O8 0.287948 0.388108 0.389686
O O9 0.000000 0.500000 0.500000
O O10 0.724034 0.417163 0.426593
O O11 0.728305 0.750000 0.795007
O O12 0.618079 0.564419 0.770407
O O13 0.137035 0.636102 0.710902
O O14 0.333885 0.083767 0.744884
O O15 0.767368 0.102605 0.783571
O O16 0.403157 0.750000 0.600683
O O17 0.061813 0.250000 0.790967
#
# Coordination Sequence:
#
# PCOD9166343 Si02
#       7
#     4   4   4   4   4   4   4
#     4  11  23  39  58  82 117 160 205 256 313 368
#     4  12  24  38  59  89 125 164 213 267 322 374
#     4  11  23  42  66  95 130 166 204 261 330 392
#     4  10  22  40  64  94 130 172 219 270 323 386
#     4  11  23  42  64  92 124 163 212 264 320 389
#     4  10  22  41  66  95 129 173 219 262 317 391
#     4  11  23  42  65  89 123 168 216 264 319 384
#
# _framework density 21.9696
#
# number of rings (size 3 to 8) (size 9 to 14) (size 15 to 20)
#    0.000    1.143    0.000    7.286    0.000    6.286 
#    0.000    9.286    0.000    0.000    0.000    0.000 
#    0.000    0.000    0.000    0.000    0.000    0.000 
#
# Total GULP energy -156443.501112 kJ/mol
# GULP energy per Si atom -5587.267897 kJ/mol
# Density = 2.191960 g / cm^3
# Si number density = 21.969600 Si / 1000 Ang^3
#
#
#
# Elastic Constant Matrix: (Units=GPa)
#
#
# Indices 1 2 3 4 5 6 
#
# 1 70.0341 10.2533 -11.5138 0.0000 12.1567 0.0000
# 2 10.2533 118.2728 28.9181 0.0000 5.9154 0.0000
# 3 -11.5138 28.9181 113.3011 0.0000 25.6596 0.0000
# 4 0.0000 0.0000 0.0000 -1.7989 0.0000 -19.0750
# 5 12.1567 5.9154 25.6596 0.0000 30.3269 0.0000
# 6 0.0000 0.0000 0.0000 -19.0750 0.0000 14.3556
#
#
#
# Elastic Compliance Matrix: (Units=1/GPa)
#
#
# Indices 1 2 3 4 5 6 
#
# 1 0.017149 -0.002099 0.004630 0.000000 -0.010382 0.000000
# 2 -0.002099 0.009276 -0.002922 0.000000 0.001504 0.000000
# 3 0.004630 -0.002922 0.012783 0.000000 -0.012102 0.000000
# 4 0.000000 0.000000 0.000000 -0.036839 0.000000 -0.048950
# 5 -0.010382 0.001504 -0.012102 0.000000 0.047082 0.000000
# 6 0.000000 0.000000 0.000000 -0.048950 0.000000 0.004616
#
#
# Mechanical properties :
#
#
# Convention : Reuss Voigt Hill
#
# Bulk Modulus (GPa) = 26.02387 39.65813 32.84100
# Shear Modulus (GPa) = 73.90068 26.84008 50.37038
#
# Velocity S-wave (km/s) = 5.80609 3.49906 4.79344
# Velocity P-wave (km/s) = 7.53782 5.86644 6.75403
#
# Compressibility (1/GPa) = 0.03842626
#
# Stress axis : x y z
#
# Youngs Moduli (GPa) = 58.31075 107.80341 78.22933
#
# Poissons Ratio (x) = 0.22633 -0.36220
# Poissons Ratio (y) = 0.12242 0.22855
# Poissons Ratio (z) = -0.26997 0.31496
#
# Static dielectric constant tensor:
#      x y z
#    x 1.811400 0.000000 0.009480 
#    y 0.000000 1.895420 0.000000 
#    z 0.009480 0.000000 1.817650 
# 
# From -- ./inp_files/56923.got.cif
#   From: 2010.05.17/outbox.cif.g08.bks.cpg/sg11_29_cif.got.tgz:56923.got - 2010.06.03 12:22:45.
