data_PCOD9166926
_publ_section_title
;
Structure prediction by ZEFSAII (Michael W. Deem and Ramdas Pophale) SiO2 
 PCOD9166926
Probable space group: P 21/M
;
_chemical_formula_sum "Si O2"
_cell_formula_units_Z 32
_cell_length_a 14.053180
_cell_length_b 15.688862
_cell_length_c 19.309004
_cell_angle_alpha 90.000000
_cell_angle_beta 160.082408
_cell_angle_gamma 90.000000
_cell_volume 1450.299073
_symmetry_space_group_name_H-M "P 21/M"
_symmetry_group_IT_number 11
_symmetry_cell_setting 'monoclinic'
loop_
_space_group_symop_operation_xyz
x,y,z
-x,1/2+y,-z
-x,-y,-z
x,1/2-y,z
loop_
_atom_site_type_symbol
_atom_site_label
_atom_site_fract_x
_atom_site_fract_y
_atom_site_fract_z
Si Si1 0.685241 0.477030 0.268691
Si Si2 0.570503 0.652765 0.796351
Si Si3 0.617901 0.343395 0.956605
Si Si4 0.200182 0.653134 0.266464
Si Si5 0.557017 0.420526 0.432320
Si Si6 0.015839 0.651879 0.918336
Si Si7 0.445354 0.390186 0.620686
Si Si8 0.159499 0.656812 0.737468
O O1 0.556385 0.417428 0.239780
O O2 0.000000 0.500000 0.500000
O O3 0.704826 0.418492 0.213951
O O4 0.537698 0.568402 0.163351
O O5 0.530234 0.750000 0.792750
O O6 0.436317 0.642975 0.628530
O O7 0.906103 0.635937 0.026653
O O8 0.486513 0.250000 0.847882
O O9 0.898747 0.347731 0.103284
O O10 0.687475 0.341408 0.084456
O O11 0.191899 0.750000 0.286536
O O12 0.252237 0.596976 0.370345
O O13 0.447034 0.647043 0.378992
O O14 0.606792 0.511736 0.432966
O O15 0.239656 0.410208 0.242168
O O16 0.943649 0.750000 0.888951
O O17 0.293239 0.624530 0.149309
O O18 0.167459 0.355651 0.467093
O O19 0.191934 0.750000 0.725559
#
# Coordination Sequence:
#
# PCOD9166926 Si02
#       8
#     4   4   4   4   4   4   4   4
#     4  12  26  46  71  96 133 176 229 285 344 405
#     4  11  25  45  69  99 139 182 227 280 341 410
#     4  10  24  43  69 101 133 174 227 283 343 406
#     4  11  24  42  66  98 135 182 224 272 342 411
#     4  12  24  40  65 101 140 179 224 278 339 411
#     4  11  21  38  64  95 137 180 218 273 334 406
#     4  12  24  39  67 101 136 175 227 276 340 403
#     4  11  24  45  69  98 134 178 228 281 340 405
#
# _framework density 22.064415
#
# number of rings (size 3 to 8) (size 9 to 14) (size 15 to 20)
#    0.000    0.750    1.250    6.750    3.500    3.000 
#    2.250    0.000    0.000    0.000    0.000    0.000 
#    0.000    0.000    0.000    0.000    0.000    0.000 
#
# Total GULP energy -178958.642770 kJ/mol
# GULP energy per Si atom -5592.457587 kJ/mol
# Density = 2.201420 g / cm^3
# Si number density = 22.064415 Si / 1000 Ang^3
#
#
#
# Elastic Constant Matrix: (Units=GPa)
#
#
# Indices 1 2 3 4 5 6 
#
# 1 105.8894 38.7899 2.9894 0.0000 -3.1982 0.0000
# 2 38.7899 135.6213 12.2634 0.0000 9.4850 0.0000
# 3 2.9894 12.2634 24.4632 0.0000 3.3664 0.0000
# 4 0.0000 0.0000 0.0000 -9.8469 0.0000 17.2889
# 5 -3.1982 9.4850 3.3664 0.0000 33.0381 0.0000
# 6 0.0000 0.0000 0.0000 17.2889 0.0000 46.7300
#
#
#
# Elastic Compliance Matrix: (Units=1/GPa)
#
#
# Indices 1 2 3 4 5 6 
#
# 1 0.010671 -0.003191 0.000028 0.000000 0.001946 0.000000
# 2 -0.003191 0.008791 -0.003679 0.000000 -0.002458 0.000000
# 3 0.000028 -0.003679 0.043178 0.000000 -0.003341 0.000000
# 4 0.000000 0.000000 0.000000 -0.061564 0.000000 0.022777
# 5 0.001946 -0.002458 -0.003341 0.000000 0.031502 0.000000
# 6 0.000000 0.000000 0.000000 0.022777 0.000000 0.012973
#
#
# Mechanical properties :
#
#
# Convention : Reuss Voigt Hill
#
# Bulk Modulus (GPa) = 20.42636 41.56214 30.99425
# Shear Modulus (GPa) = 66.17901 28.11299 47.14600
#
# Velocity S-wave (km/s) = 5.48258 3.57337 4.62751
# Velocity P-wave (km/s) = 7.02538 5.99191 6.52912
#
# Compressibility (1/GPa) = 0.04895634
#
# Stress axis : x y z
#
# Youngs Moduli (GPa) = 93.71549 113.75856 23.15983
#
# Poissons Ratio (x) = 0.36295 -0.00064
# Poissons Ratio (y) = 0.29901 0.08520
# Poissons Ratio (z) = -0.00259 0.41847
#
# Static dielectric constant tensor:
#      x y z
#    x 1.806810 0.000000 -0.009990 
#    y 0.000000 1.982230 0.000000 
#    z -0.009990 0.000000 1.803700 
# 
# From -- ./inp_files/65799.got.cif
#   From: 2010.05.17/outbox.cif.g08.bks.cpg/sg11_33_cif.got.tgz:65799.got - 2010.06.03 12:22:45.
