data_PCOD9166391
_publ_section_title
;
Structure prediction by ZEFSAII (Michael W. Deem and Ramdas Pophale) SiO2 
 PCOD9166391
Probable space group: P 21/M
;
_chemical_formula_sum "Si O2"
_cell_formula_units_Z 32
_cell_length_a 31.975298
_cell_length_b 8.766922
_cell_length_c 12.269742
_cell_angle_alpha 90.000000
_cell_angle_beta 30.107452
_cell_angle_gamma 90.000000
_cell_volume 1725.340580
_symmetry_space_group_name_H-M "P 21/M"
_symmetry_group_IT_number 11
_symmetry_cell_setting 'monoclinic'
loop_
_space_group_symop_operation_xyz
x,y,z
-x,1/2+y,-z
-x,-y,-z
x,1/2-y,z
loop_
_atom_site_type_symbol
_atom_site_label
_atom_site_fract_x
_atom_site_fract_y
_atom_site_fract_z
Si Si1 0.407829 0.067247 0.194172
Si Si2 0.897049 0.933648 0.123877
Si Si3 0.629454 0.431227 0.952751
Si Si4 0.284930 0.931449 0.847733
Si Si5 0.232607 0.066636 0.195310
Si Si6 0.255125 0.065658 0.687185
Si Si7 0.924940 0.566338 0.308827
Si Si8 0.466660 0.068630 0.462122
O O1 0.413158 0.250000 0.180639
O O2 0.344492 0.023151 0.433656
O O3 0.369131 0.009329 0.167936
O O4 0.500000 0.000000 0.000000
O O5 0.899482 0.750000 0.116996
O O6 0.817448 0.981044 0.233076
O O7 0.893428 0.981352 0.259031
O O8 0.983839 0.996512 0.881664
O O9 0.643125 0.250000 0.912237
O O10 0.696139 0.501623 0.885504
O O11 0.537814 0.454566 0.211388
O O12 0.282202 0.750000 0.860241
O O13 0.243205 0.991542 0.831462
O O14 0.380470 0.988273 0.628137
O O15 0.245929 0.001919 0.044920
O O16 0.239006 0.250000 0.179122
O O17 0.143566 0.023071 0.447677
O O18 0.253741 0.250000 0.700773
O O19 0.931815 0.750000 0.293158
O O20 0.452879 0.250000 0.505043
O O21 0.500000 0.000000 0.500000
#
# Coordination Sequence:
#
# PCOD9166391 Si02
#       8
#     4   4   4   4   4   4   4   4
#     4  11  23  39  59  84 117 154 194 239 287 342
#     4   9  18  36  62  89 116 148 186 231 286 346
#     4  11  23  37  57  86 117 148 192 242 290 344
#     4  12  25  39  57  84 116 152 198 246 292 346
#     4  11  22  38  60  84 115 153 191 236 290 345
#     4  10  22  41  61  82 114 157 200 237 285 348
#     4   9  19  36  60  91 120 146 182 231 289 348
#     4  11  22  37  57  81 113 153 195 240 287 339
#
# _framework density 18.547063000000001
#
# number of rings (size 3 to 8) (size 9 to 14) (size 15 to 20)
#    0.000    1.500    1.250    4.125    0.000    9.000 
#    0.000    3.125    0.000    0.000    0.000    0.000 
#    0.000    0.000    0.000    0.000    0.000    0.000 
#
# Total GULP energy -178881.047970 kJ/mol
# GULP energy per Si atom -5590.032749 kJ/mol
# Density = 1.850485 g / cm^3
# Si number density = 18.547063 Si / 1000 Ang^3
#
#
#
# Elastic Constant Matrix: (Units=GPa)
#
#
# Indices 1 2 3 4 5 6 
#
# 1 106.8720 30.3527 61.2900 0.0000 4.7337 0.0000
# 2 30.3527 52.5779 48.0461 0.0000 6.7082 0.0000
# 3 61.2900 48.0461 128.3029 0.0000 5.2270 0.0000
# 4 0.0000 0.0000 0.0000 30.0202 0.0000 -2.5667
# 5 4.7337 6.7082 5.2270 0.0000 31.3954 0.0000
# 6 0.0000 0.0000 0.0000 -2.5667 0.0000 31.0310
#
#
#
# Elastic Compliance Matrix: (Units=1/GPa)
#
#
# Indices 1 2 3 4 5 6 
#
# 1 0.013165 -0.002745 -0.005239 0.000000 -0.000526 0.000000
# 2 -0.002745 0.030104 -0.009783 0.000000 -0.004390 0.000000
# 3 -0.005239 -0.009783 0.013938 0.000000 0.000560 0.000000
# 4 0.000000 0.000000 0.000000 0.033548 0.000000 0.002775
# 5 -0.000526 -0.004390 0.000560 0.000000 0.032776 0.000000
# 6 0.000000 0.000000 0.000000 0.002775 0.000000 0.032455
#
#
# Mechanical properties :
#
#
# Convention : Reuss Voigt Hill
#
# Bulk Modulus (GPa) = 46.14370 63.01447 54.57909
# Shear Modulus (GPa) = 25.15801 28.36026 26.75913
#
# Velocity S-wave (km/s) = 3.68699 3.91461 3.80250
# Velocity P-wave (km/s) = 6.56189 7.38115 6.98355
#
# Compressibility (1/GPa) = 0.02167143
#
# Stress axis : x y z
#
# Youngs Moduli (GPa) = 75.96138 33.21829 71.74842
#
# Poissons Ratio (x) = 0.09118 0.37592
# Poissons Ratio (y) = 0.20850 0.70192
# Poissons Ratio (z) = 0.39799 0.32498
#
# Static dielectric constant tensor:
#      x y z
#    x 1.621050 0.000000 0.006940 
#    y 0.000000 1.620450 0.000000 
#    z 0.006940 0.000000 1.628480 
# 
# From -- ./inp_files/45125.got.cif
#   From: 2010.05.17/outbox.cif.g08.bks.cpg/sg11_23_cif.got.tgz:45125.got - 2010.06.03 12:22:45.
