data_PCOD9166222
_publ_section_title
;
Structure prediction by ZEFSAII (Michael W. Deem and Ramdas Pophale) SiO2 
 PCOD9166222
Probable space group: P 21/M
;
_chemical_formula_sum "Si O2"
_cell_formula_units_Z 32
_cell_length_a 12.497491
_cell_length_b 13.915019
_cell_length_c 8.899563
_cell_angle_alpha 90.000000
_cell_angle_beta 90.556028
_cell_angle_gamma 90.000000
_cell_volume 1547.586268
_symmetry_space_group_name_H-M "P 21/M"
_symmetry_group_IT_number 11
_symmetry_cell_setting 'monoclinic'
loop_
_space_group_symop_operation_xyz
x,y,z
-x,1/2+y,-z
-x,-y,-z
x,1/2-y,z
loop_
_atom_site_type_symbol
_atom_site_label
_atom_site_fract_x
_atom_site_fract_y
_atom_site_fract_z
Si Si1 0.727376 0.139618 0.949913
Si Si2 0.098743 0.989942 0.165103
Si Si3 0.227864 0.049956 0.442537
Si Si4 0.577081 0.637154 0.394106
Si Si5 0.389253 0.476116 0.914745
Si Si6 0.926440 0.639807 0.321824
Si Si7 0.667545 0.359551 0.599412
Si Si8 0.187321 0.141856 0.987758
O O1 0.728847 0.250000 0.987932
O O2 0.672203 0.129385 0.782888
O O3 0.843631 0.095675 0.923056
O O4 0.671731 0.077511 0.077654
O O5 0.185853 0.042497 0.273632
O O6 0.088201 0.076766 0.047459
O O7 0.012553 0.938788 0.268540
O O8 0.335683 0.107690 0.481029
O O9 0.134121 0.098820 0.535411
O O10 0.257206 0.938504 0.475715
O O11 0.589802 0.750000 0.353710
O O12 0.592561 0.571051 0.247028
O O13 0.455383 0.624785 0.447530
O O14 0.500000 0.500000 0.000000
O O15 0.304626 0.406614 0.000496
O O16 0.967911 0.750000 0.341750
O O17 0.837400 0.645036 0.190127
O O18 0.699786 0.250000 0.568442
O O19 0.185557 0.250000 0.047889
#
# Coordination Sequence:
#
# PCOD9166222 Si02
#       8
#     4   4   4   4   4   4   4   4
#     4   9  18  34  56  83 116 157 200 244 300 360
#     4  10  22  39  62  90 119 157 206 256 303 356
#     4  11  22  38  61  90 124 160 203 254 304 365
#     4  11  21  37  61  87 122 166 207 246 302 370
#     4  11  20  33  59  89 120 157 202 248 293 357
#     4  11  22  40  66  90 116 159 207 253 311 371
#     4   9  19  36  58  82 117 163 204 244 299 361
#     4  10  22  40  62  90 125 159 202 254 307 361
#
# _framework density 20.677361000000001
#
# number of rings (size 3 to 8) (size 9 to 14) (size 15 to 20)
#    0.000    1.750    2.500    2.250    0.000    2.000 
#    0.000    1.250    0.000    0.000    0.000    0.000 
#    0.000    0.000    0.000    0.000    0.000    0.000 
#
# Total GULP energy -178378.773855 kJ/mol
# GULP energy per Si atom -5574.336683 kJ/mol
# Density = 2.063030 g / cm^3
# Si number density = 20.677361 Si / 1000 Ang^3
#
#
#
# Elastic Constant Matrix: (Units=GPa)
#
#
# Indices 1 2 3 4 5 6 
#
# 1 45.7511 9.9382 -2.5237 0.0000 1.1775 0.0000
# 2 9.9382 123.7618 17.9264 0.0000 -12.3717 0.0000
# 3 -2.5237 17.9264 29.7488 0.0000 1.1462 0.0000
# 4 0.0000 0.0000 0.0000 30.6081 0.0000 -5.3271
# 5 1.1775 -12.3717 1.1462 0.0000 22.1819 0.0000
# 6 0.0000 0.0000 0.0000 -5.3271 0.0000 23.1010
#
#
#
# Elastic Compliance Matrix: (Units=1/GPa)
#
#
# Indices 1 2 3 4 5 6 
#
# 1 0.022703 -0.002634 0.003623 0.000000 -0.002861 0.000000
# 2 -0.002634 0.009807 -0.006362 0.000000 0.005938 0.000000
# 3 0.003623 -0.006362 0.037975 0.000000 -0.005703 0.000000
# 4 0.000000 0.000000 0.000000 0.034037 0.000000 0.007849
# 5 -0.002861 0.005938 -0.005703 0.000000 0.048840 0.000000
# 6 0.000000 0.000000 0.000000 0.007849 0.000000 0.045098
#
#
# Mechanical properties :
#
#
# Convention : Reuss Voigt Hill
#
# Bulk Modulus (GPa) = 16.73901 27.77150 22.25525
# Shear Modulus (GPa) = 21.82279 26.77292 24.29786
#
# Velocity S-wave (km/s) = 3.25221 3.60223 3.43168
# Velocity P-wave (km/s) = 4.71332 5.54630 5.14669
#
# Compressibility (1/GPa) = 0.05974070
#
# Stress axis : x y z
#
# Youngs Moduli (GPa) = 44.04697 101.97239 26.33285
#
# Poissons Ratio (x) = 0.26859 -0.09541
# Poissons Ratio (y) = 0.11602 0.16752
# Poissons Ratio (z) = -0.15960 0.64871
#
# Static dielectric constant tensor:
#      x y z
#    x 1.795100 0.000000 0.033410 
#    y 0.000000 1.755130 0.000000 
#    z 0.033410 0.000000 1.766620 
# 
# From -- ./inp_files/18060.got.cif
#   From: 2010.05.17/outbox.cif.g08.bks.cpg/sg11_10_cif.got.tgz:18060.got - 2010.06.03 12:22:45.
