data_PCOD9166116
_publ_section_title
;
Structure prediction by ZEFSAII (Michael W. Deem and Ramdas Pophale) SiO2 
 PCOD9166116
Probable space group: P 21/M
;
_chemical_formula_sum "Si O2"
_cell_formula_units_Z 20
_cell_length_a 10.005142
_cell_length_b 18.970489
_cell_length_c 12.414107
_cell_angle_alpha 90.000000
_cell_angle_beta 22.708803
_cell_angle_gamma 90.000000
_cell_volume 909.616488
_symmetry_space_group_name_H-M "P 21/M"
_symmetry_group_IT_number 11
_symmetry_cell_setting 'monoclinic'
loop_
_space_group_symop_operation_xyz
x,y,z
-x,1/2+y,-z
-x,-y,-z
x,1/2-y,z
loop_
_atom_site_type_symbol
_atom_site_label
_atom_site_fract_x
_atom_site_fract_y
_atom_site_fract_z
Si Si1 0.473130 0.902366 0.472678
Si Si2 0.616366 0.892107 0.618702
Si Si3 0.263112 0.948093 0.246021
Si Si4 0.414671 0.750000 0.543030
Si Si5 0.780395 0.250000 0.071418
Si Si6 0.760095 0.538055 0.050790
O O1 0.602135 0.894829 0.499221
O O2 0.351075 0.823746 0.531886
O O3 0.739358 0.928889 0.185383
O O4 0.145829 0.954738 0.719053
O O5 0.430062 0.821023 0.797396
O O6 0.012719 0.897799 0.364120
O O7 0.399886 0.959993 0.821621
O O8 0.511218 0.918564 0.154809
O O9 0.000000 0.000000 0.500000
O O10 0.500000 0.000000 0.000000
O O11 0.196143 0.750000 0.815402
O O12 0.828825 0.750000 0.262299
#
# Coordination Sequence:
#
# PCOD9166116 Si02
#       6
#     4   4   4   2   2   4
#     4  11  22  38  62  89 118 158 203 252 297 360
#     4  10  22  40  62  89 120 159 207 250 300 363
#     4  10  22  39  59  84 121 156 187 242 305 354
#     4  10  22  40  56  86 126 158 193 250 319 356
#     4  10  22  38  60  86 118 160 201 250 297 358
#     4  11  22  37  61  93 121 154 199 254 305 355
#
# _framework density 21.987289000000001
#
# number of rings (size 3 to 8) (size 9 to 14) (size 15 to 20)
#    0.000    1.600    0.000    6.000    0.000   12.800 
#    0.000    2.000    0.000    0.000    0.000    0.000 
#    0.000    0.000    0.000    0.000    0.000    0.000 
#
# Total GULP energy -111819.940487 kJ/mol
# GULP energy per Si atom -5590.997024 kJ/mol
# Density = 2.193724 g / cm^3
# Si number density = 21.987289 Si / 1000 Ang^3
#
#
#
# Elastic Constant Matrix: (Units=GPa)
#
#
# Indices 1 2 3 4 5 6 
#
# 1 91.8043 5.3398 28.1976 0.0000 -24.7605 0.0000
# 2 5.3398 127.0090 11.5556 0.0000 2.6897 0.0000
# 3 28.1976 11.5556 109.2775 0.0000 1.3709 0.0000
# 4 0.0000 0.0000 0.0000 35.8863 0.0000 -4.3022
# 5 -24.7605 2.6897 1.3709 0.0000 36.6579 0.0000
# 6 0.0000 0.0000 0.0000 -4.3022 0.0000 18.1566
#
#
#
# Elastic Compliance Matrix: (Units=1/GPa)
#
#
# Indices 1 2 3 4 5 6 
#
# 1 0.014885 -0.000486 -0.003918 0.000000 0.010236 0.000000
# 2 -0.000486 0.007977 -0.000707 0.000000 -0.000887 0.000000
# 3 -0.003918 -0.000707 0.010274 0.000000 -0.002979 0.000000
# 4 0.000000 0.000000 0.000000 0.028681 0.000000 0.006796
# 5 0.010236 -0.000887 -0.002979 0.000000 0.034370 0.000000
# 6 0.000000 0.000000 0.000000 0.006796 0.000000 0.056687
#
#
# Mechanical properties :
#
#
# Convention : Reuss Voigt Hill
#
# Bulk Modulus (GPa) = 43.64088 46.47520 45.05804
# Shear Modulus (GPa) = 29.28540 37.00670 33.14605
#
# Velocity S-wave (km/s) = 3.65351 4.10700 3.88688
# Velocity P-wave (km/s) = 6.13913 6.60857 6.37817
#
# Compressibility (1/GPa) = 0.02291429
#
# Stress axis : x y z
#
# Youngs Moduli (GPa) = 67.18051 125.36033 97.33198
#
# Poissons Ratio (x) = 0.06094 0.38134
# Poissons Ratio (y) = 0.03266 0.06881
# Poissons Ratio (z) = 0.26321 0.08862
#
# Static dielectric constant tensor:
#      x y z
#    x 1.870910 0.000000 -0.026100 
#    y 0.000000 1.893400 0.000000 
#    z -0.026100 0.000000 1.781740 
# 
# From -- ./inp_files/50577.got.cif
#   From: 2010.05.17/outbox.cif.g08.bks.cpg/sg11_26_cif.got.tgz:50577.got - 2010.06.03 12:22:45.
