data_PCOD9166809
_publ_section_title
;
Structure prediction by ZEFSAII (Michael W. Deem and Ramdas Pophale) SiO2 
 PCOD9166809
Probable space group: P 21/M
;
_chemical_formula_sum "Si O2"
_cell_formula_units_Z 32
_cell_length_a 11.899503
_cell_length_b 8.695048
_cell_length_c 15.197636
_cell_angle_alpha 90.000000
_cell_angle_beta 92.911367
_cell_angle_gamma 90.000000
_cell_volume 1570.420440
_symmetry_space_group_name_H-M "P 21/M"
_symmetry_group_IT_number 11
_symmetry_cell_setting 'monoclinic'
loop_
_space_group_symop_operation_xyz
x,y,z
-x,1/2+y,-z
-x,-y,-z
x,1/2-y,z
loop_
_atom_site_type_symbol
_atom_site_label
_atom_site_fract_x
_atom_site_fract_y
_atom_site_fract_z
Si Si1 0.205384 0.573399 0.521364
Si Si2 0.527297 0.566861 0.221333
Si Si3 0.179974 0.069102 0.335669
Si Si4 0.230935 0.933754 0.809757
Si Si5 0.716808 0.435627 0.837911
Si Si6 0.458078 0.571724 0.589565
Si Si7 0.874752 0.065058 0.005319
Si Si8 0.063471 0.429618 0.660072
O O1 0.165989 0.750000 0.519111
O O2 0.226415 0.517025 0.423543
O O3 0.322426 0.566955 0.578608
O O4 0.115247 0.468175 0.566959
O O5 0.545085 0.750000 0.218359
O O6 0.639322 0.482112 0.193613
O O7 0.415501 0.526601 0.161958
O O8 0.505608 0.518278 0.321889
O O9 0.197233 0.250000 0.345583
O O10 0.235351 0.008369 0.249024
O O11 0.047964 0.027917 0.328094
O O12 0.221003 0.750000 0.795645
O O13 0.180022 0.973961 0.902999
O O14 0.157343 0.020866 0.734054
O O15 0.724752 0.250000 0.831228
O O16 0.792458 0.486122 0.923251
O O17 0.500000 0.500000 0.500000
O O18 0.493346 0.750000 0.597035
O O19 0.881982 0.250000 0.001366
O O20 0.000000 0.000000 0.000000
O O21 0.036833 0.250000 0.666718
#
# Coordination Sequence:
#
# PCOD9166809 Si02
#       8
#     4   4   4   4   4   4   4   4
#     4  11  23  40  60  87 123 165 210 260 315 373
#     4  11  23  40  64  92 126 167 213 260 315 377
#     4  12  25  40  61  91 126 165 210 262 318 378
#     4  11  23  41  65  95 129 166 210 264 321 379
#     4  10  23  44  65  91 127 166 210 260 313 374
#     4  11  23  38  60  87 124 167 213 265 314 370
#     4  10  23  43  68  96 128 164 208 261 318 380
#     4  12  24  40  63  90 124 166 210 260 316 379
#
# _framework density 20.376707
#
# number of rings (size 3 to 8) (size 9 to 14) (size 15 to 20)
#    0.000    1.000    1.250    5.625    0.000    9.500 
#    0.000    0.000    0.000    0.000    0.000    0.000 
#    0.000    0.000    0.000    0.000    0.000    0.000 
#
# Total GULP energy -179101.742777 kJ/mol
# GULP energy per Si atom -5596.929462 kJ/mol
# Density = 2.033033 g / cm^3
# Si number density = 20.376707 Si / 1000 Ang^3
#
#
#
# Elastic Constant Matrix: (Units=GPa)
#
#
# Indices 1 2 3 4 5 6 
#
# 1 75.9195 9.0600 28.6353 0.0000 11.7078 0.0000
# 2 9.0600 36.4869 13.7687 0.0000 4.5226 0.0000
# 3 28.6353 13.7687 110.3043 0.0000 6.8785 0.0000
# 4 0.0000 0.0000 0.0000 21.2667 0.0000 -7.0352
# 5 11.7078 4.5226 6.8785 0.0000 38.8504 0.0000
# 6 0.0000 0.0000 0.0000 -7.0352 0.0000 34.1186
#
#
#
# Elastic Compliance Matrix: (Units=1/GPa)
#
#
# Indices 1 2 3 4 5 6 
#
# 1 0.015308 -0.002019 -0.003488 0.000000 -0.003761 0.000000
# 2 -0.002019 0.029320 -0.002994 0.000000 -0.002275 0.000000
# 3 -0.003488 -0.002994 0.010372 0.000000 -0.000437 0.000000
# 4 0.000000 0.000000 0.000000 0.050464 0.000000 0.010406
# 5 -0.003761 -0.002275 -0.000437 0.000000 0.027215 0.000000
# 6 0.000000 0.000000 0.000000 0.010406 0.000000 0.031455
#
#
# Mechanical properties :
#
#
# Convention : Reuss Voigt Hill
#
# Bulk Modulus (GPa) = 26.31594 36.18206 31.24900
# Shear Modulus (GPa) = 25.79948 30.26360 28.03154
#
# Velocity S-wave (km/s) = 3.56213 3.85802 3.71302
# Velocity P-wave (km/s) = 5.46453 6.13521 5.80956
#
# Compressibility (1/GPa) = 0.03799978
#
# Stress axis : x y z
#
# Youngs Moduli (GPa) = 65.32472 34.10621 96.41206
#
# Poissons Ratio (x) = 0.06886 0.33624
# Poissons Ratio (y) = 0.13189 0.28865
# Poissons Ratio (z) = 0.22782 0.10211
#
# Static dielectric constant tensor:
#      x y z
#    x 1.727590 0.000000 0.017510 
#    y 0.000000 1.684200 0.000000 
#    z 0.017510 0.000000 1.702500 
# 
# From -- ./inp_files/49290.got.cif
#   From: 2010.05.17/outbox.cif.g08.bks.cpg/sg11_25_cif.got.tgz:49290.got - 2010.06.03 12:22:45.
