data_PCOD9166538
_publ_section_title
;
Structure prediction by ZEFSAII (Michael W. Deem and Ramdas Pophale) SiO2 
 PCOD9166538
Probable space group: P 21/M
;
_chemical_formula_sum "Si O2"
_cell_formula_units_Z 26
_cell_length_a 21.246700
_cell_length_b 8.121073
_cell_length_c 10.782145
_cell_angle_alpha 90.000000
_cell_angle_beta 32.901552
_cell_angle_gamma 90.000000
_cell_volume 1010.572754
_symmetry_space_group_name_H-M "P 21/M"
_symmetry_group_IT_number 11
_symmetry_cell_setting 'monoclinic'
loop_
_space_group_symop_operation_xyz
x,y,z
-x,1/2+y,-z
-x,-y,-z
x,1/2-y,z
loop_
_atom_site_type_symbol
_atom_site_label
_atom_site_fract_x
_atom_site_fract_y
_atom_site_fract_z
Si Si1 0.174125 0.423621 0.653678
Si Si2 0.555711 0.053476 0.035953
Si Si3 0.990299 0.562953 0.312767
Si Si4 0.348233 0.929800 0.527603
Si Si5 0.217247 0.557890 0.211355
Si Si6 0.368765 0.063459 0.739496
Si Si7 0.907258 0.750000 0.969558
O O1 0.241104 0.250000 0.522776
O O2 0.094008 0.450628 0.669209
O O3 0.266474 0.557508 0.543184
O O4 0.103177 0.388342 0.897203
O O5 0.547258 0.250000 0.065160
O O6 0.476821 0.967617 0.269714
O O7 0.688453 0.007878 0.839649
O O8 0.500000 0.000000 0.000000
O O9 0.041010 0.750000 0.229239
O O10 0.899279 0.542970 0.576179
O O11 0.069065 0.401097 0.169500
O O12 0.339539 0.750000 0.598679
O O13 0.316195 0.058950 0.687043
O O14 0.189364 0.750000 0.275074
O O15 0.289426 0.536508 0.965302
O O16 0.371371 0.250000 0.779034
O O17 0.500000 0.000000 0.500000
#
# Coordination Sequence:
#
# PCOD9166538 Si02
#       7
#     4   4   4   4   4   4   2
#     4   9  22  38  62  94 126 167 208 262 318 384
#     4  11  23  37  59  86 131 171 203 251 311 378
#     4  11  22  38  66  99 131 170 215 263 330 388
#     4  12  24  39  62  92 128 168 213 260 314 381
#     4  11  23  40  61  93 127 168 215 264 314 377
#     4  12  24  41  65  91 125 168 220 261 311 374
#     4  10  22  42  66  94 134 166 212 276 326 388
#
# _framework density 25.727986000000001
#
# number of rings (size 3 to 8) (size 9 to 14) (size 15 to 20)
#    0.462    0.615    2.308    5.077    1.077    4.923 
#    0.000    0.000    0.000    0.923    0.000    0.000 
#    0.000    0.000    0.000    0.000    0.000    0.000 
#
# Total GULP energy -144976.184248 kJ/mol
# GULP energy per Si atom -5576.007086 kJ/mol
# Density = 2.566943 g / cm^3
# Si number density = 25.727986 Si / 1000 Ang^3
#
#
#
# Elastic Constant Matrix: (Units=GPa)
#
#
# Indices 1 2 3 4 5 6 
#
# 1 102.3322 2.4644 11.9686 0.0000 7.5782 0.0000
# 2 2.4644 130.0270 21.0800 0.0000 -17.8383 0.0000
# 3 11.9686 21.0800 110.2126 0.0000 6.0529 0.0000
# 4 0.0000 0.0000 0.0000 24.2933 0.0000 16.0669
# 5 7.5782 -17.8383 6.0529 0.0000 30.7143 0.0000
# 6 0.0000 0.0000 0.0000 16.0669 0.0000 14.0458
#
#
#
# Elastic Compliance Matrix: (Units=1/GPa)
#
#
# Indices 1 2 3 4 5 6 
#
# 1 0.010073 -0.000397 -0.000878 0.000000 -0.002543 0.000000
# 2 -0.000397 0.008779 -0.001942 0.000000 0.005579 0.000000
# 3 -0.000878 -0.001942 0.009695 0.000000 -0.002822 0.000000
# 4 0.000000 0.000000 0.000000 0.169077 0.000000 -0.193406
# 5 -0.002543 0.005579 -0.002822 0.000000 0.036982 0.000000
# 6 0.000000 0.000000 0.000000 -0.193406 0.000000 0.292432
#
#
# Mechanical properties :
#
#
# Convention : Reuss Voigt Hill
#
# Bulk Modulus (GPa) = 45.22698 45.95530 45.59114
# Shear Modulus (GPa) = 9.24482 34.28126 21.76304
#
# Velocity S-wave (km/s) = 1.89765 3.65423 2.91157
# Velocity P-wave (km/s) = 4.73482 5.97539 5.39091
#
# Compressibility (1/GPa) = 0.02211070
#
# Stress axis : x y z
#
# Youngs Moduli (GPa) = 99.27822 113.91413 103.14361
#
# Poissons Ratio (x) = 0.04527 0.09058
# Poissons Ratio (y) = 0.03945 0.20034
# Poissons Ratio (z) = 0.08718 0.22125
#
# Static dielectric constant tensor:
#      x y z
#    x 2.094260 0.000000 -0.011930 
#    y 0.000000 1.897420 0.000000 
#    z -0.011930 0.000000 2.010850 
# 
# From -- ./inp_files/44619.got.cif
#   From: 2010.05.17/outbox.cif.g08.bks.cpg/sg11_23_cif.got.tgz:44619.got - 2010.06.03 12:22:45.
