data_PCOD9166687
_publ_section_title
;
Structure prediction by ZEFSAII (Michael W. Deem and Ramdas Pophale) SiO2 
 PCOD9166687
Probable space group: P 21/M
;
_chemical_formula_sum "Si O2"
_cell_formula_units_Z 28
_cell_length_a 9.168314
_cell_length_b 8.523543
_cell_length_c 29.477963
_cell_angle_alpha 90.000000
_cell_angle_beta 38.915898
_cell_angle_gamma 90.000000
_cell_volume 1447.073201
_symmetry_space_group_name_H-M "P 21/M"
_symmetry_group_IT_number 11
_symmetry_cell_setting 'monoclinic'
loop_
_space_group_symop_operation_xyz
x,y,z
-x,1/2+y,-z
-x,-y,-z
x,1/2-y,z
loop_
_atom_site_type_symbol
_atom_site_label
_atom_site_fract_x
_atom_site_fract_y
_atom_site_fract_z
Si Si1 0.807863 0.440948 0.643072
Si Si2 0.661734 0.938593 0.501216
Si Si3 0.528127 0.561369 0.357299
Si Si4 0.383026 0.561319 0.212710
Si Si5 0.046016 0.061453 0.215673
Si Si6 0.098711 0.938634 0.928605
Si Si7 0.758881 0.560664 0.929398
O O1 0.807790 0.250000 0.643092
O O2 0.639705 0.491637 0.643054
O O3 0.711819 0.491286 0.715189
O O4 0.072526 0.491505 0.570947
O O5 0.657782 0.750000 0.502032
O O6 0.500000 0.000000 0.500000
O O7 0.568002 0.999276 0.571828
O O8 0.529538 0.750000 0.358007
O O9 0.787825 0.501741 0.286066
O O10 0.382125 0.750000 0.211873
O O11 0.215553 0.498987 0.213909
O O12 0.643023 0.501310 0.142087
O O13 0.041625 0.250000 0.217579
O O14 0.142275 0.009696 0.143278
O O15 0.103857 0.750000 0.928221
O O16 0.929597 0.989926 0.928595
O O17 0.000000 0.000000 0.000000
O O18 0.753186 0.750000 0.930922
O O19 0.500000 0.500000 0.000000
#
# Coordination Sequence:
#
# PCOD9166687 Si02
#       7
#     4   4   4   4   4   4   4
#     4   9  21  39  60  85 117 154 196 241 292 349
#     4  11  22  39  61  88 120 157 198 244 293 349
#     4  11  22  39  61  87 117 154 196 243 295 350
#     4  11  22  39  62  89 118 154 196 243 294 350
#     4  11  23  40  60  87 119 155 196 242 291 349
#     4  11  23  40  60  87 119 155 196 243 294 350
#     4  10  23  40  60  85 117 153 195 242 293 349
#
# _framework density 19.349401
#
# number of rings (size 3 to 8) (size 9 to 14) (size 15 to 20)
#    0.000    1.429    0.000    5.143    0.000    5.714 
#    0.000    6.429    0.000    0.000    0.000    0.000 
#    0.000    0.000    0.000    0.000    0.000    0.000 
#
# Total GULP energy -156623.073760 kJ/mol
# GULP energy per Si atom -5593.681206 kJ/mol
# Density = 1.930536 g / cm^3
# Si number density = 19.349401 Si / 1000 Ang^3
#
#
#
# Elastic Constant Matrix: (Units=GPa)
#
#
# Indices 1 2 3 4 5 6 
#
# 1 245.8392 48.7871 150.1232 0.0000 0.3988 0.0000
# 2 48.7871 56.1513 47.4541 0.0000 1.1702 0.0000
# 3 150.1232 47.4541 245.0089 0.0000 0.5003 0.0000
# 4 0.0000 0.0000 0.0000 35.3194 0.0000 -2.7880
# 5 0.3988 1.1702 0.5003 0.0000 47.5655 0.0000
# 6 0.0000 0.0000 0.0000 -2.7880 0.0000 33.0495
#
#
#
# Elastic Compliance Matrix: (Units=1/GPa)
#
#
# Indices 1 2 3 4 5 6 
#
# 1 0.006869 -0.002884 -0.003650 0.000000 0.000052 0.000000
# 2 -0.002884 0.022517 -0.002593 0.000000 -0.000503 0.000000
# 3 -0.003650 -0.002593 0.006820 0.000000 0.000023 0.000000
# 4 0.000000 0.000000 0.000000 0.028503 0.000000 0.002404
# 5 0.000052 -0.000503 0.000023 0.000000 0.021035 0.000000
# 6 0.000000 0.000000 0.000000 0.002404 0.000000 0.030460
#
#
# Mechanical properties :
#
#
# Convention : Reuss Voigt Hill
#
# Bulk Modulus (GPa) = 55.70655 115.52534 85.61594
# Shear Modulus (GPa) = 35.60149 43.22921 39.41535
#
# Velocity S-wave (km/s) = 4.29409 4.73179 4.51825
# Velocity P-wave (km/s) = 7.31013 9.47036 8.45948
#
# Compressibility (1/GPa) = 0.01795121
#
# Stress axis : x y z
#
# Youngs Moduli (GPa) = 145.57896 44.41133 146.62184
#
# Poissons Ratio (x) = 0.12810 0.53522
# Poissons Ratio (y) = 0.41991 0.38016
# Poissons Ratio (z) = 0.53141 0.11515
#
# Static dielectric constant tensor:
#      x y z
#    x 1.642040 0.000000 0.008930 
#    y 0.000000 1.666050 0.000000 
#    z 0.008930 0.000000 1.633460 
# 
# From -- ./inp_files/70806.got.cif
#   From: 2010.05.17/outbox.cif.g08.bks.cpg/sg11_36_cif.got.tgz:70806.got - 2010.06.03 12:22:45.
