data_PCOD9166586
_publ_section_title
;
Structure prediction by ZEFSAII (Michael W. Deem and Ramdas Pophale) SiO2 
 PCOD9166586
Probable space group: P 21/M
;
_chemical_formula_sum "Si O2"
_cell_formula_units_Z 28
_cell_length_a 12.874213
_cell_length_b 8.738113
_cell_length_c 14.852156
_cell_angle_alpha 90.000000
_cell_angle_beta 57.889314
_cell_angle_gamma 90.000000
_cell_volume 1415.216712
_symmetry_space_group_name_H-M "P 21/M"
_symmetry_group_IT_number 11
_symmetry_cell_setting 'monoclinic'
loop_
_space_group_symop_operation_xyz
x,y,z
-x,1/2+y,-z
-x,-y,-z
x,1/2-y,z
loop_
_atom_site_type_symbol
_atom_site_label
_atom_site_fract_x
_atom_site_fract_y
_atom_site_fract_z
Si Si1 0.509013 0.433899 0.272669
Si Si2 0.992627 0.565498 0.102969
Si Si3 0.055203 0.431306 0.565552
Si Si4 0.719268 0.566572 0.287200
Si Si5 0.843142 0.431274 0.811903
Si Si6 0.314995 0.567656 0.503351
Si Si7 0.583106 0.567376 0.882613
O O1 0.516374 0.250000 0.272123
O O2 0.638320 0.505501 0.242192
O O3 0.411262 0.492021 0.391015
O O4 0.465380 0.481967 0.193344
O O5 0.996933 0.750000 0.097455
O O6 0.861566 0.524536 0.207274
O O7 0.103079 0.514580 0.117106
O O8 0.000000 0.500000 0.000000
O O9 0.081085 0.250000 0.543770
O O10 0.179469 0.517120 0.534586
O O11 0.000000 0.500000 0.500000
O O12 0.953511 0.448729 0.690022
O O13 0.710406 0.750000 0.297697
O O14 0.670156 0.493424 0.402021
O O15 0.815264 0.250000 0.831447
O O16 0.722355 0.515468 0.834461
O O17 0.328395 0.750000 0.495070
O O18 0.576192 0.750000 0.888630
O O19 0.500000 0.500000 0.000000
#
# Coordination Sequence:
#
# PCOD9166586 Si02
#       7
#     4   4   4   4   4   4   4
#     4  11  25  44  65  93 129 170 215 266 320 380
#     4  10  23  42  65  95 128 167 209 261 319 376
#     4  11  22  39  63  93 130 170 211 261 316 376
#     4  11  23  43  67  95 131 170 212 262 321 383
#     4  10  22  43  66  91 128 167 206 257 317 374
#     4  12  24  40  64  96 130 170 214 261 319 382
#     4  11  26  45  67  94 126 167 214 264 317 376
#
# _framework density 19.784955
#
# number of rings (size 3 to 8) (size 9 to 14) (size 15 to 20)
#    0.000    1.143    1.429    4.286    2.000    7.429 
#    0.000    0.000    0.000    0.000    0.000    0.000 
#    0.000    0.000    0.000    0.000    0.000    0.000 
#
# Total GULP energy -156669.435615 kJ/mol
# GULP energy per Si atom -5595.336986 kJ/mol
# Density = 1.973992 g / cm^3
# Si number density = 19.784955 Si / 1000 Ang^3
#
#
#
# Elastic Constant Matrix: (Units=GPa)
#
#
# Indices 1 2 3 4 5 6 
#
# 1 141.9007 23.4364 23.4650 0.0000 23.8379 0.0000
# 2 23.4364 46.3109 18.5096 0.0000 5.9690 0.0000
# 3 23.4650 18.5096 66.4091 0.0000 24.4982 0.0000
# 4 0.0000 0.0000 0.0000 31.0976 0.0000 0.6399
# 5 23.8379 5.9690 24.4982 0.0000 39.7424 0.0000
# 6 0.0000 0.0000 0.0000 0.6399 0.0000 37.8879
#
#
#
# Elastic Compliance Matrix: (Units=1/GPa)
#
#
# Indices 1 2 3 4 5 6 
#
# 1 0.008417 -0.003545 -0.000414 0.000000 -0.004261 0.000000
# 2 -0.003545 0.025807 -0.006853 0.000000 0.002475 0.000000
# 3 -0.000414 -0.006853 0.021542 0.000000 -0.012001 0.000000
# 4 0.000000 0.000000 0.000000 0.032168 0.000000 -0.000543
# 5 -0.004261 0.002475 -0.012001 0.000000 0.034744 0.000000
# 6 0.000000 0.000000 0.000000 -0.000543 0.000000 0.026403
#
#
# Mechanical properties :
#
#
# Convention : Reuss Voigt Hill
#
# Bulk Modulus (GPa) = 29.29010 42.82699 36.05854
# Shear Modulus (GPa) = 27.45951 34.35956 30.90954
#
# Velocity S-wave (km/s) = 3.72949 4.17184 3.95685
# Velocity P-wave (km/s) = 5.77770 6.70066 6.25622
#
# Compressibility (1/GPa) = 0.03414123
#
# Stress axis : x y z
#
# Youngs Moduli (GPa) = 118.80843 38.74867 46.42103
#
# Poissons Ratio (x) = 0.13736 0.01923
# Poissons Ratio (y) = 0.42115 0.31815
# Poissons Ratio (z) = 0.04921 0.26556
#
# Static dielectric constant tensor:
#      x y z
#    x 1.694740 0.000000 0.005760 
#    y 0.000000 1.664700 0.000000 
#    z 0.005760 0.000000 1.668250 
# 
# From -- ./inp_files/49145.got.cif
#   From: 2010.05.17/outbox.cif.g08.bks.cpg/sg11_25_cif.got.tgz:49145.got - 2010.06.03 12:22:45.
