data_PCOD9166121
_publ_section_title
;
Structure prediction by ZEFSAII (Michael W. Deem and Ramdas Pophale) SiO2 
 PCOD9166121
Probable space group: P 21/M
;
_chemical_formula_sum "Si O2"
_cell_formula_units_Z 26
_cell_length_a 16.926271
_cell_length_b 7.653894
_cell_length_c 9.460968
_cell_angle_alpha 90.000000
_cell_angle_beta 126.257462
_cell_angle_gamma 90.000000
_cell_volume 988.353648
_symmetry_space_group_name_H-M "P 21/M"
_symmetry_group_IT_number 11
_symmetry_cell_setting 'monoclinic'
loop_
_space_group_symop_operation_xyz
x,y,z
-x,1/2+y,-z
-x,-y,-z
x,1/2-y,z
loop_
_atom_site_type_symbol
_atom_site_label
_atom_site_fract_x
_atom_site_fract_y
_atom_site_fract_z
Si Si1 0.656444 0.557852 0.193752
Si Si2 0.923540 0.949477 0.755302
Si Si3 0.865314 0.464943 0.077648
Si Si4 0.538986 0.948113 0.335899
Si Si5 0.409460 0.250000 0.153716
Si Si6 0.728704 0.450513 0.702132
Si Si7 0.133843 0.945998 0.604568
O O1 0.685986 0.750000 0.284034
O O2 0.572617 0.495761 0.211250
O O3 0.750431 0.439162 0.301813
O O4 0.627561 0.599464 0.002882
O O5 0.916128 0.750000 0.794132
O O6 0.034320 0.016533 0.894670
O O7 0.829475 0.047807 0.716837
O O8 0.913795 0.953535 0.574511
O O9 0.861939 0.250000 0.074330
O O10 0.871490 0.525371 0.244950
O O11 0.769289 0.528604 0.892741
O O12 0.501506 0.750000 0.292886
O O13 0.463243 0.094436 0.303359
O O14 0.641063 0.956846 0.529669
O O15 0.699148 0.250000 0.691742
O O16 0.093161 0.750000 0.563408
#
# Coordination Sequence:
#
# PCOD9166121 Si02
#       7
#     4   4   4   4   2   4   4
#     4   9  21  35  54  86 118 149 192 244 312 352
#     4  11  21  37  58  87 125 157 208 259 303 353
#     4   9  22  39  58  85 119 169 210 249 297 364
#     4  11  21  36  59  92 124 158 200 250 315 371
#     4  10  22  38  60  92 122 160 192 262 312 372
#     4  11  21  38  60  86 123 164 205 255 309 358
#     4  11  21  37  60  87 119 163 206 248 306 367
#
# _framework density 26.306374000000002
#
# number of rings (size 3 to 8) (size 9 to 14) (size 15 to 20)
#    0.462    1.231    2.308    2.769    1.077    0.615 
#    0.000    7.692    0.000    0.923    0.000    0.000 
#    0.000    0.000    0.000    0.000    0.000    0.000 
#
# Total GULP energy -145013.022815 kJ/mol
# GULP energy per Si atom -5577.423954 kJ/mol
# Density = 2.624650 g / cm^3
# Si number density = 26.306374 Si / 1000 Ang^3
#
#
#
# Elastic Constant Matrix: (Units=GPa)
#
#
# Indices 1 2 3 4 5 6 
#
# 1 77.6045 -2.2135 21.3334 0.0000 -8.0349 0.0000
# 2 -2.2135 89.1411 14.5152 0.0000 7.1371 0.0000
# 3 21.3334 14.5152 129.2341 0.0000 6.8162 0.0000
# 4 0.0000 0.0000 0.0000 28.2970 0.0000 -0.8140
# 5 -8.0349 7.1371 6.8162 0.0000 45.6319 0.0000
# 6 0.0000 0.0000 0.0000 -0.8140 0.0000 -13.1533
#
#
#
# Elastic Compliance Matrix: (Units=1/GPa)
#
#
# Indices 1 2 3 4 5 6 
#
# 1 0.013869 0.000532 -0.002493 0.000000 0.002731 0.000000
# 2 0.000532 0.011566 -0.001307 0.000000 -0.001520 0.000000
# 3 -0.002493 -0.001307 0.008375 0.000000 -0.001486 0.000000
# 4 0.000000 0.000000 0.000000 0.035277 0.000000 -0.002183
# 5 0.002731 -0.001520 -0.001486 0.000000 0.022855 0.000000
# 6 0.000000 0.000000 0.000000 -0.002183 0.000000 -0.075892
#
#
# Mechanical properties :
#
#
# Convention : Reuss Voigt Hill
#
# Bulk Modulus (GPa) = 36.66596 40.36110 38.51353
# Shear Modulus (GPa) = 157.84267 29.64477 93.74372
#
# Velocity S-wave (km/s) = 7.75448 3.36058 5.97601
# Velocity P-wave (km/s) = 9.70280 5.51670 7.89235
#
# Compressibility (1/GPa) = 0.02727325
#
# Stress axis : x y z
#
# Youngs Moduli (GPa) = 72.10217 86.46149 119.40897
#
# Poissons Ratio (x) = -0.04597 0.29772
# Poissons Ratio (y) = -0.03834 0.15602
# Poissons Ratio (z) = 0.17977 0.11297
#
# Static dielectric constant tensor:
#      x y z
#    x 2.172820 0.000000 -0.058680 
#    y 0.000000 1.934950 0.000000 
#    z -0.058680 0.000000 2.084150 
# 
# From -- ./inp_files/26177.got.cif
#   From: 2010.05.17/outbox.cif.g08.bks.cpg/sg11_14_cif.got.tgz:26177.got - 2010.06.03 12:22:45.
