data_PCOD9166152
_publ_section_title
;
Structure prediction by ZEFSAII (Michael W. Deem and Ramdas Pophale) SiO2 
 PCOD9166152
Probable space group: P 21/M
;
_chemical_formula_sum "Si O2"
_cell_formula_units_Z 22
_cell_length_a 16.895646
_cell_length_b 8.060071
_cell_length_c 13.832844
_cell_angle_alpha 90.000000
_cell_angle_beta 151.867733
_cell_angle_gamma 90.000000
_cell_volume 888.208157
_symmetry_space_group_name_H-M "P 21/M"
_symmetry_group_IT_number 11
_symmetry_cell_setting 'monoclinic'
loop_
_space_group_symop_operation_xyz
x,y,z
-x,1/2+y,-z
-x,-y,-z
x,1/2-y,z
loop_
_atom_site_type_symbol
_atom_site_label
_atom_site_fract_x
_atom_site_fract_y
_atom_site_fract_z
Si Si1 0.328198 0.063449 0.769068
Si Si2 0.074407 0.931853 0.356921
Si Si3 0.790975 0.433608 0.176058
Si Si4 0.218347 0.069570 0.333886
Si Si5 0.607211 0.447764 0.790331
Si Si6 0.785876 0.750000 0.867515
O O1 0.345520 0.250000 0.753442
O O2 0.250570 0.955236 0.600349
O O3 0.203899 0.054478 0.727965
O O4 0.500000 0.000000 0.000000
O O5 0.004920 0.750000 0.299767
O O6 0.104824 0.950517 0.275664
O O7 0.947234 0.054612 0.271715
O O8 0.780947 0.250000 0.207829
O O9 0.634937 0.459267 0.935475
O O10 0.202070 0.250000 0.367623
O O11 0.414720 0.023960 0.551478
O O12 0.177238 0.107829 0.179337
O O13 0.646313 0.250000 0.807052
O O14 0.714616 0.597898 0.860667
#
# Coordination Sequence:
#
# PCOD9166152 Si02
#       6
#     4   4   4   4   4   2
#     4  12  25  43  70 101 133 167 217 262 320 389
#     4  12  25  42  66  94 135 176 217 263 327 393
#     4  11  24  43  67  94 135 174 216 265 325 392
#     4   9  21  39  63  95 125 166 216 277 322 384
#     4  10  22  39  67  98 130 171 219 277 337 392
#     4  10  22  38  72  90 140 156 234 272 348 378
#
# _framework density 24.768967
#
# number of rings (size 3 to 8) (size 9 to 14) (size 15 to 20)
#    0.545    0.727    0.000    6.000    3.818    2.182 
#    0.000    0.909    0.000    0.000    0.000    0.000 
#    0.000    0.000    0.000    0.000    0.000    0.000 
#
# Total GULP energy -122489.262814 kJ/mol
# GULP energy per Si atom -5567.693764 kJ/mol
# Density = 2.471259 g / cm^3
# Si number density = 24.768967 Si / 1000 Ang^3
#
#
#
# Elastic Constant Matrix: (Units=GPa)
#
#
# Indices 1 2 3 4 5 6 
#
# 1 100.9052 39.3522 19.9786 0.0000 -19.6019 0.0000
# 2 39.3522 101.7313 5.6315 0.0000 -4.9011 0.0000
# 3 19.9786 5.6315 95.2900 0.0000 -5.7884 0.0000
# 4 0.0000 0.0000 0.0000 15.1355 0.0000 -8.2804
# 5 -19.6019 -4.9011 -5.7884 0.0000 32.4914 0.0000
# 6 0.0000 0.0000 0.0000 -8.2804 0.0000 45.5724
#
#
#
# Elastic Compliance Matrix: (Units=1/GPa)
#
#
# Indices 1 2 3 4 5 6 
#
# 1 0.013579 -0.004793 -0.002133 0.000000 0.007089 0.000000
# 2 -0.004793 0.011617 0.000252 0.000000 -0.001094 0.000000
# 3 -0.002133 0.000252 0.010969 0.000000 0.000705 0.000000
# 4 0.000000 0.000000 0.000000 0.073362 0.000000 0.013330
# 5 0.007089 -0.001094 0.000705 0.000000 0.035015 0.000000
# 6 0.000000 0.000000 0.000000 0.013330 0.000000 0.024365
#
#
# Mechanical properties :
#
#
# Convention : Reuss Voigt Hill
#
# Bulk Modulus (GPa) = 43.82672 47.53900 45.68286
# Shear Modulus (GPa) = 26.33485 34.17080 30.25283
#
# Velocity S-wave (km/s) = 3.26424 3.71830 3.49865
# Velocity P-wave (km/s) = 5.65152 6.13751 5.89952
#
# Compressibility (1/GPa) = 0.02281713
#
# Stress axis : x y z
#
# Youngs Moduli (GPa) = 73.64289 86.07903 91.16210
#
# Poissons Ratio (x) = 0.41258 0.19446
# Poissons Ratio (y) = 0.35298 -0.02296
# Poissons Ratio (z) = 0.15709 -0.02168
#
# Static dielectric constant tensor:
#      x y z
#    x 1.922810 0.000000 0.055210 
#    y 0.000000 1.837920 0.000000 
#    z 0.055210 0.000000 2.073160 
# 
# From -- ./inp_files/53339.got.cif
#   From: 2010.05.17/outbox.cif.g08.bks.cpg/sg11_27_cif.got.tgz:53339.got - 2010.06.03 12:22:45.
