data_PCOD9166146
_publ_section_title
;
Structure prediction by ZEFSAII (Michael W. Deem and Ramdas Pophale) SiO2 
 PCOD9166146
Probable space group: P 21/M
;
_chemical_formula_sum "Si O2"
_cell_formula_units_Z 20
_cell_length_a 9.882127
_cell_length_b 16.978160
_cell_length_c 4.670061
_cell_angle_alpha 90.000000
_cell_angle_beta 105.298714
_cell_angle_gamma 90.000000
_cell_volume 755.778196
_symmetry_space_group_name_H-M "P 21/M"
_symmetry_group_IT_number 11
_symmetry_cell_setting 'monoclinic'
loop_
_space_group_symop_operation_xyz
x,y,z
-x,1/2+y,-z
-x,-y,-z
x,1/2-y,z
loop_
_atom_site_type_symbol
_atom_site_label
_atom_site_fract_x
_atom_site_fract_y
_atom_site_fract_z
Si Si1 0.862569 0.999083 0.720203
Si Si2 0.818971 0.164596 0.747980
Si Si3 0.344364 0.100887 0.094564
Si Si4 0.493113 0.659189 0.313762
Si Si5 0.904967 0.665859 0.711972
O O1 0.725175 0.979887 0.836970
O O2 0.884267 0.919235 0.545898
O O3 0.839214 0.084909 0.577562
O O4 0.000000 0.000000 0.000000
O O5 0.815685 0.250000 0.594757
O O6 0.671768 0.157251 0.829095
O O7 0.948555 0.165799 0.039235
O O8 0.403561 0.105258 0.812435
O O9 0.218345 0.159346 0.118062
O O10 0.477528 0.130650 0.349551
O O11 0.538225 0.750000 0.300066
O O12 0.890978 0.750000 0.550478
#
# Coordination Sequence:
#
# PCOD9166146 Si02
#       5
#     4   4   4   4   4
#     4   8  17  35  60  88 121 155 205 252 293 356
#     4   9  18  34  59  85 124 163 200 248 306 358
#     4  10  22  38  65  87 122 160 198 251 300 349
#     4  11  22  38  60  93 125 158 201 249 299 359
#     4   8  15  33  59  85 116 159 203 247 301 358
#
# _framework density 26.462790999999999
#
# number of rings (size 3 to 8) (size 9 to 14) (size 15 to 20)
#    1.200    1.600    0.000    1.800    0.000    1.600 
#    0.000    3.000    0.000    4.800    0.000    0.000 
#    0.000    0.000    0.000    0.000    0.000    0.000 
#
# Total GULP energy -111630.518164 kJ/mol
# GULP energy per Si atom -5581.525908 kJ/mol
# Density = 2.640256 g / cm^3
# Si number density = 26.462791 Si / 1000 Ang^3
#
#
#
# Elastic Constant Matrix: (Units=GPa)
#
#
# Indices 1 2 3 4 5 6 
#
# 1 143.9691 23.2053 22.4939 0.0000 15.8900 0.0000
# 2 23.2053 257.2674 8.4965 0.0000 -0.2529 0.0000
# 3 22.4939 8.4965 36.7626 0.0000 8.5947 0.0000
# 4 0.0000 0.0000 0.0000 3.9421 0.0000 12.5567
# 5 15.8900 -0.2529 8.5947 0.0000 42.0864 0.0000
# 6 0.0000 0.0000 0.0000 12.5567 0.0000 29.8236
#
#
#
# Elastic Compliance Matrix: (Units=1/GPa)
#
#
# Indices 1 2 3 4 5 6 
#
# 1 0.007935 -0.000578 -0.004222 0.000000 -0.002137 0.000000
# 2 -0.000578 0.003961 -0.000649 0.000000 0.000375 0.000000
# 3 -0.004222 -0.000649 0.031045 0.000000 -0.004750 0.000000
# 4 0.000000 0.000000 0.000000 -0.743662 0.000000 0.313106
# 5 -0.002137 0.000375 -0.004750 0.000000 0.025540 0.000000
# 6 0.000000 0.000000 0.000000 0.313106 0.000000 -0.098297
#
#
# Mechanical properties :
#
#
# Convention : Reuss Voigt Hill
#
# Bulk Modulus (GPa) = 31.20865 60.71006 45.95935
# Shear Modulus (GPa) = -6.64982 40.75733 17.05375
#
# Velocity S-wave (km/s) = -1.58693 3.92876 2.54134
# Velocity P-wave (km/s) = 2.90882 6.60089 5.10063
#
# Compressibility (1/GPa) = 0.03204240
#
# Stress axis : x y z
#
# Youngs Moduli (GPa) = 126.02985 252.46260 32.21115
#
# Poissons Ratio (x) = 0.14602 0.13598
# Poissons Ratio (y) = 0.07289 0.02091
# Poissons Ratio (z) = 0.53205 0.16389
#
# Static dielectric constant tensor:
#      x y z
#    x 1.993080 0.000000 0.029350 
#    y 0.000000 2.145210 0.000000 
#    z 0.029350 0.000000 1.947190 
# 
# From -- ./inp_files/4450.got.cif
#   From: 2010.05.17/outbox.cif.g08.bks.cpg/sg11_3_cif.got.tgz:4450.got - 2010.06.03 12:22:45.
