data_PCOD9166487
_publ_section_title
;
Structure prediction by ZEFSAII (Michael W. Deem and Ramdas Pophale) SiO2 
 PCOD9166487
Probable space group: P 21/M
;
_chemical_formula_sum "Si O2"
_cell_formula_units_Z 26
_cell_length_a 18.493442
_cell_length_b 15.633259
_cell_length_c 7.290474
_cell_angle_alpha 90.000000
_cell_angle_beta 36.081461
_cell_angle_gamma 90.000000
_cell_volume 1241.338772
_symmetry_space_group_name_H-M "P 21/M"
_symmetry_group_IT_number 11
_symmetry_cell_setting 'monoclinic'
loop_
_space_group_symop_operation_xyz
x,y,z
-x,1/2+y,-z
-x,-y,-z
x,1/2-y,z
loop_
_atom_site_type_symbol
_atom_site_label
_atom_site_fract_x
_atom_site_fract_y
_atom_site_fract_z
Si Si1 0.184526 0.350433 0.151198
Si Si2 0.023638 0.902229 0.160354
Si Si3 0.799701 0.250000 0.091996
Si Si4 0.858429 0.914610 0.165925
Si Si5 0.417892 0.084035 0.197803
Si Si6 0.377120 0.750000 0.844964
Si Si7 0.451854 0.094706 0.559529
Si Si8 0.434975 0.750000 0.163547
O O1 0.174520 0.250000 0.218358
O O2 0.083675 0.403665 0.468635
O O3 0.160456 0.362251 0.982733
O O4 0.321510 0.383242 0.916865
O O5 0.956865 0.877365 0.106554
O O6 0.120871 0.832662 0.024691
O O7 0.090955 0.992287 0.994469
O O8 0.757177 0.250000 0.967364
O O9 0.680946 0.250000 0.466254
O O10 0.727258 0.924650 0.538167
O O11 0.424621 0.100450 0.400282
O O12 0.482377 0.165789 0.975005
O O13 0.500000 0.000000 0.000000
O O14 0.446090 0.666924 0.622410
O O15 0.389653 0.750000 0.041084
O O16 0.500000 0.000000 0.500000
#
# Coordination Sequence:
#
# PCOD9166487 Si02
#       8
#     4   4   2   4   4   2   4   2
#     4  11  23  43  70  95 130 171 222 269 326 397
#     4  11  25  45  62  99 126 179 222 264 321 399
#     4  12  26  40  68  92 134 168 223 263 324 387
#     4  10  25  43  68  90 139 168 220 273 323 390
#     4  10  22  41  67  98 128 169 214 269 338 385
#     4  10  24  43  61  95 135 166 211 271 333 387
#     4  10  23  41  66  98 130 167 214 272 335 392
#     4  10  24  43  63  99 131 164 216 270 335 396
#
# _framework density 20.945126999999999
#
# number of rings (size 3 to 8) (size 9 to 14) (size 15 to 20)
#    0.000    1.538    1.538    1.385   12.923    1.231 
#    2.769    0.000    0.000    0.000    0.000    0.000 
#    0.000    0.000    0.000    0.000    0.000    0.000 
#
# Total GULP energy -145325.930979 kJ/mol
# GULP energy per Si atom -5589.458884 kJ/mol
# Density = 2.089745 g / cm^3
# Si number density = 20.945127 Si / 1000 Ang^3
#
#
#
# Elastic Constant Matrix: (Units=GPa)
#
#
# Indices 1 2 3 4 5 6 
#
# 1 91.4622 11.2007 12.0513 0.0000 -14.1954 0.0000
# 2 11.2007 83.0159 4.7367 0.0000 -19.7996 0.0000
# 3 12.0513 4.7367 87.7813 0.0000 -7.0171 0.0000
# 4 0.0000 0.0000 0.0000 25.9780 0.0000 1.1685
# 5 -14.1954 -19.7996 -7.0171 0.0000 35.2454 0.0000
# 6 0.0000 0.0000 0.0000 1.1685 0.0000 25.1655
#
#
#
# Elastic Compliance Matrix: (Units=1/GPa)
#
#
# Indices 1 2 3 4 5 6 
#
# 1 0.011817 -0.000516 -0.001257 0.000000 0.004219 0.000000
# 2 -0.000516 0.013933 -0.000073 0.000000 0.007605 0.000000
# 3 -0.001257 -0.000073 0.011711 0.000000 0.001784 0.000000
# 4 0.000000 0.000000 0.000000 0.038575 0.000000 -0.001791
# 5 0.004219 0.007605 0.001784 0.000000 0.034699 0.000000
# 6 0.000000 0.000000 0.000000 -0.001791 0.000000 0.039820
#
#
# Mechanical properties :
#
#
# Convention : Reuss Voigt Hill
#
# Bulk Modulus (GPa) = 29.61342 35.35964 32.48653
# Shear Modulus (GPa) = 30.21054 32.89583 31.55318
#
# Velocity S-wave (km/s) = 3.80197 3.96734 3.88554
# Velocity P-wave (km/s) = 5.78295 6.15671 5.97276
#
# Compressibility (1/GPa) = 0.03376847
#
# Stress axis : x y z
#
# Youngs Moduli (GPa) = 84.62238 71.76951 85.38897
#
# Poissons Ratio (x) = 0.03706 0.10735
# Poissons Ratio (y) = 0.04370 0.00624
# Poissons Ratio (z) = 0.10639 0.00524
#
# Static dielectric constant tensor:
#      x y z
#    x 1.769570 0.000000 0.000900 
#    y 0.000000 1.583130 0.000000 
#    z 0.000900 0.000000 1.747330 
# 
# From -- ./inp_files/26789.got.cif
#   From: 2010.05.17/outbox.cif.g08.bks.cpg/sg11_14_cif.got.tgz:26789.got - 2010.06.03 12:22:45.
