data_PCOD9166407
_publ_section_title
;
Structure prediction by ZEFSAII (Michael W. Deem and Ramdas Pophale) SiO2 
 PCOD9166407
Probable space group: P 21/M
;
_chemical_formula_sum "Si O2"
_cell_formula_units_Z 32
_cell_length_a 8.917307
_cell_length_b 22.548018
_cell_length_c 14.341996
_cell_angle_alpha 90.000000
_cell_angle_beta 31.789644
_cell_angle_gamma 90.000000
_cell_volume 1519.145058
_symmetry_space_group_name_H-M "P 21/M"
_symmetry_group_IT_number 11
_symmetry_cell_setting 'monoclinic'
loop_
_space_group_symop_operation_xyz
x,y,z
-x,1/2+y,-z
-x,-y,-z
x,1/2-y,z
loop_
_atom_site_type_symbol
_atom_site_label
_atom_site_fract_x
_atom_site_fract_y
_atom_site_fract_z
Si Si1 0.683973 0.059462 0.957126
Si Si2 0.565588 0.612025 0.625474
Si Si3 0.954147 0.317456 0.148000
Si Si4 0.759870 0.617607 0.312963
Si Si5 0.348845 0.066260 0.954607
Si Si6 0.905643 0.918665 0.624814
Si Si7 0.527609 0.479142 0.656836
Si Si8 0.735029 0.186278 0.476549
O O1 0.617074 0.071865 0.883778
O O2 0.910947 0.105481 0.876810
O O3 0.382714 0.066536 0.167978
O O4 0.793741 0.992607 0.921965
O O5 0.312242 0.659213 0.772904
O O6 0.707142 0.623359 0.450708
O O7 0.800650 0.604486 0.580577
O O8 0.429953 0.546207 0.695510
O O9 0.048832 0.250000 0.073186
O O10 0.828468 0.313444 0.319276
O O11 0.181144 0.371551 0.035166
O O12 0.590808 0.560274 0.364238
O O13 0.599272 0.670496 0.345512
O O14 0.420938 0.046676 0.811729
O O15 0.130132 0.972413 0.516485
O O16 0.081632 0.864657 0.574528
O O17 0.791210 0.250000 0.489442
#
# Coordination Sequence:
#
# PCOD9166407 Si02
#       8
#     4   4   4   4   4   4   4   4
#     4  11  23  37  62  98 127 153 203 258 324 360
#     4  11  22  37  63  90 125 162 205 252 306 369
#     4  10  22  41  63  88 122 169 211 251 305 370
#     4  10  23  38  59  90 124 159 203 255 301 370
#     4  11  23  38  62  91 133 161 200 263 313 376
#     4  11  22  38  63  95 122 161 200 253 312 374
#     4  11  23  38  61  91 129 163 201 246 323 372
#     4   9  20  43  64  83 119 166 208 248 306 371
#
# _framework density 21.064478999999999
#
# number of rings (size 3 to 8) (size 9 to 14) (size 15 to 20)
#    0.000    1.500    2.500    2.250    5.250    1.500 
#    0.000    3.750    0.000    1.500    0.000    0.000 
#    0.000    0.000    0.000    0.000    0.000    0.000 
#
# Total GULP energy -178553.333627 kJ/mol
# GULP energy per Si atom -5579.791676 kJ/mol
# Density = 2.101654 g / cm^3
# Si number density = 21.064479 Si / 1000 Ang^3
#
#
#
# Elastic Constant Matrix: (Units=GPa)
#
#
# Indices 1 2 3 4 5 6 
#
# 1 65.8538 5.0933 13.1938 0.0000 -7.0854 0.0000
# 2 5.0933 123.0899 30.8986 0.0000 -15.1355 0.0000
# 3 13.1938 30.8986 66.2967 0.0000 -17.1167 0.0000
# 4 0.0000 0.0000 0.0000 20.5701 0.0000 -6.4206
# 5 -7.0854 -15.1355 -17.1167 0.0000 26.3118 0.0000
# 6 0.0000 0.0000 0.0000 -6.4206 0.0000 20.2435
#
#
#
# Elastic Compliance Matrix: (Units=1/GPa)
#
#
# Indices 1 2 3 4 5 6 
#
# 1 0.015984 0.000339 -0.002617 0.000000 0.002797 0.000000
# 2 0.000339 0.009410 -0.003644 0.000000 0.003134 0.000000
# 3 -0.002617 -0.003644 0.019927 0.000000 0.010162 0.000000
# 4 0.000000 0.000000 0.000000 0.053956 0.000000 0.017113
# 5 0.002797 0.003134 0.010162 0.000000 0.047172 0.000000
# 6 0.000000 0.000000 0.000000 0.017113 0.000000 0.054826
#
#
# Mechanical properties :
#
#
# Convention : Reuss Voigt Hill
#
# Bulk Modulus (GPa) = 29.87098 39.29020 34.58059
# Shear Modulus (GPa) = 22.29372 27.16205 24.72789
#
# Velocity S-wave (km/s) = 3.25677 3.59482 3.42996
# Velocity P-wave (km/s) = 5.32481 5.99359 5.66907
#
# Compressibility (1/GPa) = 0.03347730
#
# Stress axis : x y z
#
# Youngs Moduli (GPa) = 62.56192 106.26725 50.18419
#
# Poissons Ratio (x) = -0.03608 0.13134
# Poissons Ratio (y) = -0.02124 0.18288
# Poissons Ratio (z) = 0.16373 0.38726
#
# Static dielectric constant tensor:
#      x y z
#    x 1.771470 0.000000 0.008690 
#    y 0.000000 1.779390 0.000000 
#    z 0.008690 0.000000 1.790390 
# 
# From -- ./inp_files/23375.got.cif
#   From: 2010.05.17/outbox.cif.g08.bks.cpg/sg11_12_cif.got.tgz:23375.got - 2010.06.03 12:22:45.
