data_PCOD9166497
_publ_section_title
;
Structure prediction by ZEFSAII (Michael W. Deem and Ramdas Pophale) SiO2 
 PCOD9166497
Probable space group: P 21/M
;
_chemical_formula_sum "Si O2"
_cell_formula_units_Z 24
_cell_length_a 8.799065
_cell_length_b 13.787288
_cell_length_c 13.706026
_cell_angle_alpha 90.000000
_cell_angle_beta 43.136512
_cell_angle_gamma 90.000000
_cell_volume 1136.886830
_symmetry_space_group_name_H-M "P 21/M"
_symmetry_group_IT_number 11
_symmetry_cell_setting 'monoclinic'
loop_
_space_group_symop_operation_xyz
x,y,z
-x,1/2+y,-z
-x,-y,-z
x,1/2-y,z
loop_
_atom_site_type_symbol
_atom_site_label
_atom_site_fract_x
_atom_site_fract_y
_atom_site_fract_z
Si Si1 0.063095 0.419772 0.548123
Si Si2 0.707841 0.250000 0.709778
Si Si3 0.431372 0.634679 0.703668
Si Si4 0.374494 0.750000 0.026395
Si Si5 0.906960 0.451324 0.273582
Si Si6 0.864397 0.750000 0.824783
Si Si7 0.209920 0.250000 0.904708
Si Si8 0.120939 0.907424 0.026283
O O1 0.305704 0.376129 0.413098
O O2 0.080419 0.469974 0.646632
O O3 0.000000 0.500000 0.500000
O O4 0.868724 0.341625 0.626618
O O5 0.627214 0.250000 0.858152
O O6 0.475028 0.250000 0.760172
O O7 0.373185 0.750000 0.729393
O O8 0.333576 0.579909 0.654873
O O9 0.301029 0.586586 0.855504
O O10 0.245695 0.842310 0.047340
O O11 0.631014 0.750000 0.877717
O O12 0.013626 0.349890 0.257079
O O13 0.041490 0.496187 0.118046
O O14 0.836407 0.750000 0.956744
O O15 0.086624 0.343769 0.916297
#
# Coordination Sequence:
#
# PCOD9166497 Si02
#       8
#     4   2   4   2   4   2   2   4
#     4  12  30  47  69  99 141 192 232 278 352 416
#     4  11  24  50  66 101 145 179 227 297 338 414
#     4  12  24  47  71 105 145 180 228 289 345 416
#     4  10  22  41  71 105 138 179 224 288 353 396
#     4  12  25  46  69 105 139 184 238 282 347 410
#     4  11  24  40  68 105 143 177 228 300 337 403
#     4  10  22  43  71 109 138 169 231 289 354 403
#     4  11  22  42  77 108 132 184 228 286 347 416
#
# _framework density 21.110278999999998
#
# number of rings (size 3 to 8) (size 9 to 14) (size 15 to 20)
#    0.000    0.667    6.667    1.000    4.667    2.667 
#    0.000    0.000    0.000    1.000    0.000    0.000 
#    0.000    0.000    0.000    0.000    0.000    0.000 
#
# Total GULP energy -134134.695444 kJ/mol
# GULP energy per Si atom -5588.945643 kJ/mol
# Density = 2.106223 g / cm^3
# Si number density = 21.110279 Si / 1000 Ang^3
#
#
#
# Elastic Constant Matrix: (Units=GPa)
#
#
# Indices 1 2 3 4 5 6 
#
# 1 89.3368 13.9528 39.0884 0.0000 -27.2293 0.0000
# 2 13.9528 84.1592 34.0031 0.0000 -3.1954 0.0000
# 3 39.0884 34.0031 99.4952 0.0000 -22.5899 0.0000
# 4 0.0000 0.0000 0.0000 29.6429 0.0000 0.4993
# 5 -27.2293 -3.1954 -22.5899 0.0000 45.3858 0.0000
# 6 0.0000 0.0000 0.0000 0.4993 0.0000 13.2705
#
#
#
# Elastic Compliance Matrix: (Units=1/GPa)
#
#
# Indices 1 2 3 4 5 6 
#
# 1 0.015264 -0.000563 -0.004210 0.000000 0.007023 0.000000
# 2 -0.000563 0.013904 -0.004944 0.000000 -0.001820 0.000000
# 3 -0.004210 -0.004944 0.014365 0.000000 0.004276 0.000000
# 4 0.000000 0.000000 0.000000 0.033756 0.000000 -0.001270
# 5 0.007023 -0.001820 0.004276 0.000000 0.028247 0.000000
# 6 0.000000 0.000000 0.000000 -0.001270 0.000000 0.075403
#
#
# Mechanical properties :
#
#
# Convention : Reuss Voigt Hill
#
# Bulk Modulus (GPa) = 41.49408 49.67556 45.58482
# Shear Modulus (GPa) = 23.99170 30.05630 27.02400
#
# Velocity S-wave (km/s) = 3.37485 3.77739 3.58178
# Velocity P-wave (km/s) = 5.90633 6.52744 6.22463
#
# Compressibility (1/GPa) = 0.02409982
#
# Stress axis : x y z
#
# Youngs Moduli (GPa) = 65.51385 71.92226 69.61343
#
# Poissons Ratio (x) = 0.04050 0.29306
# Poissons Ratio (y) = 0.03689 0.34414
# Poissons Ratio (z) = 0.27580 0.35556
#
# Static dielectric constant tensor:
#      x y z
#    x 1.769760 0.000000 0.010560 
#    y 0.000000 1.816840 0.000000 
#    z 0.010560 0.000000 1.767210 
# 
# From -- ./inp_files/47547.got.cif
#   From: 2010.05.17/outbox.cif.g08.bks.cpg/sg11_24_cif.got.tgz:47547.got - 2010.06.03 12:22:45.
