data_PCOD9166056
_publ_section_title
;
Structure prediction by ZEFSAII (Michael W. Deem and Ramdas Pophale) SiO2 
 PCOD9166056
Probable space group: P 21/M
;
_chemical_formula_sum "Si O2"
_cell_formula_units_Z 30
_cell_length_a 5.271699
_cell_length_b 33.849561
_cell_length_c 8.887521
_cell_angle_alpha 90.000000
_cell_angle_beta 57.682585
_cell_angle_gamma 90.000000
_cell_volume 1340.269294
_symmetry_space_group_name_H-M "P 21/M"
_symmetry_group_IT_number 11
_symmetry_cell_setting 'monoclinic'
loop_
_space_group_symop_operation_xyz
x,y,z
-x,1/2+y,-z
-x,-y,-z
x,1/2-y,z
loop_
_atom_site_type_symbol
_atom_site_label
_atom_site_fract_x
_atom_site_fract_y
_atom_site_fract_z
Si Si1 0.464215 0.116081 0.291930
Si Si2 0.429080 0.525281 0.792691
Si Si3 0.583898 0.250000 0.179489
Si Si4 0.652073 0.819368 0.898208
Si Si5 0.076577 0.609524 0.318404
Si Si6 0.057213 0.980558 0.222470
Si Si7 0.293397 0.814029 0.605184
Si Si8 0.659192 0.844590 0.223695
O O1 0.565305 0.071251 0.248930
O O2 0.447465 0.138948 0.139590
O O3 0.136975 0.117542 0.471453
O O4 0.673306 0.142120 0.334348
O O5 0.757652 0.508459 0.723686
O O6 0.259529 0.499442 0.721760
O O7 0.243779 0.521226 0.006965
O O8 0.586726 0.285139 0.049688
O O9 0.577051 0.284246 0.313813
O O10 0.941757 0.804369 0.711239
O O11 0.748956 0.824102 0.039816
O O12 0.929085 0.635544 0.230960
O O13 0.046383 0.563720 0.286921
O O14 0.412582 0.622410 0.253002
O O15 0.476673 0.815500 0.392925
#
# Coordination Sequence:
#
# PCOD9166056 Si02
#       8
#     4   4   2   4   4   4   4   4
#     4  10  23  39  66  91 132 170 228 268 334 379
#     4  10  22  37  57  91 124 175 216 275 323 391
#     4  10  24  44  68 102 134 166 222 258 334 390
#     4  11  23  43  70  96 130 179 209 275 322 399
#     4  11  23  43  62  98 131 174 222 283 314 396
#     4  10  22  37  57  88 133 165 224 270 331 376
#     4  10  23  45  64 100 132 170 213 278 314 400
#     4  11  25  41  71  98 134 173 226 260 332 381
#
# _framework density 22.383562999999999
#
# number of rings (size 3 to 8) (size 9 to 14) (size 15 to 20)
#    0.000    1.600    1.333    2.000    7.467    2.667 
#    0.000    1.333    0.000    0.000    0.000    0.000 
#    0.000    0.000    0.000    0.000    0.000    0.000 
#
# Total GULP energy -167288.641193 kJ/mol
# GULP energy per Si atom -5576.288040 kJ/mol
# Density = 2.233262 g / cm^3
# Si number density = 22.383563 Si / 1000 Ang^3
#
#
#
# Elastic Constant Matrix: (Units=GPa)
#
#
# Indices 1 2 3 4 5 6 
#
# 1 76.0366 11.5001 18.8813 0.0000 11.6889 0.0000
# 2 11.5001 110.0122 15.8508 0.0000 15.8545 0.0000
# 3 18.8813 15.8508 54.9376 0.0000 1.8005 0.0000
# 4 0.0000 0.0000 0.0000 -13.3846 0.0000 90.0003
# 5 11.6889 15.8545 1.8005 0.0000 24.7491 0.0000
# 6 0.0000 0.0000 0.0000 90.0003 0.0000 -220.7681
#
#
#
# Elastic Compliance Matrix: (Units=1/GPa)
#
#
# Indices 1 2 3 4 5 6 
#
# 1 0.015485 0.000133 -0.005130 0.000000 -0.007026 0.000000
# 2 0.000133 0.010427 -0.002840 0.000000 -0.006536 0.000000
# 3 -0.005130 -0.002840 0.020695 0.000000 0.002737 0.000000
# 4 0.000000 0.000000 0.000000 0.042908 0.000000 0.017492
# 5 -0.007026 -0.006536 0.002737 0.000000 0.047712 0.000000
# 6 0.000000 0.000000 0.000000 0.017492 0.000000 0.002601
#
#
# Mechanical properties :
#
#
# Convention : Reuss Voigt Hill
#
# Bulk Modulus (GPa) = 32.32752 37.05009 34.68880
# Shear Modulus (GPa) = 30.15420 -28.89713 0.62854
#
# Velocity S-wave (km/s) = 3.67435 -3.59694 0.53048
# Velocity P-wave (km/s) = 5.69868 0.81386 3.98827
#
# Compressibility (1/GPa) = 0.03093339
#
# Stress axis : x y z
#
# Youngs Moduli (GPa) = 64.57687 95.90384 48.32007
#
# Poissons Ratio (x) = -0.01275 0.24789
# Poissons Ratio (y) = -0.00858 0.13723
# Poissons Ratio (z) = 0.33129 0.27236
#
# Static dielectric constant tensor:
#      x y z
#    x 1.860430 0.000000 -0.022650 
#    y 0.000000 1.767260 0.000000 
#    z -0.022650 0.000000 1.853110 
# 
# From -- ./inp_files/10833.got.cif
#   From: 2010.05.17/outbox.cif.g08.bks.cpg/sg11_6_cif.got.tgz:10833.got - 2010.06.03 12:22:45.
