data_PCOD9166841
_publ_section_title
;
Structure prediction by ZEFSAII (Michael W. Deem and Ramdas Pophale) SiO2 
 PCOD9166841
Probable space group: P 21/M
;
_chemical_formula_sum "Si O2"
_cell_formula_units_Z 22
_cell_length_a 5.219791
_cell_length_b 23.303235
_cell_length_c 8.044287
_cell_angle_alpha 90.000000
_cell_angle_beta 63.159033
_cell_angle_gamma 90.000000
_cell_volume 873.071621
_symmetry_space_group_name_H-M "P 21/M"
_symmetry_group_IT_number 11
_symmetry_cell_setting 'monoclinic'
loop_
_space_group_symop_operation_xyz
x,y,z
-x,1/2+y,-z
-x,-y,-z
x,1/2-y,z
loop_
_atom_site_type_symbol
_atom_site_label
_atom_site_fract_x
_atom_site_fract_y
_atom_site_fract_z
Si Si1 0.503647 0.131356 0.056030
Si Si2 0.984569 0.565578 0.951172
Si Si3 0.987855 0.651188 0.539298
Si Si4 0.245300 0.250000 0.582967
Si Si5 0.768336 0.039563 0.475753
Si Si6 0.810477 0.250000 0.273435
Si Si7 0.633990 0.750000 0.077091
O O1 0.818384 0.107489 0.999188
O O2 0.313878 0.130747 0.285176
O O3 0.333589 0.088556 0.982924
O O4 0.484200 0.193796 0.980132
O O5 0.121537 0.563611 0.730255
O O6 0.000000 0.500000 0.000000
O O7 0.925660 0.691565 0.399376
O O8 0.209466 0.600101 0.432151
O O9 0.115411 0.693873 0.640832
O O10 0.470325 0.250000 0.361955
O O11 0.400718 0.250000 0.714534
O O12 0.500000 0.000000 0.500000
O O13 0.000000 0.000000 0.500000
O O14 0.020282 0.250000 0.056462
#
# Coordination Sequence:
#
# PCOD9166841 Si02
#       7
#     4   4   4   2   4   2   2
#     4  10  23  44  72  96 142 191 228 292 359 438
#     4  11  24  46  69  99 138 189 236 289 358 416
#     4   9  22  42  64 102 137 189 234 286 371 429
#     4  11  23  43  73 105 147 183 242 303 356 446
#     4  11  24  42  70 100 137 184 237 295 349 425
#     4   9  21  43  70  93 147 190 225 298 361 441
#     4  10  24  46  69 118 136 189 249 295 369 437
#
# _framework density 25.198391999999998
#
# number of rings (size 3 to 8) (size 9 to 14) (size 15 to 20)
#    0.000    1.818    0.000    3.273   10.182    2.182 
#    9.818    0.000    0.000    0.000    0.000    0.000 
#    0.000    0.000    0.000    0.000    0.000    0.000 
#
# Total GULP energy -123076.350521 kJ/mol
# GULP energy per Si atom -5594.379569 kJ/mol
# Density = 2.514104 g / cm^3
# Si number density = 25.198392 Si / 1000 Ang^3
#
#
#
# Elastic Constant Matrix: (Units=GPa)
#
#
# Indices 1 2 3 4 5 6 
#
# 1 123.6441 40.0493 29.1739 0.0000 24.7704 0.0000
# 2 40.0493 154.1215 18.3193 0.0000 28.0101 0.0000
# 3 29.1739 18.3193 81.0490 0.0000 -2.1671 0.0000
# 4 0.0000 0.0000 0.0000 27.2756 0.0000 5.8043
# 5 24.7704 28.0101 -2.1671 0.0000 34.7573 0.0000
# 6 0.0000 0.0000 0.0000 5.8043 0.0000 50.2070
#
#
#
# Elastic Compliance Matrix: (Units=1/GPa)
#
#
# Indices 1 2 3 4 5 6 
#
# 1 0.010741 -0.001058 -0.003815 0.000000 -0.007040 0.000000
# 2 -0.001058 0.008005 -0.001583 0.000000 -0.005796 0.000000
# 3 -0.003815 -0.001583 0.014200 0.000000 0.004880 0.000000
# 4 0.000000 0.000000 0.000000 0.037587 0.000000 -0.004345
# 5 -0.007040 -0.005796 0.004880 0.000000 0.038763 0.000000
# 6 0.000000 0.000000 0.000000 -0.004345 0.000000 0.020420
#
#
# Mechanical properties :
#
#
# Convention : Reuss Voigt Hill
#
# Bulk Modulus (GPa) = 49.92003 59.32219 54.62111
# Shear Modulus (GPa) = 33.48798 40.53279 37.01039
#
# Velocity S-wave (km/s) = 3.64946 4.01502 3.83660
# Velocity P-wave (km/s) = 6.13286 6.71469 6.43035
#
# Compressibility (1/GPa) = 0.02003204
#
# Stress axis : x y z
#
# Youngs Moduli (GPa) = 93.10054 124.92440 70.42277
#
# Poissons Ratio (x) = 0.13219 0.26869
# Poissons Ratio (y) = 0.09852 0.11151
# Poissons Ratio (z) = 0.35521 0.19780
#
# Static dielectric constant tensor:
#      x y z
#    x 2.224560 0.000000 0.161650 
#    y 0.000000 1.942010 0.000000 
#    z 0.161650 0.000000 2.147640 
# 
# From -- ./inp_files/10251.got.cif
#   From: 2010.05.17/outbox.cif.g08.bks.cpg/sg11_6_cif.got.tgz:10251.got - 2010.06.03 12:22:45.
