data_PCOD9166933
_publ_section_title
;
Structure prediction by ZEFSAII (Michael W. Deem and Ramdas Pophale) SiO2 
 PCOD9166933
Probable space group: P 21/M
;
_chemical_formula_sum "Si O2"
_cell_formula_units_Z 26
_cell_length_a 9.870681
_cell_length_b 14.796362
_cell_length_c 12.744412
_cell_angle_alpha 90.000000
_cell_angle_beta 145.599522
_cell_angle_gamma 90.000000
_cell_volume 1051.599190
_symmetry_space_group_name_H-M "P 21/M"
_symmetry_group_IT_number 11
_symmetry_cell_setting 'monoclinic'
loop_
_space_group_symop_operation_xyz
x,y,z
-x,1/2+y,-z
-x,-y,-z
x,1/2-y,z
loop_
_atom_site_type_symbol
_atom_site_label
_atom_site_fract_x
_atom_site_fract_y
_atom_site_fract_z
Si Si1 0.703156 0.250000 0.509018
Si Si2 0.745023 0.652193 0.749676
Si Si3 0.549519 0.648538 0.386969
Si Si4 0.426239 0.643544 0.988530
Si Si5 0.997853 0.936071 0.598609
Si Si6 0.076378 0.092758 0.797097
Si Si7 0.796422 0.464794 0.956046
O O1 0.501381 0.171348 0.345860
O O2 0.888065 0.172093 0.669946
O O3 0.876775 0.750000 0.839424
O O4 0.643099 0.645492 0.565780
O O5 0.938419 0.575690 0.891737
O O6 0.447567 0.750000 0.307327
O O7 0.781705 0.634570 0.461894
O O8 0.369779 0.567586 0.245783
O O9 0.412104 0.750000 0.995732
O O10 0.330792 0.591599 0.029704
O O11 0.246859 0.614019 0.780250
O O12 0.693350 0.615728 0.127408
O O13 0.000000 0.000000 0.500000
O O14 0.959166 0.003445 0.671756
O O15 0.175252 0.063344 0.973750
#
# Coordination Sequence:
#
# PCOD9166933 Si02
#       7
#     2   4   4   4   4   4   4
#     4  10  24  44  64  84 128 178 214 258 320 364
#     4   9  20  40  64  87 122 160 214 262 301 358
#     4  11  20  37  65  96 125 157 210 263 311 370
#     4  11  20  36  62  93 129 164 200 254 327 378
#     4  11  22  37  60  96 134 159 207 261 319 388
#     4  11  22  41  63  91 131 171 205 259 324 381
#     4  11  21  37  69  97 119 162 212 259 315 379
#
# _framework density 24.724247999999999
#
# number of rings (size 3 to 8) (size 9 to 14) (size 15 to 20)
#    0.462    0.923    3.846    5.538    0.000    0.615 
#    2.769    0.769   10.154    0.000    0.000    0.000 
#    0.000    0.000    0.000    0.000    0.000    0.000 
#
# Total GULP energy -144875.789687 kJ/mol
# GULP energy per Si atom -5572.145757 kJ/mol
# Density = 2.466797 g / cm^3
# Si number density = 24.724248 Si / 1000 Ang^3
#
#
#
# Elastic Constant Matrix: (Units=GPa)
#
#
# Indices 1 2 3 4 5 6 
#
# 1 59.1854 4.8276 -1.7980 0.0000 2.8272 0.0000
# 2 4.8276 88.8723 27.4346 0.0000 18.7033 0.0000
# 3 -1.7980 27.4346 97.1998 0.0000 21.7159 0.0000
# 4 0.0000 0.0000 0.0000 52.4688 0.0000 21.0928
# 5 2.8272 18.7033 21.7159 0.0000 39.5375 0.0000
# 6 0.0000 0.0000 0.0000 21.0928 0.0000 12.7836
#
#
#
# Elastic Compliance Matrix: (Units=1/GPa)
#
#
# Indices 1 2 3 4 5 6 
#
# 1 0.017058 -0.000928 0.000857 0.000000 -0.001252 0.000000
# 2 -0.000928 0.013110 -0.002675 0.000000 -0.004666 0.000000
# 3 0.000857 -0.002675 0.012299 0.000000 -0.005551 0.000000
# 4 0.000000 0.000000 0.000000 0.056606 0.000000 -0.093400
# 5 -0.001252 -0.004666 -0.005551 0.000000 0.030638 0.000000
# 6 0.000000 0.000000 0.000000 -0.093400 0.000000 0.232335
#
#
# Mechanical properties :
#
#
# Convention : Reuss Voigt Hill
#
# Bulk Modulus (GPa) = 27.04492 34.02065 30.53278
# Shear Modulus (GPa) = 13.16263 35.27753 24.22008
#
# Velocity S-wave (km/s) = 2.30983 3.78145 3.13327
# Velocity P-wave (km/s) = 4.25160 5.73199 5.04638
#
# Compressibility (1/GPa) = 0.03697552
#
# Stress axis : x y z
#
# Youngs Moduli (GPa) = 58.62502 76.27592 81.30624
#
# Poissons Ratio (x) = 0.07076 -0.06968
# Poissons Ratio (y) = 0.05439 0.21750
# Poissons Ratio (z) = -0.05024 0.20404
#
# Static dielectric constant tensor:
#      x y z
#    x 2.095870 0.000000 -0.078210 
#    y 0.000000 1.933810 0.000000 
#    z -0.078210 0.000000 1.977540 
# 
# From -- ./inp_files/50548.got.cif
#   From: 2010.05.17/outbox.cif.g08.bks.cpg/sg11_26_cif.got.tgz:50548.got - 2010.06.03 12:22:45.
