data_PCOD9166722
_publ_section_title
;
Structure prediction by ZEFSAII (Michael W. Deem and Ramdas Pophale) SiO2 
 PCOD9166722
Probable space group: P 21/M
;
_chemical_formula_sum "Si O2"
_cell_formula_units_Z 24
_cell_length_a 15.772763
_cell_length_b 8.689732
_cell_length_c 9.111513
_cell_angle_alpha 90.000000
_cell_angle_beta 89.972138
_cell_angle_gamma 90.000000
_cell_volume 1248.833695
_symmetry_space_group_name_H-M "P 21/M"
_symmetry_group_IT_number 11
_symmetry_cell_setting 'monoclinic'
loop_
_space_group_symop_operation_xyz
x,y,z
-x,1/2+y,-z
-x,-y,-z
x,1/2-y,z
loop_
_atom_site_type_symbol
_atom_site_label
_atom_site_fract_x
_atom_site_fract_y
_atom_site_fract_z
Si Si1 0.915986 0.935386 0.577089
Si Si2 0.581991 0.565754 0.583113
Si Si3 0.247100 0.934997 0.919882
Si Si4 0.252003 0.935274 0.576562
Si Si5 0.580030 0.435216 0.911705
Si Si6 0.082454 0.433880 0.079890
O O1 0.914906 0.750000 0.566797
O O2 0.916144 0.979290 0.748880
O O3 0.833101 0.003562 0.499328
O O4 0.000000 0.000000 0.500000
O O5 0.500000 0.500000 0.500000
O O6 0.579488 0.750000 0.582398
O O7 0.666346 0.506495 0.502317
O O8 0.581843 0.504431 0.749217
O O9 0.238342 0.750000 0.927206
O O10 0.251407 0.977627 0.748639
O O11 0.333758 0.977097 0.002586
O O12 0.166622 0.008416 0.998982
O O13 0.255610 0.750000 0.565244
O O14 0.574937 0.250000 0.903911
O O15 0.500000 0.500000 0.000000
O O16 0.079072 0.250000 0.073596
O O17 0.000000 0.500000 0.000000
#
# Coordination Sequence:
#
# PCOD9166722 Si02
#       6
#     4   4   4   4   4   4
#     4  11  24  41  61  90 123 160 204 252 305 365
#     4  12  25  42  64  92 125 163 208 257 309 370
#     4  10  23  41  62  89 122 158 200 247 300 360
#     4  11  23  41  64  92 124 160 203 253 306 367
#     4  11  23  41  65  93 126 165 206 254 308 365
#     4  11  24  40  61  88 120 156 200 249 300 359
#
# _framework density 19.217929999999999
#
# number of rings (size 3 to 8) (size 9 to 14) (size 15 to 20)
#    0.000    1.000    0.000    6.500    0.000   13.333 
#    0.000    0.000    0.000    0.000    0.000    0.000 
#    0.000    0.000    0.000    0.000    0.000    0.000 
#
# Total GULP energy -134351.581323 kJ/mol
# GULP energy per Si atom -5597.982555 kJ/mol
# Density = 1.917419 g / cm^3
# Si number density = 19.217930 Si / 1000 Ang^3
#
#
#
# Elastic Constant Matrix: (Units=GPa)
#
#
# Indices 1 2 3 4 5 6 
#
# 1 239.8798 83.9933 147.1828 0.0000 -0.3804 0.0000
# 2 83.9933 88.5820 88.5991 0.0000 1.2061 0.0000
# 3 147.1828 88.5991 240.8286 0.0000 1.0938 0.0000
# 4 0.0000 0.0000 0.0000 37.7312 0.0000 -3.2458
# 5 -0.3804 1.2061 1.0938 0.0000 46.6998 0.0000
# 6 0.0000 0.0000 0.0000 -3.2458 0.0000 43.3112
#
#
#
# Elastic Compliance Matrix: (Units=1/GPa)
#
#
# Indices 1 2 3 4 5 6 
#
# 1 0.007464 -0.003982 -0.003098 0.000000 0.000236 0.000000
# 2 -0.003982 0.019990 -0.004918 0.000000 -0.000434 0.000000
# 3 -0.003098 -0.004918 0.007855 0.000000 -0.000082 0.000000
# 4 0.000000 0.000000 0.000000 0.026675 0.000000 0.001999
# 5 0.000236 -0.000434 -0.000082 0.000000 0.021428 0.000000
# 6 0.000000 0.000000 0.000000 0.001999 0.000000 0.023239
#
#
# Mechanical properties :
#
#
# Convention : Reuss Voigt Hill
#
# Bulk Modulus (GPa) = 88.39616 134.31565 111.35590
# Shear Modulus (GPa) = 37.19668 42.18280 39.68974
#
# Velocity S-wave (km/s) = 4.40423 4.69013 4.54943
# Velocity P-wave (km/s) = 8.48290 9.96857 9.25559
#
# Compressibility (1/GPa) = 0.01131271
#
# Stress axis : x y z
#
# Youngs Moduli (GPa) = 133.97173 50.02376 127.30129
#
# Poissons Ratio (x) = 0.19922 0.39435
# Poissons Ratio (y) = 0.53354 0.62613
# Poissons Ratio (z) = 0.41501 0.24604
#
# Static dielectric constant tensor:
#      x y z
#    x 1.619670 0.000000 0.006430 
#    y 0.000000 1.647440 0.000000 
#    z 0.006430 0.000000 1.642520 
# 
# From -- ./inp_files/20478.got.cif
#   From: 2010.05.17/outbox.cif.g08.bks.cpg/sg11_11_cif.got.tgz:20478.got - 2010.06.03 12:22:45.
