data_PCOD9166213
_publ_section_title
;
Structure prediction by ZEFSAII (Michael W. Deem and Ramdas Pophale) SiO2 
 PCOD9166213
Probable space group: P 21/M
;
_chemical_formula_sum "Si O2"
_cell_formula_units_Z 18
_cell_length_a 8.264936
_cell_length_b 13.603970
_cell_length_c 6.757698
_cell_angle_alpha 90.000000
_cell_angle_beta 77.651816
_cell_angle_gamma 90.000000
_cell_volume 742.230793
_symmetry_space_group_name_H-M "P 21/M"
_symmetry_group_IT_number 11
_symmetry_cell_setting 'monoclinic'
loop_
_space_group_symop_operation_xyz
x,y,z
-x,1/2+y,-z
-x,-y,-z
x,1/2-y,z
loop_
_atom_site_type_symbol
_atom_site_label
_atom_site_fract_x
_atom_site_fract_y
_atom_site_fract_z
Si Si1 0.020838 0.456203 0.775299
Si Si2 0.357339 0.532932 0.752300
Si Si3 0.707390 0.750000 0.663155
Si Si4 0.060788 0.750000 0.357253
Si Si5 0.304193 0.034724 0.212708
Si Si6 0.364207 0.750000 0.579569
O O1 0.961435 0.345656 0.769646
O O2 0.886228 0.516225 0.684485
O O3 0.215728 0.467693 0.688705
O O4 0.000000 0.500000 0.000000
O O5 0.548555 0.498820 0.683315
O O6 0.328443 0.646559 0.700520
O O7 0.331659 0.518198 0.995674
O O8 0.675264 0.652121 0.798699
O O9 0.567602 0.750000 0.523777
O O10 0.897935 0.750000 0.542185
O O11 0.236494 0.750000 0.427552
#
# Coordination Sequence:
#
# PCOD9166213 Si02
#       6
#     4   4   2   2   4   2
#     4  10  23  40  61  87 116 157 207 256 306 368
#     4   9  19  37  62  91 124 163 205 245 288 350
#     4  10  22  39  61  93 130 163 197 245 304 359
#     4  12  26  42  60  88 124 158 198 256 320 370
#     4   9  19  37  62  91 124 163 205 245 288 350
#     4  10  22  39  61  93 130 163 197 245 304 359
#
# _framework density 24.251218000000001
#
# number of rings (size 3 to 8) (size 9 to 14) (size 15 to 20)
#    0.000    2.222    0.000    1.333    0.000   12.444 
#    0.000    6.667    0.000    0.000    0.000    0.000 
#    0.000    0.000    0.000    0.000    0.000    0.000 
#
# Total GULP energy -100501.672686 kJ/mol
# GULP energy per Si atom -5583.426260 kJ/mol
# Density = 2.419602 g / cm^3
# Si number density = 24.251218 Si / 1000 Ang^3
#
#
#
# Elastic Constant Matrix: (Units=GPa)
#
#
# Indices 1 2 3 4 5 6 
#
# 1 245.4249 52.9431 45.7833 0.0000 39.2141 0.0000
# 2 52.9431 172.6334 29.6010 0.0000 35.1498 0.0000
# 3 45.7833 29.6010 89.2907 0.0000 24.1281 0.0000
# 4 0.0000 0.0000 0.0000 -13.2530 0.0000 4.1673
# 5 39.2141 35.1498 24.1281 0.0000 51.2983 0.0000
# 6 0.0000 0.0000 0.0000 4.1673 0.0000 40.9545
#
#
#
# Elastic Compliance Matrix: (Units=1/GPa)
#
#
# Indices 1 2 3 4 5 6 
#
# 1 0.004933 -0.000724 -0.001609 0.000000 -0.002518 0.000000
# 2 -0.000724 0.006939 -0.000909 0.000000 -0.003773 0.000000
# 3 -0.001609 -0.000909 0.013547 0.000000 -0.004519 0.000000
# 4 0.000000 0.000000 0.000000 -0.073115 0.000000 0.007440
# 5 -0.002518 -0.003773 -0.004519 0.000000 0.026129 0.000000
# 6 0.000000 0.000000 0.000000 0.007440 0.000000 0.023660
#
#
# Mechanical properties :
#
#
# Convention : Reuss Voigt Hill
#
# Bulk Modulus (GPa) = 52.81568 84.88930 68.85249
# Shear Modulus (GPa) = 335.78748 41.06807 188.42778
#
# Velocity S-wave (km/s) = 11.77976 4.11961 8.82423
# Velocity P-wave (km/s) = 14.38203 7.59660 11.50111
#
# Compressibility (1/GPa) = 0.01893377
#
# Stress axis : x y z
#
# Youngs Moduli (GPa) = 202.70362 144.11430 73.81783
#
# Poissons Ratio (x) = 0.10439 0.11877
# Poissons Ratio (y) = 0.14683 0.06713
# Poissons Ratio (z) = 0.32614 0.13105
#
# Static dielectric constant tensor:
#      x y z
#    x 2.136500 0.000000 -0.239550 
#    y 0.000000 1.850080 0.000000 
#    z -0.239550 0.000000 2.329880 
# 
# From -- ./inp_files/11831.got.cif
#   From: 2010.05.17/outbox.cif.g08.bks.cpg/sg11_6_cif.got.tgz:11831.got - 2010.06.03 12:22:45.
