data_PCOD9166201
_publ_section_title
;
Structure prediction by ZEFSAII (Michael W. Deem and Ramdas Pophale) SiO2 
 PCOD9166201
Probable space group: P 21/M
;
_chemical_formula_sum "Si O2"
_cell_formula_units_Z 28
_cell_length_a 16.997950
_cell_length_b 12.698713
_cell_length_c 20.413004
_cell_angle_alpha 90.000000
_cell_angle_beta 161.222772
_cell_angle_gamma 90.000000
_cell_volume 1418.305831
_symmetry_space_group_name_H-M "P 21/M"
_symmetry_group_IT_number 11
_symmetry_cell_setting 'monoclinic'
loop_
_space_group_symop_operation_xyz
x,y,z
-x,1/2+y,-z
-x,-y,-z
x,1/2-y,z
loop_
_atom_site_type_symbol
_atom_site_label
_atom_site_fract_x
_atom_site_fract_y
_atom_site_fract_z
Si Si1 0.352125 0.628711 0.663807
Si Si2 0.495420 0.058263 0.602322
Si Si3 0.153257 0.469834 0.764933
Si Si4 0.667578 0.370337 0.195107
Si Si5 0.282045 0.628667 0.356102
Si Si6 0.797019 0.490739 0.960991
Si Si7 0.035015 0.630122 0.783732
O O1 0.411889 0.750000 0.696070
O O2 0.325393 0.618496 0.721172
O O3 0.563066 0.552797 0.804288
O O4 0.094194 0.596057 0.429539
O O5 0.565305 0.117637 0.590671
O O6 0.256767 0.110430 0.446337
O O7 0.417620 0.940536 0.518248
O O8 0.718091 0.052528 0.828290
O O9 0.167782 0.544813 0.712726
O O10 0.154885 0.548168 0.828082
O O11 0.390809 0.396302 0.954456
O O12 0.733195 0.250000 0.230126
O O13 0.251472 0.750000 0.350300
O O14 0.025070 0.570562 0.140248
O O15 0.871713 0.399389 0.070350
O O16 0.091041 0.750000 0.810899
#
# Coordination Sequence:
#
# PCOD9166201 Si02
#       7
#     4   4   4   4   4   4   4
#     4  11  22  38  61  90 122 159 197 245 301 351
#     4  10  22  42  61  86 126 155 200 252 297 361
#     4  11  21  40  61  86 123 154 206 246 290 359
#     4  10  22  39  61  87 119 158 197 248 300 347
#     4  10  22  39  63  91 118 158 202 247 301 356
#     4  11  22  41  59  92 124 157 201 252 293 362
#     4  11  23  39  61  88 121 163 204 249 304 354
#
# _framework density 19.741862000000001
#
# number of rings (size 3 to 8) (size 9 to 14) (size 15 to 20)
#    0.000    1.429    2.857    2.571    0.000    2.286 
#    0.000    0.000    0.000    0.000    0.000    0.000 
#    0.000    0.000    0.000    0.000    0.000    0.000 
#
# Total GULP energy -156513.094567 kJ/mol
# GULP energy per Si atom -5589.753377 kJ/mol
# Density = 1.969693 g / cm^3
# Si number density = 19.741862 Si / 1000 Ang^3
#
#
#
# Elastic Constant Matrix: (Units=GPa)
#
#
# Indices 1 2 3 4 5 6 
#
# 1 29.2803 -7.4877 -14.5032 0.0000 -4.3659 0.0000
# 2 -7.4877 51.6763 -2.4847 0.0000 -16.9517 0.0000
# 3 -14.5032 -2.4847 44.5757 0.0000 -6.5258 0.0000
# 4 0.0000 0.0000 0.0000 3.1033 0.0000 1.7154
# 5 -4.3659 -16.9517 -6.5258 0.0000 32.8247 0.0000
# 6 0.0000 0.0000 0.0000 1.7154 0.0000 12.5268
#
#
#
# Elastic Compliance Matrix: (Units=1/GPa)
#
#
# Indices 1 2 3 4 5 6 
#
# 1 0.050193 0.014084 0.019732 0.000000 0.017872 0.000000
# 2 0.014084 0.027688 0.008748 0.000000 0.017911 0.000000
# 3 0.019732 0.008748 0.031298 0.000000 0.013365 0.000000
# 4 0.000000 0.000000 0.000000 0.348633 0.000000 -0.047741
# 5 0.017872 0.017911 0.013365 0.000000 0.044749 0.000000
# 6 0.000000 0.000000 0.000000 -0.047741 0.000000 0.086367
#
#
# Mechanical properties :
#
#
# Convention : Reuss Voigt Hill
#
# Bulk Modulus (GPa) = 5.14643 8.50901 6.82772
# Shear Modulus (GPa) = 8.79402 19.69148 14.24275
#
# Velocity S-wave (km/s) = 2.11286 3.16167 2.68889
# Velocity P-wave (km/s) = 2.92656 4.20091 3.62025
#
# Compressibility (1/GPa) = 0.19430932
#
# Stress axis : x y z
#
# Youngs Moduli (GPa) = 19.92303 36.11644 31.95084
#
# Poissons Ratio (x) = -0.50868 -0.63047
# Poissons Ratio (y) = -0.28060 -0.27951
# Poissons Ratio (z) = -0.39313 -0.31595
#
# Static dielectric constant tensor:
#      x y z
#    x 1.696120 0.000000 -0.007950 
#    y 0.000000 1.660400 0.000000 
#    z -0.007950 0.000000 1.670030 
# 
# From -- ./inp_files/61462.got.cif
#   From: 2010.05.17/outbox.cif.g08.bks.cpg/sg11_31_cif.got.tgz:61462.got - 2010.06.03 12:22:45.
