data_PCOD9166723
_publ_section_title
;
Structure prediction by ZEFSAII (Michael W. Deem and Ramdas Pophale) SiO2 
 PCOD9166723
Probable space group: P 21/M
;
_chemical_formula_sum "Si O2"
_cell_formula_units_Z 28
_cell_length_a 14.581486
_cell_length_b 9.074207
_cell_length_c 21.266734
_cell_angle_alpha 90.000000
_cell_angle_beta 151.420274
_cell_angle_gamma 90.000000
_cell_volume 1346.124813
_symmetry_space_group_name_H-M "P 21/M"
_symmetry_group_IT_number 11
_symmetry_cell_setting 'monoclinic'
loop_
_space_group_symop_operation_xyz
x,y,z
-x,1/2+y,-z
-x,-y,-z
x,1/2-y,z
loop_
_atom_site_type_symbol
_atom_site_label
_atom_site_fract_x
_atom_site_fract_y
_atom_site_fract_z
Si Si1 0.668558 0.419041 0.423361
Si Si2 0.706263 0.077384 0.119159
Si Si3 0.078945 0.924643 0.110939
Si Si4 0.769056 0.924382 0.034141
Si Si5 0.433847 0.078334 0.759527
Si Si6 0.518787 0.072465 0.580051
Si Si7 0.112947 0.414924 0.661835
O O1 0.607888 0.250000 0.396744
O O2 0.549322 0.497022 0.296528
O O3 0.646528 0.510187 0.473962
O O4 0.885325 0.417599 0.528376
O O5 0.684924 0.250000 0.095295
O O6 0.812108 0.040752 0.247312
O O7 0.500000 0.000000 0.000000
O O8 0.818828 0.000951 0.129699
O O9 0.092295 0.750000 0.106151
O O10 0.284441 0.970243 0.264245
O O11 0.926138 0.947501 0.074866
O O12 0.000000 0.000000 0.000000
O O13 0.741813 0.750000 0.026846
O O14 0.574748 0.000271 0.893155
O O15 0.483044 0.250000 0.782365
O O16 0.220050 0.069219 0.659945
O O17 0.513989 0.250000 0.571876
O O18 0.500000 0.000000 0.500000
O O19 0.173273 0.250000 0.721436
#
# Coordination Sequence:
#
# PCOD9166723 Si02
#       7
#     4   4   4   4   4   4   4
#     4  11  24  42  65  92 126 169 211 262 319 377
#     4  12  24  39  61  91 126 166 210 259 313 375
#     4  10  24  44  68  96 129 167 215 271 328 386
#     4  11  23  40  64  93 126 166 209 261 319 378
#     4  11  22  39  63  94 129 167 209 258 310 378
#     4  11  25  46  68  96 130 171 219 275 333 395
#     4  10  23  41  62  89 127 169 211 257 311 373
#
# _framework density 20.800447999999999
#
# number of rings (size 3 to 8) (size 9 to 14) (size 15 to 20)
#    0.000    1.143    1.429    4.286    2.000    6.286 
#    0.000    0.000    0.000    0.000    0.000    0.000 
#    0.000    0.000    0.000    0.000    0.000    0.000 
#
# Total GULP energy -156525.440074 kJ/mol
# GULP energy per Si atom -5590.194288 kJ/mol
# Density = 2.075310 g / cm^3
# Si number density = 20.800448 Si / 1000 Ang^3
#
#
#
# Elastic Constant Matrix: (Units=GPa)
#
#
# Indices 1 2 3 4 5 6 
#
# 1 82.7885 51.9374 25.2452 0.0000 -19.2848 0.0000
# 2 51.9374 128.3010 35.3954 0.0000 -10.2699 0.0000
# 3 25.2452 35.3954 49.2640 0.0000 -6.8354 0.0000
# 4 0.0000 0.0000 0.0000 31.4208 0.0000 -9.2734
# 5 -19.2848 -10.2699 -6.8354 0.0000 36.1977 0.0000
# 6 0.0000 0.0000 0.0000 -9.2734 0.0000 31.8005
#
#
#
# Elastic Compliance Matrix: (Units=1/GPa)
#
#
# Indices 1 2 3 4 5 6 
#
# 1 0.018824 -0.005792 -0.004438 0.000000 0.007547 0.000000
# 2 -0.005792 0.011581 -0.005468 0.000000 -0.000832 0.000000
# 3 -0.004438 -0.005468 0.026657 0.000000 0.001118 0.000000
# 4 0.000000 0.000000 0.000000 0.034823 0.000000 0.010155
# 5 0.007547 -0.000832 0.001118 0.000000 0.031622 0.000000
# 6 0.000000 0.000000 0.000000 0.010155 0.000000 0.034407
#
#
# Mechanical properties :
#
#
# Convention : Reuss Voigt Hill
#
# Bulk Modulus (GPa) = 38.96187 53.94551 46.45369
# Shear Modulus (GPa) = 25.26996 29.73550 27.50273
#
# Velocity S-wave (km/s) = 3.48929 3.78506 3.64018
# Velocity P-wave (km/s) = 5.91654 6.71515 6.32846
#
# Compressibility (1/GPa) = 0.02566612
#
# Stress axis : x y z
#
# Youngs Moduli (GPa) = 53.12476 86.35184 37.51385
#
# Poissons Ratio (x) = 0.50011 0.16648
# Poissons Ratio (y) = 0.30767 0.20513
# Poissons Ratio (z) = 0.23576 0.47218
#
# Static dielectric constant tensor:
#      x y z
#    x 1.756150 0.000000 0.021650 
#    y 0.000000 1.713150 0.000000 
#    z 0.021650 0.000000 1.758610 
# 
# From -- ./inp_files/65432.got.cif
#   From: 2010.05.17/outbox.cif.g08.bks.cpg/sg11_33_cif.got.tgz:65432.got - 2010.06.03 12:22:45.
