data_PCOD9166109
_publ_section_title
;
Structure prediction by ZEFSAII (Michael W. Deem and Ramdas Pophale) SiO2 
 PCOD9166109
Probable space group: P 21/M
;
_chemical_formula_sum "Si O2"
_cell_formula_units_Z 32
_cell_length_a 6.588875
_cell_length_b 27.539044
_cell_length_c 8.781953
_cell_angle_alpha 90.000000
_cell_angle_beta 91.887702
_cell_angle_gamma 90.000000
_cell_volume 1592.632175
_symmetry_space_group_name_H-M "P 21/M"
_symmetry_group_IT_number 11
_symmetry_cell_setting 'monoclinic'
loop_
_space_group_symop_operation_xyz
x,y,z
-x,1/2+y,-z
-x,-y,-z
x,1/2-y,z
loop_
_atom_site_type_symbol
_atom_site_label
_atom_site_fract_x
_atom_site_fract_y
_atom_site_fract_z
Si Si1 0.307558 0.972545 0.920961
Si Si2 0.656112 0.638950 0.183659
Si Si3 0.020253 0.443736 0.830778
Si Si4 0.057021 0.696274 0.749292
Si Si5 0.396536 0.618057 0.717374
Si Si6 0.965248 0.694421 0.398398
Si Si7 0.717395 0.389507 0.629991
Si Si8 0.348526 0.306010 0.116443
O O1 0.395490 0.929176 0.821763
O O2 0.167048 0.009848 0.821574
O O3 0.147860 0.952713 0.042785
O O4 0.500000 0.000000 0.000000
O O5 0.825061 0.600481 0.130650
O O6 0.465709 0.612131 0.254712
O O7 0.770677 0.671070 0.313212
O O8 0.585142 0.672884 0.043872
O O9 0.887231 0.428874 0.680760
O O10 0.154440 0.750000 0.755590
O O11 0.206618 0.651609 0.759673
O O12 0.949476 0.693789 0.581225
O O13 0.894450 0.693786 0.878660
O O14 0.371676 0.604374 0.540705
O O15 0.577975 0.655130 0.757130
O O16 0.991019 0.750000 0.350081
O O17 0.161075 0.661668 0.363774
O O18 0.409012 0.250000 0.142820
#
# Coordination Sequence:
#
# PCOD9166109 Si02
#       8
#     4   4   4   4   4   4   4   4
#     4  11  23  41  64  87 114 148 189 241 297 351
#     4  11  21  38  58  84 121 153 191 238 287 344
#     4  10  22  41  62  84 113 149 192 241 293 349
#     4   9  19  37  57  81 115 151 191 234 275 330
#     4  11  22  38  60  85 115 152 191 235 287 341
#     4   9  19  35  56  82 114 154 193 231 280 335
#     4  10  22  38  59  85 115 152 193 238 286 342
#     4  11  22  34  55  86 117 153 192 231 278 333
#
# _framework density 20.092521999999999
#
# number of rings (size 3 to 8) (size 9 to 14) (size 15 to 20)
#    0.000    1.750    0.000    4.500    0.000    4.000 
#    0.000    2.500    0.000    0.000    0.000    0.000 
#    0.000    0.000    0.000    0.000    0.000    0.000 
#
# Total GULP energy -178613.499239 kJ/mol
# GULP energy per Si atom -5581.671851 kJ/mol
# Density = 2.004679 g / cm^3
# Si number density = 20.092522 Si / 1000 Ang^3
#
#
#
# Elastic Constant Matrix: (Units=GPa)
#
#
# Indices 1 2 3 4 5 6 
#
# 1 88.5414 34.9117 31.4904 0.0000 -7.1485 0.0000
# 2 34.9117 120.7324 37.8654 0.0000 0.2641 0.0000
# 3 31.4904 37.8654 44.7595 0.0000 -2.1481 0.0000
# 4 0.0000 0.0000 0.0000 36.7968 0.0000 10.8577
# 5 -7.1485 0.2641 -2.1481 0.0000 24.1925 0.0000
# 6 0.0000 0.0000 0.0000 10.8577 0.0000 25.0380
#
#
#
# Elastic Compliance Matrix: (Units=1/GPa)
#
#
# Indices 1 2 3 4 5 6 
#
# 1 0.015576 -0.001541 -0.009473 0.000000 0.003778 0.000000
# 2 -0.001541 0.011449 -0.008666 0.000000 -0.001350 0.000000
# 3 -0.009473 -0.008666 0.036363 0.000000 0.000524 0.000000
# 4 0.000000 0.000000 0.000000 0.031164 0.000000 -0.013514
# 5 0.003778 -0.001350 0.000524 0.000000 0.042513 0.000000
# 6 0.000000 0.000000 0.000000 -0.013514 0.000000 0.045800
#
#
# Mechanical properties :
#
#
# Convention : Reuss Voigt Hill
#
# Bulk Modulus (GPa) = 41.62008 51.39649 46.50829
# Shear Modulus (GPa) = 21.71681 27.18986 24.45333
#
# Velocity S-wave (km/s) = 3.29118 3.68262 3.49239
# Velocity P-wave (km/s) = 5.93310 6.61194 6.28170
#
# Compressibility (1/GPa) = 0.02402686
#
# Stress axis : x y z
#
# Youngs Moduli (GPa) = 64.20062 87.34043 27.50026
#
# Poissons Ratio (x) = 0.13461 0.26052
# Poissons Ratio (y) = 0.09895 0.23833
# Poissons Ratio (z) = 0.60820 0.75693
#
# Static dielectric constant tensor:
#      x y z
#    x 1.721510 0.000000 0.022760 
#    y 0.000000 1.697090 0.000000 
#    z 0.022760 0.000000 1.704080 
# 
# From -- ./inp_files/3402.got.cif
#   From: 2010.05.17/outbox.cif.g08.bks.cpg/sg11_2_cif.got.tgz:3402.got - 2010.06.03 12:22:45.
