data_PCOD9166114
_publ_section_title
;
Structure prediction by ZEFSAII (Michael W. Deem and Ramdas Pophale) SiO2 
 PCOD9166114
Probable space group: P 21/M
;
_chemical_formula_sum "Si O2"
_cell_formula_units_Z 32
_cell_length_a 7.646984
_cell_length_b 25.303955
_cell_length_c 12.592844
_cell_angle_alpha 90.000000
_cell_angle_beta 143.791429
_cell_angle_gamma 90.000000
_cell_volume 1439.424114
_symmetry_space_group_name_H-M "P 21/M"
_symmetry_group_IT_number 11
_symmetry_cell_setting 'monoclinic'
loop_
_space_group_symop_operation_xyz
x,y,z
-x,1/2+y,-z
-x,-y,-z
x,1/2-y,z
loop_
_atom_site_type_symbol
_atom_site_label
_atom_site_fract_x
_atom_site_fract_y
_atom_site_fract_z
Si Si1 0.719224 0.191864 0.979365
Si Si2 0.657851 0.004720 0.364567
Si Si3 0.989004 0.868093 0.701730
Si Si4 0.483687 0.449558 0.065248
Si Si5 0.989609 0.638890 0.198501
Si Si6 0.460763 0.381034 0.686906
Si Si7 0.570322 0.385862 0.416953
Si Si8 0.318931 0.307608 0.130990
O O1 0.580373 0.250000 0.904614
O O2 0.523411 0.144859 0.832265
O O3 0.828811 0.177747 0.150792
O O4 0.018747 0.193621 0.054907
O O5 0.561153 0.944387 0.332653
O O6 0.464254 0.028697 0.174530
O O7 0.637725 0.051655 0.440562
O O8 0.000000 0.000000 0.500000
O O9 0.830257 0.857520 0.512258
O O10 0.720566 0.881250 0.651416
O O11 0.214680 0.916334 0.799264
O O12 0.500000 0.500000 0.000000
O O13 0.208077 0.413486 0.899656
O O14 0.260471 0.633641 0.249101
O O15 0.155438 0.643509 0.391543
O O16 0.781093 0.681783 0.039063
O O17 0.500668 0.355986 0.271941
O O18 0.462023 0.250000 0.211924
#
# Coordination Sequence:
#
# PCOD9166114 Si02
#       8
#     4   4   4   4   4   4   4   4
#     4   9  19  38  63  91 121 156 205 257 302 359
#     4  12  23  39  62  89 126 165 201 250 302 368
#     4  10  22  40  60  89 123 161 202 251 304 364
#     4  12  24  38  59  87 126 165 201 251 306 357
#     4  10  22  38  59  92 123 159 206 255 299 363
#     4  10  22  38  62  92 123 161 207 248 303 365
#     4  10  22  39  63  90 122 163 209 244 304 369
#     4   9  18  38  63  91 122 156 204 259 306 356
#
# _framework density 22.231110999999999
#
# number of rings (size 3 to 8) (size 9 to 14) (size 15 to 20)
#    0.000    1.750    2.500    1.500    1.750    2.500 
#    0.000    5.625    0.000    3.750    0.000    0.000 
#    0.000    0.000    0.000    0.000    0.000    0.000 
#
# Total GULP energy -178678.368160 kJ/mol
# GULP energy per Si atom -5583.699005 kJ/mol
# Density = 2.218051 g / cm^3
# Si number density = 22.231111 Si / 1000 Ang^3
#
#
#
# Elastic Constant Matrix: (Units=GPa)
#
#
# Indices 1 2 3 4 5 6 
#
# 1 24.4941 5.3144 24.1008 0.0000 4.7287 0.0000
# 2 5.3144 105.9398 41.2166 0.0000 -22.8068 0.0000
# 3 24.1008 41.2166 129.5598 0.0000 -14.3398 0.0000
# 4 0.0000 0.0000 0.0000 19.2219 0.0000 -9.1877
# 5 4.7287 -22.8068 -14.3398 0.0000 31.4657 0.0000
# 6 0.0000 0.0000 0.0000 -9.1877 0.0000 12.6516
#
#
#
# Elastic Compliance Matrix: (Units=1/GPa)
#
#
# Indices 1 2 3 4 5 6 
#
# 1 0.055179 -0.001462 -0.011410 0.000000 -0.014552 0.000000
# 2 -0.001462 0.012281 -0.002765 0.000000 0.007861 0.000000
# 3 -0.011410 -0.002765 0.011256 0.000000 0.004841 0.000000
# 4 0.000000 0.000000 0.000000 0.079683 0.000000 0.057867
# 5 -0.014552 0.007861 0.004841 0.000000 0.041871 0.000000
# 6 0.000000 0.000000 0.000000 0.057867 0.000000 0.121064
#
#
# Mechanical properties :
#
#
# Convention : Reuss Voigt Hill
#
# Bulk Modulus (GPa) = 21.07782 44.58414 32.83098
# Shear Modulus (GPa) = 13.57136 25.29197 19.43166
#
# Velocity S-wave (km/s) = 2.47344 3.37662 2.95968
# Velocity P-wave (km/s) = 4.20227 5.94142 5.14585
#
# Compressibility (1/GPa) = 0.04744323
#
# Stress axis : x y z
#
# Youngs Moduli (GPa) = 18.12269 81.42917 88.83905
#
# Poissons Ratio (x) = 0.11901 1.01367
# Poissons Ratio (y) = 0.02649 0.24563
# Poissons Ratio (z) = 0.20678 0.22514
#
# Static dielectric constant tensor:
#      x y z
#    x 1.845390 0.000000 -0.032320 
#    y 0.000000 1.815210 0.000000 
#    z -0.032320 0.000000 1.825710 
# 
# From -- ./inp_files/48480.got.cif
#   From: 2010.05.17/outbox.cif.g08.bks.cpg/sg11_25_cif.got.tgz:48480.got - 2010.06.03 12:22:45.
