data_PCOD9166417
_publ_section_title
;
Structure prediction by ZEFSAII (Michael W. Deem and Ramdas Pophale) SiO2 
 PCOD9166417
Probable space group: P 21/M
;
_chemical_formula_sum "Si O2"
_cell_formula_units_Z 22
_cell_length_a 9.797209
_cell_length_b 12.558063
_cell_length_c 13.167308
_cell_angle_alpha 90.000000
_cell_angle_beta 35.399024
_cell_angle_gamma 90.000000
_cell_volume 938.428152
_symmetry_space_group_name_H-M "P 21/M"
_symmetry_group_IT_number 11
_symmetry_cell_setting 'monoclinic'
loop_
_space_group_symop_operation_xyz
x,y,z
-x,1/2+y,-z
-x,-y,-z
x,1/2-y,z
loop_
_atom_site_type_symbol
_atom_site_label
_atom_site_fract_x
_atom_site_fract_y
_atom_site_fract_z
Si Si1 0.715522 0.464849 0.940351
Si Si2 0.605804 0.367350 0.321094
Si Si3 0.460712 0.250000 0.140793
Si Si4 0.434429 0.904914 0.415910
Si Si5 0.033189 0.424329 0.384615
Si Si6 0.847629 0.867178 0.027744
O O1 0.929725 0.499214 0.736835
O O2 0.500000 0.500000 0.000000
O O3 0.663899 0.345194 0.005615
O O4 0.742895 0.543398 0.018626
O O5 0.528603 0.250000 0.329380
O O6 0.605920 0.372512 0.443483
O O7 0.449704 0.467667 0.388034
O O8 0.875497 0.383962 0.122777
O O9 0.250049 0.343433 0.267296
O O10 0.688649 0.866488 0.224089
O O11 0.214664 0.866281 0.484434
O O12 0.000000 0.500000 0.500000
O O13 0.826928 0.750000 0.989950
#
# Coordination Sequence:
#
# PCOD9166417 Si02
#       6
#     4   4   2   4   4   4
#     4  10  22  41  63  96 135 180 222 276 339 402
#     4  10  23  42  67  96 136 178 222 284 337 402
#     4  10  24  42  66  94 138 180 220 282 338 412
#     4  11  22  42  67 100 134 172 234 276 336 409
#     4  11  24  44  67 101 138 179 230 283 346 409
#     4  11  23  41  71  97 135 184 226 275 339 410
#
# _framework density 23.443456999999999
#
# number of rings (size 3 to 8) (size 9 to 14) (size 15 to 20)
#    0.000    1.455    1.818    3.273    7.636    0.727 
#    8.182    0.000    2.000    0.000    0.000    0.000 
#    0.000    0.000    0.000    0.000    0.000    0.000 
#
# Total GULP energy -122472.443106 kJ/mol
# GULP energy per Si atom -5566.929232 kJ/mol
# Density = 2.339010 g / cm^3
# Si number density = 23.443457 Si / 1000 Ang^3
#
#
#
# Elastic Constant Matrix: (Units=GPa)
#
#
# Indices 1 2 3 4 5 6 
#
# 1 38.7143 22.2027 19.3487 0.0000 -2.6759 0.0000
# 2 22.2027 209.4178 17.0588 0.0000 -23.1102 0.0000
# 3 19.3487 17.0588 155.0918 0.0000 -10.1531 0.0000
# 4 0.0000 0.0000 0.0000 34.2068 0.0000 -21.2551
# 5 -2.6759 -23.1102 -10.1531 0.0000 30.8188 0.0000
# 6 0.0000 0.0000 0.0000 -21.2551 0.0000 26.7379
#
#
#
# Elastic Compliance Matrix: (Units=1/GPa)
#
#
# Indices 1 2 3 4 5 6 
#
# 1 0.029120 -0.002896 -0.003364 0.000000 -0.000752 0.000000
# 2 -0.002896 0.005510 0.000010 0.000000 0.003883 0.000000
# 3 -0.003364 0.000010 0.006999 0.000000 0.002021 0.000000
# 4 0.000000 0.000000 0.000000 0.057769 0.000000 0.045923
# 5 -0.000752 0.003883 0.002021 0.000000 0.035960 0.000000
# 6 0.000000 0.000000 0.000000 0.045923 0.000000 0.073906
#
#
# Mechanical properties :
#
#
# Convention : Reuss Voigt Hill
#
# Bulk Modulus (GPa) = 34.33093 57.82714 46.07904
# Shear Modulus (GPa) = 21.60060 41.32694 31.46377
#
# Velocity S-wave (km/s) = 3.03874 4.20317 3.66746
# Velocity P-wave (km/s) = 5.19498 6.94807 6.13447
#
# Compressibility (1/GPa) = 0.02912825
#
# Stress axis : x y z
#
# Youngs Moduli (GPa) = 34.34022 181.48835 142.88434
#
# Poissons Ratio (x) = 0.52565 0.48060
# Poissons Ratio (y) = 0.09946 -0.00136
# Poissons Ratio (z) = 0.11551 -0.00173
#
# Static dielectric constant tensor:
#      x y z
#    x 1.975090 0.000000 0.021150 
#    y 0.000000 1.923580 0.000000 
#    z 0.021150 0.000000 1.914930 
# 
# From -- ./inp_files/50012.got.cif
#   From: 2010.05.17/outbox.cif.g08.bks.cpg/sg11_26_cif.got.tgz:50012.got - 2010.06.03 12:22:45.
