data_PCOD9166970
_publ_section_title
;
Structure prediction by ZEFSAII (Michael W. Deem and Ramdas Pophale) SiO2 
 PCOD9166970
Probable space group: P 21/M
;
_chemical_formula_sum "Si O2"
_cell_formula_units_Z 20
_cell_length_a 11.302237
_cell_length_b 14.628878
_cell_length_c 4.960943
_cell_angle_alpha 90.000000
_cell_angle_beta 92.000404
_cell_angle_gamma 90.000000
_cell_volume 819.737715
_symmetry_space_group_name_H-M "P 21/M"
_symmetry_group_IT_number 11
_symmetry_cell_setting 'monoclinic'
loop_
_space_group_symop_operation_xyz
x,y,z
-x,1/2+y,-z
-x,-y,-z
x,1/2-y,z
loop_
_atom_site_type_symbol
_atom_site_label
_atom_site_fract_x
_atom_site_fract_y
_atom_site_fract_z
Si Si1 0.669425 0.953237 0.041579
Si Si2 0.932941 0.910029 0.899580
Si Si3 0.941581 0.150799 0.599689
Si Si4 0.441873 0.358190 0.459851
Si Si5 0.310125 0.857782 0.215041
O O1 0.575837 0.909496 0.823815
O O2 0.795439 0.915080 0.950376
O O3 0.675801 0.062957 0.007535
O O4 0.637693 0.913224 0.330146
O O5 0.968626 0.897707 0.594312
O O6 0.996327 0.841473 0.107652
O O7 0.000000 0.000000 0.000000
O O8 0.921967 0.250000 0.474606
O O9 0.809783 0.113722 0.636989
O O10 0.409641 0.250000 0.436102
O O11 0.574884 0.361745 0.586283
O O12 0.298111 0.750000 0.125719
#
# Coordination Sequence:
#
# PCOD9166970 Si02
#       5
#     4   4   4   4   4
#     4  12  25  44  74  98 140 182 228 279 350 403
#     4  12  25  43  68  97 139 172 225 277 339 403
#     4  11  25  44  70 100 133 180 228 280 341 402
#     4  11  26  46  70 103 138 180 231 284 342 407
#     4  10  24  46  71 102 140 179 232 286 337 410
#
# _framework density 24.398049
#
# number of rings (size 3 to 8) (size 9 to 14) (size 15 to 20)
#    0.000    0.800    2.000    4.200    2.800    6.400 
#    0.000    9.000    0.000    0.000    0.000    0.000 
#    0.000    0.000    0.000    0.000    0.000    0.000 
#
# Total GULP energy -111938.668289 kJ/mol
# GULP energy per Si atom -5596.933414 kJ/mol
# Density = 2.434252 g / cm^3
# Si number density = 24.398049 Si / 1000 Ang^3
#
#
#
# Elastic Constant Matrix: (Units=GPa)
#
#
# Indices 1 2 3 4 5 6 
#
# 1 164.0785 14.1547 8.5330 0.0000 -11.6050 0.0000
# 2 14.1547 109.0519 26.6998 0.0000 -11.8624 0.0000
# 3 8.5330 26.6998 90.1899 0.0000 -17.5488 0.0000
# 4 0.0000 0.0000 0.0000 -7.5749 0.0000 -2.1803
# 5 -11.6050 -11.8624 -17.5488 0.0000 35.0040 0.0000
# 6 0.0000 0.0000 0.0000 -2.1803 0.0000 16.7930
#
#
#
# Elastic Compliance Matrix: (Units=1/GPa)
#
#
# Indices 1 2 3 4 5 6 
#
# 1 0.006280 -0.000600 -0.000056 0.000000 0.001850 0.000000
# 2 -0.000600 0.010083 -0.002551 0.000000 0.001939 0.000000
# 3 -0.000056 -0.002551 0.012939 0.000000 0.005603 0.000000
# 4 0.000000 0.000000 0.000000 -0.127259 0.000000 -0.016523
# 5 0.001850 0.001939 0.005603 0.000000 0.032648 0.000000
# 6 0.000000 0.000000 0.000000 -0.016523 0.000000 0.057403
#
#
# Mechanical properties :
#
#
# Convention : Reuss Voigt Hill
#
# Bulk Modulus (GPa) = 43.69276 51.34395 47.51835
# Shear Modulus (GPa) = 814.56951 29.77327 422.17139
#
# Velocity S-wave (km/s) = 18.29184 3.49709 13.16854
# Velocity P-wave (km/s) = 21.54226 6.11524 15.83454
#
# Compressibility (1/GPa) = 0.02288709
#
# Stress axis : x y z
#
# Youngs Moduli (GPa) = 159.23005 99.17340 77.28859
#
# Poissons Ratio (x) = 0.05951 0.00437
# Poissons Ratio (y) = 0.09555 0.19716
# Poissons Ratio (z) = 0.00900 0.25299
#
# Static dielectric constant tensor:
#      x y z
#    x 1.927560 0.000000 -0.019250 
#    y 0.000000 2.165070 0.000000 
#    z -0.019250 0.000000 1.940130 
# 
# From -- ./inp_files/4348.got.cif
#   From: 2010.05.17/outbox.cif.g08.bks.cpg/sg11_3_cif.got.tgz:4348.got - 2010.06.03 12:22:45.
