data_PCOD9166167
_publ_section_title
;
Structure prediction by ZEFSAII (Michael W. Deem and Ramdas Pophale) SiO2 
 PCOD9166167
Probable space group: P 21/M
;
_chemical_formula_sum "Si O2"
_cell_formula_units_Z 32
_cell_length_a 18.037518
_cell_length_b 11.656823
_cell_length_c 18.467193
_cell_angle_alpha 90.000000
_cell_angle_beta 22.747037
_cell_angle_gamma 90.000000
_cell_volume 1501.380557
_symmetry_space_group_name_H-M "P 21/M"
_symmetry_group_IT_number 11
_symmetry_cell_setting 'monoclinic'
loop_
_space_group_symop_operation_xyz
x,y,z
-x,1/2+y,-z
-x,-y,-z
x,1/2-y,z
loop_
_atom_site_type_symbol
_atom_site_label
_atom_site_fract_x
_atom_site_fract_y
_atom_site_fract_z
Si Si1 0.487450 0.624325 0.092998
Si Si2 0.771449 0.624471 0.178767
Si Si3 0.728299 0.617800 0.746835
Si Si4 0.651063 0.379056 0.470867
Si Si5 0.576090 0.039449 0.698443
Si Si6 0.222256 0.620803 0.045250
Si Si7 0.981052 0.947714 0.129414
Si Si8 0.936554 0.885100 0.422166
O O1 0.400400 0.750000 0.147976
O O2 0.387050 0.500127 0.167750
O O3 0.478031 0.623938 0.187603
O O4 0.691212 0.621588 0.866613
O O5 0.788529 0.750000 0.128202
O O6 0.546713 0.605521 0.394534
O O7 0.893858 0.624016 0.141963
O O8 0.851770 0.525061 0.055842
O O9 0.661543 0.750000 0.784783
O O10 0.920046 0.606273 0.524820
O O11 0.720562 0.250000 0.396342
O O12 0.601115 0.398938 0.599825
O O13 0.811436 0.467863 0.304777
O O14 0.766845 0.965588 0.545031
O O15 0.398547 0.952896 0.859395
O O16 0.289402 0.750000 0.994253
O O17 0.060366 0.614369 0.128857
O O18 0.129082 0.582953 0.205632
O O19 0.906147 0.750000 0.431283
#
# Coordination Sequence:
#
# PCOD9166167 Si02
#       8
#     4   4   4   4   4   4   4   4
#     4   9  17  30  52  82 114 149 193 239 284 339
#     4  10  22  39  59  82 111 143 180 226 279 336
#     4   8  15  30  54  81 111 151 192 236 290 340
#     4  11  22  37  57  82 111 148 185 222 278 341
#     4  11  20  35  54  81 115 151 186 231 282 335
#     4  11  22  36  56  84 112 146 192 236 282 335
#     4  11  21  39  60  81 110 144 184 230 276 330
#     4   9  18  34  56  79 110 146 186 234 282 332
#
# _framework density 21.313715999999999
#
# number of rings (size 3 to 8) (size 9 to 14) (size 15 to 20)
#    0.000    2.000    2.500    1.875    0.000    0.500 
#    0.000    0.625    0.000    0.000    0.000    0.000 
#    0.000    0.000    0.000    0.000    0.000    0.000 
#
# Total GULP energy -178165.252813 kJ/mol
# GULP energy per Si atom -5567.664150 kJ/mol
# Density = 2.126521 g / cm^3
# Si number density = 21.313716 Si / 1000 Ang^3
#
#
#
# Elastic Constant Matrix: (Units=GPa)
#
#
# Indices 1 2 3 4 5 6 
#
# 1 19.9395 31.7516 2.1567 0.0000 10.5049 0.0000
# 2 31.7516 105.3108 9.3988 0.0000 -4.2947 0.0000
# 3 2.1567 9.3988 36.4813 0.0000 11.2577 0.0000
# 4 0.0000 0.0000 0.0000 21.4695 0.0000 2.6827
# 5 10.5049 -4.2947 11.2577 0.0000 31.5817 0.0000
# 6 0.0000 0.0000 0.0000 2.6827 0.0000 14.7786
#
#
#
# Elastic Compliance Matrix: (Units=1/GPa)
#
#
# Indices 1 2 3 4 5 6 
#
# 1 0.195365 -0.065184 0.031497 0.000000 -0.085075 0.000000
# 2 -0.065184 0.031645 -0.013840 0.000000 0.030919 0.000000
# 3 0.031497 -0.013840 0.036999 0.000000 -0.025547 0.000000
# 4 0.000000 0.000000 0.000000 0.047659 0.000000 -0.008651
# 5 -0.085075 0.030919 -0.025547 0.000000 0.073273 0.000000
# 6 0.000000 0.000000 0.000000 -0.008651 0.000000 0.069236
#
#
# Mechanical properties :
#
#
# Convention : Reuss Voigt Hill
#
# Bulk Modulus (GPa) = 5.91878 27.59399 16.75638
# Shear Modulus (GPa) = 8.25698 21.46091 14.85894
#
# Velocity S-wave (km/s) = 1.97039 3.17662 2.64323
# Velocity P-wave (km/s) = 2.82127 5.14094 4.14662
#
# Compressibility (1/GPa) = 0.16895385
#
# Stress axis : x y z
#
# Youngs Moduli (GPa) = 5.11863 31.60052 27.02803
#
# Poissons Ratio (x) = 2.05984 -0.85130
# Poissons Ratio (y) = 0.33365 0.37408
# Poissons Ratio (z) = -0.16122 0.43736
#
# Static dielectric constant tensor:
#      x y z
#    x 1.781020 0.000000 0.002520 
#    y 0.000000 1.779310 0.000000 
#    z 0.002520 0.000000 1.760430 
# 
# From -- ./inp_files/66539.got.cif
#   From: 2010.05.17/outbox.cif.g08.bks.cpg/sg11_34_cif.got.tgz:66539.got - 2010.06.03 12:22:45.
