data_PCOD9166470
_publ_section_title
;
Structure prediction by ZEFSAII (Michael W. Deem and Ramdas Pophale) SiO2 
 PCOD9166470
Probable space group: P 21/M
;
_chemical_formula_sum "Si O2"
_cell_formula_units_Z 20
_cell_length_a 5.011069
_cell_length_b 20.603063
_cell_length_c 8.701165
_cell_angle_alpha 90.000000
_cell_angle_beta 57.864748
_cell_angle_gamma 90.000000
_cell_volume 760.707618
_symmetry_space_group_name_H-M "P 21/M"
_symmetry_group_IT_number 11
_symmetry_cell_setting 'monoclinic'
loop_
_space_group_symop_operation_xyz
x,y,z
-x,1/2+y,-z
-x,-y,-z
x,1/2-y,z
loop_
_atom_site_type_symbol
_atom_site_label
_atom_site_fract_x
_atom_site_fract_y
_atom_site_fract_z
Si Si1 0.874181 0.398476 0.389392
Si Si2 0.320102 0.822973 0.127983
Si Si3 0.291609 0.179209 0.480480
Si Si4 0.441819 0.050025 0.765625
Si Si5 0.787543 0.077441 0.068370
O O1 0.164076 0.374916 0.402654
O O2 0.668859 0.450060 0.549197
O O3 0.927156 0.417037 0.197301
O O4 0.625902 0.338813 0.449747
O O5 0.457167 0.750000 0.098511
O O6 0.969265 0.818929 0.305263
O O7 0.475971 0.882909 0.172320
O O8 0.312572 0.851766 0.959150
O O9 0.297390 0.250000 0.405550
O O10 0.463410 0.981044 0.845089
O O11 0.063562 0.056333 0.865138
#
# Coordination Sequence:
#
# PCOD9166470 Si02
#       5
#     4   4   4   4   4
#     4  11  23  42  66  98 129 175 224 270 331 394
#     4  10  22  41  66  94 129 175 218 270 334 395
#     4  10  22  42  65  93 137 176 214 273 337 394
#     4  10  23  44  63  95 134 172 217 275 332 393
#     4  11  23  41  67  96 127 174 222 274 328 393
#
# _framework density 26.291312000000001
#
# number of rings (size 3 to 8) (size 9 to 14) (size 15 to 20)
#    0.000    1.600    2.000    1.800    2.800    3.200 
#    0.000    3.000    0.000    0.000    0.000    0.000 
#    0.000    0.000    0.000    0.000    0.000    0.000 
#
# Total GULP energy -111865.683184 kJ/mol
# GULP energy per Si atom -5593.284159 kJ/mol
# Density = 2.623147 g / cm^3
# Si number density = 26.291312 Si / 1000 Ang^3
#
#
#
# Elastic Constant Matrix: (Units=GPa)
#
#
# Indices 1 2 3 4 5 6 
#
# 1 43.9276 23.7913 10.0358 0.0000 8.4437 0.0000
# 2 23.7913 194.8072 20.3161 0.0000 7.3483 0.0000
# 3 10.0358 20.3161 99.6230 0.0000 3.7228 0.0000
# 4 0.0000 0.0000 0.0000 41.9866 0.0000 1.5357
# 5 8.4437 7.3483 3.7228 0.0000 43.0220 0.0000
# 6 0.0000 0.0000 0.0000 1.5357 0.0000 33.2787
#
#
#
# Elastic Compliance Matrix: (Units=1/GPa)
#
#
# Indices 1 2 3 4 5 6 
#
# 1 0.025522 -0.002759 -0.001845 0.000000 -0.004378 0.000000
# 2 -0.002759 0.005571 -0.000846 0.000000 -0.000337 0.000000
# 3 -0.001845 -0.000846 0.010411 0.000000 -0.000394 0.000000
# 4 0.000000 0.000000 0.000000 0.023857 0.000000 -0.001101
# 5 -0.004378 -0.000337 -0.000394 0.000000 0.024195 0.000000
# 6 0.000000 0.000000 0.000000 -0.001101 0.000000 0.030100
#
#
# Mechanical properties :
#
#
# Convention : Reuss Voigt Hill
#
# Bulk Modulus (GPa) = 32.67458 49.62715 41.15087
# Shear Modulus (GPa) = 35.52206 42.60510 39.06358
#
# Velocity S-wave (km/s) = 3.67971 4.02991 3.85879
# Velocity P-wave (km/s) = 5.52346 6.36949 5.96150
#
# Compressibility (1/GPa) = 0.03060483
#
# Stress axis : x y z
#
# Youngs Moduli (GPa) = 39.18152 179.49555 96.05365
#
# Poissons Ratio (x) = 0.49531 0.17719
# Poissons Ratio (y) = 0.10812 0.08122
# Poissons Ratio (z) = 0.07228 0.15177
#
# Static dielectric constant tensor:
#      x y z
#    x 2.078890 0.000000 -0.002740 
#    y 0.000000 2.083340 0.000000 
#    z -0.002740 0.000000 2.091620 
# 
# From -- ./inp_files/1992.got.cif
#   From: 2010.05.17/outbox.cif.g08.bks.cpg/sg11_1_cif.got.tgz:1992.got - 2010.06.03 12:22:45.
