data_PCOD9166089
_publ_section_title
;
Structure prediction by ZEFSAII (Michael W. Deem and Ramdas Pophale) SiO2 
 PCOD9166089
Probable space group: P 21/M
;
_chemical_formula_sum "Si O2"
_cell_formula_units_Z 28
_cell_length_a 29.377635
_cell_length_b 8.966052
_cell_length_c 9.160548
_cell_angle_alpha 90.000000
_cell_angle_beta 40.141724
_cell_angle_gamma 90.000000
_cell_volume 1555.550327
_symmetry_space_group_name_H-M "P 21/M"
_symmetry_group_IT_number 11
_symmetry_cell_setting 'monoclinic'
loop_
_space_group_symop_operation_xyz
x,y,z
-x,1/2+y,-z
-x,-y,-z
x,1/2-y,z
loop_
_atom_site_type_symbol
_atom_site_label
_atom_site_fract_x
_atom_site_fract_y
_atom_site_fract_z
Si Si1 0.933909 0.428576 0.080474
Si Si2 0.639468 0.422621 0.967842
Si Si3 0.068015 0.929333 0.256198
Si Si4 0.200974 0.427609 0.090582
Si Si5 0.344947 0.923247 0.715528
Si Si6 0.498887 0.928274 0.341405
Si Si7 0.794404 0.069171 0.599521
O O1 0.939794 0.250000 0.078220
O O2 0.859866 0.471070 0.336927
O O3 0.934413 0.466803 0.909022
O O4 0.000000 0.500000 0.000000
O O5 0.627938 0.250000 0.957656
O O6 0.717135 0.471077 0.725131
O O7 0.646770 0.429893 0.127500
O O8 0.570649 0.514879 0.091546
O O9 0.067521 0.750000 0.274007
O O10 0.000000 0.000000 0.500000
O O11 0.138414 0.996565 0.154017
O O12 0.194234 0.250000 0.107279
O O13 0.277730 0.477583 0.842796
O O14 0.196597 0.490779 0.266436
O O15 0.330882 0.750000 0.713222
O O16 0.421867 0.968124 0.465609
O O17 0.500242 0.750000 0.352109
O O18 0.500000 0.000000 0.500000
O O19 0.793452 0.250000 0.623321
#
# Coordination Sequence:
#
# PCOD9166089 Si02
#       7
#     4   4   4   4   4   4   4
#     4  10  22  38  57  78 100 129 165 202 245 295
#     4   8  14  24  40  62  91 126 161 198 246 294
#     4  11  23  39  57  78 103 132 165 202 246 297
#     4  11  21  32  50  77 104 134 170 207 249 296
#     4   8  15  27  41  61  93 133 168 203 247 292
#     4   9  15  22  35  58  91 127 163 201 244 289
#     4   9  18  34  52  72 101 135 168 207 251 297
#
# _framework density 18.000059
#
# number of rings (size 3 to 8) (size 9 to 14) (size 15 to 20)
#    0.000    2.571    0.000    4.714    0.000    9.714 
#    0.000    0.000    0.000    0.000    0.000    1.000 
#    0.000    0.000    0.000    0.000    0.000    0.000 
#
# Total GULP energy -156076.159464 kJ/mol
# GULP energy per Si atom -5574.148552 kJ/mol
# Density = 1.795909 g / cm^3
# Si number density = 18.000059 Si / 1000 Ang^3
#
#
#
# Elastic Constant Matrix: (Units=GPa)
#
#
# Indices 1 2 3 4 5 6 
#
# 1 101.3558 59.9078 85.1826 0.0000 -34.3574 0.0000
# 2 59.9078 68.0117 56.1204 0.0000 -18.1681 0.0000
# 3 85.1826 56.1204 144.7001 0.0000 -43.8223 0.0000
# 4 0.0000 0.0000 0.0000 26.2940 0.0000 -11.5884
# 5 -34.3574 -18.1681 -43.8223 0.0000 32.7368 0.0000
# 6 0.0000 0.0000 0.0000 -11.5884 0.0000 26.3244
#
#
#
# Elastic Compliance Matrix: (Units=1/GPa)
#
#
# Indices 1 2 3 4 5 6 
#
# 1 0.030861 -0.017614 -0.007547 0.000000 0.012510 0.000000
# 2 -0.017614 0.031710 -0.003697 0.000000 -0.005836 0.000000
# 3 -0.007547 -0.003697 0.016427 0.000000 0.012017 0.000000
# 4 0.000000 0.000000 0.000000 0.047186 0.000000 0.020772
# 5 0.012510 -0.005836 0.012017 0.000000 0.056524 0.000000
# 6 0.000000 0.000000 0.000000 0.020772 0.000000 0.047132
#
#
# Mechanical properties :
#
#
# Convention : Reuss Voigt Hill
#
# Bulk Modulus (GPa) = 46.98875 79.60990 63.29933
# Shear Modulus (GPa) = 16.96932 24.59482 20.78207
#
# Velocity S-wave (km/s) = 3.07373 3.70046 3.40156
# Velocity P-wave (km/s) = 6.22564 7.91085 7.11829
#
# Compressibility (1/GPa) = 0.02128169
#
# Stress axis : x y z
#
# Youngs Moduli (GPa) = 32.40341 31.53569 60.87617
#
# Poissons Ratio (x) = 0.55548 0.45944
# Poissons Ratio (y) = 0.57076 0.22504
# Poissons Ratio (z) = 0.24455 0.11658
#
# Static dielectric constant tensor:
#      x y z
#    x 1.604980 0.000000 -0.023340 
#    y 0.000000 1.601050 0.000000 
#    z -0.023340 0.000000 1.665820 
# 
# From -- ./inp_files/29009.got.cif
#   From: 2010.05.17/outbox.cif.g08.bks.cpg/sg11_15_cif.got.tgz:29009.got - 2010.06.03 12:22:45.
