data_PCOD9166251
_publ_section_title
;
Structure prediction by ZEFSAII (Michael W. Deem and Ramdas Pophale) SiO2 
 PCOD9166251
Probable space group: P 21/M
;
_chemical_formula_sum "Si O2"
_cell_formula_units_Z 22
_cell_length_a 8.792928
_cell_length_b 16.460803
_cell_length_c 14.498637
_cell_angle_alpha 90.000000
_cell_angle_beta 30.123797
_cell_angle_gamma 90.000000
_cell_volume 1053.180881
_symmetry_space_group_name_H-M "P 21/M"
_symmetry_group_IT_number 11
_symmetry_cell_setting 'monoclinic'
loop_
_space_group_symop_operation_xyz
x,y,z
-x,1/2+y,-z
-x,-y,-z
x,1/2-y,z
loop_
_atom_site_type_symbol
_atom_site_label
_atom_site_fract_x
_atom_site_fract_y
_atom_site_fract_z
Si Si1 0.040195 0.900467 0.496618
Si Si2 0.711864 0.250000 0.902107
Si Si3 0.816317 0.250000 0.067565
Si Si4 0.894730 0.500367 0.900984
Si Si5 0.672976 0.894984 0.869478
Si Si6 0.817833 0.750000 0.494069
Si Si7 0.735560 0.901042 0.166852
O O1 0.383929 0.882317 0.344678
O O2 0.834380 0.873413 0.690227
O O3 0.947805 0.836181 0.465725
O O4 0.000000 0.000000 0.500000
O O5 0.043827 0.250000 0.682440
O O6 0.722376 0.250000 0.008347
O O7 0.504377 0.325804 0.982726
O O8 0.532745 0.250000 0.287269
O O9 0.029798 0.327864 0.967604
O O10 0.923345 0.564326 0.803857
O O11 0.175720 0.445473 0.783865
O O12 0.606532 0.450131 0.017346
O O13 0.794188 0.541882 0.048303
#
# Coordination Sequence:
#
# PCOD9166251 Si02
#       7
#     4   2   2   4   4   2   4
#     4  12  24  43  75 106 142 193 241 295 364 439
#     4  12  24  45  74  97 143 187 241 298 357 432
#     4  12  25  48  70  98 146 188 230 312 355 425
#     4  10  22  39  65  99 138 181 230 294 346 420
#     4  11  22  44  69 101 142 187 238 288 359 434
#     4  12  27  47  70 107 139 193 247 294 372 439
#     4  11  23  42  67 103 142 180 235 296 358 417
#
# _framework density 20.889099999999999
#
# number of rings (size 3 to 8) (size 9 to 14) (size 15 to 20)
#    0.000    0.727    5.455    1.636    5.091    1.455 
#    3.273    0.000    0.000    0.000    0.000    0.000 
#    0.000    0.000    0.000    0.000    0.000    0.000 
#
# Total GULP energy -122616.747185 kJ/mol
# GULP energy per Si atom -5573.488508 kJ/mol
# Density = 2.084156 g / cm^3
# Si number density = 20.889100 Si / 1000 Ang^3
#
#
#
# Elastic Constant Matrix: (Units=GPa)
#
#
# Indices 1 2 3 4 5 6 
#
# 1 69.4823 36.7924 16.3167 0.0000 -11.0567 0.0000
# 2 36.7924 99.6225 21.5306 0.0000 -12.6879 0.0000
# 3 16.3167 21.5306 120.0360 0.0000 -5.1993 0.0000
# 4 0.0000 0.0000 0.0000 25.4192 0.0000 -15.0407
# 5 -11.0567 -12.6879 -5.1993 0.0000 39.5101 0.0000
# 6 0.0000 0.0000 0.0000 -15.0407 0.0000 52.7068
#
#
#
# Elastic Compliance Matrix: (Units=1/GPa)
#
#
# Indices 1 2 3 4 5 6 
#
# 1 0.018425 -0.006146 -0.001272 0.000000 0.003015 0.000000
# 2 -0.006146 0.012891 -0.001380 0.000000 0.002238 0.000000
# 3 -0.001272 -0.001380 0.008767 0.000000 0.000355 0.000000
# 4 0.000000 0.000000 0.000000 0.047332 0.000000 0.013507
# 5 0.003015 0.002238 0.000355 0.000000 0.026919 0.000000
# 6 0.000000 0.000000 0.000000 0.013507 0.000000 0.022827
#
#
# Mechanical properties :
#
#
# Convention : Reuss Voigt Hill
#
# Bulk Modulus (GPa) = 44.46836 48.71334 46.59085
# Shear Modulus (GPa) = 30.81631 37.82731 34.32181
#
# Velocity S-wave (km/s) = 3.84504 4.26004 4.05785
# Velocity P-wave (km/s) = 6.40676 6.89695 6.65637
#
# Compressibility (1/GPa) = 0.02248790
#
# Stress axis : x y z
#
# Youngs Moduli (GPa) = 54.27435 77.57386 114.07005
#
# Poissons Ratio (x) = 0.47676 0.14505
# Poissons Ratio (y) = 0.33356 0.15740
# Poissons Ratio (z) = 0.06901 0.10704
#
# Static dielectric constant tensor:
#      x y z
#    x 1.790940 0.000000 0.007440 
#    y 0.000000 1.880660 0.000000 
#    z 0.007440 0.000000 1.721820 
# 
# From -- ./inp_files/13652.got.cif
#   From: 2010.05.17/outbox.cif.g08.bks.cpg/sg11_7_cif.got.tgz:13652.got - 2010.06.03 12:22:45.
