data_PCOD9166925
_publ_section_title
;
Structure prediction by ZEFSAII (Michael W. Deem and Ramdas Pophale) SiO2 
 PCOD9166925
Probable space group: P 21/M
;
_chemical_formula_sum "Si O2"
_cell_formula_units_Z 24
_cell_length_a 8.739874
_cell_length_b 16.115355
_cell_length_c 15.452330
_cell_angle_alpha 90.000000
_cell_angle_beta 30.894414
_cell_angle_gamma 90.000000
_cell_volume 1117.489893
_symmetry_space_group_name_H-M "P 21/M"
_symmetry_group_IT_number 11
_symmetry_cell_setting 'monoclinic'
loop_
_space_group_symop_operation_xyz
x,y,z
-x,1/2+y,-z
-x,-y,-z
x,1/2-y,z
loop_
_atom_site_type_symbol
_atom_site_label
_atom_site_fract_x
_atom_site_fract_y
_atom_site_fract_z
Si Si1 0.696340 0.350470 0.688784
Si Si2 0.738586 0.155170 0.995942
Si Si3 0.400116 0.412093 0.007134
Si Si4 0.690371 0.100919 0.337948
Si Si5 0.395605 0.089227 0.658102
Si Si6 0.365584 0.344336 0.333907
O O1 0.680476 0.250000 0.707929
O O2 0.537747 0.394555 0.846431
O O3 0.542891 0.376207 0.673410
O O4 0.042125 0.378265 0.515401
O O5 0.817036 0.250000 0.981052
O O6 0.540999 0.152651 0.006095
O O7 0.045612 0.108293 0.831062
O O8 0.545300 0.115652 0.167461
O O9 0.500000 0.500000 0.000000
O O10 0.044911 0.403844 0.174976
O O11 0.544779 0.126609 0.499519
O O12 0.577467 0.156168 0.314004
O O13 0.571256 0.009538 0.368882
O O14 0.303027 0.250000 0.335083
#
# Coordination Sequence:
#
# PCOD9166925 Si02
#       6
#     4   4   4   4   4   4
#     4  11  25  45  68  97 132 175 223 272 328 391
#     4  11  23  43  68  96 131 174 220 270 327 390
#     4  12  25  42  66  98 132 174 216 273 328 392
#     4  11  25  42  64  98 135 169 218 268 331 389
#     4  11  24  42  67  98 130 174 216 271 327 392
#     4  10  24  43  68  98 131 172 219 271 326 390
#
# _framework density 21.476704000000002
#
# number of rings (size 3 to 8) (size 9 to 14) (size 15 to 20)
#    0.000    1.000    1.667    4.000    4.667    7.333 
#    0.000    0.000    0.000    0.000    0.000    0.000 
#    0.000    0.000    0.000    0.000    0.000    0.000 
#
# Total GULP energy -134215.206383 kJ/mol
# GULP energy per Si atom -5592.300266 kJ/mol
# Density = 2.142782 g / cm^3
# Si number density = 21.476704 Si / 1000 Ang^3
#
#
#
# Elastic Constant Matrix: (Units=GPa)
#
#
# Indices 1 2 3 4 5 6 
#
# 1 147.8458 9.0690 77.9808 0.0000 8.8222 0.0000
# 2 9.0690 56.2391 13.1177 0.0000 10.0965 0.0000
# 3 77.9808 13.1177 187.4839 0.0000 17.6848 0.0000
# 4 0.0000 0.0000 0.0000 -1.2933 0.0000 -2.9946
# 5 8.8222 10.0965 17.6848 0.0000 51.0641 0.0000
# 6 0.0000 0.0000 0.0000 -2.9946 0.0000 37.7108
#
#
#
# Elastic Compliance Matrix: (Units=1/GPa)
#
#
# Indices 1 2 3 4 5 6 
#
# 1 0.008684 -0.000541 -0.003559 0.000000 -0.000161 0.000000
# 2 -0.000541 0.018644 -0.000765 0.000000 -0.003328 0.000000
# 3 -0.003559 -0.000765 0.007025 0.000000 -0.001667 0.000000
# 4 0.000000 0.000000 0.000000 -0.653134 0.000000 -0.051866
# 5 -0.000161 -0.003328 -0.001667 0.000000 0.020846 0.000000
# 6 0.000000 0.000000 0.000000 -0.051866 0.000000 0.022399
#
#
# Mechanical properties :
#
#
# Convention : Reuss Voigt Hill
#
# Bulk Modulus (GPa) = 40.61445 65.76708 53.19076
# Shear Modulus (GPa) = -8.96703 36.92309 13.97803
#
# Velocity S-wave (km/s) = -2.04556 4.15084 2.55394
# Velocity P-wave (km/s) = 3.65690 7.32541 5.78941
#
# Compressibility (1/GPa) = 0.02462178
#
# Stress axis : x y z
#
# Youngs Moduli (GPa) = 115.15856 53.63514 142.35321
#
# Poissons Ratio (x) = 0.02904 0.50661
# Poissons Ratio (y) = 0.06234 0.10896
# Poissons Ratio (z) = 0.40983 0.04105
#
# Static dielectric constant tensor:
#      x y z
#    x 1.722570 0.000000 0.013570 
#    y 0.000000 1.839190 0.000000 
#    z 0.013570 0.000000 1.765660 
# 
# From -- ./inp_files/47958.got.cif
#   From: 2010.05.17/outbox.cif.g08.bks.cpg/sg11_24_cif.got.tgz:47958.got - 2010.06.03 12:22:45.
