data_PCOD9166789
_publ_section_title
;
Structure prediction by ZEFSAII (Michael W. Deem and Ramdas Pophale) SiO2 
 PCOD9166789
Probable space group: P 21/M
;
_chemical_formula_sum "Si O2"
_cell_formula_units_Z 28
_cell_length_a 9.642003
_cell_length_b 7.821374
_cell_length_c 29.697895
_cell_angle_alpha 90.000000
_cell_angle_beta 31.405517
_cell_angle_gamma 90.000000
_cell_volume 1167.052080
_symmetry_space_group_name_H-M "P 21/M"
_symmetry_group_IT_number 11
_symmetry_cell_setting 'monoclinic'
loop_
_space_group_symop_operation_xyz
x,y,z
-x,1/2+y,-z
-x,-y,-z
x,1/2-y,z
loop_
_atom_site_type_symbol
_atom_site_label
_atom_site_fract_x
_atom_site_fract_y
_atom_site_fract_z
Si Si1 0.462882 0.540434 0.118999
Si Si2 0.898600 0.553071 0.595760
Si Si3 0.583696 0.040789 0.330979
Si Si4 0.996460 0.053031 0.067894
Si Si5 0.889940 0.450275 0.866385
Si Si6 0.476891 0.440874 0.455356
Si Si7 0.398617 0.553180 0.234134
O O1 0.463771 0.750000 0.119020
O O2 0.336057 0.485912 0.201405
O O3 0.301689 0.483857 0.119978
O O4 0.770405 0.486361 0.029122
O O5 0.973046 0.750000 0.566716
O O6 0.700428 0.491579 0.611644
O O7 0.731051 0.544544 0.688599
O O8 0.166017 0.447964 0.528497
O O9 0.592031 0.250000 0.327713
O O10 0.614317 0.975021 0.373676
O O11 0.814388 0.971877 0.235360
O O12 0.935678 0.250000 0.074145
O O13 0.124115 0.045023 0.082455
O O14 0.719673 0.953922 0.147115
O O15 0.835143 0.250000 0.889383
O O16 0.500000 0.500000 0.500000
O O17 0.582343 0.250000 0.426865
O O18 0.310826 0.750000 0.262176
#
# Coordination Sequence:
#
# PCOD9166789 Si02
#       7
#     4   4   4   4   4   4   4
#     4   9  22  39  58  87 124 162 206 260 313 362
#     4  11  23  42  66  93 125 163 206 252 307 366
#     4  10  23  43  65  91 125 162 204 251 305 365
#     4  11  21  39  61  86 123 164 206 257 311 365
#     4  11  22  38  62  91 121 161 209 255 306 366
#     4  11  25  44  67  97 130 163 201 249 304 364
#     4  11  22  39  62  91 123 161 210 258 307 366
#
# _framework density 23.992073999999999
#
# number of rings (size 3 to 8) (size 9 to 14) (size 15 to 20)
#    0.000    1.429    1.429    3.429    2.000    1.714 
#    0.000    6.429    0.000    0.000    0.000    0.000 
#    0.000    0.000    0.000    0.000    0.000    0.000 
#
# Total GULP energy -156668.892389 kJ/mol
# GULP energy per Si atom -5595.317585 kJ/mol
# Density = 2.393747 g / cm^3
# Si number density = 23.992074 Si / 1000 Ang^3
#
#
#
# Elastic Constant Matrix: (Units=GPa)
#
#
# Indices 1 2 3 4 5 6 
#
# 1 83.0623 -3.2420 13.0501 0.0000 18.1121 0.0000
# 2 -3.2420 50.0538 -4.6403 0.0000 8.3882 0.0000
# 3 13.0501 -4.6403 59.9942 0.0000 26.8013 0.0000
# 4 0.0000 0.0000 0.0000 15.4859 0.0000 -1.4638
# 5 18.1121 8.3882 26.8013 0.0000 46.1943 0.0000
# 6 0.0000 0.0000 0.0000 -1.4638 0.0000 23.1049
#
#
#
# Elastic Compliance Matrix: (Units=1/GPa)
#
#
# Indices 1 2 3 4 5 6 
#
# 1 0.013325 0.001716 -0.000395 0.000000 -0.005307 0.000000
# 2 0.001716 0.021728 0.004550 0.000000 -0.007258 0.000000
# 3 -0.000395 0.004550 0.023496 0.000000 -0.014303 0.000000
# 4 0.000000 0.000000 0.000000 0.064964 0.000000 0.004116
# 5 -0.005307 -0.007258 -0.014303 0.000000 0.033345 0.000000
# 6 0.000000 0.000000 0.000000 0.004116 0.000000 0.043542
#
#
# Mechanical properties :
#
#
# Convention : Reuss Voigt Hill
#
# Bulk Modulus (GPa) = 14.22682 22.60510 18.41596
# Shear Modulus (GPa) = 23.57507 29.48653 26.53080
#
# Velocity S-wave (km/s) = 3.13808 3.50953 3.32899
# Velocity P-wave (km/s) = 4.36723 5.08574 4.74012
#
# Compressibility (1/GPa) = 0.07028979
#
# Stress axis : x y z
#
# Youngs Moduli (GPa) = 75.04450 46.02420 42.56086
#
# Poissons Ratio (x) = -0.07897 0.01681
# Poissons Ratio (y) = -0.12877 -0.19363
# Poissons Ratio (z) = 0.02964 -0.20939
#
# Static dielectric constant tensor:
#      x y z
#    x 1.948530 0.000000 0.012940 
#    y 0.000000 1.908870 0.000000 
#    z 0.012940 0.000000 1.893100 
# 
# From -- ./inp_files/70829.got.cif
#   From: 2010.05.17/outbox.cif.g08.bks.cpg/sg11_36_cif.got.tgz:70829.got - 2010.06.03 12:22:45.
