data_PCOD9166369
_publ_section_title
;
Structure prediction by ZEFSAII (Michael W. Deem and Ramdas Pophale) SiO2 
 PCOD9166369
Probable space group: P 21/M
;
_chemical_formula_sum "Si O2"
_cell_formula_units_Z 26
_cell_length_a 9.612805
_cell_length_b 19.683667
_cell_length_c 9.027937
_cell_angle_alpha 90.000000
_cell_angle_beta 133.542448
_cell_angle_gamma 90.000000
_cell_volume 1238.229972
_symmetry_space_group_name_H-M "P 21/M"
_symmetry_group_IT_number 11
_symmetry_cell_setting 'monoclinic'
loop_
_space_group_symop_operation_xyz
x,y,z
-x,1/2+y,-z
-x,-y,-z
x,1/2-y,z
loop_
_atom_site_type_symbol
_atom_site_label
_atom_site_fract_x
_atom_site_fract_y
_atom_site_fract_z
Si Si1 0.760588 0.063350 0.841410
Si Si2 0.344552 0.461491 0.986842
Si Si3 0.091066 0.376476 0.293218
Si Si4 0.099688 0.522629 0.384923
Si Si5 0.495100 0.327355 0.510509
Si Si6 0.637587 0.361984 0.293907
Si Si7 0.118815 0.750000 0.705184
O O1 0.838691 0.038978 0.740081
O O2 0.606883 0.122075 0.700539
O O3 0.929036 0.095815 0.062768
O O4 0.670439 0.001528 0.867601
O O5 0.127088 0.462112 0.768047
O O6 0.500000 0.500000 0.000000
O O7 0.436514 0.388038 0.080443
O O8 0.134199 0.442146 0.427524
O O9 0.280028 0.354888 0.343339
O O10 0.016460 0.310569 0.322931
O O11 0.227117 0.571977 0.579139
O O12 0.499462 0.250000 0.567467
O O13 0.596380 0.331733 0.425609
O O14 0.743214 0.309215 0.267878
#
# Coordination Sequence:
#
# PCOD9166369 Si02
#       7
#     4   4   4   4   4   4   2
#     4  10  22  40  67  94 122 151 215 267 304 367
#     4  11  22  39  63  95 121 160 207 253 312 369
#     4  11  22  41  63  94 125 160 205 257 319 365
#     4  10  22  42  70  93 117 164 214 266 308 356
#     4  11  22  39  64  92 120 167 208 250 315 371
#     4  11  23  43  63  89 130 162 210 259 306 370
#     4  12  26  40  58  90 134 172 196 250 320 382
#
# _framework density 20.997713999999998
#
# number of rings (size 3 to 8) (size 9 to 14) (size 15 to 20)
#    0.000    1.231    1.538    6.462    1.077    6.154 
#    0.000    0.769    0.000    0.000    0.000    0.000 
#    0.000    0.000    0.000    0.000    0.000    0.000 
#
# Total GULP energy -144926.550142 kJ/mol
# GULP energy per Si atom -5574.098082 kJ/mol
# Density = 2.094992 g / cm^3
# Si number density = 20.997714 Si / 1000 Ang^3
#
#
#
# Elastic Constant Matrix: (Units=GPa)
#
#
# Indices 1 2 3 4 5 6 
#
# 1 111.9675 45.3864 27.6584 0.0000 17.2363 0.0000
# 2 45.3864 174.0879 24.3568 0.0000 9.5385 0.0000
# 3 27.6584 24.3568 18.5469 0.0000 10.1367 0.0000
# 4 0.0000 0.0000 0.0000 5.8346 0.0000 13.6449
# 5 17.2363 9.5385 10.1367 0.0000 23.4903 0.0000
# 6 0.0000 0.0000 0.0000 13.6449 0.0000 40.1850
#
#
#
# Elastic Compliance Matrix: (Units=1/GPa)
#
#
# Indices 1 2 3 4 5 6 
#
# 1 0.014320 -0.000964 -0.019055 0.000000 -0.001894 0.000000
# 2 -0.000964 0.007142 -0.008824 0.000000 0.001615 0.000000
# 3 -0.019055 -0.008824 0.110347 0.000000 -0.030053 0.000000
# 4 0.000000 0.000000 0.000000 0.832331 0.000000 -0.282620
# 5 -0.001894 0.001615 -0.030053 0.000000 0.056273 0.000000
# 6 0.000000 0.000000 0.000000 -0.282620 0.000000 0.120849
#
#
# Mechanical properties :
#
#
# Convention : Reuss Voigt Hill
#
# Bulk Modulus (GPa) = 13.49109 55.48948 34.49028
# Shear Modulus (GPa) = 4.08612 27.71536 15.90074
#
# Velocity S-wave (km/s) = 1.39650 3.63702 2.75482
# Velocity P-wave (km/s) = 3.00653 6.64236 5.15559
#
# Compressibility (1/GPa) = 0.07412301
#
# Stress axis : x y z
#
# Youngs Moduli (GPa) = 69.83116 140.02474 9.06235
#
# Poissons Ratio (x) = 0.13494 0.17268
# Poissons Ratio (y) = 0.06730 0.07997
# Poissons Ratio (z) = 1.33061 1.23562
#
# Static dielectric constant tensor:
#      x y z
#    x 1.740280 0.000000 -0.021520 
#    y 0.000000 1.736670 0.000000 
#    z -0.021520 0.000000 1.773070 
# 
# From -- ./inp_files/14548.got.cif
#   From: 2010.05.17/outbox.cif.g08.bks.cpg/sg11_8_cif.got.tgz:14548.got - 2010.06.03 12:22:45.
