data_PCOD9166700
_publ_section_title
;
Structure prediction by ZEFSAII (Michael W. Deem and Ramdas Pophale) SiO2 
 PCOD9166700
Probable space group: P 21/M
;
_chemical_formula_sum "Si O2"
_cell_formula_units_Z 16
_cell_length_a 4.738516
_cell_length_b 7.941116
_cell_length_c 16.461532
_cell_angle_alpha 90.000000
_cell_angle_beta 110.426970
_cell_angle_gamma 90.000000
_cell_volume 580.481432
_symmetry_space_group_name_H-M "P 21/M"
_symmetry_group_IT_number 11
_symmetry_cell_setting 'monoclinic'
loop_
_space_group_symop_operation_xyz
x,y,z
-x,1/2+y,-z
-x,-y,-z
x,1/2-y,z
loop_
_atom_site_type_symbol
_atom_site_label
_atom_site_fract_x
_atom_site_fract_y
_atom_site_fract_z
Si Si1 0.443340 0.250000 0.903311
Si Si2 0.038627 0.937827 0.833737
Si Si3 0.585105 0.750000 0.521950
Si Si4 0.538622 0.437827 0.333737
Si Si5 0.056662 0.250000 0.596689
Si Si6 0.085105 0.250000 0.021950
O O1 0.282552 0.416175 0.853450
O O2 0.799670 0.250000 0.933131
O O3 0.374005 0.250000 0.993737
O O4 0.149203 0.750000 0.820890
O O5 0.750003 0.977760 0.750001
O O6 0.939742 0.904173 0.917245
O O7 0.560262 0.904173 0.582756
O O8 0.874006 0.750000 0.493737
O O9 0.299669 0.750000 0.433131
O O10 0.649199 0.250000 0.320889
O O11 0.782547 0.583825 0.353450
#
# Coordination Sequence:
#
# PCOD9166700 Si02
#       6
#     2   4   2   4   2   2
#     4  12  21  42  63  88 118 158 198 244 291 350
#     4   9  21  40  61  89 122 156 196 243 297 350
#     4  10  23  40  63  88 120 154 200 244 291 348
#     4   9  21  40  61  89 122 156 196 243 297 350
#     4  12  21  42  63  88 118 158 198 244 291 350
#     4  10  23  40  63  88 120 154 200 244 291 348
#
# _framework density 27.563324999999999
#
# number of rings (size 3 to 8) (size 9 to 14) (size 15 to 20)
#    1.500    0.500    0.000    3.750    0.000    0.000 
#    0.000   15.000    0.000    0.000    0.000    0.000 
#    0.000    0.000    0.000    0.000    0.000    0.000 
#
# Total GULP energy -89794.799353 kJ/mol
# GULP energy per Si atom -5612.174960 kJ/mol
# Density = 2.750059 g / cm^3
# Si number density = 27.563325 Si / 1000 Ang^3
#
#
#
# Elastic Constant Matrix: (Units=GPa)
#
#
# Indices 1 2 3 4 5 6 
#
# 1 72.5642 41.9145 24.3437 0.0000 6.7253 0.0000
# 2 41.9145 163.8139 40.7600 0.0000 31.1592 0.0000
# 3 24.3437 40.7600 156.0354 0.0000 33.6974 0.0000
# 4 0.0000 0.0000 0.0000 37.5406 0.0000 18.2548
# 5 6.7253 31.1592 33.6974 0.0000 65.1809 0.0000
# 6 0.0000 0.0000 0.0000 18.2548 0.0000 -5.9822
#
#
#
# Elastic Compliance Matrix: (Units=1/GPa)
#
#
# Indices 1 2 3 4 5 6 
#
# 1 0.016595 -0.004017 -0.001784 0.000000 0.001130 0.000000
# 2 -0.004017 0.007891 -0.000799 0.000000 -0.002945 0.000000
# 3 -0.001784 -0.000799 0.007625 0.000000 -0.003376 0.000000
# 4 0.000000 0.000000 0.000000 0.010724 0.000000 0.032726
# 5 0.001130 -0.002945 -0.003376 0.000000 0.018378 0.000000
# 6 0.000000 0.000000 0.000000 0.032726 0.000000 -0.067300
#
#
# Mechanical properties :
#
#
# Convention : Reuss Voigt Hill
#
# Bulk Modulus (GPa) = 52.87722 67.38333 60.13027
# Shear Modulus (GPa) = 372.64651 38.37420 205.51036
#
# Velocity S-wave (km/s) = 11.64002 3.73529 8.64414
# Velocity P-wave (km/s) = 14.13785 6.56529 11.02229
#
# Compressibility (1/GPa) = 0.01891174
#
# Stress axis : x y z
#
# Youngs Moduli (GPa) = 60.25909 126.72255 131.15086
#
# Poissons Ratio (x) = 0.50908 0.23394
# Poissons Ratio (y) = 0.24208 0.10474
# Poissons Ratio (z) = 0.10749 0.10120
#
# Static dielectric constant tensor:
#      x y z
#    x 2.028170 0.000000 -0.057230 
#    y 0.000000 2.160040 0.000000 
#    z -0.057230 0.000000 2.106100 
# 
# From -- ./inp_files/9211.got.cif
#   From: 2010.05.17/outbox.cif.g08.bks.cpg/sg11_5_cif.got.tgz:9211.got - 2010.06.03 12:22:45.
