data_PCOD9166305
_publ_section_title
;
Structure prediction by ZEFSAII (Michael W. Deem and Ramdas Pophale) SiO2 
 PCOD9166305
Probable space group: P 21/M
;
_chemical_formula_sum "Si O2"
_cell_formula_units_Z 32
_cell_length_a 14.249455
_cell_length_b 8.897245
_cell_length_c 26.309817
_cell_angle_alpha 90.000000
_cell_angle_beta 27.959830
_cell_angle_gamma 90.000000
_cell_volume 1563.895708
_symmetry_space_group_name_H-M "P 21/M"
_symmetry_group_IT_number 11
_symmetry_cell_setting 'monoclinic'
loop_
_space_group_symop_operation_xyz
x,y,z
-x,1/2+y,-z
-x,-y,-z
x,1/2-y,z
loop_
_atom_site_type_symbol
_atom_site_label
_atom_site_fract_x
_atom_site_fract_y
_atom_site_fract_z
Si Si1 0.931417 0.070925 0.770271
Si Si2 0.663559 0.071908 0.384937
Si Si3 0.469151 0.074009 0.846689
Si Si4 0.742800 0.423903 0.961176
Si Si5 0.919872 0.073440 0.657125
Si Si6 0.798117 0.925282 0.219880
Si Si7 0.404287 0.571647 0.775185
Si Si8 0.167376 0.928634 0.457044
O O1 0.978457 0.250000 0.755055
O O2 0.759071 0.036732 0.893781
O O3 0.887750 0.047313 0.732243
O O4 0.122449 0.973069 0.693919
O O5 0.637626 0.250000 0.394197
O O6 0.500000 0.000000 0.500000
O O7 0.665996 0.000828 0.327465
O O8 0.435884 0.250000 0.853717
O O9 0.707179 0.045710 0.732067
O O10 0.367799 0.979527 0.850472
O O11 0.389644 0.027371 0.939826
O O12 0.678692 0.250000 0.996961
O O13 0.971259 0.435260 0.872665
O O14 0.971319 0.250000 0.625664
O O15 0.089364 0.972853 0.550443
O O16 0.745906 0.750000 0.240204
O O17 0.758086 0.007934 0.186275
O O18 0.415396 0.750000 0.766710
O O19 0.616856 0.499484 0.657139
O O20 0.175057 0.750000 0.446337
O O21 0.000000 0.000000 0.500000
#
# Coordination Sequence:
#
# PCOD9166305 Si02
#       8
#     4   4   4   4   4   4   4   4
#     4   9  20  40  62  86 120 160 203 251 303 357
#     4  11  22  37  58  86 120 158 201 248 302 362
#     4  11  23  39  62  90 122 161 206 255 303 360
#     4   9  20  40  64  88 120 159 200 254 310 358
#     4  10  22  40  62  89 123 162 206 251 301 359
#     4  10  22  42  64  88 120 158 202 252 305 363
#     4  12  25  41  63  91 123 161 203 251 306 367
#     4  12  24  40  62  88 123 163 203 251 304 362
#
# _framework density 20.461722999999999
#
# number of rings (size 3 to 8) (size 9 to 14) (size 15 to 20)
#    0.000    1.500    1.250    4.875    1.750    4.500 
#    0.000    0.000    0.000    0.000    0.000    0.000 
#    0.000    0.000    0.000    0.000    0.000    0.000 
#
# Total GULP energy -178925.302799 kJ/mol
# GULP energy per Si atom -5591.415712 kJ/mol
# Density = 2.041515 g / cm^3
# Si number density = 20.461723 Si / 1000 Ang^3
#
#
#
# Elastic Constant Matrix: (Units=GPa)
#
#
# Indices 1 2 3 4 5 6 
#
# 1 51.9457 18.6300 -7.5532 0.0000 21.5893 0.0000
# 2 18.6300 109.5255 30.9417 0.0000 10.1049 0.0000
# 3 -7.5532 30.9417 68.7091 0.0000 19.5530 0.0000
# 4 0.0000 0.0000 0.0000 35.2660 0.0000 6.3031
# 5 21.5893 10.1049 19.5530 0.0000 26.7063 0.0000
# 6 0.0000 0.0000 0.0000 6.3031 0.0000 26.7811
#
#
#
# Elastic Compliance Matrix: (Units=1/GPa)
#
#
# Indices 1 2 3 4 5 6 
#
# 1 0.049925 -0.010753 0.026095 0.000000 -0.055396 0.000000
# 2 -0.010753 0.012786 -0.010152 0.000000 0.011288 0.000000
# 3 0.026095 -0.010152 0.033986 0.000000 -0.042136 0.000000
# 4 0.000000 0.000000 0.000000 0.029601 0.000000 -0.006967
# 5 -0.055396 0.011288 -0.042136 0.000000 0.108805 0.000000
# 6 0.000000 0.000000 0.000000 -0.006967 0.000000 0.038979
#
#
# Mechanical properties :
#
#
# Convention : Reuss Voigt Hill
#
# Bulk Modulus (GPa) = 9.33921 34.91304 22.12613
# Shear Modulus (GPa) = 16.70035 30.29481 23.49758
#
# Velocity S-wave (km/s) = 2.85998 3.85198 3.39243
# Velocity P-wave (km/s) = 3.93448 6.07316 5.11681
#
# Compressibility (1/GPa) = 0.10707546
#
# Stress axis : x y z
#
# Youngs Moduli (GPa) = 20.03006 78.21021 29.42426
#
# Poissons Ratio (x) = 0.84102 -0.76783
# Poissons Ratio (y) = 0.21539 0.29872
# Poissons Ratio (z) = -0.52269 0.79402
#
# Static dielectric constant tensor:
#      x y z
#    x 1.741740 0.000000 0.024890 
#    y 0.000000 1.684440 0.000000 
#    z 0.024890 0.000000 1.726230 
# 
# From -- ./inp_files/69029.got.cif
#   From: 2010.05.17/outbox.cif.g08.bks.cpg/sg11_35_cif.got.tgz:69029.got - 2010.06.03 12:22:45.
