data_PCOD9166041
_publ_section_title
;
Structure prediction by ZEFSAII (Michael W. Deem and Ramdas Pophale) SiO2 
 PCOD9166041
Probable space group: P 21/M
;
_chemical_formula_sum "Si O2"
_cell_formula_units_Z 28
_cell_length_a 20.133482
_cell_length_b 9.116986
_cell_length_c 24.018207
_cell_angle_alpha 90.000000
_cell_angle_beta 162.226475
_cell_angle_gamma 90.000000
_cell_volume 1345.779779
_symmetry_space_group_name_H-M "P 21/M"
_symmetry_group_IT_number 11
_symmetry_cell_setting 'monoclinic'
loop_
_space_group_symop_operation_xyz
x,y,z
-x,1/2+y,-z
-x,-y,-z
x,1/2-y,z
loop_
_atom_site_type_symbol
_atom_site_label
_atom_site_fract_x
_atom_site_fract_y
_atom_site_fract_z
Si Si1 0.577712 0.927296 0.406089
Si Si2 0.906801 0.909593 0.375813
Si Si3 0.583360 0.088176 0.013317
Si Si4 0.682784 0.425943 0.607813
Si Si5 0.622530 0.428292 0.924542
Si Si6 0.179940 0.425410 0.024753
Si Si7 0.828685 0.924302 0.494085
O O1 0.559192 0.750000 0.396632
O O2 0.750279 0.957490 0.493941
O O3 0.657325 0.000866 0.526565
O O4 0.346724 0.994214 0.200301
O O5 0.008838 0.750000 0.449950
O O6 0.665177 0.888183 0.204740
O O7 0.000000 0.000000 0.500000
O O8 0.955965 0.996347 0.357565
O O9 0.671314 0.250000 0.097480
O O10 0.684797 0.027613 0.037296
O O11 0.500000 0.000000 0.000000
O O12 0.500000 0.500000 0.500000
O O13 0.652779 0.250000 0.579605
O O14 0.921907 0.451102 0.825575
O O15 0.645021 0.250000 0.939028
O O16 0.376318 0.466699 0.708686
O O17 0.766319 0.507727 0.993066
O O18 0.219739 0.250000 0.057998
O O19 0.852205 0.750000 0.508061
#
# Coordination Sequence:
#
# PCOD9166041 Si02
#       7
#     4   4   4   4   4   4   4
#     4  10  22  41  66  94 127 167 210 254 305 370
#     4  11  21  34  53  77 108 146 191 242 293 345
#     4  10  22  37  50  73 109 147 192 242 292 350
#     4  11  25  44  67  96 131 165 203 252 304 367
#     4   9  18  36  57  78 113 155 196 243 295 358
#     4  10  22  40  64  95 126 159 203 254 307 363
#     4   9  18  35  57  83 114 150 198 246 293 352
#
# _framework density 20.805782000000001
#
# number of rings (size 3 to 8) (size 9 to 14) (size 15 to 20)
#    0.000    2.000    1.429    2.571    0.000    8.571 
#    0.000    5.714    0.000    0.000    0.000    0.000 
#    0.000    0.000    0.000    0.000    0.000    0.000 
#
# Total GULP energy -155999.295158 kJ/mol
# GULP energy per Si atom -5571.403399 kJ/mol
# Density = 2.075843 g / cm^3
# Si number density = 20.805782 Si / 1000 Ang^3
#
#
#
# Elastic Constant Matrix: (Units=GPa)
#
#
# Indices 1 2 3 4 5 6 
#
# 1 66.3198 9.0430 2.4147 0.0000 1.4279 0.0000
# 2 9.0430 49.5983 -5.2255 0.0000 -0.3793 0.0000
# 3 2.4147 -5.2255 42.3732 0.0000 10.7211 0.0000
# 4 0.0000 0.0000 0.0000 29.7467 0.0000 -1.9697
# 5 1.4279 -0.3793 10.7211 0.0000 38.9076 0.0000
# 6 0.0000 0.0000 0.0000 -1.9697 0.0000 33.3240
#
#
#
# Elastic Compliance Matrix: (Units=1/GPa)
#
#
# Indices 1 2 3 4 5 6 
#
# 1 0.015531 -0.002958 -0.001181 0.000000 -0.000273 0.000000
# 2 -0.002958 0.021001 0.002880 0.000000 -0.000480 0.000000
# 3 -0.001181 0.002880 0.025803 0.000000 -0.007039 0.000000
# 4 0.000000 0.000000 0.000000 0.033749 0.000000 0.001995
# 5 -0.000273 -0.000480 -0.007039 0.000000 0.027647 0.000000
# 6 0.000000 0.000000 0.000000 0.001995 0.000000 0.030126
#
#
# Mechanical properties :
#
#
# Convention : Reuss Voigt Hill
#
# Bulk Modulus (GPa) = 16.71759 18.97287 17.84523
# Shear Modulus (GPa) = 28.35850 30.53293 29.44571
#
# Velocity S-wave (km/s) = 3.69590 3.83498 3.76608
# Velocity P-wave (km/s) = 5.12498 5.36174 5.24470
#
# Compressibility (1/GPa) = 0.05981724
#
# Stress axis : x y z
#
# Youngs Moduli (GPa) = 64.38872 47.61667 38.75497
#
# Poissons Ratio (x) = 0.14085 0.04576
# Poissons Ratio (y) = 0.19047 -0.11161
# Poissons Ratio (z) = 0.07602 -0.13713
#
# Static dielectric constant tensor:
#      x y z
#    x 1.786410 0.000000 -0.090530 
#    y 0.000000 2.454170 0.000000 
#    z -0.090530 0.000000 1.970830 
# 
# From -- ./inp_files/69844.got.cif
#   From: 2010.05.17/outbox.cif.g08.bks.cpg/sg11_35_cif.got.tgz:69844.got - 2010.06.03 12:22:45.
