data_PCOD9166440
_publ_section_title
;
Structure prediction by ZEFSAII (Michael W. Deem and Ramdas Pophale) SiO2 
 PCOD9166440
Probable space group: P 21/M
;
_chemical_formula_sum "Si O2"
_cell_formula_units_Z 28
_cell_length_a 13.593977
_cell_length_b 21.156211
_cell_length_c 8.089470
_cell_angle_alpha 90.000000
_cell_angle_beta 148.974183
_cell_angle_gamma 90.000000
_cell_volume 1199.138485
_symmetry_space_group_name_H-M "P 21/M"
_symmetry_group_IT_number 11
_symmetry_cell_setting 'monoclinic'
loop_
_space_group_symop_operation_xyz
x,y,z
-x,1/2+y,-z
-x,-y,-z
x,1/2-y,z
loop_
_atom_site_type_symbol
_atom_site_label
_atom_site_fract_x
_atom_site_fract_y
_atom_site_fract_z
Si Si1 0.521027 0.180565 0.950760
Si Si2 0.192885 0.364279 0.269369
Si Si3 0.451949 0.578425 0.734607
Si Si4 0.115890 0.013540 0.335074
Si Si5 0.166753 0.432926 0.883150
Si Si6 0.801792 0.179402 0.812581
Si Si7 0.065901 0.821037 0.617552
O O1 0.487697 0.250000 0.974645
O O2 0.488930 0.127329 0.039431
O O3 0.739058 0.175531 0.206371
O O4 0.379557 0.173309 0.591533
O O5 0.162859 0.413891 0.376573
O O6 0.217630 0.401044 0.133595
O O7 0.993959 0.326660 0.978619
O O8 0.306543 0.527746 0.600299
O O9 0.637536 0.546895 0.921654
O O10 0.336467 0.622301 0.437575
O O11 0.980423 0.989141 0.285725
O O12 0.000000 0.000000 0.000000
O O13 0.068112 0.377412 0.635703
O O14 0.719550 0.250000 0.671859
O O15 0.870069 0.173744 0.099832
O O16 0.982710 0.750000 0.475465
#
# Coordination Sequence:
#
# PCOD9166440 Si02
#       7
#     4   4   4   4   4   4   4
#     4  11  23  42  65  97 132 169 215 268 321 386
#     4  11  23  42  66  92 135 168 213 269 320 379
#     4  12  23  42  70  95 128 174 212 266 326 378
#     4  10  22  45  65  93 132 166 220 266 315 379
#     4  11  23  42  66  97 126 172 214 260 324 381
#     4  11  22  40  64  95 129 169 214 268 324 383
#     4  10  22  41  64  94 134 166 214 269 318 384
#
# _framework density 23.350097999999999
#
# number of rings (size 3 to 8) (size 9 to 14) (size 15 to 20)
#    0.000    1.143    4.286    2.571    0.000    7.429 
#    2.571    1.429    0.000    0.000    0.000    0.000 
#    0.000    0.000    0.000    0.000    0.000    0.000 
#
# Total GULP energy -156742.556774 kJ/mol
# GULP energy per Si atom -5597.948456 kJ/mol
# Density = 2.329695 g / cm^3
# Si number density = 23.350098 Si / 1000 Ang^3
#
#
#
# Elastic Constant Matrix: (Units=GPa)
#
#
# Indices 1 2 3 4 5 6 
#
# 1 106.0705 6.8075 19.8515 0.0000 15.0237 0.0000
# 2 6.8075 69.0224 16.9011 0.0000 7.7505 0.0000
# 3 19.8515 16.9011 89.0469 0.0000 8.8989 0.0000
# 4 0.0000 0.0000 0.0000 9.5616 0.0000 -15.3486
# 5 15.0237 7.7505 8.8989 0.0000 44.3471 0.0000
# 6 0.0000 0.0000 0.0000 -15.3486 0.0000 16.6702
#
#
#
# Elastic Compliance Matrix: (Units=1/GPa)
#
#
# Indices 1 2 3 4 5 6 
#
# 1 0.010234 -0.000192 -0.001941 0.000000 -0.003044 0.000000
# 2 -0.000192 0.015396 -0.002670 0.000000 -0.002090 0.000000
# 3 -0.001941 -0.002670 0.012304 0.000000 -0.001345 0.000000
# 4 0.000000 0.000000 0.000000 -0.218809 0.000000 -0.201462
# 5 -0.003044 -0.002090 -0.001345 0.000000 0.024216 0.000000
# 6 0.000000 0.000000 0.000000 -0.201462 0.000000 -0.125502
#
#
# Mechanical properties :
#
#
# Convention : Reuss Voigt Hill
#
# Bulk Modulus (GPa) = 35.30227 39.02889 37.16558
# Shear Modulus (GPa) = -19.00329 28.82110 4.90891
#
# Velocity S-wave (km/s) = -2.85589 3.51708 1.45151
# Velocity P-wave (km/s) = 2.06802 5.76576 4.33133
#
# Compressibility (1/GPa) = 0.02832679
#
# Stress axis : x y z
#
# Youngs Moduli (GPa) = 97.70931 64.95381 81.27478
#
# Poissons Ratio (x) = 0.01249 0.15774
# Poissons Ratio (y) = 0.01879 0.21703
# Poissons Ratio (z) = 0.18964 0.17345
#
# Static dielectric constant tensor:
#      x y z
#    x 1.882440 0.000000 0.011710 
#    y 0.000000 1.837520 0.000000 
#    z 0.011710 0.000000 1.887430 
# 
# From -- ./inp_files/23237.got.cif
#   From: 2010.05.17/outbox.cif.g08.bks.cpg/sg11_12_cif.got.tgz:23237.got - 2010.06.03 12:22:45.
