data_PCOD9166090
_publ_section_title
;
Structure prediction by ZEFSAII (Michael W. Deem and Ramdas Pophale) SiO2 
 PCOD9166090
Probable space group: P 21/M
;
_chemical_formula_sum "Si O2"
_cell_formula_units_Z 24
_cell_length_a 9.226303
_cell_length_b 8.961390
_cell_length_c 21.459375
_cell_angle_alpha 90.000000
_cell_angle_beta 131.753379
_cell_angle_gamma 90.000000
_cell_volume 1323.638915
_symmetry_space_group_name_H-M "P 21/M"
_symmetry_group_IT_number 11
_symmetry_cell_setting 'monoclinic'
loop_
_space_group_symop_operation_xyz
x,y,z
-x,1/2+y,-z
-x,-y,-z
x,1/2-y,z
loop_
_atom_site_type_symbol
_atom_site_label
_atom_site_fract_x
_atom_site_fract_y
_atom_site_fract_z
Si Si1 0.203160 0.428805 0.077638
Si Si2 0.191968 0.079497 0.407586
Si Si3 0.049760 0.427900 0.763719
Si Si4 0.428744 0.921366 0.574813
Si Si5 0.454394 0.570366 0.919977
Si Si6 0.723514 0.930803 0.758812
O O1 0.181498 0.250000 0.070500
O O2 0.370761 0.468266 0.076808
O O3 0.263238 0.470571 0.165103
O O4 0.000000 0.500000 0.000000
O O5 0.124656 0.250000 0.391796
O O6 0.383232 0.076937 0.417566
O O7 0.265660 0.019414 0.494944
O O8 0.035114 0.978780 0.327414
O O9 0.061862 0.250000 0.771199
O O10 0.254845 0.503558 0.836733
O O11 0.896437 0.490323 0.770672
O O12 0.362895 0.750000 0.560438
O O13 0.520643 0.970820 0.666769
O O14 0.440182 0.750000 0.920618
O O15 0.500000 0.500000 0.000000
O O16 0.744112 0.750000 0.757949
#
# Coordination Sequence:
#
# PCOD9166090 Si02
#       6
#     4   4   4   4   4   4
#     4  10  22  38  57  79 104 135 171 212 259 311
#     4   9  16  27  45  71 104 139 173 213 258 302
#     4  11  21  33  52  79 108 140 177 216 258 305
#     4   8  14  25  44  71 102 134 169 211 259 307
#     4  11  23  39  57  79 106 137 173 213 259 310
#     4   9  18  34  54  77 106 139 174 216 264 310
#
# _framework density 18.131834000000001
#
# number of rings (size 3 to 8) (size 9 to 14) (size 15 to 20)
#    0.000    2.333    0.000    4.500    0.000    8.667 
#    0.000    0.000    0.000    1.000    0.000    0.000 
#    0.000    0.000    0.000    0.000    0.000    0.000 
#
# Total GULP energy -133910.697099 kJ/mol
# GULP energy per Si atom -5579.612379 kJ/mol
# Density = 1.809057 g / cm^3
# Si number density = 18.131834 Si / 1000 Ang^3
#
#
#
# Elastic Constant Matrix: (Units=GPa)
#
#
# Indices 1 2 3 4 5 6 
#
# 1 76.0864 46.6285 75.5441 0.0000 -5.0657 0.0000
# 2 46.6285 78.4235 65.2613 0.0000 1.7298 0.0000
# 3 75.5441 65.2613 185.2624 0.0000 -13.3160 0.0000
# 4 0.0000 0.0000 0.0000 37.4764 0.0000 2.4687
# 5 -5.0657 1.7298 -13.3160 0.0000 24.4813 0.0000
# 6 0.0000 0.0000 0.0000 2.4687 0.0000 18.0915
#
#
#
# Elastic Compliance Matrix: (Units=1/GPa)
#
#
# Indices 1 2 3 4 5 6 
#
# 1 0.026395 -0.009793 -0.007150 0.000000 0.002264 0.000000
# 2 -0.009793 0.022262 -0.004274 0.000000 -0.005924 0.000000
# 3 -0.007150 -0.004274 0.010131 0.000000 0.004333 0.000000
# 4 0.000000 0.000000 0.000000 0.026925 0.000000 -0.003674
# 5 0.002264 -0.005924 0.004333 0.000000 0.044091 0.000000
# 6 0.000000 0.000000 0.000000 -0.003674 0.000000 0.055776
#
#
# Mechanical properties :
#
#
# Convention : Reuss Voigt Hill
#
# Bulk Modulus (GPa) = 61.15845 79.40445 70.28145
# Shear Modulus (GPa) = 21.41634 26.16574 23.79104
#
# Velocity S-wave (km/s) = 3.44051 3.80291 3.62624
# Velocity P-wave (km/s) = 7.04173 7.94800 7.50855
#
# Compressibility (1/GPa) = 0.01635097
#
# Stress axis : x y z
#
# Youngs Moduli (GPa) = 37.88624 44.91994 98.71067
#
# Poissons Ratio (x) = 0.43991 0.70582
# Poissons Ratio (y) = 0.37103 0.42194
# Poissons Ratio (z) = 0.27090 0.19201
#
# Static dielectric constant tensor:
#      x y z
#    x 1.605610 0.000000 -0.016700 
#    y 0.000000 1.616610 0.000000 
#    z -0.016700 0.000000 1.629220 
# 
# From -- ./inp_files/63291.got.cif
#   From: 2010.05.17/outbox.cif.g08.bks.cpg/sg11_32_cif.got.tgz:63291.got - 2010.06.03 12:22:45.
