data_PCOD9166451
_publ_section_title
;
Structure prediction by ZEFSAII (Michael W. Deem and Ramdas Pophale) SiO2 
 PCOD9166451
Probable space group: P 21/M
;
_chemical_formula_sum "Si O2"
_cell_formula_units_Z 20
_cell_length_a 10.274578
_cell_length_b 14.679315
_cell_length_c 5.303491
_cell_angle_alpha 90.000000
_cell_angle_beta 91.820908
_cell_angle_gamma 90.000000
_cell_volume 799.488570
_symmetry_space_group_name_H-M "P 21/M"
_symmetry_group_IT_number 11
_symmetry_cell_setting 'monoclinic'
loop_
_space_group_symop_operation_xyz
x,y,z
-x,1/2+y,-z
-x,-y,-z
x,1/2-y,z
loop_
_atom_site_type_symbol
_atom_site_label
_atom_site_fract_x
_atom_site_fract_y
_atom_site_fract_z
Si Si1 0.802852 0.942559 0.638379
Si Si2 0.402953 0.144307 0.052897
Si Si3 0.990089 0.103304 0.703085
Si Si4 0.374738 0.968393 0.724083
Si Si5 0.148614 0.847041 0.823675
O O1 0.735952 0.871923 0.818723
O O2 0.862141 0.899048 0.385329
O O3 0.926615 0.002397 0.732107
O O4 0.688074 0.012041 0.551277
O O5 0.418935 0.250000 0.983333
O O6 0.515126 0.108086 0.251044
O O7 0.414399 0.066528 0.837890
O O8 0.913009 0.144772 0.458266
O O9 0.957793 0.150312 0.962459
O O10 0.252301 0.926930 0.869248
O O11 0.218057 0.750000 0.844743
#
# Coordination Sequence:
#
# PCOD9166451 Si02
#       5
#     4   4   4   4   4
#     4  10  22  41  65  90 131 172 220 274 339 396
#     4  11  23  41  65  95 127 172 227 281 333 393
#     4  10  23  39  68  99 134 176 222 273 334 397
#     4  10  23  42  65  92 132 174 221 276 337 400
#     4  11  22  41  66 100 137 179 223 272 327 398
#
# _framework density 25.015991
#
# number of rings (size 3 to 8) (size 9 to 14) (size 15 to 20)
#    0.000    1.600    2.000    1.800    2.800    4.800 
#    0.000    0.000    0.000    0.000    0.000    0.000 
#    0.000    0.000    0.000    0.000    0.000    0.000 
#
# Total GULP energy -111747.825415 kJ/mol
# GULP energy per Si atom -5587.391271 kJ/mol
# Density = 2.495905 g / cm^3
# Si number density = 25.015991 Si / 1000 Ang^3
#
#
#
# Elastic Constant Matrix: (Units=GPa)
#
#
# Indices 1 2 3 4 5 6 
#
# 1 86.2854 21.0239 26.6147 0.0000 -14.2205 0.0000
# 2 21.0239 174.2857 28.0302 0.0000 0.7474 0.0000
# 3 26.6147 28.0302 107.3701 0.0000 -7.2114 0.0000
# 4 0.0000 0.0000 0.0000 6.9357 0.0000 1.1247
# 5 -14.2205 0.7474 -7.2114 0.0000 44.8659 0.0000
# 6 0.0000 0.0000 0.0000 1.1247 0.0000 23.9184
#
#
#
# Elastic Compliance Matrix: (Units=1/GPa)
#
#
# Indices 1 2 3 4 5 6 
#
# 1 0.013353 -0.001186 -0.002744 0.000000 0.003811 0.000000
# 2 -0.001186 0.006100 -0.001345 0.000000 -0.000694 0.000000
# 3 -0.002744 -0.001345 0.010400 0.000000 0.000824 0.000000
# 4 0.000000 0.000000 0.000000 0.145290 0.000000 -0.006832
# 5 0.003811 -0.000694 0.000824 0.000000 0.023641 0.000000
# 6 0.000000 0.000000 0.000000 -0.006832 0.000000 0.042130
#
#
# Mechanical properties :
#
#
# Convention : Reuss Voigt Hill
#
# Bulk Modulus (GPa) = 51.80591 57.69763 54.75177
# Shear Modulus (GPa) = 19.38741 34.62881 27.00811
#
# Velocity S-wave (km/s) = 2.78690 3.72461 3.28934
# Velocity P-wave (km/s) = 5.57762 6.45068 6.02997
#
# Compressibility (1/GPa) = 0.01930282
#
# Stress axis : x y z
#
# Youngs Moduli (GPa) = 74.88999 163.93296 96.15032
#
# Poissons Ratio (x) = 0.19438 0.26387
# Poissons Ratio (y) = 0.08880 0.12934
# Poissons Ratio (z) = 0.20553 0.22052
#
# Static dielectric constant tensor:
#      x y z
#    x 2.062300 0.000000 0.016740 
#    y 0.000000 2.009050 0.000000 
#    z 0.016740 0.000000 2.048530 
# 
# From -- ./inp_files/4316.got.cif
#   From: 2010.05.17/outbox.cif.g08.bks.cpg/sg11_3_cif.got.tgz:4316.got - 2010.06.03 12:22:45.
