data_PCOD9166808
_publ_section_title
;
Structure prediction by ZEFSAII (Michael W. Deem and Ramdas Pophale) SiO2 
 PCOD9166808
Probable space group: P 21/M
;
_chemical_formula_sum "Si O2"
_cell_formula_units_Z 20
_cell_length_a 9.755038
_cell_length_b 8.638254
_cell_length_c 12.090619
_cell_angle_alpha 90.000000
_cell_angle_beta 75.591846
_cell_angle_gamma 90.000000
_cell_volume 986.789483
_symmetry_space_group_name_H-M "P 21/M"
_symmetry_group_IT_number 11
_symmetry_cell_setting 'monoclinic'
loop_
_space_group_symop_operation_xyz
x,y,z
-x,1/2+y,-z
-x,-y,-z
x,1/2-y,z
loop_
_atom_site_type_symbol
_atom_site_label
_atom_site_fract_x
_atom_site_fract_y
_atom_site_fract_z
Si Si1 0.090362 0.436659 0.663836
Si Si2 0.637631 0.935905 0.535116
Si Si3 0.128855 0.934694 0.901434
Si Si4 0.770568 0.064211 0.721477
Si Si5 0.342627 0.434972 0.026564
O O1 0.092857 0.250000 0.672185
O O2 0.219889 0.483397 0.559560
O O3 0.114032 0.507575 0.779741
O O4 0.932039 0.480347 0.656973
O O5 0.629970 0.750000 0.539607
O O6 0.500000 0.000000 0.500000
O O7 0.660368 0.999853 0.654017
O O8 0.127688 0.750000 0.905703
O O9 0.267934 0.000640 0.932128
O O10 0.000000 0.000000 0.000000
O O11 0.760982 0.250000 0.727673
O O12 0.739342 0.996574 0.848766
O O13 0.341080 0.250000 0.026341
O O14 0.500000 0.500000 0.000000
#
# Coordination Sequence:
#
# PCOD9166808 Si02
#       5
#     4   4   4   4   4
#     4  10  23  43  68  95 129 172 220 268 322 387
#     4  11  25  44  66  95 131 171 218 271 328 389
#     4  12  24  41  67  99 134 172 218 268 323 387
#     4  11  23  43  69  96 129 170 219 271 326 388
#     4  12  26  44  67  97 134 175 218 268 328 390
#
# _framework density 20.267748999999998
#
# number of rings (size 3 to 8) (size 9 to 14) (size 15 to 20)
#    0.000    0.800    2.000    5.400    2.800    2.400 
#    0.000    0.000    0.000    0.000    0.000    0.000 
#    0.000    0.000    0.000    0.000    0.000    0.000 
#
# Total GULP energy -111944.279504 kJ/mol
# GULP energy per Si atom -5597.213975 kJ/mol
# Density = 2.022162 g / cm^3
# Si number density = 20.267749 Si / 1000 Ang^3
#
#
#
# Elastic Constant Matrix: (Units=GPa)
#
#
# Indices 1 2 3 4 5 6 
#
# 1 125.5960 19.0856 11.9178 0.0000 20.8202 0.0000
# 2 19.0856 26.5940 11.7132 0.0000 4.2463 0.0000
# 3 11.9178 11.7132 64.2826 0.0000 18.7122 0.0000
# 4 0.0000 0.0000 0.0000 35.3129 0.0000 3.9871
# 5 20.8202 4.2463 18.7122 0.0000 45.0721 0.0000
# 6 0.0000 0.0000 0.0000 3.9871 0.0000 34.3926
#
#
#
# Elastic Compliance Matrix: (Units=1/GPa)
#
#
# Indices 1 2 3 4 5 6 
#
# 1 0.009562 -0.006473 0.000586 0.000000 -0.004050 0.000000
# 2 -0.006473 0.045296 -0.007600 0.000000 0.001878 0.000000
# 3 0.000586 -0.007600 0.018999 0.000000 -0.007442 0.000000
# 4 0.000000 0.000000 0.000000 0.028694 0.000000 -0.003326
# 5 -0.004050 0.001878 -0.007442 0.000000 0.026970 0.000000
# 6 0.000000 0.000000 0.000000 -0.003326 0.000000 0.029462
#
#
# Mechanical properties :
#
#
# Convention : Reuss Voigt Hill
#
# Bulk Modulus (GPa) = 21.33062 33.54509 27.43785
# Shear Modulus (GPa) = 24.80352 34.53922 29.67137
#
# Velocity S-wave (km/s) = 3.50207 4.13261 3.83034
# Velocity P-wave (km/s) = 5.18651 6.27361 5.75578
#
# Compressibility (1/GPa) = 0.04688097
#
# Stress axis : x y z
#
# Youngs Moduli (GPa) = 104.58579 22.07713 52.63457
#
# Poissons Ratio (x) = 0.14291 -0.03083
# Poissons Ratio (y) = 0.67702 0.40003
# Poissons Ratio (z) = -0.06127 0.16779
#
# Static dielectric constant tensor:
#      x y z
#    x 1.718620 0.000000 -0.016470 
#    y 0.000000 1.673320 0.000000 
#    z -0.016470 0.000000 1.692870 
# 
# From -- ./inp_files/15929.got.cif
#   From: 2010.05.17/outbox.cif.g08.bks.cpg/sg11_8_cif.got.tgz:15929.got - 2010.06.03 12:22:45.
