data_PCOD9166812
_publ_section_title
;
Structure prediction by ZEFSAII (Michael W. Deem and Ramdas Pophale) SiO2 
 PCOD9166812
Probable space group: P 21/M
;
_chemical_formula_sum "Si O2"
_cell_formula_units_Z 24
_cell_length_a 14.174277
_cell_length_b 10.157830
_cell_length_c 14.387809
_cell_angle_alpha 90.000000
_cell_angle_beta 152.614850
_cell_angle_gamma 90.000000
_cell_volume 952.852570
_symmetry_space_group_name_H-M "P 21/M"
_symmetry_group_IT_number 11
_symmetry_cell_setting 'monoclinic'
loop_
_space_group_symop_operation_xyz
x,y,z
-x,1/2+y,-z
-x,-y,-z
x,1/2-y,z
loop_
_atom_site_type_symbol
_atom_site_label
_atom_site_fract_x
_atom_site_fract_y
_atom_site_fract_z
Si Si1 0.104448 0.597194 0.641522
Si Si2 0.660403 0.892752 0.611134
Si Si3 0.920758 0.972993 0.675534
Si Si4 0.404556 0.087658 0.855511
Si Si5 0.170673 0.395585 0.052139
Si Si6 0.432115 0.607260 0.712967
O O1 0.118770 0.750000 0.620922
O O2 0.028759 0.593382 0.683029
O O3 0.861733 0.561368 0.376679
O O4 0.367216 0.568070 0.887403
O O5 0.566577 0.750000 0.543431
O O6 0.746180 0.899702 0.582191
O O7 0.836765 0.910245 0.843626
O O8 0.500000 0.000000 0.500000
O O9 0.799738 0.096426 0.525591
O O10 0.074365 0.011546 0.891145
O O11 0.398592 0.250000 0.847624
O O12 0.458032 0.016772 0.803358
O O13 0.085673 0.250000 0.957962
O O14 0.410285 0.397481 0.233723
O O15 0.473217 0.750000 0.794714
#
# Coordination Sequence:
#
# PCOD9166812 Si02
#       6
#     4   4   4   4   4   4
#     4  12  26  44  68 101 140 185 238 292 356 422
#     4  11  24  46  72 103 142 183 234 292 351 425
#     4  12  24  42  74 102 142 185 236 292 362 415
#     4  12  26  45  70 100 140 186 239 298 357 420
#     4  10  23  43  69 107 143 181 234 287 350 425
#     4  11  23  42  70 103 142 188 238 290 355 426
#
# _framework density 25.187528
#
# number of rings (size 3 to 8) (size 9 to 14) (size 15 to 20)
#    0.000    0.667    3.333    4.500    0.000    4.667 
#    0.000    2.500    0.000    0.000    0.000    0.000 
#    0.000    0.000    0.000    0.000    0.000    0.000 
#
# Total GULP energy -133795.454446 kJ/mol
# GULP energy per Si atom -5574.810602 kJ/mol
# Density = 2.513020 g / cm^3
# Si number density = 25.187528 Si / 1000 Ang^3
#
#
#
# Elastic Constant Matrix: (Units=GPa)
#
#
# Indices 1 2 3 4 5 6 
#
# 1 169.1508 65.7352 18.4287 0.0000 -19.4051 0.0000
# 2 65.7352 202.1547 92.4543 0.0000 2.8318 0.0000
# 3 18.4287 92.4543 98.5850 0.0000 -0.6785 0.0000
# 4 0.0000 0.0000 0.0000 48.0111 0.0000 -1.2149
# 5 -19.4051 2.8318 -0.6785 0.0000 38.0738 0.0000
# 6 0.0000 0.0000 0.0000 -1.2149 0.0000 27.3030
#
#
#
# Elastic Compliance Matrix: (Units=1/GPa)
#
#
# Indices 1 2 3 4 5 6 
#
# 1 0.007460 -0.003253 0.001684 0.000000 0.004074 0.000000
# 2 -0.003253 0.010104 -0.008885 0.000000 -0.002568 0.000000
# 3 0.001684 -0.008885 0.018174 0.000000 0.001843 0.000000
# 4 0.000000 0.000000 0.000000 0.020852 0.000000 0.000928
# 5 0.004074 -0.002568 0.001843 0.000000 0.028565 0.000000
# 6 0.000000 0.000000 0.000000 0.000928 0.000000 0.036667
#
#
# Mechanical properties :
#
#
# Convention : Reuss Voigt Hill
#
# Bulk Modulus (GPa) = 67.43073 91.45856 79.44465
# Shear Modulus (GPa) = 33.85822 42.22906 38.04364
#
# Velocity S-wave (km/s) = 3.67037 4.09906 3.89062
# Velocity P-wave (km/s) = 6.69267 7.66765 7.19669
#
# Compressibility (1/GPa) = 0.01483003
#
# Stress axis : x y z
#
# Youngs Moduli (GPa) = 134.04784 98.96834 55.02307
#
# Poissons Ratio (x) = 0.32197 -0.09268
# Poissons Ratio (y) = 0.43609 0.48890
# Poissons Ratio (z) = -0.22580 0.87938
#
# Static dielectric constant tensor:
#      x y z
#    x 1.938210 0.000000 0.043940 
#    y 0.000000 2.015330 0.000000 
#    z 0.043940 0.000000 2.179650 
# 
# From -- ./inp_files/61002.got.cif
#   From: 2010.05.17/outbox.cif.g08.bks.cpg/sg11_31_cif.got.tgz:61002.got - 2010.06.03 12:22:45.
