data_PCOD9166163
_publ_section_title
;
Structure prediction by ZEFSAII (Michael W. Deem and Ramdas Pophale) SiO2 
 PCOD9166163
Probable space group: P 21/M
;
_chemical_formula_sum "Si O2"
_cell_formula_units_Z 32
_cell_length_a 5.454758
_cell_length_b 8.804945
_cell_length_c 31.834493
_cell_angle_alpha 90.000000
_cell_angle_beta 95.554382
_cell_angle_gamma 90.000000
_cell_volume 1521.795033
_symmetry_space_group_name_H-M "P 21/M"
_symmetry_group_IT_number 11
_symmetry_cell_setting 'monoclinic'
loop_
_space_group_symop_operation_xyz
x,y,z
-x,1/2+y,-z
-x,-y,-z
x,1/2-y,z
loop_
_atom_site_type_symbol
_atom_site_label
_atom_site_fract_x
_atom_site_fract_y
_atom_site_fract_z
Si Si1 0.062992 0.932876 0.594472
Si Si2 0.296371 0.913403 0.251168
Si Si3 0.923371 0.581327 0.168248
Si Si4 0.535874 0.934020 0.546905
Si Si5 0.056151 0.076337 0.685431
Si Si6 0.437797 0.434246 0.953071
Si Si7 0.308847 0.584195 0.769243
Si Si8 0.912143 0.567229 0.912142
O O1 0.063554 0.750000 0.595032
O O2 0.303973 0.981623 0.572091
O O3 0.802330 0.981785 0.569685
O O4 0.074245 0.991741 0.642127
O O5 0.433472 0.750000 0.246926
O O6 0.079961 0.902611 0.213448
O O7 0.214599 0.918675 0.297988
O O8 0.411873 0.071903 0.240375
O O9 0.867662 0.750000 0.150806
O O10 0.058828 0.483373 0.135747
O O11 0.693487 0.497366 0.185461
O O12 0.534710 0.750000 0.545038
O O13 0.500000 0.000000 0.500000
O O14 0.135914 0.250000 0.681373
O O15 0.198304 0.996567 0.726016
O O16 0.432774 0.250000 0.952856
O O17 0.662925 0.494312 0.927394
O O18 0.167323 0.499668 0.936153
O O19 0.500000 0.500000 0.000000
O O20 0.203861 0.750000 0.772119
O O21 0.906077 0.750000 0.916943
#
# Coordination Sequence:
#
# PCOD9166163 Si02
#       8
#     4   4   4   4   4   4   4   4
#     4  10  22  39  60  90 123 157 200 252 308 367
#     4   9  20  38  59  83 119 162 209 259 312 373
#     4  10  22  41  62  89 125 169 217 267 324 386
#     4  10  22  40  62  88 121 156 198 249 306 371
#     4  10  22  39  58  85 118 158 209 258 308 371
#     4  12  26  48  74 103 139 181 226 278 344 409
#     4  11  22  36  59  87 122 164 207 260 319 377
#     4  12  26  45  71 105 141 179 229 283 336 404
#
# _framework density 21.027799000000002
#
# number of rings (size 3 to 8) (size 9 to 14) (size 15 to 20)
#    0.000    1.500    0.000    5.625    3.500    4.000 
#    0.000    0.000    0.000    0.000    0.000    0.000 
#    0.000    0.000    0.000    0.000    0.000    0.000 
#
# Total GULP energy -178290.745137 kJ/mol
# GULP energy per Si atom -5571.585786 kJ/mol
# Density = 2.097994 g / cm^3
# Si number density = 21.027799 Si / 1000 Ang^3
#
#
#
# Elastic Constant Matrix: (Units=GPa)
#
#
# Indices 1 2 3 4 5 6 
#
# 1 82.3162 25.2256 27.3645 0.0000 -13.2871 0.0000
# 2 25.2256 98.9970 20.6924 0.0000 -12.6884 0.0000
# 3 27.3645 20.6924 115.0512 0.0000 -20.9262 0.0000
# 4 0.0000 0.0000 0.0000 23.9794 0.0000 -2.7819
# 5 -13.2871 -12.6884 -20.9262 0.0000 30.9475 0.0000
# 6 0.0000 0.0000 0.0000 -2.7819 0.0000 18.0136
#
#
#
# Elastic Compliance Matrix: (Units=1/GPa)
#
#
# Indices 1 2 3 4 5 6 
#
# 1 0.014302 -0.002722 -0.002279 0.000000 0.003484 0.000000
# 2 -0.002722 0.011347 -0.000866 0.000000 0.002898 0.000000
# 3 -0.002279 -0.000866 0.010430 0.000000 0.005719 0.000000
# 4 0.000000 0.000000 0.000000 0.042463 0.000000 0.006558
# 5 0.003484 0.002898 0.005719 0.000000 0.038864 0.000000
# 6 0.000000 0.000000 0.000000 0.006558 0.000000 0.056526
#
#
# Mechanical properties :
#
#
# Convention : Reuss Voigt Hill
#
# Bulk Modulus (GPa) = 41.07424 49.21437 45.14430
# Shear Modulus (GPa) = 25.80231 29.46023 27.63127
#
# Velocity S-wave (km/s) = 3.50674 3.74707 3.62889
# Velocity P-wave (km/s) = 5.99767 6.49430 6.25092
#
# Compressibility (1/GPa) = 0.02434616
#
# Stress axis : x y z
#
# Youngs Moduli (GPa) = 69.91969 88.12643 95.87951
#
# Poissons Ratio (x) = 0.23984 0.21847
# Poissons Ratio (y) = 0.19029 0.08307
# Poissons Ratio (z) = 0.15932 0.07636
#
# Static dielectric constant tensor:
#      x y z
#    x 1.959200 0.000000 -0.005430 
#    y 0.000000 2.182840 0.000000 
#    z -0.005430 0.000000 1.699640 
# 
# From -- ./inp_files/72590.got.cif
#   From: 2010.05.17/outbox.cif.g08.bks.cpg/sg11_37_cif.got.tgz:72590.got - 2010.06.03 12:22:45.
