data_PCOD9166051
_publ_section_title
;
Structure prediction by ZEFSAII (Michael W. Deem and Ramdas Pophale) SiO2 
 PCOD9166051
Probable space group: P 21/M
;
_chemical_formula_sum "Si O2"
_cell_formula_units_Z 26
_cell_length_a 7.234141
_cell_length_b 15.362843
_cell_length_c 9.996708
_cell_angle_alpha 90.000000
_cell_angle_beta 94.022237
_cell_angle_gamma 90.000000
_cell_volume 1108.267350
_symmetry_space_group_name_H-M "P 21/M"
_symmetry_group_IT_number 11
_symmetry_cell_setting 'monoclinic'
loop_
_space_group_symop_operation_xyz
x,y,z
-x,1/2+y,-z
-x,-y,-z
x,1/2-y,z
loop_
_atom_site_type_symbol
_atom_site_label
_atom_site_fract_x
_atom_site_fract_y
_atom_site_fract_z
Si Si1 0.550049 0.091214 0.570109
Si Si2 0.761294 0.250000 0.005473
Si Si3 0.386339 0.250000 0.113152
Si Si4 0.731689 0.920664 0.055103
Si Si5 0.042123 0.250000 0.234052
Si Si6 0.866164 0.115565 0.418642
Si Si7 0.842790 0.910633 0.344882
Si Si8 0.677531 0.068311 0.861387
O O1 0.665207 0.142722 0.464553
O O2 0.357788 0.126882 0.619043
O O3 0.685000 0.069216 0.702017
O O4 0.500000 0.000000 0.500000
O O5 0.608560 0.250000 0.118246
O O6 0.962481 0.250000 0.080117
O O7 0.724443 0.163438 0.919239
O O8 0.264253 0.250000 0.240798
O O9 0.323821 0.335659 0.029764
O O10 0.864846 0.900010 0.186583
O O11 0.540854 0.951109 0.118850
O O12 0.784266 0.995173 0.951688
O O13 0.954684 0.167434 0.302219
O O14 0.005025 0.128385 0.549826
O O15 0.850009 0.014481 0.375290
#
# Coordination Sequence:
#
# PCOD9166051 Si02
#       8
#     4   2   2   4   2   4   4   4
#     4   9  19  36  60  86 115 152 191 238 296 357
#     4  10  22  41  61  87 121 153 198 257 301 354
#     4  10  24  39  57  85 117 156 202 244 298 362
#     4   9  18  36  61  87 117 155 195 247 300 351
#     4  12  26  40  56  86 124 157 200 249 295 352
#     4  10  22  37  55  84 117 153 196 241 288 355
#     4   9  19  38  61  84 113 150 198 244 293 351
#     4   9  18  35  63  91 118 154 199 245 300 360
#
# _framework density 23.460045000000001
#
# number of rings (size 3 to 8) (size 9 to 14) (size 15 to 20)
#    0.000    2.462    0.000    0.923    0.000   11.077 
#    0.000    3.846    0.000    0.923    0.000    0.000 
#    0.000    0.000    0.000    0.000    0.000    0.000 
#
# Total GULP energy -145255.170282 kJ/mol
# GULP energy per Si atom -5586.737319 kJ/mol
# Density = 2.340665 g / cm^3
# Si number density = 23.460045 Si / 1000 Ang^3
#
#
#
# Elastic Constant Matrix: (Units=GPa)
#
#
# Indices 1 2 3 4 5 6 
#
# 1 84.8893 -6.7801 10.5877 0.0000 -11.1294 0.0000
# 2 -6.7801 57.0144 -3.0575 0.0000 2.2775 0.0000
# 3 10.5877 -3.0575 60.4168 0.0000 -4.0717 0.0000
# 4 0.0000 0.0000 0.0000 14.4826 0.0000 -13.4370
# 5 -11.1294 2.2775 -4.0717 0.0000 41.1812 0.0000
# 6 0.0000 0.0000 0.0000 -13.4370 0.0000 -51.2456
#
#
#
# Elastic Compliance Matrix: (Units=1/GPa)
#
#
# Indices 1 2 3 4 5 6 
#
# 1 0.012530 0.001262 -0.001921 0.000000 0.003127 0.000000
# 2 0.001262 0.017747 0.000638 0.000000 -0.000577 0.000000
# 3 -0.001921 0.000638 0.016997 0.000000 0.001126 0.000000
# 4 0.000000 0.000000 0.000000 0.055537 0.000000 -0.014562
# 5 0.003127 -0.000577 0.001126 0.000000 0.025271 0.000000
# 6 0.000000 0.000000 0.000000 -0.014562 0.000000 -0.015696
#
#
# Mechanical properties :
#
#
# Convention : Reuss Voigt Hill
#
# Bulk Modulus (GPa) = 21.17231 22.64676 21.90953
# Shear Modulus (GPa) = 39.00982 14.32168 26.66575
#
# Velocity S-wave (km/s) = 4.08219 2.47345 3.37507
# Velocity P-wave (km/s) = 5.59138 4.22274 4.95455
#
# Compressibility (1/GPa) = 0.04723151
#
# Stress axis : x y z
#
# Youngs Moduli (GPa) = 79.80591 56.34819 58.83551
#
# Poissons Ratio (x) = -0.07112 0.11304
# Poissons Ratio (y) = -0.10073 -0.03754
# Poissons Ratio (z) = 0.15333 -0.03595
#
# Static dielectric constant tensor:
#      x y z
#    x 1.975240 0.000000 -0.048670 
#    y 0.000000 1.822790 0.000000 
#    z -0.048670 0.000000 1.892260 
# 
# From -- ./inp_files/13564.got.cif
#   From: 2010.05.17/outbox.cif.g08.bks.cpg/sg11_7_cif.got.tgz:13564.got - 2010.06.03 12:22:45.
