data_PCOD9166694
_publ_section_title
;
Structure prediction by ZEFSAII (Michael W. Deem and Ramdas Pophale) SiO2 
 PCOD9166694
Probable space group: P 21/M
;
_chemical_formula_sum "Si O2"
_cell_formula_units_Z 24
_cell_length_a 9.109827
_cell_length_b 8.577361
_cell_length_c 15.769909
_cell_angle_alpha 90.000000
_cell_angle_beta 89.938730
_cell_angle_gamma 90.000000
_cell_volume 1232.232779
_symmetry_space_group_name_H-M "P 21/M"
_symmetry_group_IT_number 11
_symmetry_cell_setting 'monoclinic'
loop_
_space_group_symop_operation_xyz
x,y,z
-x,1/2+y,-z
-x,-y,-z
x,1/2-y,z
loop_
_atom_site_type_symbol
_atom_site_label
_atom_site_fract_x
_atom_site_fract_y
_atom_site_fract_z
Si Si1 0.423006 0.438024 0.415270
Si Si2 0.915512 0.061996 0.245308
Si Si3 0.086141 0.936566 0.081584
Si Si4 0.415692 0.436646 0.751944
Si Si5 0.081763 0.437689 0.417260
Si Si6 0.417096 0.063241 0.082932
O O1 0.500000 0.500000 0.500000
O O2 0.430507 0.250000 0.413273
O O3 0.504070 0.505025 0.332980
O O4 0.251958 0.486021 0.415050
O O5 0.916452 0.250000 0.239861
O O6 0.997512 0.014224 0.331909
O O7 0.749386 0.001873 0.246424
O O8 0.001255 0.992754 0.165310
O O9 0.091549 0.750000 0.078759
O O10 0.250154 0.004188 0.082112
O O11 0.000000 0.000000 0.000000
O O12 0.412829 0.250000 0.753882
O O13 0.502245 0.500089 0.833487
O O14 0.079189 0.250000 0.420202
O O15 0.000000 0.500000 0.500000
O O16 0.420007 0.250000 0.083064
O O17 0.500000 0.000000 0.000000
#
# Coordination Sequence:
#
# PCOD9166694 Si02
#       6
#     4   4   4   4   4   4
#     4  11  23  41  63  92 126 165 210 261 316 378
#     4  11  23  42  65  92 125 166 210 259 314 373
#     4  12  25  43  66  95 128 166 209 258 312 373
#     4  12  25  42  64  94 127 165 210 261 317 378
#     4  10  23  40  62  89 122 160 204 253 307 367
#     4  12  25  44  67  94 127 166 210 260 314 375
#
# _framework density 19.476838999999998
#
# number of rings (size 3 to 8) (size 9 to 14) (size 15 to 20)
#    0.000    0.667    0.000    8.500    0.000    6.667 
#    0.000    0.000    0.000    0.000    0.000    0.000 
#    0.000    0.000    0.000    0.000    0.000    0.000 
#
# Total GULP energy -134417.924588 kJ/mol
# GULP energy per Si atom -5600.746858 kJ/mol
# Density = 1.943251 g / cm^3
# Si number density = 19.476839 Si / 1000 Ang^3
#
#
#
# Elastic Constant Matrix: (Units=GPa)
#
#
# Indices 1 2 3 4 5 6 
#
# 1 198.6247 44.5824 110.2611 0.0000 6.5597 0.0000
# 2 44.5824 119.8682 53.9872 0.0000 6.1497 0.0000
# 3 110.2611 53.9872 215.4856 0.0000 5.0755 0.0000
# 4 0.0000 0.0000 0.0000 42.2754 0.0000 -3.9315
# 5 6.5597 6.1497 5.0755 0.0000 48.3332 0.0000
# 6 0.0000 0.0000 0.0000 -3.9315 0.0000 40.6177
#
#
#
# Elastic Compliance Matrix: (Units=1/GPa)
#
#
# Indices 1 2 3 4 5 6 
#
# 1 0.007179 -0.001123 -0.003381 0.000000 -0.000476 0.000000
# 2 -0.001123 0.009623 -0.001816 0.000000 -0.000881 0.000000
# 3 -0.003381 -0.001816 0.006826 0.000000 -0.000027 0.000000
# 4 0.000000 0.000000 0.000000 0.023869 0.000000 0.002310
# 5 -0.000476 -0.000881 -0.000027 0.000000 0.020869 0.000000
# 6 0.000000 0.000000 0.000000 0.002310 0.000000 0.024843
#
#
# Mechanical properties :
#
#
# Convention : Reuss Voigt Hill
#
# Bulk Modulus (GPa) = 90.99594 105.73776 98.36685
# Shear Modulus (GPa) = 45.65677 47.92178 46.78927
#
# Velocity S-wave (km/s) = 4.84690 4.96567 4.90665
# Velocity P-wave (km/s) = 8.83995 9.34259 9.09475
#
# Compressibility (1/GPa) = 0.01098950
#
# Stress axis : x y z
#
# Youngs Moduli (GPa) = 139.29003 103.91672 146.49492
#
# Poissons Ratio (x) = 0.11670 0.49529
# Poissons Ratio (y) = 0.15642 0.26597
# Poissons Ratio (z) = 0.47093 0.18867
#
# Static dielectric constant tensor:
#      x y z
#    x 1.643770 0.000000 0.007480 
#    y 0.000000 1.656620 0.000000 
#    z 0.007480 0.000000 1.641980 
# 
# From -- ./inp_files/46499.got.cif
#   From: 2010.05.17/outbox.cif.g08.bks.cpg/sg11_24_cif.got.tgz:46499.got - 2010.06.03 12:22:45.
