data_PCOD9166105
_publ_section_title
;
Structure prediction by ZEFSAII (Michael W. Deem and Ramdas Pophale) SiO2 
 PCOD9166105
Probable space group: P 21/M
;
_chemical_formula_sum "Si O2"
_cell_formula_units_Z 24
_cell_length_a 9.819883
_cell_length_b 11.183014
_cell_length_c 12.277007
_cell_angle_alpha 90.000000
_cell_angle_beta 47.254613
_cell_angle_gamma 90.000000
_cell_volume 990.094951
_symmetry_space_group_name_H-M "P 21/M"
_symmetry_group_IT_number 11
_symmetry_cell_setting 'monoclinic'
loop_
_space_group_symop_operation_xyz
x,y,z
-x,1/2+y,-z
-x,-y,-z
x,1/2-y,z
loop_
_atom_site_type_symbol
_atom_site_label
_atom_site_fract_x
_atom_site_fract_y
_atom_site_fract_z
Si Si1 0.128615 0.620887 0.261900
Si Si2 0.245065 0.883520 0.642346
Si Si3 0.429485 0.122616 0.948639
Si Si4 0.088134 0.002023 0.070153
Si Si5 0.793767 0.618965 0.704232
Si Si6 0.611633 0.885493 0.568260
O O1 0.063547 0.750000 0.337439
O O2 0.076983 0.496993 0.348852
O O3 0.078288 0.606843 0.161829
O O4 0.350947 0.618093 0.159492
O O5 0.269254 0.750000 0.579996
O O6 0.392518 0.890748 0.662026
O O7 0.036790 0.898354 0.799919
O O8 0.300327 0.999633 0.540598
O O9 0.384439 0.250000 0.921579
O O10 0.344380 0.119581 0.116508
O O11 0.306197 0.030347 0.949237
O O12 0.000000 0.000000 0.000000
O O13 0.885760 0.750000 0.654984
O O14 0.676227 0.608415 0.657765
O O15 0.665547 0.750000 0.499162
#
# Coordination Sequence:
#
# PCOD9166105 Si02
#       6
#     4   4   4   4   4   4
#     4  10  22  38  58  88 126 163 204 252 303 366
#     4  10  22  39  60  88 126 163 204 254 311 371
#     4   9  19  37  57  83 122 162 203 247 300 366
#     4  11  23  36  60  92 128 161 201 253 314 370
#     4   9  17  33  61  85 109 151 202 246 294 358
#     4   9  20  39  63  89 119 162 209 255 306 366
#
# _framework density 24.240099000000001
#
# number of rings (size 3 to 8) (size 9 to 14) (size 15 to 20)
#    0.000    2.333    0.000    2.500    4.667    3.333 
#    0.000    3.333    0.000    2.000    0.000    0.000 
#    0.000    0.000    0.000    0.000    0.000    0.000 
#
# Total GULP energy -133842.921479 kJ/mol
# GULP energy per Si atom -5576.788395 kJ/mol
# Density = 2.418493 g / cm^3
# Si number density = 24.240099 Si / 1000 Ang^3
#
#
#
# Elastic Constant Matrix: (Units=GPa)
#
#
# Indices 1 2 3 4 5 6 
#
# 1 170.9938 24.0723 38.8479 0.0000 10.1801 0.0000
# 2 24.0723 213.6996 22.0211 0.0000 18.9967 0.0000
# 3 38.8479 22.0211 56.6826 0.0000 4.2422 0.0000
# 4 0.0000 0.0000 0.0000 7.1503 0.0000 11.9194
# 5 10.1801 18.9967 4.2422 0.0000 50.8243 0.0000
# 6 0.0000 0.0000 0.0000 11.9194 0.0000 6.1625
#
#
#
# Elastic Compliance Matrix: (Units=1/GPa)
#
#
# Indices 1 2 3 4 5 6 
#
# 1 0.006988 -0.000227 -0.004631 0.000000 -0.000928 0.000000
# 2 -0.000227 0.005028 -0.001671 0.000000 -0.001694 0.000000
# 3 -0.004631 -0.001671 0.021483 0.000000 -0.000241 0.000000
# 4 0.000000 0.000000 0.000000 -0.062878 0.000000 0.121616
# 5 -0.000928 -0.001694 -0.000241 0.000000 0.020515 0.000000
# 6 0.000000 0.000000 0.000000 0.121616 0.000000 -0.072956
#
#
# Mechanical properties :
#
#
# Convention : Reuss Voigt Hill
#
# Bulk Modulus (GPa) = 48.92336 67.91762 58.42049
# Shear Modulus (GPa) = -80.71246 36.58974 -22.06136
#
# Velocity S-wave (km/s) = -5.77662 3.88941 -3.02009
# Velocity P-wave (km/s) = 4.92604 6.94619 3.46292
#
# Compressibility (1/GPa) = 0.02044013
#
# Stress axis : x y z
#
# Youngs Moduli (GPa) = 143.11088 198.89223 46.54798
#
# Poissons Ratio (x) = 0.04523 0.21557
# Poissons Ratio (y) = 0.03254 0.07777
# Poissons Ratio (z) = 0.66278 0.33228
#
# Static dielectric constant tensor:
#      x y z
#    x 1.930090 0.000000 -0.001660 
#    y 0.000000 2.196840 0.000000 
#    z -0.001660 0.000000 1.920470 
# 
# From -- ./inp_files/34672.got.cif
#   From: 2010.05.17/outbox.cif.g08.bks.cpg/sg11_18_cif.got.tgz:34672.got - 2010.06.03 12:22:45.
