data_PCOD9166247
_publ_section_title
;
Structure prediction by ZEFSAII (Michael W. Deem and Ramdas Pophale) SiO2 
 PCOD9166247
Probable space group: P 21/M
;
_chemical_formula_sum "Si O2"
_cell_formula_units_Z 20
_cell_length_a 5.482023
_cell_length_b 27.701907
_cell_length_c 5.172471
_cell_angle_alpha 90.000000
_cell_angle_beta 93.555971
_cell_angle_gamma 90.000000
_cell_volume 783.991989
_symmetry_space_group_name_H-M "P 21/M"
_symmetry_group_IT_number 11
_symmetry_cell_setting 'monoclinic'
loop_
_space_group_symop_operation_xyz
x,y,z
-x,1/2+y,-z
-x,-y,-z
x,1/2-y,z
loop_
_atom_site_type_symbol
_atom_site_label
_atom_site_fract_x
_atom_site_fract_y
_atom_site_fract_z
Si Si1 0.404755 0.646704 0.980025
Si Si2 0.140695 0.964934 0.309601
Si Si3 0.303719 0.445359 0.110978
Si Si4 0.629922 0.692943 0.479094
Si Si5 0.992119 0.121390 0.412293
O O1 0.506711 0.591628 0.003126
O O2 0.544493 0.675244 0.757586
O O3 0.132887 0.641816 0.852454
O O4 0.444186 0.674686 0.247457
O O5 0.195054 0.914796 0.457587
O O6 0.352818 0.000024 0.212790
O O7 0.000000 0.000000 0.500000
O O8 0.938061 0.951677 0.081392
O O9 0.211955 0.414241 0.350060
O O10 0.655279 0.750000 0.476435
O O11 0.883219 0.665289 0.432666
#
# Coordination Sequence:
#
# PCOD9166247 Si02
#       5
#     4   4   4   4   4
#     4  11  24  41  67  94 123 165 211 257 319 377
#     4   9  17  35  60  90 129 169 203 250 303 368
#     4   9  19  37  59  91 133 163 206 255 301 368
#     4  11  25  44  63  90 124 158 208 272 320 373
#     4  10  22  39  65  89 125 168 208 256 314 373
#
# _framework density 25.510465
#
# number of rings (size 3 to 8) (size 9 to 14) (size 15 to 20)
#    0.000    2.000    2.000    0.600    2.800    2.400 
#    0.000    9.000    0.000    0.000    0.000    0.000 
#    0.000    0.000    0.000    0.000    0.000    0.000 
#
# Total GULP energy -111888.778149 kJ/mol
# GULP energy per Si atom -5594.438907 kJ/mol
# Density = 2.545240 g / cm^3
# Si number density = 25.510465 Si / 1000 Ang^3
#
#
#
# Elastic Constant Matrix: (Units=GPa)
#
#
# Indices 1 2 3 4 5 6 
#
# 1 53.8202 27.9249 20.9844 0.0000 2.0403 0.0000
# 2 27.9249 229.7142 59.7126 0.0000 7.6071 0.0000
# 3 20.9844 59.7126 101.4839 0.0000 2.8401 0.0000
# 4 0.0000 0.0000 0.0000 44.0283 0.0000 1.4526
# 5 2.0403 7.6071 2.8401 0.0000 51.3563 0.0000
# 6 0.0000 0.0000 0.0000 1.4526 0.0000 22.8837
#
#
#
# Elastic Compliance Matrix: (Units=1/GPa)
#
#
# Indices 1 2 3 4 5 6 
#
# 1 0.020740 -0.001648 -0.003308 0.000000 -0.000397 0.000000
# 2 -0.001648 0.005288 -0.002755 0.000000 -0.000566 0.000000
# 3 -0.003308 -0.002755 0.012163 0.000000 -0.000133 0.000000
# 4 0.000000 0.000000 0.000000 0.022760 0.000000 -0.001445
# 5 -0.000397 -0.000566 -0.000133 0.000000 0.019579 0.000000
# 6 0.000000 0.000000 0.000000 -0.001445 0.000000 0.043791
#
#
# Mechanical properties :
#
#
# Convention : Reuss Voigt Hill
#
# Bulk Modulus (GPa) = 43.91879 66.91800 55.41840
# Shear Modulus (GPa) = 33.93673 42.08010 38.00841
#
# Velocity S-wave (km/s) = 3.65129 4.06584 3.86413
# Velocity P-wave (km/s) = 5.91855 6.95197 6.45597
#
# Compressibility (1/GPa) = 0.02276930
#
# Stress axis : x y z
#
# Youngs Moduli (GPa) = 48.21532 189.08954 82.21991
#
# Poissons Ratio (x) = 0.31168 0.27195
# Poissons Ratio (y) = 0.07947 0.22652
# Poissons Ratio (z) = 0.15948 0.52095
#
# Static dielectric constant tensor:
#      x y z
#    x 2.079790 0.000000 -0.111660 
#    y 0.000000 1.969420 0.000000 
#    z -0.111660 0.000000 2.081580 
# 
# From -- ./inp_files/784.got.cif
#   From: 2010.05.17/outbox.cif.g08.bks.cpg/sg11_1_cif.got.tgz:784.got - 2010.06.03 12:22:45.
