data_PCOD9166115
_publ_section_title
;
Structure prediction by ZEFSAII (Michael W. Deem and Ramdas Pophale) SiO2 
 PCOD9166115
Probable space group: P 21/M
;
_chemical_formula_sum "Si O2"
_cell_formula_units_Z 24
_cell_length_a 8.029165
_cell_length_b 13.368313
_cell_length_c 14.700918
_cell_angle_alpha 90.000000
_cell_angle_beta 39.575882
_cell_angle_gamma 90.000000
_cell_volume 1005.307152
_symmetry_space_group_name_H-M "P 21/M"
_symmetry_group_IT_number 11
_symmetry_cell_setting 'monoclinic'
loop_
_space_group_symop_operation_xyz
x,y,z
-x,1/2+y,-z
-x,-y,-z
x,1/2-y,z
loop_
_atom_site_type_symbol
_atom_site_label
_atom_site_fract_x
_atom_site_fract_y
_atom_site_fract_z
Si Si1 0.635646 0.075729 0.708932
Si Si2 0.409123 0.861048 0.790521
Si Si3 0.579652 0.857833 0.524436
Si Si4 0.778694 0.476929 0.836870
Si Si5 0.831440 0.425225 0.438215
Si Si6 0.930901 0.864723 0.125748
O O1 0.836144 0.101262 0.542945
O O2 0.355029 0.114739 0.794005
O O3 0.591868 0.955648 0.730770
O O4 0.717346 0.097844 0.777565
O O5 0.508726 0.750000 0.775144
O O6 0.382517 0.859742 0.693074
O O7 0.141118 0.878433 0.956508
O O8 0.716229 0.750000 0.469636
O O9 0.409157 0.867556 0.505752
O O10 0.749265 0.957117 0.465614
O O11 0.921731 0.574177 0.732738
O O12 0.972570 0.432197 0.831257
O O13 0.500000 0.500000 0.000000
O O14 0.943956 0.750000 0.150302
#
# Coordination Sequence:
#
# PCOD9166115 Si02
#       6
#     4   4   4   4   4   4
#     4  11  23  42  69  92 129 172 213 261 329 375
#     4   9  18  35  61  94 128 162 209 262 314 375
#     4   9  18  36  65  92 124 171 213 260 324 379
#     4  12  25  41  66  93 128 171 213 261 320 382
#     4  10  22  38  59  95 130 161 215 269 310 381
#     4  11  24  42  66  98 132 167 216 271 316 378
#
# _framework density 23.873301000000001
#
# number of rings (size 3 to 8) (size 9 to 14) (size 15 to 20)
#    0.000    1.667    1.667    4.000    2.333    3.333 
#    0.000    1.667    0.000    5.000    0.000    0.000 
#    0.000    0.000    0.000    0.000    0.000    0.000 
#
# Total GULP energy -134037.935535 kJ/mol
# GULP energy per Si atom -5584.913981 kJ/mol
# Density = 2.381896 g / cm^3
# Si number density = 23.873301 Si / 1000 Ang^3
#
#
#
# Elastic Constant Matrix: (Units=GPa)
#
#
# Indices 1 2 3 4 5 6 
#
# 1 94.8021 -17.6270 20.8819 0.0000 14.8843 0.0000
# 2 -17.6270 60.9772 -7.2151 0.0000 5.8576 0.0000
# 3 20.8819 -7.2151 140.7683 0.0000 14.6473 0.0000
# 4 0.0000 0.0000 0.0000 22.0496 0.0000 1.0043
# 5 14.8843 5.8576 14.6473 0.0000 34.9822 0.0000
# 6 0.0000 0.0000 0.0000 1.0043 0.0000 11.0726
#
#
#
# Elastic Compliance Matrix: (Units=1/GPa)
#
#
# Indices 1 2 3 4 5 6 
#
# 1 0.012385 0.003982 -0.001062 0.000000 -0.005492 0.000000
# 2 0.003982 0.018143 0.000870 0.000000 -0.005096 0.000000
# 3 -0.001062 0.000870 0.007605 0.000000 -0.002878 0.000000
# 4 0.000000 0.000000 0.000000 0.045540 0.000000 -0.004130
# 5 -0.005492 -0.005096 -0.002878 0.000000 0.032981 0.000000
# 6 0.000000 0.000000 0.000000 -0.004130 0.000000 0.090688
#
#
# Mechanical properties :
#
#
# Convention : Reuss Voigt Hill
#
# Bulk Modulus (GPa) = 21.87557 32.06970 26.97263
# Shear Modulus (GPa) = 23.25575 33.65473 28.45524
#
# Velocity S-wave (km/s) = 3.12449 3.75870 3.45618
# Velocity P-wave (km/s) = 4.71166 5.68327 5.22012
#
# Compressibility (1/GPa) = 0.04571310
#
# Stress axis : x y z
#
# Youngs Moduli (GPa) = 80.74434 55.11733 131.48514
#
# Poissons Ratio (x) = -0.21948 0.13959
# Poissons Ratio (y) = -0.32153 -0.11433
# Poissons Ratio (z) = 0.08572 -0.04792
#
# Static dielectric constant tensor:
#      x y z
#    x 1.960460 0.000000 -0.005430 
#    y 0.000000 1.933520 0.000000 
#    z -0.005430 0.000000 1.978030 
# 
# From -- ./inp_files/47529.got.cif
#   From: 2010.05.17/outbox.cif.g08.bks.cpg/sg11_24_cif.got.tgz:47529.got - 2010.06.03 12:22:45.
