data_PCOD9166870
_publ_section_title
;
Structure prediction by ZEFSAII (Michael W. Deem and Ramdas Pophale) SiO2 
 PCOD9166870
Probable space group: P 21/M
;
_chemical_formula_sum "Si O2"
_cell_formula_units_Z 30
_cell_length_a 16.570510
_cell_length_b 9.773711
_cell_length_c 9.325970
_cell_angle_alpha 90.000000
_cell_angle_beta 57.522344
_cell_angle_gamma 90.000000
_cell_volume 1274.167211
_symmetry_space_group_name_H-M "P 21/M"
_symmetry_group_IT_number 11
_symmetry_cell_setting 'monoclinic'
loop_
_space_group_symop_operation_xyz
x,y,z
-x,1/2+y,-z
-x,-y,-z
x,1/2-y,z
loop_
_atom_site_type_symbol
_atom_site_label
_atom_site_fract_x
_atom_site_fract_y
_atom_site_fract_z
Si Si1 0.079224 0.093322 0.275866
Si Si2 0.770556 0.585564 0.620157
Si Si3 0.602471 0.592805 0.988311
Si Si4 0.354044 0.594869 0.610447
Si Si5 0.999140 0.750000 0.993693
Si Si6 0.481189 0.406775 0.298941
Si Si7 0.755874 0.602179 0.103482
Si Si8 0.085700 0.003867 0.736563
O O1 0.047930 0.250000 0.335164
O O2 0.154187 0.050571 0.324563
O O3 0.141803 0.099889 0.069760
O O4 0.991400 0.997686 0.322325
O O5 0.774795 0.750000 0.596364
O O6 0.666924 0.556352 0.788503
O O7 0.811953 0.514346 0.439734
O O8 0.565319 0.750000 0.012988
O O9 0.528197 0.480718 0.116867
O O10 0.679891 0.598770 0.045528
O O11 0.336675 0.750000 0.580447
O O12 0.398445 0.498834 0.446415
O O13 0.436298 0.598287 0.656512
O O14 0.265580 0.522859 0.773582
O O15 0.061181 0.631088 0.848497
O O16 0.940361 0.631714 0.140953
O O17 0.452430 0.250000 0.300844
O O18 0.741767 0.750000 0.189980
#
# Coordination Sequence:
#
# PCOD9166870 Si02
#       8
#     4   4   4   4   2   4   4   4
#     4   9  17  30  50  72  95 123 156 196 242 289
#     4   9  17  30  50  72  95 123 156 196 242 289
#     4   8  14  25  39  57  82 114 149 184 225 271
#     4   9  15  22  33  51  78 115 154 185 214 258
#     4  10  24  34  54  66  92 122 166 196 240 274
#     4   9  15  22  33  51  78 115 154 185 214 258
#     4   8  14  25  39  57  82 114 149 184 225 271
#     4  11  19  38  50  72  91 127 158 200 234 287
#
# _framework density 23.544792999999999
#
# number of rings (size 3 to 8) (size 9 to 14) (size 15 to 20)
#    0.000    2.933    1.333    2.800    0.000    3.200 
#    2.400    0.000    0.000    0.000    0.000    0.000 
#    0.000    0.000    0.000    7.200    0.000    3.733 
#
# Total GULP energy -167256.229184 kJ/mol
# GULP energy per Si atom -5575.207639 kJ/mol
# Density = 2.349120 g / cm^3
# Si number density = 23.544793 Si / 1000 Ang^3
#
#
#
# Elastic Constant Matrix: (Units=GPa)
#
#
# Indices 1 2 3 4 5 6 
#
# 1 80.9366 12.3891 19.6851 0.0000 6.5422 0.0000
# 2 12.3891 189.6238 113.9484 0.0000 -9.5915 0.0000
# 3 19.6851 113.9484 199.1745 0.0000 -12.8186 0.0000
# 4 0.0000 0.0000 0.0000 31.8794 0.0000 10.3253
# 5 6.5422 -9.5915 -12.8186 0.0000 39.5105 0.0000
# 6 0.0000 0.0000 0.0000 10.3253 0.0000 -12.5886
#
#
#
# Elastic Compliance Matrix: (Units=1/GPa)
#
#
# Indices 1 2 3 4 5 6 
#
# 1 0.012921 -0.000165 -0.001351 0.000000 -0.002618 0.000000
# 2 -0.000165 0.008047 -0.004555 0.000000 0.000503 0.000000
# 3 -0.001351 -0.004555 0.007868 0.000000 0.001671 0.000000
# 4 0.000000 0.000000 0.000000 0.024784 0.000000 0.020328
# 5 -0.002618 0.000503 0.001671 0.000000 0.026407 0.000000
# 6 0.000000 0.000000 0.000000 0.020328 0.000000 -0.062763
#
#
# Mechanical properties :
#
#
# Convention : Reuss Voigt Hill
#
# Bulk Modulus (GPa) = 59.90314 84.64225 72.27270
# Shear Modulus (GPa) = 142.97897 33.34106 88.16002
#
# Velocity S-wave (km/s) = 7.80117 3.76715 6.12575
# Velocity P-wave (km/s) = 10.32675 7.41279 8.98863
#
# Compressibility (1/GPa) = 0.01669361
#
# Stress axis : x y z
#
# Youngs Moduli (GPa) = 77.39459 124.26926 127.10043
#
# Poissons Ratio (x) = 0.02045 0.17176
# Poissons Ratio (y) = 0.01274 0.57896
# Poissons Ratio (z) = 0.10459 0.56606
#
# Static dielectric constant tensor:
#      x y z
#    x 2.008840 0.000000 0.041610 
#    y 0.000000 1.825150 0.000000 
#    z 0.041610 0.000000 1.853470 
# 
# From -- ./inp_files/44469.got.cif
#   From: 2010.05.17/outbox.cif.g08.bks.cpg/sg11_23_cif.got.tgz:44469.got - 2010.06.03 12:22:45.
