data_PCOD9166998
_publ_section_title
;
Structure prediction by ZEFSAII (Michael W. Deem and Ramdas Pophale) SiO2 
 PCOD9166998
Probable space group: P 21/M
;
_chemical_formula_sum "Si O2"
_cell_formula_units_Z 20
_cell_length_a 4.704068
_cell_length_b 18.086555
_cell_length_c 9.711469
_cell_angle_alpha 90.000000
_cell_angle_beta 77.113526
_cell_angle_gamma 90.000000
_cell_volume 805.445339
_symmetry_space_group_name_H-M "P 21/M"
_symmetry_group_IT_number 11
_symmetry_cell_setting 'monoclinic'
loop_
_space_group_symop_operation_xyz
x,y,z
-x,1/2+y,-z
-x,-y,-z
x,1/2-y,z
loop_
_atom_site_type_symbol
_atom_site_label
_atom_site_fract_x
_atom_site_fract_y
_atom_site_fract_z
Si Si1 0.329850 0.664106 0.969602
Si Si2 0.735327 0.526995 0.363226
Si Si3 0.274106 0.170802 0.495773
Si Si4 0.118487 0.632989 0.683658
Si Si5 0.809173 0.928549 0.067416
O O1 0.399540 0.750000 0.989281
O O2 0.594009 0.608751 0.979752
O O3 0.047879 0.633408 0.081396
O O4 0.218929 0.654966 0.824320
O O5 0.500000 0.500000 0.500000
O O6 0.866420 0.601014 0.413627
O O7 0.931094 0.454976 0.319079
O O8 0.628832 0.548086 0.222220
O O9 0.212670 0.250000 0.566131
O O10 0.618587 0.156983 0.446116
O O11 0.162190 0.170042 0.350720
O O12 0.000000 0.000000 0.000000
#
# Coordination Sequence:
#
# PCOD9166998 Si02
#       5
#     4   4   4   4   4
#     4  12  26  45  74 110 148 193 245 312 377 435
#     4  10  25  46  73 102 144 193 244 293 365 438
#     4  11  23  40  65  99 140 183 235 299 360 425
#     4  11  23  43  69  99 140 187 240 288 360 437
#     4  12  26  47  75 105 148 191 249 303 369 445
#
# _framework density 24.830985999999999
#
# number of rings (size 3 to 8) (size 9 to 14) (size 15 to 20)
#    0.000    0.800    2.000    4.800    0.000    6.400 
#    0.000    0.000    0.000    0.000    0.000    0.000 
#    0.000    0.000    0.000    0.000    0.000    0.000 
#
# Total GULP energy -111835.910586 kJ/mol
# GULP energy per Si atom -5591.795529 kJ/mol
# Density = 2.477447 g / cm^3
# Si number density = 24.830986 Si / 1000 Ang^3
#
#
#
# Elastic Constant Matrix: (Units=GPa)
#
#
# Indices 1 2 3 4 5 6 
#
# 1 100.5145 28.3961 19.1220 0.0000 12.9572 0.0000
# 2 28.3961 222.7428 47.6366 0.0000 13.9388 0.0000
# 3 19.1220 47.6366 113.6921 0.0000 1.8756 0.0000
# 4 0.0000 0.0000 0.0000 20.5606 0.0000 -1.5108
# 5 12.9572 13.9388 1.8756 0.0000 30.5447 0.0000
# 6 0.0000 0.0000 0.0000 -1.5108 0.0000 24.6524
#
#
#
# Elastic Compliance Matrix: (Units=1/GPa)
#
#
# Indices 1 2 3 4 5 6 
#
# 1 0.010998 -0.000833 -0.001431 0.000000 -0.004197 0.000000
# 2 -0.000833 0.005136 -0.001981 0.000000 -0.001869 0.000000
# 3 -0.001431 -0.001981 0.009852 0.000000 0.000906 0.000000
# 4 0.000000 0.000000 0.000000 0.048857 0.000000 0.002994
# 5 -0.004197 -0.001869 0.000906 0.000000 0.035316 0.000000
# 6 0.000000 0.000000 0.000000 0.002994 0.000000 0.040747
#
#
# Mechanical properties :
#
#
# Convention : Reuss Voigt Hill
#
# Bulk Modulus (GPa) = 57.16238 69.69544 63.42891
# Shear Modulus (GPa) = 30.26103 37.93785 34.09944
#
# Velocity S-wave (km/s) = 3.49475 3.91300 3.70977
# Velocity P-wave (km/s) = 6.27335 6.96738 6.62945
#
# Compressibility (1/GPa) = 0.01749402
#
# Stress axis : x y z
#
# Youngs Moduli (GPa) = 90.92935 194.69078 101.50678
#
# Poissons Ratio (x) = 0.16223 0.14529
# Poissons Ratio (y) = 0.07577 0.20110
# Poissons Ratio (z) = 0.13015 0.38571
#
# Static dielectric constant tensor:
#      x y z
#    x 1.944550 0.000000 -0.038080 
#    y 0.000000 1.979880 0.000000 
#    z -0.038080 0.000000 2.017650 
# 
# From -- ./inp_files/10086.got.cif
#   From: 2010.05.17/outbox.cif.g08.bks.cpg/sg11_6_cif.got.tgz:10086.got - 2010.06.03 12:22:45.
