data_PCOD9166480
_publ_section_title
;
Structure prediction by ZEFSAII (Michael W. Deem and Ramdas Pophale) SiO2 
 PCOD9166480
Probable space group: P 21/M
;
_chemical_formula_sum "Si O2"
_cell_formula_units_Z 20
_cell_length_a 16.567391
_cell_length_b 14.009995
_cell_length_c 8.820165
_cell_angle_alpha 90.000000
_cell_angle_beta 150.308306
_cell_angle_gamma 90.000000
_cell_volume 1014.065124
_symmetry_space_group_name_H-M "P 21/M"
_symmetry_group_IT_number 11
_symmetry_cell_setting 'monoclinic'
loop_
_space_group_symop_operation_xyz
x,y,z
-x,1/2+y,-z
-x,-y,-z
x,1/2-y,z
loop_
_atom_site_type_symbol
_atom_site_label
_atom_site_fract_x
_atom_site_fract_y
_atom_site_fract_z
Si Si1 0.711512 0.863044 0.191487
Si Si2 0.532361 0.361787 0.683597
Si Si3 0.077697 0.001443 0.291957
Si Si4 0.619283 0.361234 0.179212
Si Si5 0.753254 0.970742 0.943003
O O1 0.720455 0.750000 0.183177
O O2 0.840171 0.898818 0.526083
O O3 0.530697 0.887629 0.956440
O O4 0.746441 0.919351 0.094392
O O5 0.537475 0.250000 0.650202
O O6 0.362521 0.409486 0.356990
O O7 0.671353 0.425043 0.829008
O O8 0.559712 0.369813 0.908286
O O9 0.224095 0.925862 0.540522
O O10 0.000000 0.000000 0.000000
O O11 0.934328 0.977473 0.175494
O O12 0.658493 0.250000 0.269745
#
# Coordination Sequence:
#
# PCOD9166480 Si02
#       5
#     4   4   4   4   4
#     4  11  24  43  67  95 129 170 216 263 319 384
#     4  10  22  41  67  93 126 167 213 261 320 390
#     4  12  26  42  64  95 133 170 212 269 319 380
#     4  10  23  43  67  91 124 171 214 258 320 386
#     4  11  24  41  65  99 127 167 210 266 330 370
#
# _framework density 19.7226
#
# number of rings (size 3 to 8) (size 9 to 14) (size 15 to 20)
#    0.000    1.200    2.000    3.000    5.600    3.200 
#    0.000    0.000    0.000    0.000    0.000    0.000 
#    0.000    0.000    0.000    0.000    0.000    0.000 
#
# Total GULP energy -111903.395933 kJ/mol
# GULP energy per Si atom -5595.169797 kJ/mol
# Density = 1.967771 g / cm^3
# Si number density = 19.722600 Si / 1000 Ang^3
#
#
#
# Elastic Constant Matrix: (Units=GPa)
#
#
# Indices 1 2 3 4 5 6 
#
# 1 120.8609 59.2431 41.7900 0.0000 34.6449 0.0000
# 2 59.2431 130.7246 42.6589 0.0000 21.8355 0.0000
# 3 41.7900 42.6589 88.4310 0.0000 18.2205 0.0000
# 4 0.0000 0.0000 0.0000 15.6272 0.0000 -5.1858
# 5 34.6449 21.8355 18.2205 0.0000 31.9529 0.0000
# 6 0.0000 0.0000 0.0000 -5.1858 0.0000 25.0462
#
#
#
# Elastic Compliance Matrix: (Units=1/GPa)
#
#
# Indices 1 2 3 4 5 6 
#
# 1 0.014275 -0.003707 -0.002595 0.000000 -0.011464 0.000000
# 2 -0.003707 0.010568 -0.003044 0.000000 -0.001466 0.000000
# 3 -0.002595 -0.003044 0.014725 0.000000 -0.003502 0.000000
# 4 0.000000 0.000000 0.000000 0.068712 0.000000 0.014227
# 5 -0.011464 -0.001466 -0.003502 0.000000 0.046725 0.000000
# 6 0.000000 0.000000 0.000000 0.014227 0.000000 0.042872
#
#
# Mechanical properties :
#
#
# Convention : Reuss Voigt Hill
#
# Bulk Modulus (GPa) = 47.90561 69.71119 58.80840
# Shear Modulus (GPa) = 22.36853 27.61355 24.99104
#
# Velocity S-wave (km/s) = 3.37138 3.74585 3.56353
# Velocity P-wave (km/s) = 6.28469 7.35738 6.84209
#
# Compressibility (1/GPa) = 0.02087438
#
# Stress axis : x y z
#
# Youngs Moduli (GPa) = 70.05344 94.62486 67.91290
#
# Poissons Ratio (x) = 0.35081 0.17626
# Poissons Ratio (y) = 0.25972 0.20672
# Poissons Ratio (z) = 0.18181 0.28802
#
# Static dielectric constant tensor:
#      x y z
#    x 1.677670 0.000000 -0.018530 
#    y 0.000000 1.689990 0.000000 
#    z -0.018530 0.000000 1.667970 
# 
# From -- ./inp_files/24855.got.cif
#   From: 2010.05.17/outbox.cif.g08.bks.cpg/sg11_13_cif.got.tgz:24855.got - 2010.06.03 12:22:45.
