data_PCOD9166499
_publ_section_title
;
Structure prediction by ZEFSAII (Michael W. Deem and Ramdas Pophale) SiO2 
 PCOD9166499
Probable space group: P 21/M
;
_chemical_formula_sum "Si O2"
_cell_formula_units_Z 24
_cell_length_a 14.077659
_cell_length_b 10.696738
_cell_length_c 13.310637
_cell_angle_alpha 90.000000
_cell_angle_beta 42.269115
_cell_angle_gamma 90.000000
_cell_volume 1348.175288
_symmetry_space_group_name_H-M "P 21/M"
_symmetry_group_IT_number 11
_symmetry_cell_setting 'monoclinic'
loop_
_space_group_symop_operation_xyz
x,y,z
-x,1/2+y,-z
-x,-y,-z
x,1/2-y,z
loop_
_atom_site_type_symbol
_atom_site_label
_atom_site_fract_x
_atom_site_fract_y
_atom_site_fract_z
Si Si1 0.959527 0.607600 0.400029
Si Si2 0.591561 0.750000 0.189812
Si Si3 0.815491 0.605885 0.115994
Si Si4 0.065422 0.750000 0.652313
Si Si5 0.689429 0.250000 0.694410
Si Si6 0.763441 0.505236 0.718501
Si Si7 0.731053 0.750000 0.861180
Si Si8 0.063348 0.993024 0.786443
O O1 0.974549 0.750000 0.421052
O O2 0.825735 0.550486 0.562778
O O3 0.947040 0.597521 0.290606
O O4 0.098140 0.532723 0.325608
O O5 0.659567 0.631566 0.194775
O O6 0.426355 0.750000 0.302886
O O7 0.657078 0.750000 0.026840
O O8 0.871602 0.750000 0.083432
O O9 0.830616 0.534097 0.208706
O O10 0.915111 0.536282 0.958049
O O11 0.158742 0.750000 0.479099
O O12 0.098239 0.869917 0.694969
O O13 0.900282 0.750000 0.750846
O O14 0.677503 0.377683 0.767574
O O15 0.696121 0.624159 0.826577
#
# Coordination Sequence:
#
# PCOD9166499 Si02
#       8
#     4   2   4   2   2   4   2   4
#     4  11  19  30  52  88 119 140 178 250 293 331
#     4  10  22  42  58  77 118 159 192 230 296 340
#     4   9  19  36  55  83 105 151 190 229 286 344
#     4  12  18  34  58  86 109 154 175 240 292 325
#     4  12  24  38  57  85 120 152 200 236 274 354
#     4  11  21  33  55  85 115 154 193 227 288 347
#     4  12  20  40  61  80 121 155 189 238 294 347
#     4  11  18  31  59  84 114 136 194 237 286 336
#
# _framework density 17.801839000000001
#
# number of rings (size 3 to 8) (size 9 to 14) (size 15 to 20)
#    0.500    0.667    7.500    1.500    0.000    0.667 
#    0.000    0.833    0.000    1.000    0.000    0.000 
#    0.000    0.000    0.000    0.000    0.000    0.000 
#
# Total GULP energy -133792.997157 kJ/mol
# GULP energy per Si atom -5574.708215 kJ/mol
# Density = 1.776132 g / cm^3
# Si number density = 17.801839 Si / 1000 Ang^3
#
#
#
# Elastic Constant Matrix: (Units=GPa)
#
#
# Indices 1 2 3 4 5 6 
#
# 1 65.9889 18.7528 20.6263 0.0000 18.8721 0.0000
# 2 18.7528 107.9165 11.2711 0.0000 14.3369 0.0000
# 3 20.6263 11.2711 32.2872 0.0000 16.0800 0.0000
# 4 0.0000 0.0000 0.0000 16.3908 0.0000 16.2160
# 5 18.8721 14.3369 16.0800 0.0000 26.5043 0.0000
# 6 0.0000 0.0000 0.0000 16.2160 0.0000 27.9472
#
#
#
# Elastic Compliance Matrix: (Units=1/GPa)
#
#
# Indices 1 2 3 4 5 6 
#
# 1 0.020725 -0.001556 -0.008263 0.000000 -0.008902 0.000000
# 2 -0.001556 0.010130 -0.000523 0.000000 -0.004054 0.000000
# 3 -0.008263 -0.000523 0.047807 0.000000 -0.022838 0.000000
# 4 0.000000 0.000000 0.000000 0.143232 0.000000 -0.083108
# 5 -0.008902 -0.004054 -0.022838 0.000000 0.060117 0.000000
# 6 0.000000 0.000000 0.000000 -0.083108 0.000000 0.084004
#
#
# Mechanical properties :
#
#
# Convention : Reuss Voigt Hill
#
# Bulk Modulus (GPa) = 17.24793 34.16589 25.70691
# Shear Modulus (GPa) = 12.31449 24.53796 18.42622
#
# Velocity S-wave (km/s) = 2.63297 3.71670 3.22075
# Velocity P-wave (km/s) = 4.35354 6.13616 5.32005
#
# Compressibility (1/GPa) = 0.05797798
#
# Stress axis : x y z
#
# Youngs Moduli (GPa) = 48.25098 98.71627 20.91730
#
# Poissons Ratio (x) = 0.15357 0.17285
# Poissons Ratio (y) = 0.07506 0.01094
# Poissons Ratio (z) = 0.39871 0.05165
#
# Static dielectric constant tensor:
#      x y z
#    x 1.599070 0.000000 0.006530 
#    y 0.000000 1.658610 0.000000 
#    z 0.006530 0.000000 1.589250 
# 
# From -- ./inp_files/34707.got.cif
#   From: 2010.05.17/outbox.cif.g08.bks.cpg/sg11_18_cif.got.tgz:34707.got - 2010.06.03 12:22:45.
