data_PCOD9166075
_publ_section_title
;
Structure prediction by ZEFSAII (Michael W. Deem and Ramdas Pophale) SiO2 
 PCOD9166075
Probable space group: P 21/M
;
_chemical_formula_sum "Si O2"
_cell_formula_units_Z 32
_cell_length_a 19.175716
_cell_length_b 8.906217
_cell_length_c 19.350584
_cell_angle_alpha 90.000000
_cell_angle_beta 143.252963
_cell_angle_gamma 90.000000
_cell_volume 1977.177773
_symmetry_space_group_name_H-M "P 21/M"
_symmetry_group_IT_number 11
_symmetry_cell_setting 'monoclinic'
loop_
_space_group_symop_operation_xyz
x,y,z
-x,1/2+y,-z
-x,-y,-z
x,1/2-y,z
loop_
_atom_site_type_symbol
_atom_site_label
_atom_site_fract_x
_atom_site_fract_y
_atom_site_fract_z
Si Si1 0.990445 0.929711 0.567121
Si Si2 0.622317 0.070925 0.759135
Si Si3 0.742049 0.429195 0.707768
Si Si4 0.161261 0.072402 0.430176
Si Si5 0.101657 0.927898 0.791879
Si Si6 0.621252 0.427797 0.471211
Si Si7 0.987048 0.929390 0.913619
Si Si8 0.799987 0.928262 0.002014
O O1 0.993401 0.750000 0.563769
O O2 0.873006 0.966553 0.517562
O O3 0.092107 0.971077 0.703214
O O4 0.000000 0.000000 0.500000
O O5 0.627133 0.250000 0.771947
O O6 0.692120 0.033927 0.743705
O O7 0.490925 0.016161 0.644197
O O8 0.686086 0.990671 0.873275
O O9 0.767356 0.250000 0.726026
O O10 0.649336 0.461177 0.573894
O O11 0.859784 0.519952 0.787284
O O12 0.188918 0.250000 0.447974
O O13 0.034509 0.051314 0.293350
O O14 0.263712 0.976923 0.479292
O O15 0.126216 0.750000 0.816789
O O16 0.185773 0.020500 0.907423
O O17 0.601799 0.250000 0.449009
O O18 0.996557 0.750000 0.923748
O O19 0.000000 0.000000 0.000000
O O20 0.090704 0.996125 0.950274
O O21 0.805981 0.750000 0.000514
#
# Coordination Sequence:
#
# PCOD9166075 Si02
#       8
#     4   4   4   4   4   4   4   4
#     4   8  16  30  51  80 113 140 167 201 243 301
#     4  11  23  38  54  68  95 138 177 219 267 312
#     4  10  22  38  54  74  97 129 174 220 269 314
#     4   8  17  33  51  75 105 138 171 200 247 305
#     4   8  17  33  52  76 106 138 167 201 246 301
#     4  11  22  35  52  75 101 129 174 225 259 303
#     4  12  23  35  53  73  98 131 168 214 265 314
#     4  12  23  35  51  74 101 131 171 217 259 307
#
# _framework density 16.184685999999999
#
# number of rings (size 3 to 8) (size 9 to 14) (size 15 to 20)
#    0.750    1.250    1.250    4.125    0.000    5.000 
#    0.000    0.000    0.000    0.000    0.000    0.875 
#    0.000    0.000    0.000    0.000    0.000    0.000 
#
# Total GULP energy -178382.558523 kJ/mol
# GULP energy per Si atom -5574.454954 kJ/mol
# Density = 1.614785 g / cm^3
# Si number density = 16.184686 Si / 1000 Ang^3
#
#
#
# Elastic Constant Matrix: (Units=GPa)
#
#
# Indices 1 2 3 4 5 6 
#
# 1 44.4313 21.9378 31.2720 0.0000 -23.8075 0.0000
# 2 21.9378 70.3734 50.9699 0.0000 -11.1252 0.0000
# 3 31.2720 50.9699 106.1542 0.0000 -16.4144 0.0000
# 4 0.0000 0.0000 0.0000 25.2735 0.0000 -0.6252
# 5 -23.8075 -11.1252 -16.4144 0.0000 24.7782 0.0000
# 6 0.0000 0.0000 0.0000 -0.6252 0.0000 25.5383
#
#
#
# Elastic Compliance Matrix: (Units=1/GPa)
#
#
# Indices 1 2 3 4 5 6 
#
# 1 0.053606 -0.004904 -0.006477 0.000000 0.045014 0.000000
# 2 -0.004904 0.022462 -0.009481 0.000000 -0.000907 0.000000
# 3 -0.006477 -0.009481 0.015887 0.000000 0.000045 0.000000
# 4 0.000000 0.000000 0.000000 0.039591 0.000000 0.000969
# 5 0.045014 -0.000907 0.000045 0.000000 0.083231 0.000000
# 6 0.000000 0.000000 0.000000 0.000969 0.000000 0.039181
#
#
# Mechanical properties :
#
#
# Convention : Reuss Voigt Hill
#
# Bulk Modulus (GPa) = 19.90736 47.70202 33.80469
# Shear Modulus (GPa) = 16.00386 22.90329 19.45358
#
# Velocity S-wave (km/s) = 3.14797 3.76589 3.47071
# Velocity P-wave (km/s) = 5.05369 6.96037 6.08221
#
# Compressibility (1/GPa) = 0.05023268
#
# Stress axis : x y z
#
# Youngs Moduli (GPa) = 18.65461 44.51996 62.94303
#
# Poissons Ratio (x) = 0.21831 0.40768
# Poissons Ratio (y) = 0.09148 0.59675
# Poissons Ratio (z) = 0.12083 0.42208
#
# Static dielectric constant tensor:
#      x y z
#    x 1.544860 0.000000 -0.024160 
#    y 0.000000 1.535360 0.000000 
#    z -0.024160 0.000000 1.554980 
# 
# From -- ./inp_files/66471.got.cif
#   From: 2010.05.17/outbox.cif.g08.bks.cpg/sg11_34_cif.got.tgz:66471.got - 2010.06.03 12:22:45.
