data_PCOD9166372
_publ_section_title
;
Structure prediction by ZEFSAII (Michael W. Deem and Ramdas Pophale) SiO2 
 PCOD9166372
Probable space group: P 21/M
;
_chemical_formula_sum "Si O2"
_cell_formula_units_Z 24
_cell_length_a 5.136249
_cell_length_b 23.662799
_cell_length_c 9.695638
_cell_angle_alpha 90.000000
_cell_angle_beta 106.481906
_cell_angle_gamma 90.000000
_cell_volume 1129.967996
_symmetry_space_group_name_H-M "P 21/M"
_symmetry_group_IT_number 11
_symmetry_cell_setting 'monoclinic'
loop_
_space_group_symop_operation_xyz
x,y,z
-x,1/2+y,-z
-x,-y,-z
x,1/2-y,z
loop_
_atom_site_type_symbol
_atom_site_label
_atom_site_fract_x
_atom_site_fract_y
_atom_site_fract_z
Si Si1 0.081591 0.437638 0.461344
Si Si2 0.023381 0.374033 0.728000
Si Si3 0.014933 0.250000 0.768673
Si Si4 0.626633 0.250000 0.962624
Si Si5 0.505925 0.935308 0.724325
Si Si6 0.516048 0.632009 0.972088
Si Si7 0.766518 0.460875 0.896015
O O1 0.805005 0.418639 0.344973
O O2 0.000000 0.500000 0.500000
O O3 0.130449 0.398932 0.601402
O O4 0.330502 0.438935 0.393418
O O5 0.916888 0.309919 0.690463
O O6 0.840935 0.421900 0.775065
O O7 0.253219 0.366285 0.877683
O O8 0.884080 0.250000 0.901278
O O9 0.344639 0.250000 0.829933
O O10 0.620868 0.192834 0.049006
O O11 0.630355 0.888334 0.844047
O O12 0.540425 0.995371 0.807279
O O13 0.324093 0.582450 0.000182
O O14 0.000000 0.500000 0.000000
#
# Coordination Sequence:
#
# PCOD9166372 Si02
#       7
#     4   4   2   2   4   4   4
#     4  12  26  42  61  94 135 170 209 260 327 390
#     4  11  24  41  69  92 130 171 222 268 321 386
#     4  10  22  42  64  98 122 168 223 273 316 374
#     4  10  22  40  68  94 126 164 219 277 316 378
#     4  12  26  41  62  97 135 168 207 262 331 392
#     4  11  24  42  67  96 129 169 224 268 328 385
#     4  12  22  38  67 100 132 167 214 275 328 390
#
# _framework density 21.239536999999999
#
# number of rings (size 3 to 8) (size 9 to 14) (size 15 to 20)
#    0.000    0.667    5.000    3.000    2.333    0.000 
#    0.000    1.667    0.000    0.000    0.000    0.000 
#    0.000    0.000    0.000    0.000    0.000    0.000 
#
# Total GULP energy -134122.604970 kJ/mol
# GULP energy per Si atom -5588.441874 kJ/mol
# Density = 2.119120 g / cm^3
# Si number density = 21.239537 Si / 1000 Ang^3
#
#
#
# Elastic Constant Matrix: (Units=GPa)
#
#
# Indices 1 2 3 4 5 6 
#
# 1 33.8838 -8.9722 -7.3117 0.0000 -6.7666 0.0000
# 2 -8.9722 133.7498 24.7637 0.0000 -26.7436 0.0000
# 3 -7.3117 24.7637 70.3280 0.0000 -14.0870 0.0000
# 4 0.0000 0.0000 0.0000 7.8704 0.0000 -8.3118
# 5 -6.7666 -26.7436 -14.0870 0.0000 39.0090 0.0000
# 6 0.0000 0.0000 0.0000 -8.3118 0.0000 26.8613
#
#
#
# Elastic Compliance Matrix: (Units=1/GPa)
#
#
# Indices 1 2 3 4 5 6 
#
# 1 0.033223 0.003370 0.004187 0.000000 0.009585 0.000000
# 2 0.003370 0.009277 -0.001644 0.000000 0.006351 0.000000
# 3 0.004187 -0.001644 0.016335 0.000000 0.005498 0.000000
# 4 0.000000 0.000000 0.000000 0.188735 0.000000 0.058401
# 5 0.009585 0.006351 0.005498 0.000000 0.033637 0.000000
# 6 0.000000 0.000000 0.000000 0.058401 0.000000 0.055300
#
#
# Mechanical properties :
#
#
# Convention : Reuss Voigt Hill
#
# Bulk Modulus (GPa) = 14.15210 28.32458 21.23834
# Shear Modulus (GPa) = 14.35818 30.04692 22.20255
#
# Velocity S-wave (km/s) = 2.60284 3.76529 3.23668
# Velocity P-wave (km/s) = 3.96366 5.68049 4.89788
#
# Compressibility (1/GPa) = 0.07066090
#
# Stress axis : x y z
#
# Youngs Moduli (GPa) = 30.09987 107.79342 61.21962
#
# Poissons Ratio (x) = -0.36326 -0.25635
# Poissons Ratio (y) = -0.10144 0.10065
# Poissons Ratio (z) = -0.12604 0.17723
#
# Static dielectric constant tensor:
#      x y z
#    x 1.840300 0.000000 0.036460 
#    y 0.000000 1.903210 0.000000 
#    z 0.036460 0.000000 1.791080 
# 
# From -- ./inp_files/5339.got.cif
#   From: 2010.05.17/outbox.cif.g08.bks.cpg/sg11_3_cif.got.tgz:5339.got - 2010.06.03 12:22:45.
