data_PCOD9166229
_publ_section_title
;
Structure prediction by ZEFSAII (Michael W. Deem and Ramdas Pophale) SiO2 
 PCOD9166229
Probable space group: P 21/M
;
_chemical_formula_sum "Si O2"
_cell_formula_units_Z 28
_cell_length_a 8.115320
_cell_length_b 8.775684
_cell_length_c 28.140066
_cell_angle_alpha 90.000000
_cell_angle_beta 135.868568
_cell_angle_gamma 90.000000
_cell_volume 1395.443576
_symmetry_space_group_name_H-M "P 21/M"
_symmetry_group_IT_number 11
_symmetry_cell_setting 'monoclinic'
loop_
_space_group_symop_operation_xyz
x,y,z
-x,1/2+y,-z
-x,-y,-z
x,1/2-y,z
loop_
_atom_site_type_symbol
_atom_site_label
_atom_site_fract_x
_atom_site_fract_y
_atom_site_fract_z
Si Si1 0.186548 0.932068 0.575753
Si Si2 0.928564 0.932705 0.344542
Si Si3 0.465169 0.428055 0.209273
Si Si4 0.760753 0.431571 0.928874
Si Si5 0.593211 0.067678 0.068579
Si Si6 0.690493 0.430254 0.651079
Si Si7 0.903091 0.573576 0.783861
O O1 0.177433 0.750000 0.574605
O O2 0.118608 0.994088 0.613915
O O3 0.447602 0.984529 0.613164
O O4 0.000000 0.000000 0.500000
O O5 0.922246 0.750000 0.347521
O O6 0.174442 0.975696 0.369443
O O7 0.713517 0.987770 0.266591
O O8 0.502093 0.250000 0.205554
O O9 0.301208 0.502882 0.135491
O O10 0.326630 0.438020 0.230403
O O11 0.776013 0.250000 0.930865
O O12 0.552406 0.488256 0.919913
O O13 0.000000 0.500000 0.000000
O O14 0.555723 0.250000 0.061163
O O15 0.868711 0.039026 0.136750
O O16 0.500000 0.000000 0.000000
O O17 0.643700 0.250000 0.639682
O O18 0.867775 0.467890 0.731224
O O19 0.925494 0.750000 0.772554
#
# Coordination Sequence:
#
# PCOD9166229 Si02
#       7
#     4   4   4   4   4   4   4
#     4  12  26  46  72 101 137 179 222 276 336 399
#     4  11  24  43  68 102 138 177 224 274 331 397
#     4  11  22  39  64  95 129 170 217 270 331 393
#     4  12  25  41  60  86 121 165 218 274 335 398
#     4  11  23  40  61  88 124 165 214 270 332 400
#     4  11  24  42  68 100 136 175 222 275 330 396
#     4  10  22  39  62  92 127 169 215 267 328 393
#
# _framework density 20.065303
#
# number of rings (size 3 to 8) (size 9 to 14) (size 15 to 20)
#    0.000    0.857    1.429    6.000    0.000    8.000 
#    0.000    0.000    0.000    0.000    0.000    0.000 
#    0.000    0.000    0.000    0.000    0.000    0.000 
#
# Total GULP energy -156656.037714 kJ/mol
# GULP energy per Si atom -5594.858490 kJ/mol
# Density = 2.001963 g / cm^3
# Si number density = 20.065303 Si / 1000 Ang^3
#
#
#
# Elastic Constant Matrix: (Units=GPa)
#
#
# Indices 1 2 3 4 5 6 
#
# 1 125.6033 71.0039 47.8418 0.0000 2.8791 0.0000
# 2 71.0039 127.1231 53.1059 0.0000 -1.1848 0.0000
# 3 47.8418 53.1059 115.1744 0.0000 -3.3279 0.0000
# 4 0.0000 0.0000 0.0000 40.0384 0.0000 -0.3517
# 5 2.8791 -1.1848 -3.3279 0.0000 22.4723 0.0000
# 6 0.0000 0.0000 0.0000 -0.3517 0.0000 26.8888
#
#
#
# Elastic Compliance Matrix: (Units=1/GPa)
#
#
# Indices 1 2 3 4 5 6 
#
# 1 0.012249 -0.005833 -0.002463 0.000000 -0.002242 0.000000
# 2 -0.005833 0.012522 -0.003324 0.000000 0.000915 0.000000
# 3 -0.002463 -0.003324 0.011291 0.000000 0.001812 0.000000
# 4 0.000000 0.000000 0.000000 0.024979 0.000000 0.000327
# 5 -0.002242 0.000915 0.001812 0.000000 0.045103 0.000000
# 6 0.000000 0.000000 0.000000 0.000327 0.000000 0.037195
#
#
# Mechanical properties :
#
#
# Convention : Reuss Voigt Hill
#
# Bulk Modulus (GPa) = 78.00229 79.08935 78.54582
# Shear Modulus (GPa) = 29.26504 30.94317 30.10411
#
# Velocity S-wave (km/s) = 3.82316 3.93125 3.87758
# Velocity P-wave (km/s) = 7.64509 7.75292 7.69919
#
# Compressibility (1/GPa) = 0.01282014
#
# Stress axis : x y z
#
# Youngs Moduli (GPa) = 81.64087 79.86053 88.56883
#
# Poissons Ratio (x) = 0.46586 0.21814
# Poissons Ratio (y) = 0.47625 0.29441
# Poissons Ratio (z) = 0.20108 0.26547
#
# Static dielectric constant tensor:
#      x y z
#    x 1.701190 0.000000 0.013050 
#    y 0.000000 2.744960 0.000000 
#    z 0.013050 0.000000 1.806030 
# 
# From -- ./inp_files/72765.got.cif
#   From: 2010.05.17/outbox.cif.g08.bks.cpg/sg11_37_cif.got.tgz:72765.got - 2010.06.03 12:22:45.
