data_PCOD9166549
_publ_section_title
;
Structure prediction by ZEFSAII (Michael W. Deem and Ramdas Pophale) SiO2 
 PCOD9166549
Probable space group: P 21/M
;
_chemical_formula_sum "Si O2"
_cell_formula_units_Z 28
_cell_length_a 5.139115
_cell_length_b 18.176147
_cell_length_c 14.786750
_cell_angle_alpha 90.000000
_cell_angle_beta 118.277897
_cell_angle_gamma 90.000000
_cell_volume 1216.385547
_symmetry_space_group_name_H-M "P 21/M"
_symmetry_group_IT_number 11
_symmetry_cell_setting 'monoclinic'
loop_
_space_group_symop_operation_xyz
x,y,z
-x,1/2+y,-z
-x,-y,-z
x,1/2-y,z
loop_
_atom_site_type_symbol
_atom_site_label
_atom_site_fract_x
_atom_site_fract_y
_atom_site_fract_z
Si Si1 0.634888 0.594949 0.829845
Si Si2 0.469868 0.336323 0.865362
Si Si3 0.212971 0.953612 0.426326
Si Si4 0.219805 0.662388 0.268506
Si Si5 0.863078 0.094383 0.386004
Si Si6 0.965754 0.250000 0.331176
Si Si7 0.733625 0.750000 0.812389
Si Si8 0.735318 0.062589 0.059863
O O1 0.474551 0.596415 0.706305
O O2 0.787062 0.674115 0.871087
O O3 0.371962 0.588364 0.858658
O O4 0.917613 0.541749 0.882775
O O5 0.528838 0.250000 0.885160
O O6 0.564899 0.356300 0.779015
O O7 0.119734 0.348267 0.818683
O O8 0.655791 0.379401 0.969425
O O9 0.267501 0.892909 0.359294
O O10 0.113505 0.914657 0.502699
O O11 0.500000 0.000000 0.500000
O O12 0.986736 0.018705 0.363701
O O13 0.254686 0.750000 0.297151
O O14 0.027159 0.170689 0.386965
O O15 0.614027 0.250000 0.264094
O O16 0.099462 0.250000 0.254207
O O17 0.500000 0.000000 0.000000
#
# Coordination Sequence:
#
# PCOD9166549 Si02
#       8
#     4   4   4   4   4   2   2   4
#     4  11  25  44  72  98 148 180 227 285 353 422
#     4  10  24  47  73 100 139 183 242 296 342 409
#     4  11  27  44  73 108 140 188 240 294 364 416
#     4  10  24  48  75 101 137 191 238 296 353 414
#     4  10  26  46  68 108 142 191 230 292 358 430
#     4  10  22  44  68  98 141 179 233 277 346 428
#     4  10  22  42  68 102 125 187 229 269 348 420
#     4  12  27  43  69 110 137 187 232 287 360 420
#
# _framework density 23.019017999999999
#
# number of rings (size 3 to 8) (size 9 to 14) (size 15 to 20)
#    0.000    1.429    0.000    3.000   15.000    0.000 
#    1.286    0.000    0.000    0.000    0.000    0.000 
#    0.000    0.000    0.000    0.000    0.000    0.000 
#
# Total GULP energy -156553.361913 kJ/mol
# GULP energy per Si atom -5591.191497 kJ/mol
# Density = 2.296663 g / cm^3
# Si number density = 23.019018 Si / 1000 Ang^3
#
#
#
# Elastic Constant Matrix: (Units=GPa)
#
#
# Indices 1 2 3 4 5 6 
#
# 1 77.9645 7.0075 1.8311 0.0000 -8.0748 0.0000
# 2 7.0075 63.6185 37.7915 0.0000 1.4708 0.0000
# 3 1.8311 37.7915 66.2031 0.0000 0.1116 0.0000
# 4 0.0000 0.0000 0.0000 39.3918 0.0000 -0.1748
# 5 -8.0748 1.4708 0.1116 0.0000 38.2488 0.0000
# 6 0.0000 0.0000 0.0000 -0.1748 0.0000 18.4484
#
#
#
# Elastic Compliance Matrix: (Units=1/GPa)
#
#
# Indices 1 2 3 4 5 6 
#
# 1 0.013285 -0.001980 0.000758 0.000000 0.002878 0.000000
# 2 -0.001980 0.024108 -0.013705 0.000000 -0.001305 0.000000
# 3 0.000758 -0.013705 0.022906 0.000000 0.000620 0.000000
# 4 0.000000 0.000000 0.000000 0.025387 0.000000 0.000240
# 5 0.002878 -0.001305 0.000620 0.000000 0.026801 0.000000
# 6 0.000000 0.000000 0.000000 0.000240 0.000000 0.054208
#
#
# Mechanical properties :
#
#
# Convention : Reuss Voigt Hill
#
# Bulk Modulus (GPa) = 32.84602 33.44958 33.14780
# Shear Modulus (GPa) = 24.18999 29.96153 27.07576
#
# Velocity S-wave (km/s) = 3.24523 3.61168 3.43335
# Velocity P-wave (km/s) = 5.32373 5.65289 5.49078
#
# Compressibility (1/GPa) = 0.03044509
#
# Stress axis : x y z
#
# Youngs Moduli (GPa) = 75.27480 41.47967 43.65593
#
# Poissons Ratio (x) = 0.08214 -0.03309
# Poissons Ratio (y) = 0.14906 0.59830
# Poissons Ratio (z) = -0.05706 0.56848
#
# Static dielectric constant tensor:
#      x y z
#    x 1.968040 0.000000 -0.026630 
#    y 0.000000 1.950220 0.000000 
#    z -0.026630 0.000000 1.873230 
# 
# From -- ./inp_files/46101.got.cif
#   From: 2010.05.17/outbox.cif.g08.bks.cpg/sg11_24_cif.got.tgz:46101.got - 2010.06.03 12:22:45.
