data_PCOD9166252
_publ_section_title
;
Structure prediction by ZEFSAII (Michael W. Deem and Ramdas Pophale) SiO2 
 PCOD9166252
Probable space group: P 21/M
;
_chemical_formula_sum "Si O2"
_cell_formula_units_Z 26
_cell_length_a 13.960581
_cell_length_b 9.218740
_cell_length_c 15.211134
_cell_angle_alpha 90.000000
_cell_angle_beta 38.455120
_cell_angle_gamma 90.000000
_cell_volume 1217.469819
_symmetry_space_group_name_H-M "P 21/M"
_symmetry_group_IT_number 11
_symmetry_cell_setting 'monoclinic'
loop_
_space_group_symop_operation_xyz
x,y,z
-x,1/2+y,-z
-x,-y,-z
x,1/2-y,z
loop_
_atom_site_type_symbol
_atom_site_label
_atom_site_fract_x
_atom_site_fract_y
_atom_site_fract_z
Si Si1 0.505623 0.084850 0.406184
Si Si2 0.591424 0.498407 0.815326
Si Si3 0.689694 0.080377 0.105261
Si Si4 0.579621 0.750000 0.948123
Si Si5 0.006514 0.076061 0.091003
Si Si6 0.099457 0.920485 0.502419
Si Si7 0.149458 0.082103 0.641836
O O1 0.550027 0.250000 0.393531
O O2 0.622074 0.032109 0.248176
O O3 0.332462 0.084645 0.493779
O O4 0.500000 0.000000 0.500000
O O5 0.449840 0.569005 0.862661
O O6 0.657618 0.622000 0.831122
O O7 0.723218 0.440242 0.656136
O O8 0.515063 0.373655 0.927701
O O9 0.738361 0.250000 0.075082
O O10 0.831050 0.975164 0.983394
O O11 0.993808 0.250000 0.093621
O O12 0.882289 0.005791 0.245844
O O13 0.000000 0.000000 0.000000
O O14 0.065647 0.750000 0.533612
O O15 0.075082 0.000231 0.613066
O O16 0.000000 0.000000 0.500000
O O17 0.097511 0.250000 0.687431
#
# Coordination Sequence:
#
# PCOD9166252 Si02
#       7
#     4   4   4   2   4   4   4
#     4  10  22  39  66 100 130 173 220 274 341 406
#     4  11  23  46  69 102 136 178 231 283 340 411
#     4  11  23  43  72  98 137 181 225 283 343 406
#     4  10  24  40  70  98 138 178 226 288 342 404
#     4  12  27  47  70 103 142 184 234 290 350 416
#     4  12  27  46  71 101 141 187 235 285 345 415
#     4  11  24  46  72 100 140 185 232 286 348 415
#
# _framework density 21.355767
#
# number of rings (size 3 to 8) (size 9 to 14) (size 15 to 20)
#    0.000    0.923    3.077    3.231    3.231    6.769 
#    2.769    0.000    0.000    0.000    0.000    0.000 
#    0.000    0.000    0.000    0.000    0.000    0.000 
#
# Total GULP energy -144853.390858 kJ/mol
# GULP energy per Si atom -5571.284264 kJ/mol
# Density = 2.130716 g / cm^3
# Si number density = 21.355767 Si / 1000 Ang^3
#
#
#
# Elastic Constant Matrix: (Units=GPa)
#
#
# Indices 1 2 3 4 5 6 
#
# 1 54.7229 32.0914 -3.5177 0.0000 5.1652 0.0000
# 2 32.0914 162.3586 34.3326 0.0000 22.6766 0.0000
# 3 -3.5177 34.3326 74.9974 0.0000 10.1758 0.0000
# 4 0.0000 0.0000 0.0000 34.2533 0.0000 4.2914
# 5 5.1652 22.6766 10.1758 0.0000 36.1496 0.0000
# 6 0.0000 0.0000 0.0000 4.2914 0.0000 34.1859
#
#
#
# Elastic Compliance Matrix: (Units=1/GPa)
#
#
# Indices 1 2 3 4 5 6 
#
# 1 0.021393 -0.004795 0.003333 0.000000 -0.000987 0.000000
# 2 -0.004795 0.008358 -0.003569 0.000000 -0.003553 0.000000
# 3 0.003333 -0.003569 0.015476 0.000000 -0.002594 0.000000
# 4 0.000000 0.000000 0.000000 0.029661 0.000000 -0.003723
# 5 -0.000987 -0.003553 -0.002594 0.000000 0.030763 0.000000
# 6 0.000000 0.000000 0.000000 -0.003723 0.000000 0.029719
#
#
# Mechanical properties :
#
#
# Convention : Reuss Voigt Hill
#
# Bulk Modulus (GPa) = 28.43847 46.43239 37.43543
# Shear Modulus (GPa) = 31.81570 36.19594 34.00582
#
# Velocity S-wave (km/s) = 3.86397 4.12139 3.99475
# Velocity P-wave (km/s) = 5.76650 6.66613 6.23257
#
# Compressibility (1/GPa) = 0.03516364
#
# Stress axis : x y z
#
# Youngs Moduli (GPa) = 46.74319 119.64518 64.61679
#
# Poissons Ratio (x) = 0.57376 -0.21534
# Poissons Ratio (y) = 0.22416 0.23062
# Poissons Ratio (z) = -0.15578 0.42701
#
# Static dielectric constant tensor:
#      x y z
#    x 1.828000 0.000000 -0.014490 
#    y 0.000000 1.725620 0.000000 
#    z -0.014490 0.000000 1.768150 
# 
# From -- ./inp_files/51885.got.cif
#   From: 2010.05.17/outbox.cif.g08.bks.cpg/sg11_26_cif.got.tgz:51885.got - 2010.06.03 12:22:45.
