data_PCOD9166338
_publ_section_title
;
Structure prediction by ZEFSAII (Michael W. Deem and Ramdas Pophale) SiO2 
 PCOD9166338
Probable space group: P 21/M
;
_chemical_formula_sum "Si O2"
_cell_formula_units_Z 22
_cell_length_a 13.419154
_cell_length_b 10.275882
_cell_length_c 23.150073
_cell_angle_alpha 90.000000
_cell_angle_beta 158.808759
_cell_angle_gamma 90.000000
_cell_volume 1153.940279
_symmetry_space_group_name_H-M "P 21/M"
_symmetry_group_IT_number 11
_symmetry_cell_setting 'monoclinic'
loop_
_space_group_symop_operation_xyz
x,y,z
-x,1/2+y,-z
-x,-y,-z
x,1/2-y,z
loop_
_atom_site_type_symbol
_atom_site_label
_atom_site_fract_x
_atom_site_fract_y
_atom_site_fract_z
Si Si1 0.136452 0.750000 0.316130
Si Si2 0.712591 0.013578 0.909860
Si Si3 0.964899 0.750000 0.098173
Si Si4 0.885624 0.596447 0.388504
Si Si5 0.416219 0.250000 0.534707
Si Si6 0.301385 0.106835 0.218421
Si Si7 0.793263 0.029748 0.555490
O O1 0.440133 0.750000 0.450664
O O2 0.106043 0.622077 0.338675
O O3 0.939323 0.750000 0.153839
O O4 0.440256 0.068052 0.791784
O O5 0.648820 0.990910 0.807540
O O6 0.979328 0.103717 0.057678
O O7 0.822669 0.876583 0.994477
O O8 0.302040 0.750000 0.272791
O O9 0.930262 0.750000 0.425772
O O10 0.000000 0.500000 0.500000
O O11 0.033364 0.560746 0.408291
O O12 0.234962 0.378000 0.446102
O O13 0.387610 0.250000 0.245431
O O14 0.481003 0.070984 0.370514
#
# Coordination Sequence:
#
# PCOD9166338 Si02
#       7
#     2   4   2   4   2   4   4
#     4  10  22  43  70  95 133 168 228 281 322 366
#     4  11  23  38  61  91 134 172 212 266 324 394
#     4  10  22  40  64  92 129 166 220 270 327 374
#     4  12  27  43  65 100 140 174 214 266 337 401
#     4  10  24  39  66 103 126 168 224 271 327 378
#     4  11  20  35  62  92 125 169 217 262 326 380
#     4  12  22  42  69  99 130 171 218 277 324 393
#
# _framework density 19.065111999999999
#
# number of rings (size 3 to 8) (size 9 to 14) (size 15 to 20)
#    0.545    0.364    6.364    1.091    2.545    0.000 
#    0.000    0.909    2.000    0.000    0.000    0.000 
#    0.000    0.000    0.000    0.000    0.000    0.000 
#
# Total GULP energy -122782.085214 kJ/mol
# GULP energy per Si atom -5581.003873 kJ/mol
# Density = 1.902172 g / cm^3
# Si number density = 19.065112 Si / 1000 Ang^3
#
#
#
# Elastic Constant Matrix: (Units=GPa)
#
#
# Indices 1 2 3 4 5 6 
#
# 1 79.4633 45.4064 13.5648 0.0000 -1.2700 0.0000
# 2 45.4064 145.6768 16.8502 0.0000 7.4031 0.0000
# 3 13.5648 16.8502 46.1355 0.0000 7.2030 0.0000
# 4 0.0000 0.0000 0.0000 5.5548 0.0000 -3.9032
# 5 -1.2700 7.4031 7.2030 0.0000 36.1799 0.0000
# 6 0.0000 0.0000 0.0000 -3.9032 0.0000 25.8630
#
#
#
# Elastic Compliance Matrix: (Units=1/GPa)
#
#
# Indices 1 2 3 4 5 6 
#
# 1 0.015849 -0.004669 -0.003293 0.000000 0.002167 0.000000
# 2 -0.004669 0.008576 -0.001507 0.000000 -0.001619 0.000000
# 3 -0.003293 -0.001507 0.023907 0.000000 -0.004567 0.000000
# 4 0.000000 0.000000 0.000000 0.201379 0.000000 0.030392
# 5 0.002167 -0.001619 -0.004567 0.000000 0.028956 0.000000
# 6 0.000000 0.000000 0.000000 0.030392 0.000000 0.043252
#
#
# Mechanical properties :
#
#
# Convention : Reuss Voigt Hill
#
# Bulk Modulus (GPa) = 34.02019 46.99094 40.50557
# Shear Modulus (GPa) = 14.25897 26.54982 20.40439
#
# Velocity S-wave (km/s) = 2.73776 3.73579 3.27501
# Velocity P-wave (km/s) = 5.27984 6.58098 5.96599
#
# Compressibility (1/GPa) = 0.02939431
#
# Stress axis : x y z
#
# Youngs Moduli (GPa) = 63.09404 116.59797 41.82906
#
# Poissons Ratio (x) = 0.54444 0.13774
# Poissons Ratio (y) = 0.29461 0.06303
# Poissons Ratio (z) = 0.20777 0.17569
#
# Static dielectric constant tensor:
#      x y z
#    x 1.642830 0.000000 0.007540 
#    y 0.000000 1.944310 0.000000 
#    z 0.007540 0.000000 1.666640 
# 
# From -- ./inp_files/71598.got.cif
#   From: 2010.05.17/outbox.cif.g08.bks.cpg/sg11_36_cif.got.tgz:71598.got - 2010.06.03 12:22:45.
