data_PCOD9166063
_publ_section_title
;
Structure prediction by ZEFSAII (Michael W. Deem and Ramdas Pophale) SiO2 
 PCOD9166063
Probable space group: P 21/M
;
_chemical_formula_sum "Si O2"
_cell_formula_units_Z 30
_cell_length_a 12.133776
_cell_length_b 23.179856
_cell_length_c 11.713806
_cell_angle_alpha 90.000000
_cell_angle_beta 156.101544
_cell_angle_gamma 90.000000
_cell_volume 1334.704571
_symmetry_space_group_name_H-M "P 21/M"
_symmetry_group_IT_number 11
_symmetry_cell_setting 'monoclinic'
loop_
_space_group_symop_operation_xyz
x,y,z
-x,1/2+y,-z
-x,-y,-z
x,1/2-y,z
loop_
_atom_site_type_symbol
_atom_site_label
_atom_site_fract_x
_atom_site_fract_y
_atom_site_fract_z
Si Si1 0.609050 0.006568 0.906796
Si Si2 0.593705 0.158254 0.565753
Si Si3 0.624011 0.316968 0.343320
Si Si4 0.897941 0.571097 0.510808
Si Si5 0.183627 0.549869 0.124362
Si Si6 0.881188 0.250000 0.973633
Si Si7 0.137109 0.147235 0.314102
Si Si8 0.835977 0.885554 0.196567
O O1 0.613067 0.025279 0.778301
O O2 0.812151 0.048664 0.169358
O O3 0.727333 0.942632 0.029389
O O4 0.310865 0.017572 0.674287
O O5 0.495652 0.174840 0.348120
O O6 0.382846 0.171373 0.469022
O O7 0.666762 0.090943 0.643818
O O8 0.840744 0.199479 0.836130
O O9 0.690660 0.250000 0.389297
O O10 0.892822 0.356503 0.595964
O O11 0.408488 0.340003 0.047607
O O12 0.794151 0.621585 0.497751
O O13 0.896470 0.594511 0.382316
O O14 0.986490 0.593174 0.870073
O O15 0.000000 0.500000 0.000000
O O16 0.925317 0.199043 0.111698
#
# Coordination Sequence:
#
# PCOD9166063 Si02
#       8
#     4   4   4   4   4   2   4   4
#     4  11  22  42  71 104 139 177 227 278 340 423
#     4  11  22  41  65  91 130 173 218 279 338 412
#     4  12  28  46  68  96 138 179 237 281 338 406
#     4  11  23  46  69 101 140 174 228 284 337 413
#     4  10  22  37  60 100 138 170 209 276 346 410
#     4  10  22  40  66  92 120 176 228 272 342 398
#     4  10  23  40  64  96 128 170 222 279 337 401
#     4  12  26  46  71 100 133 190 229 278 347 399
#
# _framework density 22.476882
#
# number of rings (size 3 to 8) (size 9 to 14) (size 15 to 20)
#    0.000    1.067    2.000    4.000    5.600    1.600 
#    2.400    0.000    0.000    0.000    0.000    0.000 
#    0.000    0.000    0.000    0.000    0.000    0.000 
#
# Total GULP energy -167330.056580 kJ/mol
# GULP energy per Si atom -5577.668553 kJ/mol
# Density = 2.242572 g / cm^3
# Si number density = 22.476882 Si / 1000 Ang^3
#
#
#
# Elastic Constant Matrix: (Units=GPa)
#
#
# Indices 1 2 3 4 5 6 
#
# 1 48.9094 34.5182 -5.5495 0.0000 3.1191 0.0000
# 2 34.5182 117.6165 6.2759 0.0000 -21.7190 0.0000
# 3 -5.5495 6.2759 50.9001 0.0000 3.6248 0.0000
# 4 0.0000 0.0000 0.0000 -189.7887 0.0000 -61.3152
# 5 3.1191 -21.7190 3.6248 0.0000 16.0067 0.0000
# 6 0.0000 0.0000 0.0000 -61.3152 0.0000 0.7955
#
#
#
# Elastic Compliance Matrix: (Units=1/GPa)
#
#
# Indices 1 2 3 4 5 6 
#
# 1 0.034845 -0.016335 0.008004 0.000000 -0.030767 0.000000
# 2 -0.016335 0.019334 -0.006362 0.000000 0.030857 0.000000
# 3 0.008004 -0.006362 0.022390 0.000000 -0.015263 0.000000
# 4 0.000000 0.000000 0.000000 -0.000203 0.000000 -0.015680
# 5 -0.030767 0.030857 -0.015263 0.000000 0.113795 0.000000
# 6 0.000000 0.000000 0.000000 -0.015680 0.000000 0.048533
#
#
# Mechanical properties :
#
#
# Convention : Reuss Voigt Hill
#
# Bulk Modulus (GPa) = 21.19405 31.99058 26.59232
# Shear Modulus (GPa) = 17.61768 -22.45187 -2.41710
#
# Velocity S-wave (km/s) = 2.80270 -3.16395 -1.03813
# Velocity P-wave (km/s) = 4.46355 0.95716 3.22796
#
# Compressibility (1/GPa) = 0.04718305
#
# Stress axis : x y z
#
# Youngs Moduli (GPa) = 28.69885 51.72334 44.66205
#
# Poissons Ratio (x) = 0.84488 -0.35748
# Poissons Ratio (y) = 0.46879 0.28415
# Poissons Ratio (z) = -0.22971 0.32907
#
# Static dielectric constant tensor:
#      x y z
#    x 1.852420 0.000000 0.036130 
#    y 0.000000 1.839770 0.000000 
#    z 0.036130 0.000000 1.915520 
# 
# From -- ./inp_files/5367.got.cif
#   From: 2010.05.17/outbox.cif.g08.bks.cpg/sg11_3_cif.got.tgz:5367.got - 2010.06.03 12:22:45.
