data_PCOD9166608
_publ_section_title
;
Structure prediction by ZEFSAII (Michael W. Deem and Ramdas Pophale) SiO2 
 PCOD9166608
Probable space group: P 21/M
;
_chemical_formula_sum "Si O2"
_cell_formula_units_Z 32
_cell_length_a 9.357122
_cell_length_b 21.341132
_cell_length_c 14.883308
_cell_angle_alpha 90.000000
_cell_angle_beta 151.250013
_cell_angle_gamma 90.000000
_cell_volume 1429.532289
_symmetry_space_group_name_H-M "P 21/M"
_symmetry_group_IT_number 11
_symmetry_cell_setting 'monoclinic'
loop_
_space_group_symop_operation_xyz
x,y,z
-x,1/2+y,-z
-x,-y,-z
x,1/2-y,z
loop_
_atom_site_type_symbol
_atom_site_label
_atom_site_fract_x
_atom_site_fract_y
_atom_site_fract_z
Si Si1 0.349312 0.398950 0.803520
Si Si2 0.241588 0.181300 0.368741
Si Si3 0.956856 0.094889 0.881201
Si Si4 0.906907 0.326074 0.681171
Si Si5 0.606372 0.986610 0.458640
Si Si6 0.533069 0.471181 0.226498
Si Si7 0.175404 0.914603 0.772981
Si Si8 0.817657 0.180584 0.963371
O O1 0.062540 0.364612 0.686960
O O2 0.339043 0.462649 0.739415
O O3 0.570565 0.413197 0.010749
O O4 0.512580 0.349151 0.829370
O O5 0.295731 0.250000 0.437399
O O6 0.555953 0.160972 0.500466
O O7 0.059987 0.140419 0.339345
O O8 0.021044 0.184354 0.163212
O O9 0.030691 0.141398 0.840060
O O10 0.620347 0.069495 0.692412
O O11 0.976308 0.134981 0.981655
O O12 0.185095 0.037059 0.010966
O O13 0.953592 0.250000 0.701256
O O14 0.570780 0.032321 0.354014
O O15 0.955489 0.973591 0.661789
O O16 0.500000 0.000000 0.500000
O O17 0.692050 0.418722 0.253456
O O18 0.778682 0.250000 0.903356
#
# Coordination Sequence:
#
# PCOD9166608 Si02
#       8
#     4   4   4   4   4   4   4   4
#     4  11  23  43  69 101 140 175 223 272 347 406
#     4   9  21  42  70 100 134 177 226 276 337 405
#     4  12  24  44  68  99 135 179 229 280 338 407
#     4  11  23  43  71 102 136 175 225 279 333 406
#     4  12  27  43  68  97 131 181 231 279 343 400
#     4  12  26  44  63 102 140 176 229 280 339 413
#     4  11  23  42  65  99 137 178 214 278 337 402
#     4  10  22  43  69  97 132 178 227 278 336 402
#
# _framework density 22.384944000000001
#
# number of rings (size 3 to 8) (size 9 to 14) (size 15 to 20)
#    0.000    1.000    3.750    2.625    5.250    0.500 
#    2.250    0.000    0.000    0.000    0.000    0.000 
#    0.000    0.000    0.000    0.000    0.000    0.000 
#
# Total GULP energy -178714.935300 kJ/mol
# GULP energy per Si atom -5584.841728 kJ/mol
# Density = 2.233399 g / cm^3
# Si number density = 22.384944 Si / 1000 Ang^3
#
#
#
# Elastic Constant Matrix: (Units=GPa)
#
#
# Indices 1 2 3 4 5 6 
#
# 1 141.7609 40.9679 23.8327 0.0000 6.0758 0.0000
# 2 40.9679 77.3795 23.8793 0.0000 2.1687 0.0000
# 3 23.8327 23.8793 54.6850 0.0000 13.4759 0.0000
# 4 0.0000 0.0000 0.0000 26.1547 0.0000 9.0130
# 5 6.0758 2.1687 13.4759 0.0000 33.9035 0.0000
# 6 0.0000 0.0000 0.0000 9.0130 0.0000 34.9997
#
#
#
# Elastic Compliance Matrix: (Units=1/GPa)
#
#
# Indices 1 2 3 4 5 6 
#
# 1 0.008525 -0.003921 -0.001872 0.000000 -0.000533 0.000000
# 2 -0.003921 0.016841 -0.006156 0.000000 0.002072 0.000000
# 3 -0.001872 -0.006156 0.023957 0.000000 -0.008793 0.000000
# 4 0.000000 0.000000 0.000000 0.041958 0.000000 -0.010805
# 5 -0.000533 0.002072 -0.008793 0.000000 0.032954 0.000000
# 6 0.000000 0.000000 0.000000 -0.010805 0.000000 0.031354
#
#
# Mechanical properties :
#
#
# Convention : Reuss Voigt Hill
#
# Bulk Modulus (GPa) = 39.32973 50.13170 44.73072
# Shear Modulus (GPa) = 26.60141 31.35459 28.97800
#
# Velocity S-wave (km/s) = 3.45100 3.74665 3.60186
# Velocity P-wave (km/s) = 5.78680 6.41564 6.10932
#
# Compressibility (1/GPa) = 0.02542606
#
# Stress axis : x y z
#
# Youngs Moduli (GPa) = 117.30565 59.37990 41.74102
#
# Poissons Ratio (x) = 0.23282 0.07813
# Poissons Ratio (y) = 0.45993 0.25695
# Poissons Ratio (z) = 0.21958 0.36553
#
# Static dielectric constant tensor:
#      x y z
#    x 1.814840 0.000000 -0.000700 
#    y 0.000000 1.917020 0.000000 
#    z -0.000700 0.000000 1.852020 
# 
# From -- ./inp_files/48470.got.cif
#   From: 2010.05.17/outbox.cif.g08.bks.cpg/sg11_25_cif.got.tgz:48470.got - 2010.06.03 12:22:45.
