data_PCOD9166776
_publ_section_title
;
Structure prediction by ZEFSAII (Michael W. Deem and Ramdas Pophale) SiO2 
 PCOD9166776
Probable space group: P 21/M
;
_chemical_formula_sum "Si O2"
_cell_formula_units_Z 30
_cell_length_a 8.215028
_cell_length_b 14.526346
_cell_length_c 10.969651
_cell_angle_alpha 90.000000
_cell_angle_beta 100.059624
_cell_angle_gamma 90.000000
_cell_volume 1288.931300
_symmetry_space_group_name_H-M "P 21/M"
_symmetry_group_IT_number 11
_symmetry_cell_setting 'monoclinic'
loop_
_space_group_symop_operation_xyz
x,y,z
-x,1/2+y,-z
-x,-y,-z
x,1/2-y,z
loop_
_atom_site_type_symbol
_atom_site_label
_atom_site_fract_x
_atom_site_fract_y
_atom_site_fract_z
Si Si1 0.921380 0.150968 0.980712
Si Si2 0.102498 0.453743 0.406088
Si Si3 0.821258 0.052576 0.197104
Si Si4 0.549486 0.901990 0.868293
Si Si5 0.552427 0.894924 0.479763
Si Si6 0.686456 0.421486 0.753267
Si Si7 0.558717 0.750000 0.683116
Si Si8 0.742091 0.645803 0.124558
O O1 0.896722 0.250000 0.040224
O O2 0.795047 0.142630 0.852319
O O3 0.101491 0.148503 0.946046
O O4 0.890843 0.069579 0.071324
O O5 0.248510 0.391805 0.482029
O O6 0.193539 0.527827 0.329415
O O7 0.000000 0.500000 0.500000
O O8 0.960455 0.408904 0.304856
O O9 0.646666 0.103472 0.178834
O O10 0.781786 0.943761 0.212556
O O11 0.626877 0.829166 0.786455
O O12 0.613446 0.000093 0.831873
O O13 0.592321 0.879793 0.013573
O O14 0.462766 0.874618 0.340749
O O15 0.493045 0.829870 0.579637
O O16 0.500000 0.000000 0.500000
O O17 0.723542 0.750000 0.172974
#
# Coordination Sequence:
#
# PCOD9166776 Si02
#       8
#     4   4   4   4   4   4   2   4
#     4  11  25  41  68 104 135 182 227 284 348 414
#     4  11  23  43  73  96 135 176 229 288 340 410
#     4  12  25  43  68 104 141 177 229 292 348 400
#     4  12  24  41  71  98 136 183 228 281 340 406
#     4  10  23  42  70  97 129 187 224 273 341 401
#     4  11  22  46  68  94 138 184 228 273 351 408
#     4  12  24  42  72  98 136 182 240 274 330 422
#     4  11  23  42  68  96 135 179 228 276 348 411
#
# _framework density 23.275095
#
# number of rings (size 3 to 8) (size 9 to 14) (size 15 to 20)
#    0.000    0.800    6.000    2.400    3.733    0.000 
#    0.000    0.000    5.867    0.000    0.000    0.000 
#    0.000    0.000    0.000    0.000    0.000    0.000 
#
# Total GULP energy -167215.776141 kJ/mol
# GULP energy per Si atom -5573.859205 kJ/mol
# Density = 2.322212 g / cm^3
# Si number density = 23.275095 Si / 1000 Ang^3
#
#
#
# Elastic Constant Matrix: (Units=GPa)
#
#
# Indices 1 2 3 4 5 6 
#
# 1 103.9171 -1.2436 20.4066 0.0000 31.0463 0.0000
# 2 -1.2436 78.6314 8.5564 0.0000 3.9374 0.0000
# 3 20.4066 8.5564 81.7592 0.0000 38.0104 0.0000
# 4 0.0000 0.0000 0.0000 25.7786 0.0000 6.9404
# 5 31.0463 3.9374 38.0104 0.0000 47.5415 0.0000
# 6 0.0000 0.0000 0.0000 6.9404 0.0000 -4.7595
#
#
#
# Elastic Compliance Matrix: (Units=1/GPa)
#
#
# Indices 1 2 3 4 5 6 
#
# 1 0.012031 0.000518 0.000980 0.000000 -0.008683 0.000000
# 2 0.000518 0.012886 -0.001312 0.000000 -0.000357 0.000000
# 3 0.000980 -0.001312 0.019689 0.000000 -0.016273 0.000000
# 4 0.000000 0.000000 0.000000 0.027856 0.000000 0.040620
# 5 -0.008683 -0.000357 -0.016273 0.000000 0.039745 0.000000
# 6 0.000000 0.000000 0.000000 0.040620 0.000000 -0.150873
#
#
# Mechanical properties :
#
#
# Convention : Reuss Voigt Hill
#
# Bulk Modulus (GPa) = 22.23289 35.52738 28.88014
# Shear Modulus (GPa) = -207.94705 29.48466 -89.23119
#
# Velocity S-wave (km/s) = -9.46241 3.56306 -6.19846
# Velocity P-wave (km/s) = 10.47902 5.67666 6.22838
#
# Compressibility (1/GPa) = 0.04497840
#
# Stress axis : x y z
#
# Youngs Moduli (GPa) = 83.11880 77.60108 50.78907
#
# Poissons Ratio (x) = -0.04023 -0.04975
# Poissons Ratio (y) = -0.04309 0.06664
# Poissons Ratio (z) = -0.08142 0.10183
#
# Static dielectric constant tensor:
#      x y z
#    x 1.921870 0.000000 0.008480 
#    y 0.000000 1.876290 0.000000 
#    z 0.008480 0.000000 1.897900 
# 
# From -- ./inp_files/31933.got.cif
#   From: 2010.05.17/outbox.cif.g08.bks.cpg/sg11_16_cif.got.tgz:31933.got - 2010.06.03 12:22:45.
