data_PCOD9166390
_publ_section_title
;
Structure prediction by ZEFSAII (Michael W. Deem and Ramdas Pophale) SiO2 
 PCOD9166390
Probable space group: P 21/M
;
_chemical_formula_sum "Si O2"
_cell_formula_units_Z 32
_cell_length_a 20.867688
_cell_length_b 8.784391
_cell_length_c 26.033851
_cell_angle_alpha 90.000000
_cell_angle_beta 157.507051
_cell_angle_gamma 90.000000
_cell_volume 1825.723547
_symmetry_space_group_name_H-M "P 21/M"
_symmetry_group_IT_number 11
_symmetry_cell_setting 'monoclinic'
loop_
_space_group_symop_operation_xyz
x,y,z
-x,1/2+y,-z
-x,-y,-z
x,1/2-y,z
loop_
_atom_site_type_symbol
_atom_site_label
_atom_site_fract_x
_atom_site_fract_y
_atom_site_fract_z
Si Si1 0.146744 0.567549 0.144197
Si Si2 0.652028 0.068085 0.146077
Si Si3 0.968942 0.566873 0.835649
Si Si4 0.359690 0.935114 0.130115
Si Si5 0.835710 0.069344 0.630790
Si Si6 0.469058 0.567251 0.100223
Si Si7 0.513102 0.433712 0.664298
Si Si8 0.869724 0.067598 0.215421
O O1 0.130488 0.750000 0.133492
O O2 0.325321 0.530677 0.250905
O O3 0.125698 0.499691 0.185216
O O4 0.000000 0.500000 0.000000
O O5 0.638502 0.250000 0.136317
O O6 0.816028 0.028968 0.234049
O O7 0.618774 0.004842 0.178094
O O8 0.500000 0.000000 0.000000
O O9 0.962900 0.750000 0.832214
O O10 0.892405 0.507175 0.726108
O O11 0.164565 0.519629 0.984049
O O12 0.360015 0.750000 0.129831
O O13 0.451194 0.984770 0.145702
O O14 0.444610 0.982658 0.246085
O O15 0.836896 0.250000 0.637319
O O16 0.653430 0.010718 0.479819
O O17 0.970676 0.017942 0.688125
O O18 0.487168 0.750000 0.112237
O O19 0.292016 0.533103 0.940463
O O20 0.491814 0.250000 0.648312
O O21 0.897081 0.250000 0.232333
#
# Coordination Sequence:
#
# PCOD9166390 Si02
#       8
#     4   4   4   4   4   4   4   4
#     4  11  22  38  62  90 116 147 188 233 283 336
#     4   9  17  28  45  74 110 145 182 223 274 329
#     4  11  21  39  63  85 113 150 189 233 281 338
#     4   9  17  34  59  84 108 144 190 226 273 336
#     4  12  25  38  55  85 117 147 189 239 285 333
#     4   9  16  29  52  81 111 140 180 230 276 330
#     4  10  22  41  61  81 111 153 190 224 276 344
#     4   9  17  32  53  75 108 152 186 222 277 339
#
# _framework density 17.527297999999998
#
# number of rings (size 3 to 8) (size 9 to 14) (size 15 to 20)
#    0.000    2.000    2.500    3.000    0.000    4.000 
#    0.000    0.625    0.000    0.750    0.000    0.000 
#    0.000    0.000    0.000    0.000    0.000    0.000 
#
# Total GULP energy -178562.234903 kJ/mol
# GULP energy per Si atom -5580.069841 kJ/mol
# Density = 1.748741 g / cm^3
# Si number density = 17.527298 Si / 1000 Ang^3
#
#
#
# Elastic Constant Matrix: (Units=GPa)
#
#
# Indices 1 2 3 4 5 6 
#
# 1 164.2184 48.0751 56.4610 0.0000 14.9357 0.0000
# 2 48.0751 49.1671 38.8386 0.0000 11.8535 0.0000
# 3 56.4610 38.8386 92.9897 0.0000 2.7860 0.0000
# 4 0.0000 0.0000 0.0000 17.7177 0.0000 3.7962
# 5 14.9357 11.8535 2.7860 0.0000 22.2518 0.0000
# 6 0.0000 0.0000 0.0000 3.7962 0.0000 32.1577
#
#
#
# Elastic Compliance Matrix: (Units=1/GPa)
#
#
# Indices 1 2 3 4 5 6 
#
# 1 0.009072 -0.005911 -0.002963 0.000000 -0.002570 0.000000
# 2 -0.005911 0.039834 -0.012579 0.000000 -0.015677 0.000000
# 3 -0.002963 -0.012579 0.017612 0.000000 0.006484 0.000000
# 4 0.000000 0.000000 0.000000 0.057905 0.000000 -0.006836
# 5 -0.002570 -0.015677 0.006484 0.000000 0.054204 0.000000
# 6 0.000000 0.000000 0.000000 -0.006836 0.000000 0.031904
#
#
# Mechanical properties :
#
#
# Convention : Reuss Voigt Hill
#
# Bulk Modulus (GPa) = 42.34764 65.90274 54.12519
# Shear Modulus (GPa) = 19.13447 25.29214 22.21331
#
# Velocity S-wave (km/s) = 3.30767 3.80282 3.56385
# Velocity P-wave (km/s) = 6.22904 7.54743 6.91970
#
# Compressibility (1/GPa) = 0.02361407
#
# Stress axis : x y z
#
# Youngs Moduli (GPa) = 110.22698 25.10391 56.77878
#
# Poissons Ratio (x) = 0.14839 0.16821
# Poissons Ratio (y) = 0.65154 0.71421
# Poissons Ratio (z) = 0.32656 0.31578
#
# Static dielectric constant tensor:
#      x y z
#    x 1.624610 0.000000 0.002300 
#    y 0.000000 1.586830 0.000000 
#    z 0.002300 0.000000 1.565240 
# 
# From -- ./inp_files/72128.got.cif
#   From: 2010.05.17/outbox.cif.g08.bks.cpg/sg11_37_cif.got.tgz:72128.got - 2010.06.03 12:22:45.
