data_PCOD9166817
_publ_section_title
;
Structure prediction by ZEFSAII (Michael W. Deem and Ramdas Pophale) SiO2 
 PCOD9166817
Probable space group: P 21/M
;
_chemical_formula_sum "Si O2"
_cell_formula_units_Z 20
_cell_length_a 9.814392
_cell_length_b 14.961729
_cell_length_c 5.483835
_cell_angle_alpha 90.000000
_cell_angle_beta 95.423777
_cell_angle_gamma 90.000000
_cell_volume 801.642595
_symmetry_space_group_name_H-M "P 21/M"
_symmetry_group_IT_number 11
_symmetry_cell_setting 'monoclinic'
loop_
_space_group_symop_operation_xyz
x,y,z
-x,1/2+y,-z
-x,-y,-z
x,1/2-y,z
loop_
_atom_site_type_symbol
_atom_site_label
_atom_site_fract_x
_atom_site_fract_y
_atom_site_fract_z
Si Si1 0.770800 0.750000 0.189023
Si Si2 0.486084 0.750000 0.015124
Si Si3 0.960758 0.552725 0.745563
Si Si4 0.961898 0.250000 0.088085
Si Si5 0.719066 0.250000 0.665521
Si Si6 0.684187 0.581067 0.484091
Si Si7 0.384083 0.897822 0.665497
O O1 0.644333 0.750000 0.978401
O O2 0.743426 0.664098 0.348528
O O3 0.914606 0.750000 0.085501
O O4 0.442039 0.750000 0.285753
O O5 0.416229 0.838655 0.903422
O O6 0.326453 0.504412 0.694847
O O7 0.000000 0.500000 0.500000
O O8 0.795589 0.560294 0.709130
O O9 0.000000 0.500000 0.000000
O O10 0.980419 0.344909 0.231828
O O11 0.823565 0.250000 0.904969
O O12 0.723447 0.339926 0.509869
O O13 0.532255 0.593629 0.561693
#
# Coordination Sequence:
#
# PCOD9166817 Si02
#       7
#     2   2   4   2   2   4   4
#     4  12  23  47  76 113 145 205 254 315 385 470
#     4  11  22  41  74  97 145 183 253 300 384 446
#     4  12  28  50  76 113 156 205 260 318 387 471
#     4  12  28  48  77 107 156 202 252 322 392 459
#     4  11  23  48  69 105 146 188 251 309 383 453
#     4  11  23  45  73 104 149 190 256 312 388 456
#     4  10  23  43  71 108 139 194 248 321 377 461
#
# _framework density 24.948774
#
# number of rings (size 3 to 8) (size 9 to 14) (size 15 to 20)
#    0.000    0.800    2.000    4.800    2.800    1.600 
#    7.200    0.000    0.000    0.000    0.000    0.000 
#    0.000    0.000    0.000    0.000    0.000    0.000 
#
# Total GULP energy -111959.490002 kJ/mol
# GULP energy per Si atom -5597.974500 kJ/mol
# Density = 2.489199 g / cm^3
# Si number density = 24.948774 Si / 1000 Ang^3
#
#
#
# Elastic Constant Matrix: (Units=GPa)
#
#
# Indices 1 2 3 4 5 6 
#
# 1 148.1499 53.8765 44.7807 0.0000 7.3908 0.0000
# 2 53.8765 215.5198 73.3372 0.0000 -0.1735 0.0000
# 3 44.7807 73.3372 91.8932 0.0000 5.6210 0.0000
# 4 0.0000 0.0000 0.0000 -165.6994 0.0000 -8.6036
# 5 7.3908 -0.1735 5.6210 0.0000 54.1702 0.0000
# 6 0.0000 0.0000 0.0000 -8.6036 0.0000 -21.5242
#
#
#
# Elastic Compliance Matrix: (Units=1/GPa)
#
#
# Indices 1 2 3 4 5 6 
#
# 1 0.008082 -0.000957 -0.003127 0.000000 -0.000781 0.000000
# 2 -0.000957 0.006499 -0.004760 0.000000 0.000645 0.000000
# 3 -0.003127 -0.004760 0.016283 0.000000 -0.001278 0.000000
# 4 0.000000 0.000000 0.000000 -0.006163 0.000000 0.002463
# 5 -0.000781 0.000645 -0.001278 0.000000 0.018702 0.000000
# 6 0.000000 0.000000 0.000000 0.002463 0.000000 -0.047444
#
#
# Mechanical properties :
#
#
# Convention : Reuss Voigt Hill
#
# Bulk Modulus (GPa) = 75.89284 88.83908 82.36596
# Shear Modulus (GPa) = 277.16392 -7.70612 134.72890
#
# Velocity S-wave (km/s) = 10.55151 -1.75940 7.35659
# Velocity P-wave (km/s) = 13.37652 5.61770 10.25890
#
# Compressibility (1/GPa) = 0.01317647
#
# Stress axis : x y z
#
# Youngs Moduli (GPa) = 123.73035 153.85828 61.41313
#
# Poissons Ratio (x) = 0.14724 0.19204
# Poissons Ratio (y) = 0.11841 0.29234
# Poissons Ratio (z) = 0.38690 0.73239
#
# Static dielectric constant tensor:
#      x y z
#    x 1.962670 0.000000 0.016890 
#    y 0.000000 1.912620 0.000000 
#    z 0.016890 0.000000 1.988480 
# 
# From -- ./inp_files/1973.got.cif
#   From: 2010.05.17/outbox.cif.g08.bks.cpg/sg11_1_cif.got.tgz:1973.got - 2010.06.03 12:22:45.
