data_PCOD9166329
_publ_section_title
;
Structure prediction by ZEFSAII (Michael W. Deem and Ramdas Pophale) SiO2 
 PCOD9166329
Probable space group: P 21/M
;
_chemical_formula_sum "Si O2"
_cell_formula_units_Z 28
_cell_length_a 12.843823
_cell_length_b 8.700466
_cell_length_c 14.851724
_cell_angle_alpha 90.000000
_cell_angle_beta 58.324059
_cell_angle_gamma 90.000000
_cell_volume 1412.405583
_symmetry_space_group_name_H-M "P 21/M"
_symmetry_group_IT_number 11
_symmetry_cell_setting 'monoclinic'
loop_
_space_group_symop_operation_xyz
x,y,z
-x,1/2+y,-z
-x,-y,-z
x,1/2-y,z
loop_
_atom_site_type_symbol
_atom_site_label
_atom_site_fract_x
_atom_site_fract_y
_atom_site_fract_z
Si Si1 0.008333 0.565143 0.767109
Si Si2 0.449176 0.932969 0.930559
Si Si3 0.812430 0.564926 0.005969
Si Si4 0.225078 0.434668 0.775718
Si Si5 0.918844 0.067353 0.617563
Si Si6 0.486185 0.934705 0.605948
Si Si7 0.657541 0.566450 0.687881
O O1 0.010651 0.750000 0.763642
O O2 0.962374 0.503008 0.692577
O O3 0.140330 0.501752 0.735754
O O4 0.914757 0.513435 0.888613
O O5 0.434432 0.750000 0.944368
O O6 0.548919 0.963770 0.807966
O O7 0.319604 0.006624 0.965402
O O8 0.500000 0.000000 0.000000
O O9 0.812183 0.750000 0.004955
O O10 0.828852 0.516385 0.102363
O O11 0.226581 0.250000 0.770302
O O12 0.362276 0.497622 0.704657
O O13 0.932011 0.250000 0.614891
O O14 0.779032 0.021297 0.660878
O O15 0.000000 0.000000 0.500000
O O16 0.477219 0.750000 0.608691
O O17 0.602212 0.975308 0.615758
O O18 0.500000 0.000000 0.500000
O O19 0.682979 0.750000 0.677540
#
# Coordination Sequence:
#
# PCOD9166329 Si02
#       7
#     4   4   4   4   4   4   4
#     4  11  24  43  66  94 131 173 216 265 320 379
#     4  11  22  37  61  92 128 169 209 258 314 375
#     4  10  22  40  63  94 131 169 212 261 315 378
#     4  11  23  41  66  98 133 170 215 265 318 383
#     4  12  27  46  69  95 126 168 216 267 322 383
#     4  11  24  43  67  96 130 170 215 265 321 381
#     4  10  23  44  66  92 129 168 211 262 317 376
#
# _framework density 19.824334
#
# number of rings (size 3 to 8) (size 9 to 14) (size 15 to 20)
#    0.000    1.143    1.429    4.286    2.000    7.429 
#    0.000    0.000    0.000    0.000    0.000    0.000 
#    0.000    0.000    0.000    0.000    0.000    0.000 
#
# Total GULP energy -156654.047264 kJ/mol
# GULP energy per Si atom -5594.787402 kJ/mol
# Density = 1.977921 g / cm^3
# Si number density = 19.824334 Si / 1000 Ang^3
#
#
#
# Elastic Constant Matrix: (Units=GPa)
#
#
# Indices 1 2 3 4 5 6 
#
# 1 140.8058 35.4881 27.8983 0.0000 22.8801 0.0000
# 2 35.4881 51.9590 23.7131 0.0000 9.7599 0.0000
# 3 27.8983 23.7131 74.4985 0.0000 24.1210 0.0000
# 4 0.0000 0.0000 0.0000 32.3143 0.0000 -2.0949
# 5 22.8801 9.7599 24.1210 0.0000 39.7546 0.0000
# 6 0.0000 0.0000 0.0000 -2.0949 0.0000 36.7962
#
#
#
# Elastic Compliance Matrix: (Units=1/GPa)
#
#
# Indices 1 2 3 4 5 6 
#
# 1 0.009138 -0.005305 -0.000563 0.000000 -0.003615 0.000000
# 2 -0.005305 0.025666 -0.006386 0.000000 0.000627 0.000000
# 3 -0.000563 -0.006386 0.018734 0.000000 -0.009475 0.000000
# 4 0.000000 0.000000 0.000000 0.031061 0.000000 0.001768
# 5 -0.003615 0.000627 -0.009475 0.000000 0.032830 0.000000
# 6 0.000000 0.000000 0.000000 0.001768 0.000000 0.027277
#
#
# Mechanical properties :
#
#
# Convention : Reuss Voigt Hill
#
# Bulk Modulus (GPa) = 34.44627 49.05137 41.74882
# Shear Modulus (GPa) = 27.94983 33.78394 30.86688
#
# Velocity S-wave (km/s) = 3.75890 4.13263 3.95019
# Velocity P-wave (km/s) = 6.02101 6.89697 6.47383
#
# Compressibility (1/GPa) = 0.02903072
#
# Stress axis : x y z
#
# Youngs Moduli (GPa) = 109.43185 38.96178 53.37774
#
# Poissons Ratio (x) = 0.20671 0.03004
# Poissons Ratio (y) = 0.58058 0.34086
# Poissons Ratio (z) = 0.06158 0.24880
#
# Static dielectric constant tensor:
#      x y z
#    x 1.662760 0.000000 0.004030 
#    y 0.000000 1.666350 0.000000 
#    z 0.004030 0.000000 1.694040 
# 
# From -- ./inp_files/49156.got.cif
#   From: 2010.05.17/outbox.cif.g08.bks.cpg/sg11_25_cif.got.tgz:49156.got - 2010.06.03 12:22:45.
