data_PCOD9166543
_publ_section_title
;
Structure prediction by ZEFSAII (Michael W. Deem and Ramdas Pophale) SiO2 
 PCOD9166543
Probable space group: P 21/M
;
_chemical_formula_sum "Si O2"
_cell_formula_units_Z 20
_cell_length_a 5.754990
_cell_length_b 9.691491
_cell_length_c 15.412522
_cell_angle_alpha 90.000000
_cell_angle_beta 87.791434
_cell_angle_gamma 90.000000
_cell_volume 858.986129
_symmetry_space_group_name_H-M "P 21/M"
_symmetry_group_IT_number 11
_symmetry_cell_setting 'monoclinic'
loop_
_space_group_symop_operation_xyz
x,y,z
-x,1/2+y,-z
-x,-y,-z
x,1/2-y,z
loop_
_atom_site_type_symbol
_atom_site_label
_atom_site_fract_x
_atom_site_fract_y
_atom_site_fract_z
Si Si1 0.323041 0.995007 0.155966
Si Si2 0.309393 0.601090 0.733371
Si Si3 0.932606 0.406519 0.672718
Si Si4 0.896885 0.750000 0.920878
Si Si5 0.383815 0.750000 0.019994
Si Si6 0.353456 0.405795 0.436589
O O1 0.249765 0.917441 0.245313
O O2 0.365064 0.886267 0.080130
O O3 0.552773 0.079173 0.179574
O O4 0.130655 0.108206 0.132811
O O5 0.183886 0.750000 0.734612
O O6 0.493462 0.609554 0.652483
O O7 0.160599 0.468349 0.713005
O O8 0.951193 0.250000 0.643410
O O9 0.865719 0.507871 0.595125
O O10 0.648018 0.750000 0.977683
O O11 0.142546 0.750000 0.967642
O O12 0.500000 0.500000 0.500000
O O13 0.304733 0.250000 0.469447
#
# Coordination Sequence:
#
# PCOD9166543 Si02
#       6
#     4   4   4   2   2   4
#     4  11  25  43  67  96 136 180 231 289 348 431
#     4  10  23  41  67  96 129 180 228 276 345 413
#     4  11  24  40  67  98 131 179 228 281 346 412
#     4  12  28  46  70 100 139 190 231 300 364 434
#     4  12  28  46  68 104 141 180 241 294 372 422
#     4  10  22  42  66  98 137 174 224 282 342 413
#
# _framework density 23.283261
#
# number of rings (size 3 to 8) (size 9 to 14) (size 15 to 20)
#    0.000    1.200    2.000    2.400    9.800    2.400 
#    0.000    0.000    0.000    0.000    0.000    0.000 
#    0.000    0.000    0.000    0.000    0.000    0.000 
#
# Total GULP energy -111802.066578 kJ/mol
# GULP energy per Si atom -5590.103329 kJ/mol
# Density = 2.323027 g / cm^3
# Si number density = 23.283261 Si / 1000 Ang^3
#
#
#
# Elastic Constant Matrix: (Units=GPa)
#
#
# Indices 1 2 3 4 5 6 
#
# 1 79.8389 27.1912 40.6997 0.0000 8.1381 0.0000
# 2 27.1912 192.0293 57.3508 0.0000 9.5224 0.0000
# 3 40.6997 57.3508 101.5138 0.0000 26.6925 0.0000
# 4 0.0000 0.0000 0.0000 30.7516 0.0000 9.1244
# 5 8.1381 9.5224 26.6925 0.0000 39.6793 0.0000
# 6 0.0000 0.0000 0.0000 9.1244 0.0000 30.3525
#
#
#
# Elastic Compliance Matrix: (Units=1/GPa)
#
#
# Indices 1 2 3 4 5 6 
#
# 1 0.015815 -0.000375 -0.006439 0.000000 0.001178 0.000000
# 2 -0.000375 0.006311 -0.003690 0.000000 0.001044 0.000000
# 3 -0.006439 -0.003690 0.016932 0.000000 -0.009184 0.000000
# 4 0.000000 0.000000 0.000000 0.035703 0.000000 -0.010733
# 5 0.001178 0.001044 -0.009184 0.000000 0.030888 0.000000
# 6 0.000000 0.000000 0.000000 -0.010733 0.000000 0.036173
#
#
# Mechanical properties :
#
#
# Convention : Reuss Voigt Hill
#
# Bulk Modulus (GPa) = 55.39757 69.31839 62.35798
# Shear Modulus (GPa) = 29.61302 36.69937 33.15619
#
# Velocity S-wave (km/s) = 3.57018 3.97446 3.77773
# Velocity P-wave (km/s) = 6.39058 7.13430 6.77265
#
# Compressibility (1/GPa) = 0.01805133
#
# Stress axis : x y z
#
# Youngs Moduli (GPa) = 63.23085 158.45950 59.06097
#
# Poissons Ratio (x) = 0.05940 0.38027
# Poissons Ratio (y) = 0.02370 0.21791
# Poissons Ratio (z) = 0.40712 0.58466
#
# Static dielectric constant tensor:
#      x y z
#    x 1.924580 0.000000 -0.052340 
#    y 0.000000 1.832270 0.000000 
#    z -0.052340 0.000000 1.870190 
# 
# From -- ./inp_files/9228.got.cif
#   From: 2010.05.17/outbox.cif.g08.bks.cpg/sg11_5_cif.got.tgz:9228.got - 2010.06.03 12:22:45.
