data_PCOD9166491
_publ_section_title
;
Structure prediction by ZEFSAII (Michael W. Deem and Ramdas Pophale) SiO2 
 PCOD9166491
Probable space group: P 21/M
;
_chemical_formula_sum "Si O2"
_cell_formula_units_Z 26
_cell_length_a 12.119389
_cell_length_b 14.415624
_cell_length_c 14.485563
_cell_angle_alpha 90.000000
_cell_angle_beta 150.068968
_cell_angle_gamma 90.000000
_cell_volume 1262.736789
_symmetry_space_group_name_H-M "P 21/M"
_symmetry_group_IT_number 11
_symmetry_cell_setting 'monoclinic'
loop_
_space_group_symop_operation_xyz
x,y,z
-x,1/2+y,-z
-x,-y,-z
x,1/2-y,z
loop_
_atom_site_type_symbol
_atom_site_label
_atom_site_fract_x
_atom_site_fract_y
_atom_site_fract_z
Si Si1 0.203518 0.454921 0.589672
Si Si2 0.141496 0.250000 0.774617
Si Si3 0.383971 0.750000 0.875112
Si Si4 0.663024 0.084507 0.013597
Si Si5 0.101436 0.640464 0.005799
Si Si6 0.260254 0.990315 0.280021
Si Si7 0.913148 0.750000 0.473625
Si Si8 0.955888 0.443103 0.689381
O O1 0.426855 0.454282 0.810313
O O2 0.154100 0.347007 0.529642
O O3 0.000000 0.500000 0.500000
O O4 0.221283 0.511248 0.507761
O O5 0.197017 0.250000 0.706330
O O6 0.003457 0.339970 0.694856
O O7 0.375772 0.250000 0.996072
O O8 0.177590 0.750000 0.656872
O O9 0.361880 0.660238 0.924597
O O10 0.784240 0.129045 0.011857
O O11 0.821732 0.002732 0.162252
O O12 0.088055 0.750000 0.018108
O O13 0.862539 0.588015 0.832045
O O14 0.244332 0.579629 0.182148
O O15 0.110613 0.948262 0.253097
O O16 0.500000 0.000000 0.500000
#
# Coordination Sequence:
#
# PCOD9166491 Si02
#       8
#     4   2   2   4   4   4   2   4
#     4  12  23  39  61  90 128 166 209 261 306 357
#     4  12  26  42  57  91 129 168 207 254 307 376
#     4  12  22  38  63  90 128 161 208 254 305 369
#     4  11  22  40  64  95 123 163 208 260 309 367
#     4  10  22  41  68  97 128 159 209 269 319 375
#     4  10  23  45  66  96 127 164 211 263 324 386
#     4  12  24  38  58  91 125 163 213 260 296 361
#     4  11  25  41  65  89 127 167 211 253 318 377
#
# _framework density 20.590198000000001
#
# number of rings (size 3 to 8) (size 9 to 14) (size 15 to 20)
#    0.000    0.923    5.385    0.923    3.231    1.846 
#    0.000    0.000    0.000    0.000    0.000    0.000 
#    0.000    0.000    0.000    0.000    0.000    0.000 
#
# Total GULP energy -145365.190377 kJ/mol
# GULP energy per Si atom -5590.968861 kJ/mol
# Density = 2.054333 g / cm^3
# Si number density = 20.590198 Si / 1000 Ang^3
#
#
#
# Elastic Constant Matrix: (Units=GPa)
#
#
# Indices 1 2 3 4 5 6 
#
# 1 31.0511 22.9853 -17.0449 0.0000 -5.6594 0.0000
# 2 22.9853 159.2579 26.2488 0.0000 4.6494 0.0000
# 3 -17.0449 26.2488 124.6040 0.0000 9.8328 0.0000
# 4 0.0000 0.0000 0.0000 18.5108 0.0000 1.2756
# 5 -5.6594 4.6494 9.8328 0.0000 22.9340 0.0000
# 6 0.0000 0.0000 0.0000 1.2756 0.0000 8.1959
#
#
#
# Elastic Compliance Matrix: (Units=1/GPa)
#
#
# Indices 1 2 3 4 5 6 
#
# 1 0.043289 -0.007640 0.006796 0.000000 0.009318 0.000000
# 2 -0.007640 0.007866 -0.002513 0.000000 -0.002403 0.000000
# 3 0.006796 -0.002513 0.009638 0.000000 -0.001946 0.000000
# 4 0.000000 0.000000 0.000000 0.054608 0.000000 -0.008499
# 5 0.009318 -0.002403 -0.001946 0.000000 0.047224 0.000000
# 6 0.000000 0.000000 0.000000 -0.008499 0.000000 0.123335
#
#
# Mechanical properties :
#
#
# Convention : Reuss Voigt Hill
#
# Bulk Modulus (GPa) = 18.49126 42.14347 30.31736
# Shear Modulus (GPa) = 16.09271 28.77640 22.43455
#
# Velocity S-wave (km/s) = 2.79869 3.74247 3.30445
# Velocity P-wave (km/s) = 4.40950 6.25995 5.41436
#
# Compressibility (1/GPa) = 0.05407961
#
# Stress axis : x y z
#
# Youngs Moduli (GPa) = 23.10057 127.12909 103.75735
#
# Poissons Ratio (x) = 0.97125 -0.70511
# Poissons Ratio (y) = 0.17649 0.26069
# Poissons Ratio (z) = -0.15699 0.31941
#
# Static dielectric constant tensor:
#      x y z
#    x 1.722590 0.000000 0.001540 
#    y 0.000000 1.818940 0.000000 
#    z 0.001540 0.000000 1.742490 
# 
# From -- ./inp_files/50464.got.cif
#   From: 2010.05.17/outbox.cif.g08.bks.cpg/sg11_26_cif.got.tgz:50464.got - 2010.06.03 12:22:45.
