data_PCOD9166018
_publ_section_title
;
Structure prediction by ZEFSAII (Michael W. Deem and Ramdas Pophale) SiO2 
 PCOD9166018
Probable space group: P 21/M
;
_chemical_formula_sum "Si O2"
_cell_formula_units_Z 32
_cell_length_a 12.089737
_cell_length_b 13.964290
_cell_length_c 16.084118
_cell_angle_alpha 90.000000
_cell_angle_beta 27.946277
_cell_angle_gamma 90.000000
_cell_volume 1272.551978
_symmetry_space_group_name_H-M "P 21/M"
_symmetry_group_IT_number 11
_symmetry_cell_setting 'monoclinic'
loop_
_space_group_symop_operation_xyz
x,y,z
-x,1/2+y,-z
-x,-y,-z
x,1/2-y,z
loop_
_atom_site_type_symbol
_atom_site_label
_atom_site_fract_x
_atom_site_fract_y
_atom_site_fract_z
Si Si1 0.663862 0.859362 0.582402
Si Si2 0.646433 0.866704 0.323049
Si Si3 0.468564 0.142169 0.042920
Si Si4 0.216003 0.506965 0.615330
Si Si5 0.454569 0.850086 0.206006
Si Si6 0.075211 0.394222 0.424276
Si Si7 0.138068 0.637508 0.942179
Si Si8 0.260725 0.982505 0.010437
O O1 0.698876 0.750000 0.530534
O O2 0.833026 0.936561 0.428707
O O3 0.733857 0.860244 0.633189
O O4 0.395167 0.889984 0.734293
O O5 0.647240 0.750000 0.333239
O O6 0.689927 0.929834 0.378069
O O7 0.864214 0.894586 0.115663
O O8 0.389843 0.908690 0.471301
O O9 0.532727 0.250000 0.028576
O O10 0.205661 0.120652 0.250589
O O11 0.501457 0.143529 0.922565
O O12 0.623849 0.061957 0.984715
O O13 0.972286 0.543524 0.815398
O O14 0.562241 0.750000 0.166599
O O15 0.178061 0.845728 0.405086
O O16 0.565776 0.950588 0.157974
O O17 0.000000 0.500000 0.500000
O O18 0.132058 0.750000 0.932825
O O19 0.183598 0.607903 0.007064
#
# Coordination Sequence:
#
# PCOD9166018 Si02
#       8
#     4   4   4   4   4   4   4   4
#     4  11  21  35  56  88 116 144 194 245 289 341
#     4   9  19  39  59  83 115 148 182 231 298 361
#     4  11  22  37  59  84 114 155 198 246 297 343
#     4  10  22  34  60  88 112 146 191 241 289 354
#     4  11  24  38  54  81 117 159 202 241 288 349
#     4  12  23  38  62  85 122 161 195 246 301 345
#     4   9  18  34  59  84 111 144 181 235 295 347
#     4  11  20  36  55  78 113 146 193 235 287 338
#
# _framework density 25.146321
#
# number of rings (size 3 to 8) (size 9 to 14) (size 15 to 20)
#    0.000    1.500    2.500    3.000    1.750    3.500 
#    0.000    0.000    0.000    0.750    0.000    0.000 
#    0.000    0.000    0.000    0.000    0.000    0.000 
#
# Total GULP energy -178606.806392 kJ/mol
# GULP energy per Si atom -5581.462700 kJ/mol
# Density = 2.508909 g / cm^3
# Si number density = 25.146321 Si / 1000 Ang^3
#
#
#
# Elastic Constant Matrix: (Units=GPa)
#
#
# Indices 1 2 3 4 5 6 
#
# 1 46.5141 -4.3743 5.1244 0.0000 -0.7549 0.0000
# 2 -4.3743 112.2799 19.3865 0.0000 -21.4135 0.0000
# 3 5.1244 19.3865 177.1937 0.0000 -5.5560 0.0000
# 4 0.0000 0.0000 0.0000 50.4240 0.0000 -3.5782
# 5 -0.7549 -21.4135 -5.5560 0.0000 24.0292 0.0000
# 6 0.0000 0.0000 0.0000 -3.5782 0.0000 16.4107
#
#
#
# Elastic Compliance Matrix: (Units=1/GPa)
#
#
# Indices 1 2 3 4 5 6 
#
# 1 0.021726 0.001288 -0.000717 0.000000 0.001664 0.000000
# 2 0.001288 0.010944 -0.000934 0.000000 0.009577 0.000000
# 3 -0.000717 -0.000934 0.005782 0.000000 0.000482 0.000000
# 4 0.000000 0.000000 0.000000 0.020144 0.000000 0.004392
# 5 0.001664 0.009577 0.000482 0.000000 0.050315 0.000000
# 6 0.000000 0.000000 0.000000 0.004392 0.000000 0.061893
#
#
# Mechanical properties :
#
#
# Convention : Reuss Voigt Hill
#
# Bulk Modulus (GPa) = 26.50800 41.80678 34.15739
# Shear Modulus (GPa) = 27.15829 39.22951 33.19390
#
# Velocity S-wave (km/s) = 3.28992 3.95403 3.63716
# Velocity P-wave (km/s) = 4.99958 6.12432 5.59031
#
# Compressibility (1/GPa) = 0.03772446
#
# Stress axis : x y z
#
# Youngs Moduli (GPa) = 46.02791 91.37115 172.96242
#
# Poissons Ratio (x) = -0.11765 0.12401
# Poissons Ratio (y) = -0.05927 0.16160
# Poissons Ratio (z) = 0.03300 0.08537
#
# Static dielectric constant tensor:
#      x y z
#    x 2.010160 0.000000 -0.024920 
#    y 0.000000 2.012750 0.000000 
#    z -0.024920 0.000000 2.043500 
# 
# From -- ./inp_files/65737.got.cif
#   From: 2010.05.17/outbox.cif.g08.bks.cpg/sg11_33_cif.got.tgz:65737.got - 2010.06.03 12:22:45.
