data_PCOD9166316
_publ_section_title
;
Structure prediction by ZEFSAII (Michael W. Deem and Ramdas Pophale) SiO2 
 PCOD9166316
Probable space group: P 21/M
;
_chemical_formula_sum "Si O2"
_cell_formula_units_Z 24
_cell_length_a 13.050767
_cell_length_b 8.921369
_cell_length_c 14.709972
_cell_angle_alpha 90.000000
_cell_angle_beta 139.019117
_cell_angle_gamma 90.000000
_cell_volume 1123.196010
_symmetry_space_group_name_H-M "P 21/M"
_symmetry_group_IT_number 11
_symmetry_cell_setting 'monoclinic'
loop_
_space_group_symop_operation_xyz
x,y,z
-x,1/2+y,-z
-x,-y,-z
x,1/2-y,z
loop_
_atom_site_type_symbol
_atom_site_label
_atom_site_fract_x
_atom_site_fract_y
_atom_site_fract_z
Si Si1 0.987219 0.575827 0.217420
Si Si2 0.667711 0.927961 0.224369
Si Si3 0.219341 0.570131 0.524507
Si Si4 0.682685 0.073041 0.036325
Si Si5 0.848956 0.076205 0.857029
Si Si6 0.506634 0.432184 0.605654
O O1 0.939100 0.750000 0.189943
O O2 0.838091 0.478904 0.089659
O O3 0.063032 0.529883 0.363921
O O4 0.121950 0.565616 0.232109
O O5 0.693766 0.750000 0.246517
O O6 0.773399 0.012011 0.368058
O O7 0.688864 0.985643 0.136183
O O8 0.483641 0.959027 0.121620
O O9 0.234033 0.750000 0.530616
O O10 0.364070 0.493699 0.569230
O O11 0.686411 0.250000 0.055968
O O12 0.853441 0.250000 0.886203
O O13 0.674896 0.020152 0.759698
O O14 0.000000 0.000000 0.000000
O O15 0.500000 0.500000 0.500000
O O16 0.502648 0.250000 0.599290
#
# Coordination Sequence:
#
# PCOD9166316 Si02
#       6
#     4   4   4   4   4   4
#     4  10  22  41  60  85 121 158 196 245 295 348
#     4  10  22  41  63  90 120 153 195 244 296 354
#     4  11  23  40  62  89 120 158 201 243 294 353
#     4  10  22  40  63  90 119 154 196 243 295 354
#     4  10  23  41  59  86 121 157 200 245 293 347
#     4  11  22  40  62  87 121 158 199 246 293 348
#
# _framework density 21.367598999999998
#
# number of rings (size 3 to 8) (size 9 to 14) (size 15 to 20)
#    0.000    1.667    1.667    2.000    2.333    6.000 
#    0.000    0.000    0.000    0.000    0.000    0.000 
#    0.000    0.000    0.000    0.000    0.000    0.000 
#
# Total GULP energy -134155.185976 kJ/mol
# GULP energy per Si atom -5589.799416 kJ/mol
# Density = 2.131897 g / cm^3
# Si number density = 21.367599 Si / 1000 Ang^3
#
#
#
# Elastic Constant Matrix: (Units=GPa)
#
#
# Indices 1 2 3 4 5 6 
#
# 1 31.5990 3.3476 -10.4870 0.0000 14.5074 0.0000
# 2 3.3476 47.8695 29.6302 0.0000 9.3462 0.0000
# 3 -10.4870 29.6302 92.1247 0.0000 5.5678 0.0000
# 4 0.0000 0.0000 0.0000 33.2155 0.0000 -1.0397
# 5 14.5074 9.3462 5.5678 0.0000 38.0603 0.0000
# 6 0.0000 0.0000 0.0000 -1.0397 0.0000 33.3229
#
#
#
# Elastic Compliance Matrix: (Units=1/GPa)
#
#
# Indices 1 2 3 4 5 6 
#
# 1 0.041739 -0.004180 0.007058 0.000000 -0.015915 0.000000
# 2 -0.004180 0.027573 -0.009112 0.000000 -0.003845 0.000000
# 3 0.007058 -0.009112 0.014747 0.000000 -0.002610 0.000000
# 4 0.000000 0.000000 0.000000 0.030136 0.000000 0.000940
# 5 -0.015915 -0.003845 -0.002610 0.000000 0.033666 0.000000
# 6 0.000000 0.000000 0.000000 0.000940 0.000000 0.030039
#
#
# Mechanical properties :
#
#
# Convention : Reuss Voigt Hill
#
# Bulk Modulus (GPa) = 13.96846 24.06388 19.01617
# Shear Modulus (GPa) = 23.33927 30.85989 27.09958
#
# Velocity S-wave (km/s) = 3.30854 3.80444 3.56512
# Velocity P-wave (km/s) = 4.59855 5.53034 5.08583
#
# Compressibility (1/GPa) = 0.07158987
#
# Stress axis : x y z
#
# Youngs Moduli (GPa) = 23.95868 36.26715 67.81204
#
# Poissons Ratio (x) = 0.15160 -0.47859
# Poissons Ratio (y) = 0.10015 0.61789
# Poissons Ratio (z) = -0.16909 0.33046
#
# Static dielectric constant tensor:
#      x y z
#    x 1.804040 0.000000 -0.009100 
#    y 0.000000 1.498690 0.000000 
#    z -0.009100 0.000000 1.782930 
# 
# From -- ./inp_files/51817.got.cif
#   From: 2010.05.17/outbox.cif.g08.bks.cpg/sg11_26_cif.got.tgz:51817.got - 2010.06.03 12:22:45.
