data_PCOD9166078
_publ_section_title
;
Structure prediction by ZEFSAII (Michael W. Deem and Ramdas Pophale) SiO2 
 PCOD9166078
Probable space group: P 21/M
;
_chemical_formula_sum "Si O2"
_cell_formula_units_Z 32
_cell_length_a 23.947267
_cell_length_b 13.690719
_cell_length_c 9.840848
_cell_angle_alpha 90.000000
_cell_angle_beta 149.069643
_cell_angle_gamma 90.000000
_cell_volume 1658.342817
_symmetry_space_group_name_H-M "P 21/M"
_symmetry_group_IT_number 11
_symmetry_cell_setting 'monoclinic'
loop_
_space_group_symop_operation_xyz
x,y,z
-x,1/2+y,-z
-x,-y,-z
x,1/2-y,z
loop_
_atom_site_type_symbol
_atom_site_label
_atom_site_fract_x
_atom_site_fract_y
_atom_site_fract_z
Si Si1 0.407515 0.632076 0.311401
Si Si2 0.171609 0.366759 0.792629
Si Si3 0.378571 0.367477 0.385116
Si Si4 0.224497 0.540772 0.738071
Si Si5 0.928390 0.133173 0.368298
Si Si6 0.556471 0.864444 0.173702
Si Si7 0.320831 0.547973 0.652465
Si Si8 0.743676 0.132709 0.761619
O O1 0.396750 0.750000 0.272329
O O2 0.530789 0.604424 0.535882
O O3 0.362172 0.609664 0.366307
O O4 0.328448 0.582172 0.037273
O O5 0.175396 0.250000 0.781103
O O6 0.207667 0.426530 0.735501
O O7 0.051141 0.394908 0.588775
O O8 0.259178 0.397398 0.089795
O O9 0.376489 0.250000 0.381124
O O10 0.417370 0.393887 0.615888
O O11 0.122066 0.590142 0.599467
O O12 0.245329 0.563296 0.625211
O O13 0.926817 0.250000 0.379406
O O14 0.846558 0.110613 0.072964
O O15 0.579415 0.750000 0.201245
O O16 0.630905 0.938011 0.243347
O O17 0.429506 0.885400 0.883887
O O18 0.260874 0.574207 0.387486
O O19 0.743830 0.250000 0.735521
#
# Coordination Sequence:
#
# PCOD9166078 Si02
#       8
#     4   4   4   4   4   4   4   4
#     4   9  18  34  57  88 116 144 186 240 293 331
#     4  10  22  38  59  85 114 151 195 235 288 345
#     4   9  18  34  58  84 111 149 190 235 282 336
#     4  11  21  35  59  88 113 147 188 241 287 330
#     4   9  20  40  63  86 112 145 192 247 292 331
#     4  10  22  38  54  80 127 162 185 228 285 349
#     4  11  23  36  56  90 116 157 196 226 285 345
#     4   9  19  35  59  85 114 149 187 240 291 337
#
# _framework density 19.296372000000002
#
# number of rings (size 3 to 8) (size 9 to 14) (size 15 to 20)
#    0.000    2.250    1.250    1.875    3.500    4.500 
#    0.000    1.875    0.000    0.000    0.000    0.000 
#    0.000    0.000    0.000    0.000    0.000    0.000 
#
# Total GULP energy -178680.900540 kJ/mol
# GULP energy per Si atom -5583.778142 kJ/mol
# Density = 1.925245 g / cm^3
# Si number density = 19.296372 Si / 1000 Ang^3
#
#
#
# Elastic Constant Matrix: (Units=GPa)
#
#
# Indices 1 2 3 4 5 6 
#
# 1 126.3271 30.0560 58.8982 0.0000 -4.9003 0.0000
# 2 30.0560 87.9355 19.2320 0.0000 0.7709 0.0000
# 3 58.8982 19.2320 75.6356 0.0000 11.9668 0.0000
# 4 0.0000 0.0000 0.0000 19.6070 0.0000 -4.4392
# 5 -4.9003 0.7709 11.9668 0.0000 29.1797 0.0000
# 6 0.0000 0.0000 0.0000 -4.4392 0.0000 20.6706
#
#
#
# Elastic Compliance Matrix: (Units=1/GPa)
#
#
# Indices 1 2 3 4 5 6 
#
# 1 0.014140 -0.002371 -0.011542 0.000000 0.007171 0.000000
# 2 -0.002371 0.012467 -0.001292 0.000000 -0.000198 0.000000
# 3 -0.011542 -0.001292 0.024424 0.000000 -0.011921 0.000000
# 4 0.000000 0.000000 0.000000 0.053609 0.000000 0.011513
# 5 0.007171 -0.000198 -0.011921 0.000000 0.040369 0.000000
# 6 0.000000 0.000000 0.000000 0.011513 0.000000 0.050850
#
#
# Mechanical properties :
#
#
# Convention : Reuss Voigt Hill
#
# Bulk Modulus (GPa) = 48.49893 56.25229 52.37561
# Shear Modulus (GPa) = 21.44608 26.00560 23.72584
#
# Velocity S-wave (km/s) = 3.33739 3.67508 3.51030
# Velocity P-wave (km/s) = 6.32765 6.87192 6.60539
#
# Compressibility (1/GPa) = 0.02061901
#
# Stress axis : x y z
#
# Youngs Moduli (GPa) = 70.72255 80.21297 40.94335
#
# Poissons Ratio (x) = 0.19022 0.47258
# Poissons Ratio (y) = 0.16771 0.05290
# Poissons Ratio (z) = 0.81630 0.10364
#
# Static dielectric constant tensor:
#      x y z
#    x 1.643820 0.000000 0.006810 
#    y 0.000000 1.742290 0.000000 
#    z 0.006810 0.000000 1.656680 
# 
# From -- ./inp_files/22204.got.cif
#   From: 2010.05.17/outbox.cif.g08.bks.cpg/sg11_12_cif.got.tgz:22204.got - 2010.06.03 12:22:45.
