data_PCOD9166326
_publ_section_title
;
Structure prediction by ZEFSAII (Michael W. Deem and Ramdas Pophale) SiO2 
 PCOD9166326
Probable space group: P 21/M
;
_chemical_formula_sum "Si O2"
_cell_formula_units_Z 24
_cell_length_a 23.599151
_cell_length_b 10.761835
_cell_length_c 4.952296
_cell_angle_alpha 90.000000
_cell_angle_beta 133.007462
_cell_angle_gamma 90.000000
_cell_volume 919.737758
_symmetry_space_group_name_H-M "P 21/M"
_symmetry_group_IT_number 11
_symmetry_cell_setting 'monoclinic'
loop_
_space_group_symop_operation_xyz
x,y,z
-x,1/2+y,-z
-x,-y,-z
x,1/2-y,z
loop_
_atom_site_type_symbol
_atom_site_label
_atom_site_fract_x
_atom_site_fract_y
_atom_site_fract_z
Si Si1 0.572974 0.750000 0.330760
Si Si2 0.737043 0.028456 0.616875
Si Si3 0.099646 0.887395 0.928369
Si Si4 0.587529 0.023726 0.384477
Si Si5 0.941104 0.610311 0.609036
Si Si6 0.465866 0.750000 0.473876
Si Si7 0.217922 0.112439 0.712450
O O1 0.613072 0.618658 0.527617
O O2 0.496866 0.750000 0.273715
O O3 0.541980 0.750000 0.921320
O O4 0.737800 0.911503 0.419973
O O5 0.650384 0.075831 0.377820
O O6 0.762124 0.989587 0.999128
O O7 0.808093 0.105664 0.719860
O O8 0.087641 0.750000 0.764220
O O9 0.033988 0.894171 0.950901
O O10 0.079685 0.000881 0.665396
O O11 0.579414 0.125103 0.591903
O O12 0.500000 0.000000 0.000000
O O13 0.928051 0.750000 0.447873
O O14 0.875919 0.605405 0.629723
O O15 0.233695 0.250000 0.867059
#
# Coordination Sequence:
#
# PCOD9166326 Si02
#       7
#     2   4   4   4   4   2   4
#     4  10  22  40  66  94 118 160 212 260 308 376
#     4  11  24  39  63  95 128 170 212 270 317 387
#     4   9  18  35  62  92 133 172 218 260 325 384
#     4  10  24  44  67  96 129 171 214 265 324 390
#     4   8  16  35  62  95 128 174 217 268 313 382
#     4  10  22  42  66  90 128 156 206 256 320 380
#     4  10  22  40  63  93 131 164 214 267 323 368
#
# _framework density 26.094397000000001
#
# number of rings (size 3 to 8) (size 9 to 14) (size 15 to 20)
#    0.000    2.333    0.000    1.000    3.500    6.667 
#    0.000    3.333    0.000    8.000    0.000    0.000 
#    0.000    0.000    0.000    0.000    0.000    0.000 
#
# Total GULP energy -133948.500533 kJ/mol
# GULP energy per Si atom -5581.187522 kJ/mol
# Density = 2.603501 g / cm^3
# Si number density = 26.094397 Si / 1000 Ang^3
#
#
#
# Elastic Constant Matrix: (Units=GPa)
#
#
# Indices 1 2 3 4 5 6 
#
# 1 167.0240 -11.4975 50.2297 0.0000 42.5234 0.0000
# 2 -11.4975 114.1089 23.3153 0.0000 2.7719 0.0000
# 3 50.2297 23.3153 80.9289 0.0000 12.1858 0.0000
# 4 0.0000 0.0000 0.0000 26.2667 0.0000 4.8832
# 5 42.5234 2.7719 12.1858 0.0000 52.6441 0.0000
# 6 0.0000 0.0000 0.0000 4.8832 0.0000 35.0505
#
#
#
# Elastic Compliance Matrix: (Units=1/GPa)
#
#
# Indices 1 2 3 4 5 6 
#
# 1 0.009456 0.002242 -0.005540 0.000000 -0.006474 0.000000
# 2 0.002242 0.009844 -0.004017 0.000000 -0.001399 0.000000
# 3 -0.005540 -0.004017 0.016833 0.000000 0.000790 0.000000
# 4 0.000000 0.000000 0.000000 0.039083 0.000000 -0.005445
# 5 -0.006474 -0.001399 0.000790 0.000000 0.024115 0.000000
# 6 0.000000 0.000000 0.000000 -0.005445 0.000000 0.029289
#
#
# Mechanical properties :
#
#
# Convention : Reuss Voigt Hill
#
# Bulk Modulus (GPa) = 46.50422 54.01742 50.26082
# Shear Modulus (GPa) = 33.24067 42.79320 38.01693
#
# Velocity S-wave (km/s) = 3.57299 4.05401 3.82108
# Velocity P-wave (km/s) = 5.90609 6.53139 6.22659
#
# Compressibility (1/GPa) = 0.02150342
#
# Stress axis : x y z
#
# Youngs Moduli (GPa) = 105.75669 101.58276 59.40610
#
# Poissons Ratio (x) = -0.22774 0.32911
# Poissons Ratio (y) = -0.23710 0.23863
# Poissons Ratio (z) = 0.58589 0.40804
#
# Static dielectric constant tensor:
#      x y z
#    x 2.030210 0.000000 0.111660 
#    y 0.000000 2.138740 0.000000 
#    z 0.111660 0.000000 2.092500 
# 
# From -- ./inp_files/9382.got.cif
#   From: 2010.05.17/outbox.cif.g08.bks.cpg/sg11_5_cif.got.tgz:9382.got - 2010.06.03 12:22:45.
