data_PCOD9166195
_publ_section_title
;
Structure prediction by ZEFSAII (Michael W. Deem and Ramdas Pophale) SiO2 
 PCOD9166195
Probable space group: P 21/M
;
_chemical_formula_sum "Si O2"
_cell_formula_units_Z 20
_cell_length_a 5.011646
_cell_length_b 10.523610
_cell_length_c 15.148359
_cell_angle_alpha 90.000000
_cell_angle_beta 93.495108
_cell_angle_gamma 90.000000
_cell_volume 797.447652
_symmetry_space_group_name_H-M "P 21/M"
_symmetry_group_IT_number 11
_symmetry_cell_setting 'monoclinic'
loop_
_space_group_symop_operation_xyz
x,y,z
-x,1/2+y,-z
-x,-y,-z
x,1/2-y,z
loop_
_atom_site_type_symbol
_atom_site_label
_atom_site_fract_x
_atom_site_fract_y
_atom_site_fract_z
Si Si1 0.364839 0.110762 0.835493
Si Si2 0.801967 0.885911 0.979680
Si Si3 0.486250 0.887355 0.629307
Si Si4 0.834083 0.532533 0.790575
Si Si5 0.797075 0.604240 0.455494
O O1 0.257122 0.250000 0.811249
O O2 0.647905 0.091109 0.795568
O O3 0.404293 0.107082 0.943185
O O4 0.142346 0.004769 0.807509
O O5 0.941650 0.750000 0.995395
O O6 0.730161 0.892284 0.875376
O O7 0.000000 0.000000 0.000000
O O8 0.350695 0.750000 0.646509
O O9 0.738557 0.900775 0.699672
O O10 0.586432 0.879158 0.530693
O O11 0.326951 0.021109 0.626665
O O12 0.889645 0.750000 0.436076
O O13 0.000000 0.500000 0.500000
#
# Coordination Sequence:
#
# PCOD9166195 Si02
#       5
#     4   4   4   4   4
#     4  10  22  39  60  90 132 172 215 264 320 378
#     4   9  19  38  62  90 126 171 215 262 316 377
#     4  10  23  42  63  93 126 164 212 268 321 386
#     4  11  22  39  62  95 125 169 215 268 317 380
#     4  10  22  42  67  93 125 165 207 259 325 394
#
# _framework density 25.080016000000001
#
# number of rings (size 3 to 8) (size 9 to 14) (size 15 to 20)
#    0.000    2.000    0.000    2.400    2.800    3.200 
#    0.000   13.000    0.000    0.000    0.000    0.000 
#    0.000    0.000    0.000    0.000    0.000    0.000 
#
# Total GULP energy -111509.806046 kJ/mol
# GULP energy per Si atom -5575.490302 kJ/mol
# Density = 2.502293 g / cm^3
# Si number density = 25.080016 Si / 1000 Ang^3
#
#
#
# Elastic Constant Matrix: (Units=GPa)
#
#
# Indices 1 2 3 4 5 6 
#
# 1 62.5702 21.8772 7.3574 0.0000 11.1834 0.0000
# 2 21.8772 200.7400 22.7879 0.0000 19.9310 0.0000
# 3 7.3574 22.7879 110.8151 0.0000 12.2433 0.0000
# 4 0.0000 0.0000 0.0000 6.2125 0.0000 4.3376
# 5 11.1834 19.9310 12.2433 0.0000 37.4613 0.0000
# 6 0.0000 0.0000 0.0000 4.3376 0.0000 28.2343
#
#
#
# Elastic Compliance Matrix: (Units=1/GPa)
#
#
# Indices 1 2 3 4 5 6 
#
# 1 0.017287 -0.001415 -0.000384 0.000000 -0.004282 0.000000
# 2 -0.001415 0.005445 -0.000780 0.000000 -0.002219 0.000000
# 3 -0.000384 -0.000780 0.009494 0.000000 -0.002573 0.000000
# 4 0.000000 0.000000 0.000000 0.180306 0.000000 -0.027700
# 5 -0.004282 -0.002219 -0.002573 0.000000 0.029994 0.000000
# 6 0.000000 0.000000 0.000000 -0.027700 0.000000 0.039673
#
#
# Mechanical properties :
#
#
# Convention : Reuss Voigt Hill
#
# Bulk Modulus (GPa) = 36.94434 53.13004 45.03719
# Shear Modulus (GPa) = 16.87013 35.85515 26.36264
#
# Velocity S-wave (km/s) = 2.59637 3.78515 3.24565
# Velocity P-wave (km/s) = 4.87347 6.35085 5.66057
#
# Compressibility (1/GPa) = 0.02706774
#
# Stress axis : x y z
#
# Youngs Moduli (GPa) = 57.84551 183.66299 105.32629
#
# Poissons Ratio (x) = 0.25994 0.04040
# Poissons Ratio (y) = 0.08187 0.08221
# Poissons Ratio (z) = 0.02219 0.14335
#
# Static dielectric constant tensor:
#      x y z
#    x 1.985320 0.000000 0.013750 
#    y 0.000000 2.168670 0.000000 
#    z 0.013750 0.000000 2.037660 
# 
# From -- ./inp_files/45640.got.cif
#   From: 2010.05.17/outbox.cif.g08.bks.cpg/sg11_23_cif.got.tgz:45640.got - 2010.06.03 12:22:45.
