data_PCOD9166795
_publ_section_title
;
Structure prediction by ZEFSAII (Michael W. Deem and Ramdas Pophale) SiO2 
 PCOD9166795
Probable space group: P 21/M
;
_chemical_formula_sum "Si O2"
_cell_formula_units_Z 32
_cell_length_a 16.440324
_cell_length_b 18.898296
_cell_length_c 12.502101
_cell_angle_alpha 90.000000
_cell_angle_beta 154.767099
_cell_angle_gamma 90.000000
_cell_volume 1655.884852
_symmetry_space_group_name_H-M "P 21/M"
_symmetry_group_IT_number 11
_symmetry_cell_setting 'monoclinic'
loop_
_space_group_symop_operation_xyz
x,y,z
-x,1/2+y,-z
-x,-y,-z
x,1/2-y,z
loop_
_atom_site_type_symbol
_atom_site_label
_atom_site_fract_x
_atom_site_fract_y
_atom_site_fract_z
Si Si1 0.149247 0.425198 0.789163
Si Si2 0.962412 0.921672 0.585304
Si Si3 0.406819 0.830897 0.412618
Si Si4 0.285620 0.415230 0.499502
Si Si5 0.157696 0.169402 0.151848
Si Si6 0.891597 0.333282 0.630676
Si Si7 0.679346 0.166040 0.929891
Si Si8 0.589918 0.423279 0.376397
O O1 0.142217 0.419059 0.652894
O O2 0.054096 0.500284 0.706255
O O3 0.022014 0.364668 0.692307
O O4 0.364299 0.422855 0.087210
O O5 0.821856 0.907810 0.516393
O O6 0.137658 0.866964 0.796131
O O7 0.363020 0.750000 0.394886
O O8 0.631144 0.833618 0.649013
O O9 0.302229 0.846174 0.176451
O O10 0.370459 0.885701 0.463110
O O11 0.159006 0.383617 0.252422
O O12 0.484820 0.372182 0.734630
O O13 0.333541 0.497062 0.535392
O O14 0.129825 0.250000 0.157952
O O15 0.009395 0.155401 0.881184
O O16 0.858077 0.250000 0.577898
O O17 0.698690 0.377387 0.416146
O O18 0.662184 0.250000 0.925222
#
# Coordination Sequence:
#
# PCOD9166795 Si02
#       8
#     4   4   4   4   4   4   4   4
#     4  11  25  46  66  90 128 171 219 268 320 379
#     4  11  25  45  68  90 125 175 218 264 323 382
#     4   9  19  37  61  91 133 171 202 256 325 387
#     4  11  23  39  65 101 128 166 217 268 320 385
#     4   9  20  39  62  90 135 172 201 263 326 383
#     4  11  24  42  64  96 132 170 215 264 324 384
#     4  10  23  43  65  96 133 170 212 265 327 383
#     4  12  23  38  66  99 127 171 215 264 323 386
#
# _framework density 19.325015
#
# number of rings (size 3 to 8) (size 9 to 14) (size 15 to 20)
#    0.000    1.500    3.750    1.500    1.750    7.000 
#    0.000    0.000    0.000    0.000    0.000    0.000 
#    0.000    0.000    0.000    0.000    0.000    0.000 
#
# Total GULP energy -178896.116448 kJ/mol
# GULP energy per Si atom -5590.503639 kJ/mol
# Density = 1.928103 g / cm^3
# Si number density = 19.325015 Si / 1000 Ang^3
#
#
#
# Elastic Constant Matrix: (Units=GPa)
#
#
# Indices 1 2 3 4 5 6 
#
# 1 92.8370 53.6907 8.5264 0.0000 12.3648 0.0000
# 2 53.6907 107.2336 17.1951 0.0000 3.0187 0.0000
# 3 8.5264 17.1951 19.8686 0.0000 5.0649 0.0000
# 4 0.0000 0.0000 0.0000 10.9133 0.0000 -32.6420
# 5 12.3648 3.0187 5.0649 0.0000 17.5049 0.0000
# 6 0.0000 0.0000 0.0000 -32.6420 0.0000 -49.9700
#
#
#
# Elastic Compliance Matrix: (Units=1/GPa)
#
#
# Indices 1 2 3 4 5 6 
#
# 1 0.017050 -0.008719 0.003148 0.000000 -0.011451 0.000000
# 2 -0.008719 0.015301 -0.011225 0.000000 0.006769 0.000000
# 3 0.003148 -0.011225 0.063448 0.000000 -0.018646 0.000000
# 4 0.000000 0.000000 0.000000 0.031021 0.000000 -0.020264
# 5 -0.011451 0.006769 -0.018646 0.000000 0.069444 0.000000
# 6 0.000000 0.000000 0.000000 -0.020264 0.000000 -0.006775
#
#
# Mechanical properties :
#
#
# Convention : Reuss Voigt Hill
#
# Bulk Modulus (GPa) = 16.07566 42.08485 29.08025
# Shear Modulus (GPa) = 20.50719 5.05808 12.78263
#
# Velocity S-wave (km/s) = 3.26110 1.61959 2.57467
# Velocity P-wave (km/s) = 4.74514 5.03210 4.89073
#
# Compressibility (1/GPa) = 0.06220586
#
# Stress axis : x y z
#
# Youngs Moduli (GPa) = 58.65008 65.35675 15.76095
#
# Poissons Ratio (x) = 0.56987 -0.04962
# Poissons Ratio (y) = 0.51139 0.17692
# Poissons Ratio (z) = -0.18465 0.73366
#
# Static dielectric constant tensor:
#      x y z
#    x 1.660970 0.000000 0.012690 
#    y 0.000000 1.651610 0.000000 
#    z 0.012690 0.000000 1.660910 
# 
# From -- ./inp_files/40021.got.cif
#   From: 2010.05.17/outbox.cif.g08.bks.cpg/sg11_21_cif.got.tgz:40021.got - 2010.06.03 12:22:45.
