data_PCOD9166128
_publ_section_title
;
Structure prediction by ZEFSAII (Michael W. Deem and Ramdas Pophale) SiO2 
 PCOD9166128
Probable space group: P 21/M
;
_chemical_formula_sum "Si O2"
_cell_formula_units_Z 32
_cell_length_a 5.150806
_cell_length_b 18.376041
_cell_length_c 15.615250
_cell_angle_alpha 90.000000
_cell_angle_beta 77.104960
_cell_angle_gamma 90.000000
_cell_volume 1440.731083
_symmetry_space_group_name_H-M "P 21/M"
_symmetry_group_IT_number 11
_symmetry_cell_setting 'monoclinic'
loop_
_space_group_symop_operation_xyz
x,y,z
-x,1/2+y,-z
-x,-y,-z
x,1/2-y,z
loop_
_atom_site_type_symbol
_atom_site_label
_atom_site_fract_x
_atom_site_fract_y
_atom_site_fract_z
Si Si1 0.699602 0.397605 0.197442
Si Si2 0.180369 0.872366 0.625388
Si Si3 0.815631 0.403676 0.861290
Si Si4 0.460883 0.667626 0.973493
Si Si5 0.583414 0.559628 0.242284
Si Si6 0.234514 0.331970 0.478887
Si Si7 0.283684 0.033723 0.580571
Si Si8 0.167084 0.456495 0.057606
O O1 0.753540 0.354719 0.280713
O O2 0.595088 0.356762 0.120452
O O3 0.542468 0.472166 0.231041
O O4 0.983681 0.425835 0.145394
O O5 0.450815 0.847689 0.557322
O O6 0.926139 0.837339 0.598717
O O7 0.133284 0.960317 0.622354
O O8 0.641974 0.393750 0.788829
O O9 0.677885 0.477548 0.910344
O O10 0.122969 0.418450 0.815218
O O11 0.775247 0.346306 0.940775
O O12 0.545110 0.750000 0.968465
O O13 0.687035 0.613045 0.988495
O O14 0.587600 0.567783 0.344005
O O15 0.198278 0.250000 0.515849
O O16 0.134615 0.400542 0.543295
O O17 0.500000 0.000000 0.500000
O O18 0.000000 0.500000 0.000000
#
# Coordination Sequence:
#
# PCOD9166128 Si02
#       8
#     4   4   4   4   4   4   4   4
#     4  10  22  38  61  91 124 166 217 270 321 392
#     4  10  23  40  64  93 130 167 214 260 321 386
#     4  11  22  41  63  89 124 168 222 259 314 386
#     4  12  25  39  59  92 132 174 220 279 337 383
#     4  10  22  39  69  94 119 164 218 269 323 378
#     4  11  23  41  63  91 128 172 207 257 331 396
#     4   9  21  41  69  99 128 160 215 275 318 387
#     4  11  21  40  65  87 120 173 228 267 317 392
#
# _framework density 22.210947999999998
#
# number of rings (size 3 to 8) (size 9 to 14) (size 15 to 20)
#    0.000    1.500    2.500    2.625    1.750    9.500 
#    0.000    1.250    0.000    0.000    0.000    0.000 
#    0.000    0.000    0.000    0.000    0.000    0.000 
#
# Total GULP energy -178516.474153 kJ/mol
# GULP energy per Si atom -5578.639817 kJ/mol
# Density = 2.216039 g / cm^3
# Si number density = 22.210948 Si / 1000 Ang^3
#
#
#
# Elastic Constant Matrix: (Units=GPa)
#
#
# Indices 1 2 3 4 5 6 
#
# 1 60.9168 29.9534 15.9439 0.0000 17.3537 0.0000
# 2 29.9534 107.6821 24.2849 0.0000 11.5169 0.0000
# 3 15.9439 24.2849 118.3578 0.0000 23.2007 0.0000
# 4 0.0000 0.0000 0.0000 5.7073 0.0000 4.7679
# 5 17.3537 11.5169 23.2007 0.0000 35.3816 0.0000
# 6 0.0000 0.0000 0.0000 4.7679 0.0000 15.3080
#
#
#
# Elastic Compliance Matrix: (Units=1/GPa)
#
#
# Indices 1 2 3 4 5 6 
#
# 1 0.021405 -0.004983 -0.000139 0.000000 -0.008786 0.000000
# 2 -0.004983 0.011040 -0.001570 0.000000 -0.000120 0.000000
# 3 -0.000139 -0.001570 0.009956 0.000000 -0.005949 0.000000
# 4 0.000000 0.000000 0.000000 0.236842 0.000000 -0.073768
# 5 -0.008786 -0.000120 -0.005949 0.000000 0.036512 0.000000
# 6 0.000000 0.000000 0.000000 -0.073768 0.000000 0.088301
#
#
# Mechanical properties :
#
#
# Convention : Reuss Voigt Hill
#
# Bulk Modulus (GPa) = 34.46376 47.48014 40.97195
# Shear Modulus (GPa) = 11.70649 25.73101 18.71875
#
# Velocity S-wave (km/s) = 2.29827 3.40734 2.90620
# Velocity P-wave (km/s) = 4.75321 6.07481 5.45418
#
# Compressibility (1/GPa) = 0.02901598
#
# Stress axis : x y z
#
# Youngs Moduli (GPa) = 46.71752 90.58211 100.44138
#
# Poissons Ratio (x) = 0.45139 0.01395
# Poissons Ratio (y) = 0.23280 0.15773
# Poissons Ratio (z) = 0.00649 0.14225
#
# Static dielectric constant tensor:
#      x y z
#    x 1.856590 0.000000 0.005250 
#    y 0.000000 1.814730 0.000000 
#    z 0.005250 0.000000 1.892360 
# 
# From -- ./inp_files/46032.got.cif
#   From: 2010.05.17/outbox.cif.g08.bks.cpg/sg11_24_cif.got.tgz:46032.got - 2010.06.03 12:22:45.
