data_PCOD9166494
_publ_section_title
;
Structure prediction by ZEFSAII (Michael W. Deem and Ramdas Pophale) SiO2 
 PCOD9166494
Probable space group: P 21/M
;
_chemical_formula_sum "Si O2"
_cell_formula_units_Z 24
_cell_length_a 10.662567
_cell_length_b 19.492000
_cell_length_c 5.065589
_cell_angle_alpha 90.000000
_cell_angle_beta 104.922922
_cell_angle_gamma 90.000000
_cell_volume 1017.297623
_symmetry_space_group_name_H-M "P 21/M"
_symmetry_group_IT_number 11
_symmetry_cell_setting 'monoclinic'
loop_
_space_group_symop_operation_xyz
x,y,z
-x,1/2+y,-z
-x,-y,-z
x,1/2-y,z
loop_
_atom_site_type_symbol
_atom_site_label
_atom_site_fract_x
_atom_site_fract_y
_atom_site_fract_z
Si Si1 0.278191 0.750000 0.379669
Si Si2 0.626011 0.012218 0.394304
Si Si3 0.509316 0.352089 0.299345
Si Si4 0.948330 0.874411 0.484681
Si Si5 0.905599 0.250000 0.220704
Si Si6 0.901720 0.477368 0.722062
Si Si7 0.341968 0.364978 0.734906
O O1 0.377377 0.811528 0.492338
O O2 0.168048 0.750000 0.541178
O O3 0.203499 0.750000 0.063035
O O4 0.588778 0.082160 0.232823
O O5 0.746874 0.023921 0.656158
O O6 0.500000 0.000000 0.500000
O O7 0.651280 0.947737 0.219484
O O8 0.398423 0.358470 0.467963
O O9 0.431842 0.328263 0.998174
O O10 0.809116 0.845241 0.320011
O O11 0.008187 0.819719 0.720975
O O12 0.057123 0.899822 0.336746
O O13 0.915850 0.952571 0.556173
O O14 0.000000 0.500000 0.000000
#
# Coordination Sequence:
#
# PCOD9166494 Si02
#       7
#     2   4   4   4   2   4   4
#     4  12  28  46  68  98 138 184 234 278 348 422
#     4   9  20  38  64 100 129 175 222 285 339 400
#     4  11  23  42  65  96 134 175 223 282 337 406
#     4  10  25  42  66 102 137 186 229 293 345 424
#     4  12  28  46  70 100 138 184 238 280 350 426
#     4  10  22  41  69  97 143 180 235 289 354 412
#     4  10  23  41  69  98 131 173 229 277 348 405
#
# _framework density 23.591916999999999
#
# number of rings (size 3 to 8) (size 9 to 14) (size 15 to 20)
#    0.000    1.667    0.000    2.500   11.667    1.333 
#    6.000    0.000    0.000    0.000    0.000    0.000 
#    0.000    0.000    0.000    0.000    0.000    0.000 
#
# Total GULP energy -133615.880044 kJ/mol
# GULP energy per Si atom -5567.328335 kJ/mol
# Density = 2.353822 g / cm^3
# Si number density = 23.591917 Si / 1000 Ang^3
#
#
#
# Elastic Constant Matrix: (Units=GPa)
#
#
# Indices 1 2 3 4 5 6 
#
# 1 99.6182 22.6870 23.1105 0.0000 39.6440 0.0000
# 2 22.6870 97.7515 33.5806 0.0000 19.9682 0.0000
# 3 23.1105 33.5806 113.8529 0.0000 37.6438 0.0000
# 4 0.0000 0.0000 0.0000 23.5945 0.0000 7.5590
# 5 39.6440 19.9682 37.6438 0.0000 51.4769 0.0000
# 6 0.0000 0.0000 0.0000 7.5590 0.0000 5.9179
#
#
#
# Elastic Compliance Matrix: (Units=1/GPa)
#
#
# Indices 1 2 3 4 5 6 
#
# 1 0.014744 -0.001478 0.001329 0.000000 -0.011754 0.000000
# 2 -0.001478 0.011799 -0.002695 0.000000 -0.001468 0.000000
# 3 0.001329 -0.002695 0.012267 0.000000 -0.008949 0.000000
# 4 0.000000 0.000000 0.000000 0.071740 0.000000 -0.091635
# 5 -0.011754 -0.001468 -0.008949 0.000000 0.035592 0.000000
# 6 0.000000 0.000000 0.000000 -0.091635 0.000000 0.286027
#
#
# Mechanical properties :
#
#
# Convention : Reuss Voigt Hill
#
# Bulk Modulus (GPa) = 30.18986 52.21987 41.20487
# Shear Modulus (GPa) = 11.13845 31.65415 21.39630
#
# Velocity S-wave (km/s) = 2.17521 3.66695 3.01480
# Velocity P-wave (km/s) = 4.37415 6.33335 5.44264
#
# Compressibility (1/GPa) = 0.03312370
#
# Stress axis : x y z
#
# Youngs Moduli (GPa) = 67.82455 84.75623 81.51908
#
# Poissons Ratio (x) = 0.12523 -0.10835
# Poissons Ratio (y) = 0.10021 0.21966
# Poissons Ratio (z) = -0.09015 0.22838
#
# Static dielectric constant tensor:
#      x y z
#    x 2.030140 0.000000 -0.186470 
#    y 0.000000 2.023360 0.000000 
#    z -0.186470 0.000000 1.889830 
# 
# From -- ./inp_files/4966.got.cif
#   From: 2010.05.17/outbox.cif.g08.bks.cpg/sg11_3_cif.got.tgz:4966.got - 2010.06.03 12:22:45.
