data_PCOD9166938
_publ_section_title
;
Structure prediction by ZEFSAII (Michael W. Deem and Ramdas Pophale) SiO2 
 PCOD9166938
Probable space group: P 21/M
;
_chemical_formula_sum "Si O2"
_cell_formula_units_Z 26
_cell_length_a 7.393081
_cell_length_b 19.467973
_cell_length_c 10.009292
_cell_angle_alpha 90.000000
_cell_angle_beta 45.265377
_cell_angle_gamma 90.000000
_cell_volume 1023.379694
_symmetry_space_group_name_H-M "P 21/M"
_symmetry_group_IT_number 11
_symmetry_cell_setting 'monoclinic'
loop_
_space_group_symop_operation_xyz
x,y,z
-x,1/2+y,-z
-x,-y,-z
x,1/2-y,z
loop_
_atom_site_type_symbol
_atom_site_label
_atom_site_fract_x
_atom_site_fract_y
_atom_site_fract_z
Si Si1 0.744619 0.995356 0.468103
Si Si2 0.723267 0.171135 0.891187
Si Si3 0.242161 0.168530 0.951456
Si Si4 0.447888 0.750000 0.543397
Si Si5 0.233262 0.350919 0.448791
Si Si6 0.906295 0.143857 0.381030
Si Si7 0.977057 0.064870 0.913320
O O1 0.820330 0.069842 0.478438
O O2 0.500000 0.000000 0.500000
O O3 0.706495 0.932063 0.585869
O O4 0.970489 0.970918 0.254751
O O5 0.700820 0.250000 0.950774
O O6 0.990772 0.164962 0.672313
O O7 0.741593 0.115803 0.001635
O O8 0.500670 0.157955 0.899944
O O9 0.212443 0.250000 0.934742
O O10 0.019009 0.147456 0.172626
O O11 0.190569 0.118716 0.853972
O O12 0.544473 0.809362 0.597706
O O13 0.336617 0.691696 0.498026
O O14 0.132898 0.329521 0.356662
O O15 0.000000 0.000000 0.000000
#
# Coordination Sequence:
#
# PCOD9166938 Si02
#       7
#     4   4   4   2   4   4   4
#     4  11  24  45  69 100 136 180 228 277 338 402
#     4  10  24  44  66  97 131 175 226 272 336 396
#     4  11  25  45  67  99 133 179 226 275 335 402
#     4  12  24  42  70 100 140 170 224 278 342 400
#     4  11  25  45  69 101 135 178 223 284 337 396
#     4  12  25  45  69 102 136 177 227 278 341 405
#     4  11  24  45  66  95 136 175 221 277 333 396
#
# _framework density 25.406013999999999
#
# number of rings (size 3 to 8) (size 9 to 14) (size 15 to 20)
#    0.000    0.923    4.615    1.385    2.154    3.077 
#    8.308    0.000    0.000    0.000    0.000    0.000 
#    0.000    0.000    0.000    0.000    0.000    0.000 
#
# Total GULP energy -144998.195183 kJ/mol
# GULP energy per Si atom -5576.853661 kJ/mol
# Density = 2.534819 g / cm^3
# Si number density = 25.406014 Si / 1000 Ang^3
#
#
#
# Elastic Constant Matrix: (Units=GPa)
#
#
# Indices 1 2 3 4 5 6 
#
# 1 170.8071 85.1110 -16.1178 0.0000 -4.7387 0.0000
# 2 85.1110 230.1743 7.0281 0.0000 -4.2709 0.0000
# 3 -16.1178 7.0281 49.1187 0.0000 6.1516 0.0000
# 4 0.0000 0.0000 0.0000 79.8159 0.0000 33.5014
# 5 -4.7387 -4.2709 6.1516 0.0000 22.6397 0.0000
# 6 0.0000 0.0000 0.0000 33.5014 0.0000 72.3767
#
#
#
# Elastic Compliance Matrix: (Units=1/GPa)
#
#
# Indices 1 2 3 4 5 6 
#
# 1 0.007567 -0.002881 0.002862 0.000000 0.000263 0.000000
# 2 -0.002881 0.005483 -0.001847 0.000000 0.000933 0.000000
# 3 0.002862 -0.001847 0.022289 0.000000 -0.005806 0.000000
# 4 0.000000 0.000000 0.000000 0.015550 0.000000 -0.007198
# 5 0.000263 0.000933 -0.005806 0.000000 0.045979 0.000000
# 6 0.000000 0.000000 0.000000 -0.007198 0.000000 0.017148
#
#
# Mechanical properties :
#
#
# Convention : Reuss Voigt Hill
#
# Bulk Modulus (GPa) = 31.63532 66.90473 49.27003
# Shear Modulus (GPa) = 38.97605 59.90504 49.44055
#
# Velocity S-wave (km/s) = 3.92104 4.86110 4.41615
# Velocity P-wave (km/s) = 5.74268 7.60910 6.74080
#
# Compressibility (1/GPa) = 0.03161024
#
# Stress axis : x y z
#
# Youngs Moduli (GPa) = 132.14636 182.36782 44.86430
#
# Poissons Ratio (x) = 0.52535 -0.12842
# Poissons Ratio (y) = 0.38067 0.08285
# Poissons Ratio (z) = -0.37826 0.33679
#
# Static dielectric constant tensor:
#      x y z
#    x 1.921700 0.000000 -0.012920 
#    y 0.000000 2.073620 0.000000 
#    z -0.012920 0.000000 2.194110 
# 
# From -- ./inp_files/29934.got.cif
#   From: 2010.05.17/outbox.cif.g08.bks.cpg/sg11_15_cif.got.tgz:29934.got - 2010.06.03 12:22:45.
