data_PCOD9166698
_publ_section_title
;
Structure prediction by ZEFSAII (Michael W. Deem and Ramdas Pophale) SiO2 
 PCOD9166698
Probable space group: P 21/M
;
_chemical_formula_sum "Si O2"
_cell_formula_units_Z 18
_cell_length_a 14.232240
_cell_length_b 7.445203
_cell_length_c 18.691252
_cell_angle_alpha 90.000000
_cell_angle_beta 161.179954
_cell_angle_gamma 90.000000
_cell_volume 638.922755
_symmetry_space_group_name_H-M "P 21/M"
_symmetry_group_IT_number 11
_symmetry_cell_setting 'monoclinic'
loop_
_space_group_symop_operation_xyz
x,y,z
-x,1/2+y,-z
-x,-y,-z
x,1/2-y,z
loop_
_atom_site_type_symbol
_atom_site_label
_atom_site_fract_x
_atom_site_fract_y
_atom_site_fract_z
Si Si1 0.224294 0.050636 0.225458
Si Si2 0.208346 0.039232 0.745476
Si Si3 0.626972 0.548145 0.404223
Si Si4 0.626811 0.465098 0.929784
Si Si5 0.101766 0.750000 0.256851
O O1 0.155508 0.250000 0.203357
O O2 0.532925 0.068244 0.404542
O O3 0.219116 0.905545 0.283190
O O4 0.000000 0.000000 0.000000
O O5 0.144666 0.250000 0.698137
O O6 0.322691 0.983827 0.749469
O O7 0.940219 0.952483 0.593011
O O8 0.500000 0.000000 0.000000
O O9 0.560945 0.750000 0.380111
O O10 0.421418 0.499323 0.188994
O O11 0.668997 0.250000 0.972209
O O12 0.888163 0.592138 0.140858
#
# Coordination Sequence:
#
# PCOD9166698 Si02
#       5
#     4   4   4   4   2
#     4  12  20  34  57  94 130 165 205 253 311 372
#     4  11  25  43  64  92 124 168 211 259 319 378
#     4  11  21  38  63  96 128 164 205 261 313 368
#     4  10  23  40  62  96 129 162 209 260 316 374
#     4  12  22  34  62  92 130 168 204 258 314 364
#
# _framework density 28.172419999999999
#
# number of rings (size 3 to 8) (size 9 to 14) (size 15 to 20)
#    0.000    0.889    4.444    2.667    4.667    0.000 
#    0.000    0.000    0.000    1.333    0.000    0.000 
#    0.000    0.000    0.000    0.000    0.000    0.000 
#
# Total GULP energy -100500.109240 kJ/mol
# GULP energy per Si atom -5583.339402 kJ/mol
# Density = 2.810830 g / cm^3
# Si number density = 28.172420 Si / 1000 Ang^3
#
#
#
# Elastic Constant Matrix: (Units=GPa)
#
#
# Indices 1 2 3 4 5 6 
#
# 1 176.4671 32.5996 5.1464 0.0000 31.8915 0.0000
# 2 32.5996 168.3412 -8.5617 0.0000 10.5521 0.0000
# 3 5.1464 -8.5617 111.8470 0.0000 38.0511 0.0000
# 4 0.0000 0.0000 0.0000 -2.9685 0.0000 54.7338
# 5 31.8915 10.5521 38.0511 0.0000 65.5562 0.0000
# 6 0.0000 0.0000 0.0000 54.7338 0.0000 1.5350
#
#
#
# Elastic Compliance Matrix: (Units=1/GPa)
#
#
# Indices 1 2 3 4 5 6 
#
# 1 0.006449 -0.000993 0.000798 0.000000 -0.003440 0.000000
# 2 -0.000993 0.006241 0.000873 0.000000 -0.001029 0.000000
# 3 0.000798 0.000873 0.011402 0.000000 -0.007147 0.000000
# 4 0.000000 0.000000 0.000000 -0.000512 0.000000 0.018243
# 5 -0.003440 -0.001029 -0.007147 0.000000 0.021242 0.000000
# 6 0.000000 0.000000 0.000000 0.018243 0.000000 0.000989
#
#
# Mechanical properties :
#
#
# Convention : Reuss Voigt Hill
#
# Bulk Modulus (GPa) = 39.29323 57.22486 48.25904
# Shear Modulus (GPa) = 94.45018 41.32262 67.88640
#
# Velocity S-wave (km/s) = 5.79642 3.83401 4.91417
# Velocity P-wave (km/s) = 7.66653 6.32107 7.02608
#
# Compressibility (1/GPa) = 0.02544968
#
# Stress axis : x y z
#
# Youngs Moduli (GPa) = 155.07186 160.21956 87.70075
#
# Poissons Ratio (x) = 0.15903 -0.06996
# Poissons Ratio (y) = 0.15392 -0.07660
# Poissons Ratio (z) = -0.12371 -0.13994
#
# Static dielectric constant tensor:
#      x y z
#    x 2.020440 0.000000 -0.234430 
#    y 0.000000 1.994100 0.000000 
#    z -0.234430 0.000000 2.345570 
# 
# From -- ./inp_files/30656.got.cif
#   From: 2010.05.17/outbox.cif.g08.bks.cpg/sg11_16_cif.got.tgz:30656.got - 2010.06.03 12:22:45.
