data_PCOD9166860
_publ_section_title
;
Structure prediction by ZEFSAII (Michael W. Deem and Ramdas Pophale) SiO2 
 PCOD9166860
Probable space group: P 21/M
;
_chemical_formula_sum "Si O2"
_cell_formula_units_Z 20
_cell_length_a 5.413192
_cell_length_b 17.650536
_cell_length_c 9.388233
_cell_angle_alpha 90.000000
_cell_angle_beta 79.588726
_cell_angle_gamma 90.000000
_cell_volume 882.237309
_symmetry_space_group_name_H-M "P 21/M"
_symmetry_group_IT_number 11
_symmetry_cell_setting 'monoclinic'
loop_
_space_group_symop_operation_xyz
x,y,z
-x,1/2+y,-z
-x,-y,-z
x,1/2-y,z
loop_
_atom_site_type_symbol
_atom_site_label
_atom_site_fract_x
_atom_site_fract_y
_atom_site_fract_z
Si Si1 0.461685 0.750000 0.998762
Si Si2 0.617127 0.457402 0.183988
Si Si3 0.731790 0.663811 0.642212
Si Si4 0.975522 0.250000 0.192352
Si Si5 0.267305 0.907163 0.114057
Si Si6 0.126030 0.448625 0.607899
O O1 0.398805 0.825813 0.092590
O O2 0.753872 0.750000 0.919296
O O3 0.254160 0.750000 0.891396
O O4 0.436224 0.387222 0.237066
O O5 0.461380 0.528084 0.139261
O O6 0.715278 0.490999 0.320202
O O7 0.807458 0.429227 0.041096
O O8 0.639373 0.750000 0.628096
O O9 0.993945 0.678830 0.701565
O O10 0.750452 0.619239 0.493324
O O11 0.051871 0.912086 0.253421
O O12 0.000000 0.500000 0.500000
#
# Coordination Sequence:
#
# PCOD9166860 Si02
#       6
#     2   4   4   2   4   4
#     4  12  26  47  77 108 150 194 259 302 365 445
#     4  11  24  48  70 101 142 193 248 304 363 451
#     4  10  23  46  69 101 141 189 242 297 375 436
#     4  10  26  47  73 108 146 196 245 308 371 447
#     4  11  26  44  73 104 140 196 242 308 363 436
#     4  12  26  42  69 107 143 190 239 310 376 444
#
# _framework density 22.669639
#
# number of rings (size 3 to 8) (size 9 to 14) (size 15 to 20)
#    0.600    0.400    4.000    1.200    7.000    0.000 
#    1.800    0.000    0.000    0.000    0.000    0.000 
#    0.000    0.000    0.000    0.000    0.000    0.000 
#
# Total GULP energy -111695.663930 kJ/mol
# GULP energy per Si atom -5584.783196 kJ/mol
# Density = 2.261804 g / cm^3
# Si number density = 22.669639 Si / 1000 Ang^3
#
#
#
# Elastic Constant Matrix: (Units=GPa)
#
#
# Indices 1 2 3 4 5 6 
#
# 1 49.1612 26.0186 30.7451 0.0000 6.8751 0.0000
# 2 26.0186 195.0400 63.5396 0.0000 -10.0974 0.0000
# 3 30.7451 63.5396 137.2013 0.0000 -0.9807 0.0000
# 4 0.0000 0.0000 0.0000 35.5164 0.0000 -10.0977
# 5 6.8751 -10.0974 -0.9807 0.0000 44.4658 0.0000
# 6 0.0000 0.0000 0.0000 -10.0977 0.0000 22.4863
#
#
#
# Elastic Compliance Matrix: (Units=1/GPa)
#
#
# Indices 1 2 3 4 5 6 
#
# 1 0.024966 -0.002034 -0.004684 0.000000 -0.004425 0.000000
# 2 -0.002034 0.006281 -0.002441 0.000000 0.001687 0.000000
# 3 -0.004684 -0.002441 0.009471 0.000000 0.000379 0.000000
# 4 0.000000 0.000000 0.000000 0.032277 0.000000 0.014494
# 5 -0.004425 0.001687 0.000379 0.000000 0.023565 0.000000
# 6 0.000000 0.000000 0.000000 0.014494 0.000000 0.050980
#
#
# Mechanical properties :
#
#
# Convention : Reuss Voigt Hill
#
# Bulk Modulus (GPa) = 44.64206 69.11211 56.87709
# Shear Modulus (GPa) = 28.84750 37.90031 33.37390
#
# Velocity S-wave (km/s) = 3.57111 4.09327 3.84107
# Velocity P-wave (km/s) = 6.06126 7.27273 6.69446
#
# Compressibility (1/GPa) = 0.02240040
#
# Stress axis : x y z
#
# Youngs Moduli (GPa) = 40.05456 159.21021 105.58008
#
# Poissons Ratio (x) = 0.32375 0.49458
# Poissons Ratio (y) = 0.08145 0.25773
# Poissons Ratio (z) = 0.18763 0.38864
#
# Static dielectric constant tensor:
#      x y z
#    x 2.014630 0.000000 -0.011240 
#    y 0.000000 2.128660 0.000000 
#    z -0.011240 0.000000 1.901440 
# 
# From -- ./inp_files/10072.got.cif
#   From: 2010.05.17/outbox.cif.g08.bks.cpg/sg11_6_cif.got.tgz:10072.got - 2010.06.03 12:22:45.
