data_PCOD9166777
_publ_section_title
;
Structure prediction by ZEFSAII (Michael W. Deem and Ramdas Pophale) SiO2 
 PCOD9166777
Probable space group: P 21/M
;
_chemical_formula_sum "Si O2"
_cell_formula_units_Z 20
_cell_length_a 12.588940
_cell_length_b 15.989095
_cell_length_c 5.527874
_cell_angle_alpha 90.000000
_cell_angle_beta 47.263954
_cell_angle_gamma 90.000000
_cell_volume 817.251585
_symmetry_space_group_name_H-M "P 21/M"
_symmetry_group_IT_number 11
_symmetry_cell_setting 'monoclinic'
loop_
_space_group_symop_operation_xyz
x,y,z
-x,1/2+y,-z
-x,-y,-z
x,1/2-y,z
loop_
_atom_site_type_symbol
_atom_site_label
_atom_site_fract_x
_atom_site_fract_y
_atom_site_fract_z
Si Si1 0.201300 0.886063 0.828521
Si Si2 0.400686 0.347823 0.122090
Si Si3 0.701299 0.386063 0.828519
Si Si4 0.900687 0.652177 0.122081
Si Si5 0.750001 0.546230 0.999995
O O1 0.250003 0.849016 0.499998
O O2 0.272432 0.978420 0.751252
O O3 0.249998 0.842595 0.000006
O O4 0.028937 0.889894 0.074421
O O5 0.434362 0.250000 0.034581
O O6 0.249999 0.352235 0.500005
O O7 0.528936 0.389894 0.074431
O O8 0.375439 0.394260 0.906011
O O9 0.772433 0.478420 0.751242
O O10 0.934363 0.750000 0.034571
O O11 0.875440 0.605740 0.906002
#
# Coordination Sequence:
#
# PCOD9166777 Si02
#       5
#     4   4   4   4   4
#     4  10  25  44  73  97 132 175 228 272 327 393
#     4  11  25  43  66 100 138 176 219 275 336 395
#     4  10  25  44  73  97 132 175 228 272 327 393
#     4  11  25  43  66 100 138 176 219 275 336 395
#     4  10  23  42  71  98 132 178 220 282 317 408
#
# _framework density 24.472266999999999
#
# number of rings (size 3 to 8) (size 9 to 14) (size 15 to 20)
#    1.200    0.400    0.000    3.000    5.600    4.800 
#    0.000    0.000    0.000    0.000    0.000    0.000 
#    0.000    0.000    0.000    0.000    0.000    0.000 
#
# Total GULP energy -111614.133199 kJ/mol
# GULP energy per Si atom -5580.706660 kJ/mol
# Density = 2.441657 g / cm^3
# Si number density = 24.472267 Si / 1000 Ang^3
#
#
#
# Elastic Constant Matrix: (Units=GPa)
#
#
# Indices 1 2 3 4 5 6 
#
# 1 250.0896 49.1065 67.8784 0.0000 13.3786 0.0000
# 2 49.1065 138.6371 12.0566 0.0000 14.6993 0.0000
# 3 67.8784 12.0566 101.4080 0.0000 4.6996 0.0000
# 4 0.0000 0.0000 0.0000 -3.6908 0.0000 -16.0620
# 5 13.3786 14.6993 4.6996 0.0000 45.6397 0.0000
# 6 0.0000 0.0000 0.0000 -16.0620 0.0000 -20.9625
#
#
#
# Elastic Compliance Matrix: (Units=1/GPa)
#
#
# Indices 1 2 3 4 5 6 
#
# 1 0.005220 -0.001488 -0.003284 0.000000 -0.000713 0.000000
# 2 -0.001488 0.007954 0.000149 0.000000 -0.002141 0.000000
# 3 -0.003284 0.000149 0.012057 0.000000 -0.000327 0.000000
# 4 0.000000 0.000000 0.000000 0.116059 0.000000 -0.088927
# 5 -0.000713 -0.002141 -0.000327 0.000000 0.022843 0.000000
# 6 0.000000 0.000000 0.000000 -0.088927 0.000000 0.020434
#
#
# Mechanical properties :
#
#
# Convention : Reuss Voigt Hill
#
# Bulk Modulus (GPa) = 62.55523 83.13530 72.84527
# Shear Modulus (GPa) = 25.10783 28.27015 26.68899
#
# Velocity S-wave (km/s) = 3.20655 3.40250 3.30598
# Velocity P-wave (km/s) = 6.27108 7.03427 6.66361
#
# Compressibility (1/GPa) = 0.01598587
#
# Stress axis : x y z
#
# Youngs Moduli (GPa) = 191.56112 125.72131 82.93996
#
# Poissons Ratio (x) = 0.18706 0.27240
# Poissons Ratio (y) = 0.28502 -0.01240
# Poissons Ratio (z) = 0.62915 -0.01879
#
# Static dielectric constant tensor:
#      x y z
#    x 1.921070 0.000000 0.027830 
#    y 0.000000 1.917190 0.000000 
#    z 0.027830 0.000000 2.021260 
# 
# From -- ./inp_files/4558.got.cif
#   From: 2010.05.17/outbox.cif.g08.bks.cpg/sg11_3_cif.got.tgz:4558.got - 2010.06.03 12:22:45.
