data_PCOD9166013
_publ_section_title
;
Structure prediction by ZEFSAII (Michael W. Deem and Ramdas Pophale) SiO2 
 PCOD9166013
Probable space group: P 21/M
;
_chemical_formula_sum "Si O2"
_cell_formula_units_Z 30
_cell_length_a 10.676556
_cell_length_b 18.008888
_cell_length_c 11.378750
_cell_angle_alpha 90.000000
_cell_angle_beta 141.750240
_cell_angle_gamma 90.000000
_cell_volume 1354.462193
_symmetry_space_group_name_H-M "P 21/M"
_symmetry_group_IT_number 11
_symmetry_cell_setting 'monoclinic'
loop_
_space_group_symop_operation_xyz
x,y,z
-x,1/2+y,-z
-x,-y,-z
x,1/2-y,z
loop_
_atom_site_type_symbol
_atom_site_label
_atom_site_fract_x
_atom_site_fract_y
_atom_site_fract_z
Si Si1 0.880747 0.435095 0.633676
Si Si2 0.532225 0.378154 0.964270
Si Si3 0.366000 0.837173 0.401254
Si Si4 0.772446 0.928255 0.708312
Si Si5 0.395679 0.250000 0.052560
Si Si6 0.305901 0.518193 0.731385
Si Si7 0.838576 0.164272 0.993859
Si Si8 0.711151 0.906534 0.931322
O O1 0.749775 0.361614 0.565326
O O2 0.773508 0.496442 0.636339
O O3 0.864528 0.461645 0.488228
O O4 0.105061 0.422247 0.844912
O O5 0.349717 0.432545 0.791412
O O6 0.644462 0.346549 0.933600
O O7 0.460359 0.315274 0.002218
O O8 0.692124 0.431774 0.150373
O O9 0.404281 0.750000 0.430472
O O10 0.573026 0.880856 0.535964
O O11 0.220625 0.854145 0.183696
O O12 0.773266 0.936208 0.849378
O O13 0.977292 0.885483 0.827537
O O14 0.330635 0.317933 0.096000
O O15 0.513140 0.547785 0.822139
O O16 0.900773 0.250000 0.043152
#
# Coordination Sequence:
#
# PCOD9166013 Si02
#       8
#     4   4   4   4   2   4   4   4
#     4  12  24  41  67 103 136 173 219 273 338 398
#     4  10  21  45  69  94 127 183 225 264 339 380
#     4  11  25  39  63 101 139 174 214 270 339 403
#     4  12  24  39  66 103 137 171 218 274 336 402
#     4  10  24  44  68  96 128 178 226 274 316 398
#     4  10  23  43  70  94 132 174 224 282 315 397
#     4  11  23  41  66  93 138 176 216 273 333 397
#     4  11  24  40  70 101 133 173 221 274 338 391
#
# _framework density 22.149011000000002
#
# number of rings (size 3 to 8) (size 9 to 14) (size 15 to 20)
#    0.000    1.067    3.333    2.800    4.667    0.000 
#    0.000   13.333    5.867    0.000    0.000    0.000 
#    0.000    0.000    0.000    0.000    0.000    0.000 
#
# Total GULP energy -167418.225653 kJ/mol
# GULP energy per Si atom -5580.607522 kJ/mol
# Density = 2.209860 g / cm^3
# Si number density = 22.149011 Si / 1000 Ang^3
#
#
#
# Elastic Constant Matrix: (Units=GPa)
#
#
# Indices 1 2 3 4 5 6 
#
# 1 66.2578 1.9722 -6.9711 0.0000 -9.5649 0.0000
# 2 1.9722 87.1803 18.8814 0.0000 4.2999 0.0000
# 3 -6.9711 18.8814 73.2882 0.0000 2.1751 0.0000
# 4 0.0000 0.0000 0.0000 6.0445 0.0000 -9.5326
# 5 -9.5649 4.2999 2.1751 0.0000 33.7818 0.0000
# 6 0.0000 0.0000 0.0000 -9.5326 0.0000 46.3477
#
#
#
# Elastic Compliance Matrix: (Units=1/GPa)
#
#
# Indices 1 2 3 4 5 6 
#
# 1 0.015945 -0.000936 0.001623 0.000000 0.004529 0.000000
# 2 -0.000936 0.012265 -0.003201 0.000000 -0.001620 0.000000
# 3 0.001623 -0.003201 0.014626 0.000000 -0.000075 0.000000
# 4 0.000000 0.000000 0.000000 0.244868 0.000000 0.050363
# 5 0.004529 -0.001620 -0.000075 0.000000 0.031095 0.000000
# 6 0.000000 0.000000 0.000000 0.050363 0.000000 0.031935
#
#
# Mechanical properties :
#
#
# Convention : Reuss Voigt Hill
#
# Bulk Modulus (GPa) = 26.44827 28.27679 27.36253
# Shear Modulus (GPa) = 13.57357 31.42437 22.49897
#
# Velocity S-wave (km/s) = 2.47822 3.77074 3.19062
# Velocity P-wave (km/s) = 4.48952 5.63492 5.09451
#
# Compressibility (1/GPa) = 0.03780966
#
# Stress axis : x y z
#
# Youngs Moduli (GPa) = 62.71536 81.53443 68.37147
#
# Poissons Ratio (x) = 0.07629 -0.11099
# Poissons Ratio (y) = 0.05868 0.21884
# Poissons Ratio (z) = -0.10181 0.26097
#
# Static dielectric constant tensor:
#      x y z
#    x 1.811390 0.000000 -0.017470 
#    y 0.000000 1.800040 0.000000 
#    z -0.017470 0.000000 1.829900 
# 
# From -- ./inp_files/36154.got.cif
#   From: 2010.05.17/outbox.cif.g08.bks.cpg/sg11_19_cif.got.tgz:36154.got - 2010.06.03 12:22:45.
