data_PCOD9166937
_publ_section_title
;
Structure prediction by ZEFSAII (Michael W. Deem and Ramdas Pophale) SiO2 
 PCOD9166937
Probable space group: P 21/M
;
_chemical_formula_sum "Si O2"
_cell_formula_units_Z 32
_cell_length_a 16.942733
_cell_length_b 15.384490
_cell_length_c 11.533961
_cell_angle_alpha 90.000000
_cell_angle_beta 31.273989
_cell_angle_gamma 90.000000
_cell_volume 1560.709741
_symmetry_space_group_name_H-M "P 21/M"
_symmetry_group_IT_number 11
_symmetry_cell_setting 'monoclinic'
loop_
_space_group_symop_operation_xyz
x,y,z
-x,1/2+y,-z
-x,-y,-z
x,1/2-y,z
loop_
_atom_site_type_symbol
_atom_site_label
_atom_site_fract_x
_atom_site_fract_y
_atom_site_fract_z
Si Si1 0.378918 0.979318 0.426039
Si Si2 0.868037 0.846136 0.779713
Si Si3 0.721963 0.008214 0.064278
Si Si4 0.429212 0.651465 0.149820
Si Si5 0.887903 0.073615 0.087389
Si Si6 0.184289 0.577374 0.304149
Si Si7 0.179995 0.155541 0.638624
Si Si8 0.746460 0.613046 0.696002
O O1 0.289425 0.071819 0.523905
O O2 0.420487 0.924142 0.258420
O O3 0.254144 0.918879 0.647309
O O4 0.538406 0.999075 0.291222
O O5 0.899516 0.750000 0.785127
O O6 0.760620 0.842218 0.802604
O O7 0.014644 0.891965 0.540073
O O8 0.791368 0.911257 0.965468
O O9 0.771718 0.059398 0.884285
O O10 0.803948 0.048517 0.072742
O O11 0.440243 0.750000 0.182121
O O12 0.287095 0.645181 0.242946
O O13 0.570602 0.627412 0.889678
O O14 0.014648 0.146372 0.904658
O O15 0.000000 0.000000 0.000000
O O16 0.212429 0.486506 0.334623
O O17 0.247280 0.250000 0.583916
O O18 0.155939 0.150723 0.530037
#
# Coordination Sequence:
#
# PCOD9166937 Si02
#       8
#     4   4   4   4   4   4   4   4
#     4  11  23  42  67  92 136 172 223 271 323 387
#     4  11  22  35  56  95 130 166 211 262 325 392
#     4  11  22  40  67  90 129 178 216 271 331 385
#     4  12  23  38  64 101 133 169 211 264 333 397
#     4  10  24  44  66  93 123 173 228 269 325 380
#     4  11  21  37  60  92 134 170 206 261 330 393
#     4  11  22  40  65  94 129 174 220 266 322 389
#     4  11  20  37  61  88 131 166 208 255 329 394
#
# _framework density 20.503492000000001
#
# number of rings (size 3 to 8) (size 9 to 14) (size 15 to 20)
#    0.000    1.000    3.750    6.000    1.750    0.500 
#    0.000    4.375    0.000    3.000    0.000    0.000 
#    0.000    0.000    0.000    0.000    0.000    0.000 
#
# Total GULP energy -178433.416072 kJ/mol
# GULP energy per Si atom -5576.044252 kJ/mol
# Density = 2.045683 g / cm^3
# Si number density = 20.503492 Si / 1000 Ang^3
#
#
#
# Elastic Constant Matrix: (Units=GPa)
#
#
# Indices 1 2 3 4 5 6 
#
# 1 62.0622 12.3493 9.1825 0.0000 -16.7107 0.0000
# 2 12.3493 125.2022 24.5335 0.0000 -1.0291 0.0000
# 3 9.1825 24.5335 100.3158 0.0000 -13.5898 0.0000
# 4 0.0000 0.0000 0.0000 11.1817 0.0000 -15.0594
# 5 -16.7107 -1.0291 -13.5898 0.0000 25.6259 0.0000
# 6 0.0000 0.0000 0.0000 -15.0594 0.0000 1.8402
#
#
#
# Elastic Compliance Matrix: (Units=1/GPa)
#
#
# Indices 1 2 3 4 5 6 
#
# 1 0.019986 -0.001948 0.000433 0.000000 0.013185 0.000000
# 2 -0.001948 0.008595 -0.002208 0.000000 -0.002096 0.000000
# 3 0.000433 -0.002208 0.011307 0.000000 0.006190 0.000000
# 4 0.000000 0.000000 0.000000 -0.008924 0.000000 -0.073030
# 5 0.013185 -0.002096 0.006190 0.000000 0.050819 0.000000
# 6 0.000000 0.000000 0.000000 -0.073030 0.000000 -0.054225
#
#
# Mechanical properties :
#
#
# Convention : Reuss Voigt Hill
#
# Bulk Modulus (GPa) = 30.82265 42.19008 36.50637
# Shear Modulus (GPa) = 109.12806 23.83054 66.47930
#
# Velocity S-wave (km/s) = 7.30340 3.41290 5.70033
# Velocity P-wave (km/s) = 9.28359 6.01267 7.82104
#
# Compressibility (1/GPa) = 0.03244367
#
# Stress axis : x y z
#
# Youngs Moduli (GPa) = 50.03388 116.35295 88.43810
#
# Poissons Ratio (x) = 0.22664 -0.03829
# Poissons Ratio (y) = 0.09746 0.19523
# Poissons Ratio (z) = -0.02166 0.25685
#
# Static dielectric constant tensor:
#      x y z
#    x 1.692590 0.000000 0.044680 
#    y 0.000000 1.777830 0.000000 
#    z 0.044680 0.000000 1.684720 
# 
# From -- ./inp_files/41631.got.cif
#   From: 2010.05.17/outbox.cif.g08.bks.cpg/sg11_21_cif.got.tgz:41631.got - 2010.06.03 12:22:45.
