data_PCOD9166984
_publ_section_title
;
Structure prediction by ZEFSAII (Michael W. Deem and Ramdas Pophale) SiO2 
 PCOD9166984
Probable space group: P 21/M
;
_chemical_formula_sum "Si O2"
_cell_formula_units_Z 14
_cell_length_a 5.151860
_cell_length_b 12.971126
_cell_length_c 8.834037
_cell_angle_alpha 90.000000
_cell_angle_beta 113.539966
_cell_angle_gamma 90.000000
_cell_volume 541.211336
_symmetry_space_group_name_H-M "P 21/M"
_symmetry_group_IT_number 11
_symmetry_cell_setting 'monoclinic'
loop_
_space_group_symop_operation_xyz
x,y,z
-x,1/2+y,-z
-x,-y,-z
x,1/2-y,z
loop_
_atom_site_type_symbol
_atom_site_label
_atom_site_fract_x
_atom_site_fract_y
_atom_site_fract_z
Si Si1 0.670389 0.750000 0.633028
Si Si2 0.254998 0.577488 0.090284
Si Si3 0.999998 0.750000 0.250000
Si Si4 0.254998 0.077488 0.590283
Si Si5 0.329613 0.750000 0.866975
O O1 0.618355 0.646080 0.520296
O O2 0.500002 0.750000 0.750001
O O3 0.000002 0.750000 0.750001
O O4 0.500001 0.472623 0.749999
O O5 0.381647 0.646080 0.979705
O O6 0.119362 0.662959 0.163640
O O7 0.000000 0.500000 0.000000
O O8 0.880636 0.662959 0.336360
O O9 0.000000 0.000000 0.500000
#
# Coordination Sequence:
#
# PCOD9166984 Si02
#       5
#     2   4   2   4   2
#     4  11  28  53  86 125 171 223 287 354 431 508
#     4  11  28  54  84 120 170 221 285 348 430 508
#     4  10  24  52  82 116 164 216 282 344 418 498
#     4  11  28  54  84 120 170 221 285 348 430 508
#     4  11  28  53  86 125 171 223 287 354 431 508
#
# _framework density 25.867898
#
# number of rings (size 3 to 8) (size 9 to 14) (size 15 to 20)
#    0.000    1.143    0.000    3.429   20.000    4.571 
#    0.000    7.143    0.000    0.000    0.000    0.000 
#    0.000    0.000    0.000    0.000    0.000    0.000 
#
# Total GULP energy -78017.184076 kJ/mol
# GULP energy per Si atom -5572.656005 kJ/mol
# Density = 2.580902 g / cm^3
# Si number density = 25.867898 Si / 1000 Ang^3
#
#
#
# Elastic Constant Matrix: (Units=GPa)
#
#
# Indices 1 2 3 4 5 6 
#
# 1 173.2352 83.5686 120.1183 0.0000 14.0402 0.0000
# 2 83.5686 125.6825 72.8413 0.0000 12.4895 0.0000
# 3 120.1183 72.8413 195.9348 0.0000 -25.6554 0.0000
# 4 0.0000 0.0000 0.0000 34.7317 0.0000 -41.8366
# 5 14.0402 12.4895 -25.6554 0.0000 103.2416 0.0000
# 6 0.0000 0.0000 0.0000 -41.8366 0.0000 155.6672
#
#
#
# Elastic Compliance Matrix: (Units=1/GPa)
#
#
# Indices 1 2 3 4 5 6 
#
# 1 0.012569 -0.004337 -0.006458 0.000000 -0.002789 0.000000
# 2 -0.004337 0.012164 -0.002045 0.000000 -0.001390 0.000000
# 3 -0.006458 -0.002045 0.010306 0.000000 0.003687 0.000000
# 4 0.000000 0.000000 0.000000 0.042575 0.000000 0.011442
# 5 -0.002789 -0.001390 0.003687 0.000000 0.011150 0.000000
# 6 0.000000 0.000000 0.000000 0.011442 0.000000 0.009499
#
#
# Mechanical properties :
#
#
# Convention : Reuss Voigt Hill
#
# Bulk Modulus (GPa) = 106.86426 116.43433 111.64929
# Shear Modulus (GPa) = 39.35060 73.28305 56.31683
#
# Velocity S-wave (km/s) = 3.90451 5.32834 4.67100
# Velocity P-wave (km/s) = 7.85672 9.10845 8.50564
#
# Compressibility (1/GPa) = 0.00935767
#
# Stress axis : x y z
#
# Youngs Moduli (GPa) = 79.56222 82.21111 97.03071
#
# Poissons Ratio (x) = 0.35655 0.62664
# Poissons Ratio (y) = 0.34507 0.19845
# Poissons Ratio (z) = 0.51383 0.16814
#
# Static dielectric constant tensor:
#      x y z
#    x 2.078270 0.000000 0.120890 
#    y 0.000000 1.987520 0.000000 
#    z 0.120890 0.000000 2.095440 
# 
# From -- ./inp_files/1273.got.cif
#   From: 2010.05.17/outbox.cif.g08.bks.cpg/sg11_1_cif.got.tgz:1273.got - 2010.06.03 12:22:45.
