data_PCOD9166547
_publ_section_title
;
Structure prediction by ZEFSAII (Michael W. Deem and Ramdas Pophale) SiO2 
 PCOD9166547
Probable space group: P 21/M
;
_chemical_formula_sum "Si O2"
_cell_formula_units_Z 32
_cell_length_a 22.764443
_cell_length_b 13.936390
_cell_length_c 15.428724
_cell_angle_alpha 90.000000
_cell_angle_beta 19.324318
_cell_angle_gamma 90.000000
_cell_volume 1619.771317
_symmetry_space_group_name_H-M "P 21/M"
_symmetry_group_IT_number 11
_symmetry_cell_setting 'monoclinic'
loop_
_space_group_symop_operation_xyz
x,y,z
-x,1/2+y,-z
-x,-y,-z
x,1/2-y,z
loop_
_atom_site_type_symbol
_atom_site_label
_atom_site_fract_x
_atom_site_fract_y
_atom_site_fract_z
Si Si1 0.148003 0.635427 0.849257
Si Si2 0.642169 0.635407 0.860798
Si Si3 0.310750 0.472485 0.725711
Si Si4 0.116285 0.527439 0.420225
Si Si5 0.806254 0.634997 0.943759
Si Si6 0.518037 0.365564 0.731864
Si Si7 0.479345 0.864889 0.899367
Si Si8 0.263346 0.364894 0.615228
O O1 0.163708 0.750000 0.844665
O O2 0.203431 0.569287 0.852583
O O3 0.290869 0.609715 0.574929
O O4 0.945720 0.614663 0.105576
O O5 0.680003 0.750000 0.811882
O O6 0.815290 0.569414 0.628871
O O7 0.548107 0.614604 0.900757
O O8 0.522195 0.609698 0.112218
O O9 0.500000 0.500000 0.500000
O O10 0.328105 0.414757 0.612217
O O11 0.222160 0.406144 0.921231
O O12 0.000000 0.500000 0.500000
O O13 0.990907 0.593593 0.652680
O O14 0.291117 0.585241 0.149311
O O15 0.807183 0.750000 0.942668
O O16 0.643502 0.602682 0.106548
O O17 0.512335 0.250000 0.737607
O O18 0.459394 0.750000 0.920820
O O19 0.620876 0.894881 0.629186
O O20 0.280380 0.250000 0.599729
#
# Coordination Sequence:
#
# PCOD9166547 Si02
#       8
#     4   4   4   4   4   4   4   4
#     4  10  22  42  67  96 131 174 219 271 332 390
#     4  10  22  42  67  96 131 174 219 271 332 390
#     4  12  25  40  68  97 132 175 220 269 329 391
#     4  12  25  40  68  97 132 175 220 269 329 391
#     4  11  24  43  64  96 137 175 221 272 326 390
#     4   9  18  37  65  94 129 167 212 270 323 384
#     4  10  24  45  67  94 133 173 217 274 330 389
#     4  10  24  45  67  94 133 173 217 274 330 389
#
# _framework density 19.755875
#
# number of rings (size 3 to 8) (size 9 to 14) (size 15 to 20)
#    0.000    1.500    2.500    1.500    5.250    2.000 
#    0.000    2.500    0.000    0.000    0.000    0.000 
#    0.000    0.000    0.000    0.000    0.000    0.000 
#
# Total GULP energy -178845.653352 kJ/mol
# GULP energy per Si atom -5588.926667 kJ/mol
# Density = 1.971091 g / cm^3
# Si number density = 19.755875 Si / 1000 Ang^3
#
#
#
# Elastic Constant Matrix: (Units=GPa)
#
#
# Indices 1 2 3 4 5 6 
#
# 1 163.6204 69.7971 90.9877 0.0000 2.0509 0.0000
# 2 69.7971 95.8296 71.1807 0.0000 1.9726 0.0000
# 3 90.9877 71.1807 167.2380 0.0000 3.2381 0.0000
# 4 0.0000 0.0000 0.0000 33.8841 0.0000 -4.9800
# 5 2.0509 1.9726 3.2381 0.0000 38.7525 0.0000
# 6 0.0000 0.0000 0.0000 -4.9800 0.0000 37.2214
#
#
#
# Elastic Compliance Matrix: (Units=1/GPa)
#
#
# Indices 1 2 3 4 5 6 
#
# 1 0.010062 -0.004770 -0.003444 0.000000 -0.000002 0.000000
# 2 -0.004770 0.017523 -0.004858 0.000000 -0.000234 0.000000
# 3 -0.003444 -0.004858 0.009929 0.000000 -0.000400 0.000000
# 4 0.000000 0.000000 0.000000 0.030104 0.000000 0.004028
# 5 -0.000002 -0.000234 -0.000400 0.000000 0.025850 0.000000
# 6 0.000000 0.000000 0.000000 0.004028 0.000000 0.027405
#
#
# Mechanical properties :
#
#
# Convention : Reuss Voigt Hill
#
# Bulk Modulus (GPa) = 87.96202 98.95767 93.45985
# Shear Modulus (GPa) = 33.15469 34.95308 34.05389
#
# Velocity S-wave (km/s) = 4.10105 4.21081 4.15629
# Velocity P-wave (km/s) = 8.18816 8.59303 8.39304
#
# Compressibility (1/GPa) = 0.01136854
#
# Stress axis : x y z
#
# Youngs Moduli (GPa) = 99.38646 57.06693 100.71789
#
# Poissons Ratio (x) = 0.27223 0.34685
# Poissons Ratio (y) = 0.47412 0.48933
# Poissons Ratio (z) = 0.34226 0.27726
#
# Static dielectric constant tensor:
#      x y z
#    x 1.663850 0.000000 0.016570 
#    y 0.000000 1.725160 0.000000 
#    z 0.016570 0.000000 1.674560 
# 
# From -- ./inp_files/54979.got.cif
#   From: 2010.05.17/outbox.cif.g08.bks.cpg/sg11_28_cif.got.tgz:54979.got - 2010.06.03 12:22:45.
