data_PCOD9166916
_publ_section_title
;
Structure prediction by ZEFSAII (Michael W. Deem and Ramdas Pophale) SiO2 
 PCOD9166916
Probable space group: P 21/M
;
_chemical_formula_sum "Si O2"
_cell_formula_units_Z 24
_cell_length_a 6.737527
_cell_length_b 17.153161
_cell_length_c 10.704341
_cell_angle_alpha 90.000000
_cell_angle_beta 75.429057
_cell_angle_gamma 90.000000
_cell_volume 1197.310485
_symmetry_space_group_name_H-M "P 21/M"
_symmetry_group_IT_number 11
_symmetry_cell_setting 'monoclinic'
loop_
_space_group_symop_operation_xyz
x,y,z
-x,1/2+y,-z
-x,-y,-z
x,1/2-y,z
loop_
_atom_site_type_symbol
_atom_site_label
_atom_site_fract_x
_atom_site_fract_y
_atom_site_fract_z
Si Si1 0.883981 0.077680 0.467128
Si Si2 0.632439 0.843047 0.054429
Si Si3 0.553157 0.446932 0.318535
Si Si4 0.737346 0.084521 0.738862
Si Si5 0.239568 0.157483 0.250287
Si Si6 0.904107 0.966500 0.137905
O O1 0.670448 0.057055 0.431579
O O2 0.829163 0.126574 0.601178
O O3 0.037264 0.119879 0.345552
O O4 0.000000 0.000000 0.500000
O O5 0.645622 0.750000 0.058735
O O6 0.409396 0.870391 0.140615
O O7 0.787542 0.886673 0.122989
O O8 0.696239 0.867241 0.902110
O O9 0.396158 0.515342 0.303093
O O10 0.429621 0.369203 0.306594
O O11 0.743198 0.467613 0.201029
O O12 0.926471 0.049534 0.785297
O O13 0.214560 0.250000 0.251812
O O14 0.000000 0.000000 0.000000
#
# Coordination Sequence:
#
# PCOD9166916 Si02
#       6
#     4   4   4   4   4   4
#     4  12  23  41  66  96 125 165 209 264 311 373
#     4  10  24  43  62  91 130 168 208 259 317 375
#     4  11  21  39  65  92 125 163 209 258 313 368
#     4  11  23  39  65  95 123 162 210 260 311 366
#     4  11  25  43  64  93 129 167 209 257 316 379
#     4  11  21  37  64  95 122 164 212 258 307 369
#
# _framework density 20.044927999999999
#
# number of rings (size 3 to 8) (size 9 to 14) (size 15 to 20)
#    0.000    1.000    3.333    3.500    0.000    4.667 
#    0.000    5.833    0.000    0.000    0.000    0.000 
#    0.000    0.000    0.000    0.000    0.000    0.000 
#
# Total GULP energy -133822.673905 kJ/mol
# GULP energy per Si atom -5575.944746 kJ/mol
# Density = 1.999930 g / cm^3
# Si number density = 20.044928 Si / 1000 Ang^3
#
#
#
# Elastic Constant Matrix: (Units=GPa)
#
#
# Indices 1 2 3 4 5 6 
#
# 1 136.7180 25.8778 53.4575 0.0000 4.5147 0.0000
# 2 25.8778 61.9181 20.1116 0.0000 -6.1389 0.0000
# 3 53.4575 20.1116 121.7178 0.0000 -17.7774 0.0000
# 4 0.0000 0.0000 0.0000 20.9681 0.0000 -6.4338
# 5 4.5147 -6.1389 -17.7774 0.0000 48.6961 0.0000
# 6 0.0000 0.0000 0.0000 -6.4338 0.0000 23.9801
#
#
#
# Elastic Compliance Matrix: (Units=1/GPa)
#
#
# Indices 1 2 3 4 5 6 
#
# 1 0.009573 -0.002936 -0.004123 0.000000 -0.002763 0.000000
# 2 -0.002936 0.018032 -0.001393 0.000000 0.002037 0.000000
# 3 -0.004123 -0.001393 0.010866 0.000000 0.004174 0.000000
# 4 0.000000 0.000000 0.000000 0.051970 0.000000 0.013943
# 5 -0.002763 0.002037 0.004174 0.000000 0.022572 0.000000
# 6 0.000000 0.000000 0.000000 0.013943 0.000000 0.045442
#
#
# Mechanical properties :
#
#
# Convention : Reuss Voigt Hill
#
# Bulk Modulus (GPa) = 46.36377 57.69419 52.02898
# Shear Modulus (GPa) = 27.39015 33.45600 30.42307
#
# Velocity S-wave (km/s) = 3.70055 4.08983 3.90005
# Velocity P-wave (km/s) = 6.43730 7.15173 6.80390
#
# Compressibility (1/GPa) = 0.02156857
#
# Stress axis : x y z
#
# Youngs Moduli (GPa) = 104.45664 55.45823 92.02878
#
# Poissons Ratio (x) = 0.16281 0.37943
# Poissons Ratio (y) = 0.30666 0.12815
# Poissons Ratio (z) = 0.43067 0.07723
#
# Static dielectric constant tensor:
#      x y z
#    x 1.725820 0.000000 -0.039420 
#    y 0.000000 1.703150 0.000000 
#    z -0.039420 0.000000 1.820840 
# 
# From -- ./inp_files/29763.got.cif
#   From: 2010.05.17/outbox.cif.g08.bks.cpg/sg11_15_cif.got.tgz:29763.got - 2010.06.03 12:22:45.
