data_PCOD9166046
_publ_section_title
;
Structure prediction by ZEFSAII (Michael W. Deem and Ramdas Pophale) SiO2 
 PCOD9166046
Probable space group: P 21/M
;
_chemical_formula_sum "Si O2"
_cell_formula_units_Z 32
_cell_length_a 11.399935
_cell_length_b 21.726975
_cell_length_c 12.376235
_cell_angle_alpha 90.000000
_cell_angle_beta 143.546413
_cell_angle_gamma 90.000000
_cell_volume 1821.385793
_symmetry_space_group_name_H-M "P 21/M"
_symmetry_group_IT_number 11
_symmetry_cell_setting 'monoclinic'
loop_
_space_group_symop_operation_xyz
x,y,z
-x,1/2+y,-z
-x,-y,-z
x,1/2-y,z
loop_
_atom_site_type_symbol
_atom_site_label
_atom_site_fract_x
_atom_site_fract_y
_atom_site_fract_z
Si Si1 0.409329 0.358388 0.795022
Si Si2 0.844552 0.318180 0.107414
Si Si3 0.919101 0.927069 0.819838
Si Si4 0.626577 0.556307 0.042207
Si Si5 0.747372 0.972484 0.899573
Si Si6 0.035020 0.680239 0.552936
Si Si7 0.939720 0.448608 0.543626
Si Si8 0.368417 0.463384 0.581895
O O1 0.440693 0.384579 0.939650
O O2 0.203729 0.322609 0.633675
O O3 0.382224 0.416084 0.692980
O O4 0.609942 0.323777 0.916796
O O5 0.912401 0.250000 0.129566
O O6 0.952389 0.368827 0.116975
O O7 0.899737 0.328549 0.274363
O O8 0.830031 0.924951 0.873825
O O9 0.747409 0.934362 0.604063
O O10 0.069302 0.985202 0.927153
O O11 0.859137 0.554296 0.240150
O O12 0.500000 0.500000 0.000000
O O13 0.628066 0.553296 0.914233
O O14 0.590012 0.015728 0.721245
O O15 0.098718 0.750000 0.567163
O O16 0.102978 0.618826 0.538324
O O17 0.761665 0.478115 0.477728
O O18 0.000000 0.500000 0.500000
#
# Coordination Sequence:
#
# PCOD9166046 Si02
#       8
#     4   4   4   4   4   4   4   4
#     4  11  21  32  58  85 119 142 187 233 287 342
#     4  11  22  37  59  82 111 152 190 232 278 338
#     4  11  22  39  55  82 116 143 201 225 282 336
#     4  11  19  31  53  85 119 145 177 228 294 328
#     4  11  23  35  56  84 115 150 176 241 284 330
#     4  10  22  37  53  81 120 151 183 235 287 338
#     4  11  19  31  54  86 112 147 188 228 280 350
#     4  12  20  34  57  86 114 150 181 241 285 333
#
# _framework density 17.569040000000001
#
# number of rings (size 3 to 8) (size 9 to 14) (size 15 to 20)
#    0.000    1.000    7.500    0.750    3.500    0.000 
#    0.000    0.000    0.000    4.500    0.000    0.000 
#    0.000    0.000    0.000    0.000    0.000    0.000 
#
# Total GULP energy -178434.830922 kJ/mol
# GULP energy per Si atom -5576.088466 kJ/mol
# Density = 1.752905 g / cm^3
# Si number density = 17.569040 Si / 1000 Ang^3
#
#
#
# Elastic Constant Matrix: (Units=GPa)
#
#
# Indices 1 2 3 4 5 6 
#
# 1 66.3369 25.6544 18.4444 0.0000 -17.4027 0.0000
# 2 25.6544 84.5996 16.1536 0.0000 -18.8714 0.0000
# 3 18.4444 16.1536 65.0215 0.0000 -0.7114 0.0000
# 4 0.0000 0.0000 0.0000 11.7117 0.0000 -0.4340
# 5 -17.4027 -18.8714 -0.7114 0.0000 19.5318 0.0000
# 6 0.0000 0.0000 0.0000 -0.4340 0.0000 18.4724
#
#
#
# Elastic Compliance Matrix: (Units=1/GPa)
#
#
# Indices 1 2 3 4 5 6 
#
# 1 0.021924 -0.001609 -0.005625 0.000000 0.017774 0.000000
# 2 -0.001609 0.016071 -0.003383 0.000000 0.013970 0.000000
# 3 -0.005625 -0.003383 0.017732 0.000000 -0.007634 0.000000
# 4 0.000000 0.000000 0.000000 0.085459 0.000000 0.002008
# 5 0.017774 0.013970 -0.007634 0.000000 0.080255 0.000000
# 6 0.000000 0.000000 0.000000 0.002008 0.000000 0.054182
#
#
# Mechanical properties :
#
#
# Convention : Reuss Voigt Hill
#
# Bulk Modulus (GPa) = 28.99236 37.38477 33.18857
# Shear Modulus (GPa) = 16.21513 20.32356 18.26935
#
# Velocity S-wave (km/s) = 3.04129 3.40484 3.22819
# Velocity P-wave (km/s) = 5.37311 6.06484 5.72942
#
# Compressibility (1/GPa) = 0.03449184
#
# Stress axis : x y z
#
# Youngs Moduli (GPa) = 45.61275 62.22514 56.39521
#
# Poissons Ratio (x) = 0.10015 0.31721
# Poissons Ratio (y) = 0.07341 0.19079
# Poissons Ratio (z) = 0.25656 0.21051
#
# Static dielectric constant tensor:
#      x y z
#    x 1.607100 0.000000 -0.007100 
#    y 0.000000 1.595340 0.000000 
#    z -0.007100 0.000000 1.698350 
# 
# From -- ./inp_files/36358.got.cif
#   From: 2010.05.17/outbox.cif.g08.bks.cpg/sg11_19_cif.got.tgz:36358.got - 2010.06.03 12:22:45.
