data_PCOD9166155
_publ_section_title
;
Structure prediction by ZEFSAII (Michael W. Deem and Ramdas Pophale) SiO2 
 PCOD9166155
Probable space group: P 21/M
;
_chemical_formula_sum "Si O2"
_cell_formula_units_Z 32
_cell_length_a 20.790401
_cell_length_b 7.721136
_cell_length_c 20.924238
_cell_angle_alpha 90.000000
_cell_angle_beta 28.899361
_cell_angle_gamma 90.000000
_cell_volume 1623.251862
_symmetry_space_group_name_H-M "P 21/M"
_symmetry_group_IT_number 11
_symmetry_cell_setting 'monoclinic'
loop_
_space_group_symop_operation_xyz
x,y,z
-x,1/2+y,-z
-x,-y,-z
x,1/2-y,z
loop_
_atom_site_type_symbol
_atom_site_label
_atom_site_fract_x
_atom_site_fract_y
_atom_site_fract_z
Si Si1 0.848743 0.542481 0.650941
Si Si2 0.375768 0.962749 0.912476
Si Si3 0.084139 0.540309 0.773938
Si Si4 0.854935 0.452464 0.790389
Si Si5 0.778811 0.457885 0.075068
Si Si6 0.143825 0.949597 0.581938
Si Si7 0.333896 0.048275 0.304303
Si Si8 0.152850 0.541987 0.849536
O O1 0.838616 0.750000 0.662117
O O2 0.821213 0.472697 0.745412
O O3 0.748464 0.473744 0.683831
O O4 0.000000 0.500000 0.500000
O O5 0.378288 0.750000 0.909081
O O6 0.325769 0.021690 0.886296
O O7 0.521281 0.025797 0.805970
O O8 0.264062 0.014562 0.060969
O O9 0.089000 0.750000 0.768302
O O10 0.136409 0.476934 0.660236
O O11 0.165743 0.478624 0.765465
O O12 0.928754 0.493953 0.919405
O O13 0.876929 0.250000 0.785390
O O14 0.993980 0.543280 0.685028
O O15 0.766207 0.250000 0.088947
O O16 0.767252 0.524569 0.158099
O O17 0.186531 0.750000 0.548347
O O18 0.241043 0.039049 0.447408
O O19 0.355668 0.250000 0.269763
O O20 0.168617 0.750000 0.834000
O O21 0.000000 0.500000 0.000000
#
# Coordination Sequence:
#
# PCOD9166155 Si02
#       8
#     4   4   4   4   4   4   4   4
#     4  11  22  36  56  79 105 135 173 214 257 306
#     4   9  19  35  54  78 105 134 173 214 255 304
#     4   9  17  28  44  72 106 133 164 210 256 297
#     4  11  21  35  57  80 104 134 168 213 261 306
#     4   9  15  27  49  73  99 133 170 206 247 301
#     4  11  21  33  52  77 105 136 174 214 253 306
#     4  10  22  39  56  74 101 137 173 213 258 305
#     4   8  14  24  41  68 100 132 164 202 250 296
#
# _framework density 19.713515000000001
#
# number of rings (size 3 to 8) (size 9 to 14) (size 15 to 20)
#    0.000    2.250    2.500    1.125    0.000    1.500 
#    0.000    1.875    0.000    0.750    0.000    0.000 
#    0.000    0.000    0.000    0.000    0.000    0.125 
#
# Total GULP energy -178472.896756 kJ/mol
# GULP energy per Si atom -5577.278024 kJ/mol
# Density = 1.966865 g / cm^3
# Si number density = 19.713515 Si / 1000 Ang^3
#
#
#
# Elastic Constant Matrix: (Units=GPa)
#
#
# Indices 1 2 3 4 5 6 
#
# 1 175.5212 -3.3765 56.7458 0.0000 12.6510 0.0000
# 2 -3.3765 35.2798 -6.6074 0.0000 -3.1330 0.0000
# 3 56.7458 -6.6074 65.2600 0.0000 -6.2570 0.0000
# 4 0.0000 0.0000 0.0000 -27.7113 0.0000 -7.7772
# 5 12.6510 -3.1330 -6.2570 0.0000 32.3523 0.0000
# 6 0.0000 0.0000 0.0000 -7.7772 0.0000 9.6880
#
#
#
# Elastic Compliance Matrix: (Units=1/GPa)
#
#
# Indices 1 2 3 4 5 6 
#
# 1 0.008675 -0.001146 -0.008146 0.000000 -0.005079 0.000000
# 2 -0.001146 0.029422 0.004373 0.000000 0.004143 0.000000
# 3 -0.008146 0.004373 0.023634 0.000000 0.008180 0.000000
# 4 0.000000 0.000000 0.000000 -0.029451 0.000000 -0.023642
# 5 -0.005079 0.004143 0.008180 0.000000 0.034879 0.000000
# 6 0.000000 0.000000 0.000000 -0.023642 0.000000 0.084242
#
#
# Mechanical properties :
#
#
# Convention : Reuss Voigt Hill
#
# Bulk Modulus (GPa) = 19.27097 41.06498 30.16797
# Shear Modulus (GPa) = 28.00544 18.15240 23.07892
#
# Velocity S-wave (km/s) = 3.77320 3.03778 3.42528
# Velocity P-wave (km/s) = 5.36465 5.76023 5.56595
#
# Compressibility (1/GPa) = 0.05189153
#
# Stress axis : x y z
#
# Youngs Moduli (GPa) = 115.27376 33.98814 42.31227
#
# Poissons Ratio (x) = 0.03897 0.34469
# Poissons Ratio (y) = 0.13215 -0.18503
# Poissons Ratio (z) = 0.93905 -0.14863
#
# Static dielectric constant tensor:
#      x y z
#    x 1.741720 0.000000 0.020630 
#    y 0.000000 1.818530 0.000000 
#    z 0.020630 0.000000 1.643810 
# 
# From -- ./inp_files/66428.got.cif
#   From: 2010.05.17/outbox.cif.g08.bks.cpg/sg11_34_cif.got.tgz:66428.got - 2010.06.03 12:22:45.
