data_PCOD9166973
_publ_section_title
;
Structure prediction by ZEFSAII (Michael W. Deem and Ramdas Pophale) SiO2 
 PCOD9166973
Probable space group: P 21/M
;
_chemical_formula_sum "Si O2"
_cell_formula_units_Z 26
_cell_length_a 16.916935
_cell_length_b 9.236538
_cell_length_c 11.942432
_cell_angle_alpha 90.000000
_cell_angle_beta 35.293741
_cell_angle_gamma 90.000000
_cell_volume 1078.145846
_symmetry_space_group_name_H-M "P 21/M"
_symmetry_group_IT_number 11
_symmetry_cell_setting 'monoclinic'
loop_
_space_group_symop_operation_xyz
x,y,z
-x,1/2+y,-z
-x,-y,-z
x,1/2-y,z
loop_
_atom_site_type_symbol
_atom_site_label
_atom_site_fract_x
_atom_site_fract_y
_atom_site_fract_z
Si Si1 0.261753 0.575737 0.477989
Si Si2 0.924667 0.913368 0.683026
Si Si3 0.692318 0.461413 0.219712
Si Si4 0.341620 0.080847 0.153476
Si Si5 0.525868 0.415916 0.194051
Si Si6 0.992623 0.080520 0.829595
Si Si7 0.465318 0.250000 0.574304
O O1 0.257314 0.750000 0.473670
O O2 0.274066 0.495082 0.341139
O O3 0.404132 0.523992 0.368447
O O4 0.131495 0.508615 0.692522
O O5 0.978363 0.750000 0.637365
O O6 0.773146 0.902673 0.810334
O O7 0.000000 0.000000 0.500000
O O8 0.944465 0.005601 0.770329
O O9 0.648255 0.422435 0.141718
O O10 0.585711 0.370892 0.414621
O O11 0.652719 0.626008 0.278645
O O12 0.851233 0.430644 0.061988
O O13 0.385735 0.250000 0.120827
O O14 0.438694 0.968331 0.973031
O O15 0.476787 0.250000 0.253843
O O16 0.027319 0.250000 0.776950
#
# Coordination Sequence:
#
# PCOD9166973 Si02
#       7
#     4   4   4   4   4   4   2
#     4  12  27  42  61  92 136 184 223 264 311 373
#     4  11  22  34  57  89 130 175 218 268 313 361
#     4  11  24  44  76 103 131 158 209 267 334 390
#     4  11  23  39  60  91 132 182 225 268 308 366
#     4  12  24  42  66  96 133 177 219 265 318 384
#     4  12  23  40  64  96 131 171 214 264 322 385
#     4  10  24  46  72 108 128 156 202 274 336 400
#
# _framework density 24.115476999999998
#
# number of rings (size 3 to 8) (size 9 to 14) (size 15 to 20)
#    0.000    0.615    4.615    3.692    4.308    1.231 
#    0.000    0.000    0.000    5.538    0.000    0.000 
#    0.000    0.000    0.000    0.000    0.000    0.000 
#
# Total GULP energy -144745.627685 kJ/mol
# GULP energy per Si atom -5567.139526 kJ/mol
# Density = 2.406059 g / cm^3
# Si number density = 24.115477 Si / 1000 Ang^3
#
#
#
# Elastic Constant Matrix: (Units=GPa)
#
#
# Indices 1 2 3 4 5 6 
#
# 1 61.0258 11.9641 23.9602 0.0000 16.8752 0.0000
# 2 11.9641 260.9961 55.1813 0.0000 6.7308 0.0000
# 3 23.9602 55.1813 89.4752 0.0000 -23.4124 0.0000
# 4 0.0000 0.0000 0.0000 16.1470 0.0000 -65.5981
# 5 16.8752 6.7308 -23.4124 0.0000 34.2874 0.0000
# 6 0.0000 0.0000 0.0000 -65.5981 0.0000 -155.8834
#
#
#
# Elastic Compliance Matrix: (Units=1/GPa)
#
#
# Indices 1 2 3 4 5 6 
#
# 1 0.029716 0.002846 -0.016663 0.000000 -0.026562 0.000000
# 2 0.002846 0.005011 -0.005450 0.000000 -0.006106 0.000000
# 3 -0.016663 -0.005450 0.026086 0.000000 0.027083 0.000000
# 4 0.000000 0.000000 0.000000 0.022856 0.000000 -0.009618
# 5 -0.026562 -0.006106 0.027083 0.000000 0.061930 0.000000
# 6 0.000000 0.000000 0.000000 -0.009618 0.000000 -0.002368
#
#
# Mechanical properties :
#
#
# Convention : Reuss Voigt Hill
#
# Bulk Modulus (GPa) = 44.88572 65.96758 55.42665
# Shear Modulus (GPa) = 26.42833 0.26963 13.34898
#
# Velocity S-wave (km/s) = 3.31404 0.33474 2.35530
# Velocity P-wave (km/s) = 5.77036 5.25011 5.51637
#
# Compressibility (1/GPa) = 0.02227880
#
# Stress axis : x y z
#
# Youngs Moduli (GPa) = 33.65223 199.57190 38.33466
#
# Poissons Ratio (x) = -0.56793 0.63876
# Poissons Ratio (y) = -0.09577 0.20892
# Poissons Ratio (z) = 0.56074 1.08764
#
# Static dielectric constant tensor:
#      x y z
#    x 2.042690 0.000000 -0.042940 
#    y 0.000000 1.862520 0.000000 
#    z -0.042940 0.000000 1.996410 
# 
# From -- ./inp_files/54200.got.cif
#   From: 2010.05.17/outbox.cif.g08.bks.cpg/sg11_28_cif.got.tgz:54200.got - 2010.06.03 12:22:45.
