data_PCOD9166231
_publ_section_title
;
Structure prediction by ZEFSAII (Michael W. Deem and Ramdas Pophale) SiO2 
 PCOD9166231
Probable space group: P 21/M
;
_chemical_formula_sum "Si O2"
_cell_formula_units_Z 24
_cell_length_a 13.853519
_cell_length_b 14.739023
_cell_length_c 11.617886
_cell_angle_alpha 90.000000
_cell_angle_beta 148.831558
_cell_angle_gamma 90.000000
_cell_volume 1227.758911
_symmetry_space_group_name_H-M "P 21/M"
_symmetry_group_IT_number 11
_symmetry_cell_setting 'monoclinic'
loop_
_space_group_symop_operation_xyz
x,y,z
-x,1/2+y,-z
-x,-y,-z
x,1/2-y,z
loop_
_atom_site_type_symbol
_atom_site_label
_atom_site_fract_x
_atom_site_fract_y
_atom_site_fract_z
Si Si1 0.277819 0.750000 0.197161
Si Si2 0.003897 0.607584 0.025896
Si Si3 0.979729 0.852565 0.269677
Si Si4 0.336839 0.110273 0.894318
Si Si5 0.754785 0.091110 0.270871
Si Si6 0.243207 0.750000 0.894426
Si Si7 0.690847 0.750000 0.326915
Si Si8 0.727623 0.750000 0.631875
O O1 0.504028 0.750000 0.427165
O O2 0.185942 0.661375 0.163483
O O3 0.206581 0.750000 0.992181
O O4 0.994962 0.621548 0.153520
O O5 0.830447 0.662319 0.791680
O O6 0.000000 0.500000 0.000000
O O7 0.051242 0.750000 0.358438
O O8 0.769374 0.855987 0.101854
O O9 0.097563 0.914619 0.476435
O O10 0.264527 0.164009 0.707899
O O11 0.291879 0.004900 0.832535
O O12 0.558140 0.124837 0.122995
O O13 0.820476 0.161738 0.240823
O O14 0.467690 0.750000 0.114781
O O15 0.763750 0.750000 0.530906
#
# Coordination Sequence:
#
# PCOD9166231 Si02
#       8
#     2   4   4   4   4   2   2   2
#     4  10  23  45  67  90 125 171 217 260 310 376
#     4  11  27  45  62  94 128 166 222 264 310 375
#     4  12  23  40  60  90 123 164 206 246 316 366
#     4  10  22  39  62  93 125 156 198 253 308 371
#     4  10  22  39  62  93 125 156 198 253 308 371
#     4   9  19  37  62  91 119 158 204 244 305 369
#     4   9  19  37  62  91 119 158 204 244 305 369
#     4  10  23  45  67  90 125 171 217 260 310 376
#
# _framework density 19.547813000000001
#
# number of rings (size 3 to 8) (size 9 to 14) (size 15 to 20)
#    0.000    1.667    3.333    0.500    4.667    4.667 
#    0.000    0.000    0.000    0.000    0.000    0.000 
#    0.000    0.000    0.000    0.000    0.000    0.000 
#
# Total GULP energy -133986.472428 kJ/mol
# GULP energy per Si atom -5582.769685 kJ/mol
# Density = 1.950332 g / cm^3
# Si number density = 19.547813 Si / 1000 Ang^3
#
#
#
# Elastic Constant Matrix: (Units=GPa)
#
#
# Indices 1 2 3 4 5 6 
#
# 1 132.9535 27.7599 36.2394 0.0000 -7.7852 0.0000
# 2 27.7599 103.5914 4.9206 0.0000 6.8822 0.0000
# 3 36.2394 4.9206 82.0803 0.0000 12.2323 0.0000
# 4 0.0000 0.0000 0.0000 -82.1430 0.0000 -2.1644
# 5 -7.7852 6.8822 12.2323 0.0000 41.1455 0.0000
# 6 0.0000 0.0000 0.0000 -2.1644 0.0000 14.8781
#
#
#
# Elastic Compliance Matrix: (Units=1/GPa)
#
#
# Indices 1 2 3 4 5 6 
#
# 1 0.009518 -0.002572 -0.004584 0.000000 0.003594 0.000000
# 2 -0.002572 0.010467 0.000880 0.000000 -0.002499 0.000000
# 3 -0.004584 0.000880 0.014969 0.000000 -0.005465 0.000000
# 4 0.000000 0.000000 0.000000 -0.012127 0.000000 -0.001764
# 5 0.003594 -0.002499 -0.005465 0.000000 0.027027 0.000000
# 6 0.000000 0.000000 0.000000 -0.001764 0.000000 0.066956
#
#
# Mechanical properties :
#
#
# Convention : Reuss Voigt Hill
#
# Bulk Modulus (GPa) = 44.63633 50.71834 47.67734
# Shear Modulus (GPa) = 36.54248 11.42313 23.98281
#
# Velocity S-wave (km/s) = 4.32833 2.41999 3.50648
# Velocity P-wave (km/s) = 6.91833 5.81469 6.39038
#
# Compressibility (1/GPa) = 0.02240327
#
# Stress axis : x y z
#
# Youngs Moduli (GPa) = 105.06143 95.54147 66.80650
#
# Poissons Ratio (x) = 0.24570 0.30623
# Poissons Ratio (y) = 0.27018 -0.05882
# Poissons Ratio (z) = 0.48158 -0.08411
#
# Static dielectric constant tensor:
#      x y z
#    x 1.701300 0.000000 0.027510 
#    y 0.000000 1.703210 0.000000 
#    z 0.027510 0.000000 1.696800 
# 
# From -- ./inp_files/39763.got.cif
#   From: 2010.05.17/outbox.cif.g08.bks.cpg/sg11_20_cif.got.tgz:39763.got - 2010.06.03 12:22:45.
