data_PCOD9166577
_publ_section_title
;
Structure prediction by ZEFSAII (Michael W. Deem and Ramdas Pophale) SiO2 
 PCOD9166577
Probable space group: P 21/M
;
_chemical_formula_sum "Si O2"
_cell_formula_units_Z 20
_cell_length_a 5.316271
_cell_length_b 30.977344
_cell_length_c 5.164168
_cell_angle_alpha 90.000000
_cell_angle_beta 117.043729
_cell_angle_gamma 90.000000
_cell_volume 757.466603
_symmetry_space_group_name_H-M "P 21/M"
_symmetry_group_IT_number 11
_symmetry_cell_setting 'monoclinic'
loop_
_space_group_symop_operation_xyz
x,y,z
-x,1/2+y,-z
-x,-y,-z
x,1/2-y,z
loop_
_atom_site_type_symbol
_atom_site_label
_atom_site_fract_x
_atom_site_fract_y
_atom_site_fract_z
Si Si1 0.568617 0.841726 0.931913
Si Si2 0.507235 0.048545 0.390072
Si Si3 0.551270 0.299141 0.626239
Si Si4 0.938286 0.470671 0.218753
Si Si5 0.897993 0.374898 0.624016
O O1 0.642233 0.821310 0.685860
O O2 0.772873 0.876599 0.162234
O O3 0.186756 0.832023 0.256289
O O4 0.563155 0.803859 0.139452
O O5 0.624247 0.044552 0.149157
O O6 0.732820 0.081398 0.620809
O O7 0.189334 0.064383 0.304493
O O8 0.500000 0.000000 0.500000
O O9 0.613901 0.250000 0.588615
O O10 0.739223 0.362368 0.280236
O O11 0.000000 0.500000 0.500000
O O12 0.000000 0.500000 0.000000
#
# Coordination Sequence:
#
# PCOD9166577 Si02
#       5
#     4   4   4   4   4
#     4  10  25  45  69 106 143 188 236 306 371 448
#     4  10  23  45  73 105 150 201 253 311 379 451
#     4  10  24  47  73 104 143 188 242 305 377 452
#     4  10  22  43  64  99 134 189 247 303 359 434
#     4  10  26  46  72 108 150 189 251 306 377 445
#
# _framework density 26.403805999999999
#
# number of rings (size 3 to 8) (size 9 to 14) (size 15 to 20)
#    1.200    0.800    0.000    1.200    5.600    4.800 
#   10.800    0.000    0.000    0.000    0.000    0.000 
#    0.000    0.000    0.000    0.000    0.000    0.000 
#
# Total GULP energy -111379.150968 kJ/mol
# GULP energy per Si atom -5568.957548 kJ/mol
# Density = 2.634371 g / cm^3
# Si number density = 26.403806 Si / 1000 Ang^3
#
#
#
# Elastic Constant Matrix: (Units=GPa)
#
#
# Indices 1 2 3 4 5 6 
#
# 1 149.8533 25.9912 56.3611 0.0000 -6.0911 0.0000
# 2 25.9912 157.8192 39.2053 0.0000 3.8356 0.0000
# 3 56.3611 39.2053 175.4473 0.0000 2.3814 0.0000
# 4 0.0000 0.0000 0.0000 26.6722 0.0000 -14.1009
# 5 -6.0911 3.8356 2.3814 0.0000 42.3313 0.0000
# 6 0.0000 0.0000 0.0000 -14.1009 0.0000 27.0016
#
#
#
# Elastic Compliance Matrix: (Units=1/GPa)
#
#
# Indices 1 2 3 4 5 6 
#
# 1 0.007732 -0.000724 -0.002340 0.000000 0.001310 0.000000
# 2 -0.000724 0.006788 -0.001276 0.000000 -0.000647 0.000000
# 3 -0.002340 -0.001276 0.006745 0.000000 -0.000601 0.000000
# 4 0.000000 0.000000 0.000000 0.051791 0.000000 0.027047
# 5 0.001310 -0.000647 -0.000601 0.000000 0.023904 0.000000
# 6 0.000000 0.000000 0.000000 0.027047 0.000000 0.051159
#
#
# Mechanical properties :
#
#
# Convention : Reuss Voigt Hill
#
# Bulk Modulus (GPa) = 79.45274 80.69279 80.07276
# Shear Modulus (GPa) = 31.05719 43.30517 37.18118
#
# Velocity S-wave (km/s) = 3.43335 4.05422 3.75664
# Velocity P-wave (km/s) = 6.77303 7.24866 7.01488
#
# Compressibility (1/GPa) = 0.01258610
#
# Stress axis : x y z
#
# Youngs Moduli (GPa) = 129.33188 147.31453 148.26764
#
# Poissons Ratio (x) = 0.10665 0.34693
# Poissons Ratio (y) = 0.09363 0.18912
# Poissons Ratio (z) = 0.30262 0.18790
#
# Static dielectric constant tensor:
#      x y z
#    x 2.365220 0.000000 0.150000 
#    y 0.000000 2.114070 0.000000 
#    z 0.150000 0.000000 2.272530 
# 
# From -- ./inp_files/857.got.cif
#   From: 2010.05.17/outbox.cif.g08.bks.cpg/sg11_1_cif.got.tgz:857.got - 2010.06.03 12:22:45.
