data_PCOD9166479
_publ_section_title
;
Structure prediction by ZEFSAII (Michael W. Deem and Ramdas Pophale) SiO2 
 PCOD9166479
Probable space group: P 21/M
;
_chemical_formula_sum "Si O2"
_cell_formula_units_Z 28
_cell_length_a 15.414789
_cell_length_b 15.475898
_cell_length_c 7.169571
_cell_angle_alpha 90.000000
_cell_angle_beta 131.558590
_cell_angle_gamma 90.000000
_cell_volume 1279.821613
_symmetry_space_group_name_H-M "P 21/M"
_symmetry_group_IT_number 11
_symmetry_cell_setting 'monoclinic'
loop_
_space_group_symop_operation_xyz
x,y,z
-x,1/2+y,-z
-x,-y,-z
x,1/2-y,z
loop_
_atom_site_type_symbol
_atom_site_label
_atom_site_fract_x
_atom_site_fract_y
_atom_site_fract_z
Si Si1 0.479487 0.897380 0.470358
Si Si2 0.810404 0.645942 0.419826
Si Si3 0.081673 0.448740 0.762512
Si Si4 0.994059 0.651510 0.991201
Si Si5 0.228348 0.909487 0.181099
Si Si6 0.386475 0.850948 0.701709
Si Si7 0.430612 0.148644 0.774168
O O1 0.342524 0.877916 0.231546
O O2 0.487345 0.857156 0.686987
O O3 0.565578 0.860551 0.441341
O O4 0.500000 0.000000 0.500000
O O5 0.809957 0.750000 0.427089
O O6 0.850932 0.617172 0.274848
O O7 0.684145 0.612318 0.297201
O O8 0.900413 0.617062 0.708953
O O9 0.000000 0.500000 0.500000
O O10 0.009123 0.403855 0.824692
O O11 0.175352 0.508298 0.002913
O O12 0.965282 0.750000 0.998781
O O13 0.116560 0.648858 0.058814
O O14 0.287910 0.911612 0.471948
O O15 0.347569 0.750000 0.660004
O O16 0.448370 0.886372 0.972601
O O17 0.435436 0.250000 0.827745
#
# Coordination Sequence:
#
# PCOD9166479 Si02
#       7
#     4   4   4   4   4   4   4
#     4  10  24  39  60  96 129 169 207 265 323 380
#     4  10  24  43  67  96 130 173 222 269 321 400
#     4  12  25  42  65  99 134 171 214 272 335 390
#     4  11  24  45  69  95 130 175 221 272 330 389
#     4  10  24  42  66  98 131 168 216 272 333 389
#     4   9  21  41  62  90 128 166 211 265 317 382
#     4  10  22  41  67  92 123 172 219 261 319 389
#
# _framework density 21.878050000000002
#
# number of rings (size 3 to 8) (size 9 to 14) (size 15 to 20)
#    0.857    0.857    1.429    1.714    4.000    1.714 
#    0.000    4.286    0.000    0.000    0.000    0.000 
#    0.000    0.000    0.000    0.000    0.000    0.000 
#
# Total GULP energy -156018.762835 kJ/mol
# GULP energy per Si atom -5572.098673 kJ/mol
# Density = 2.182825 g / cm^3
# Si number density = 21.878050 Si / 1000 Ang^3
#
#
#
# Elastic Constant Matrix: (Units=GPa)
#
#
# Indices 1 2 3 4 5 6 
#
# 1 94.5429 13.2194 24.3631 0.0000 -1.0973 0.0000
# 2 13.2194 51.2347 25.5752 0.0000 -6.4129 0.0000
# 3 24.3631 25.5752 83.5330 0.0000 1.6156 0.0000
# 4 0.0000 0.0000 0.0000 33.4683 0.0000 -11.1886
# 5 -1.0973 -6.4129 1.6156 0.0000 31.8437 0.0000
# 6 0.0000 0.0000 0.0000 -11.1886 0.0000 14.3452
#
#
#
# Elastic Compliance Matrix: (Units=1/GPa)
#
#
# Indices 1 2 3 4 5 6 
#
# 1 0.011539 -0.001492 -0.002913 0.000000 0.000245 0.000000
# 2 -0.001492 0.024057 -0.007030 0.000000 0.005150 0.000000
# 3 -0.002913 -0.007030 0.015017 0.000000 -0.002278 0.000000
# 4 0.000000 0.000000 0.000000 0.040418 0.000000 0.031524
# 5 0.000245 0.005150 -0.002278 0.000000 0.032565 0.000000
# 6 0.000000 0.000000 0.000000 0.031524 0.000000 0.094297
#
#
# Mechanical properties :
#
#
# Convention : Reuss Voigt Hill
#
# Bulk Modulus (GPa) = 36.04576 39.51399 37.77987
# Shear Modulus (GPa) = 19.99910 27.00830 23.50370
#
# Velocity S-wave (km/s) = 3.02672 3.51735 3.28122
# Velocity P-wave (km/s) = 5.35968 5.88183 5.62681
#
# Compressibility (1/GPa) = 0.02774252
#
# Stress axis : x y z
#
# Youngs Moduli (GPa) = 86.65889 41.56832 66.58946
#
# Poissons Ratio (x) = 0.06204 0.19400
# Poissons Ratio (y) = 0.12933 0.46811
# Poissons Ratio (z) = 0.25247 0.29222
#
# Static dielectric constant tensor:
#      x y z
#    x 1.803680 0.000000 0.047060 
#    y 0.000000 2.231570 0.000000 
#    z 0.047060 0.000000 1.819080 
# 
# From -- ./inp_files/6887.got.cif
#   From: 2010.05.17/outbox.cif.g08.bks.cpg/sg11_4_cif.got.tgz:6887.got - 2010.06.03 12:22:45.
