data_PCOD9166489
_publ_section_title
;
Structure prediction by ZEFSAII (Michael W. Deem and Ramdas Pophale) SiO2 
 PCOD9166489
Probable space group: P 21/M
;
_chemical_formula_sum "Si O2"
_cell_formula_units_Z 32
_cell_length_a 11.480190
_cell_length_b 14.935592
_cell_length_c 9.368936
_cell_angle_alpha 90.000000
_cell_angle_beta 118.585323
_cell_angle_gamma 90.000000
_cell_volume 1410.615076
_symmetry_space_group_name_H-M "P 21/M"
_symmetry_group_IT_number 11
_symmetry_cell_setting 'monoclinic'
loop_
_space_group_symop_operation_xyz
x,y,z
-x,1/2+y,-z
-x,-y,-z
x,1/2-y,z
loop_
_atom_site_type_symbol
_atom_site_label
_atom_site_fract_x
_atom_site_fract_y
_atom_site_fract_z
Si Si1 0.436327 0.150687 0.976243
Si Si2 0.054573 0.854060 0.001452
Si Si3 0.018280 0.846860 0.316815
Si Si4 0.721805 0.417626 0.465387
Si Si5 0.632549 0.355535 0.839621
Si Si6 0.791963 0.586242 0.356301
Si Si7 0.812213 0.579608 0.689055
Si Si8 0.428764 0.445964 0.260686
O O1 0.433389 0.250000 0.040014
O O2 0.569099 0.142944 0.960062
O O3 0.317106 0.140021 0.794528
O O4 0.418874 0.078101 0.088592
O O5 0.033150 0.750000 0.949752
O O6 0.019730 0.861849 0.148373
O O7 0.209812 0.872831 0.068770
O O8 0.952005 0.909790 0.847341
O O9 0.954506 0.750000 0.304065
O O10 0.166580 0.843800 0.467452
O O11 0.929429 0.915388 0.352359
O O12 0.738063 0.485148 0.342535
O O13 0.777724 0.478167 0.627035
O O14 0.567425 0.402978 0.392754
O O15 0.613022 0.250000 0.775967
O O16 0.568525 0.444449 0.726323
O O17 0.808665 0.622561 0.528497
O O18 0.692381 0.599986 0.726337
#
# Coordination Sequence:
#
# PCOD9166489 Si02
#       8
#     4   4   4   4   4   4   4   4
#     4  11  24  43  70 100 132 181 227 276 341 402
#     4  10  23  43  67  98 132 173 228 283 334 401
#     4  11  23  42  66  93 132 175 222 277 336 400
#     4  10  24  41  65  96 131 172 220 270 336 398
#     4  10  22  41  67  98 132 174 222 277 341 395
#     4  10  23  42  64  95 133 174 217 277 332 406
#     4  10  24  40  65  97 130 174 218 275 336 398
#     4  12  23  44  71 100 136 175 230 283 326 405
#
# _framework density 22.685138999999999
#
# number of rings (size 3 to 8) (size 9 to 14) (size 15 to 20)
#    0.750    0.750    1.250    3.000    0.000    8.000 
#    0.000    1.875    0.000    1.500    0.000    0.000 
#    0.000    0.000    0.000    0.000    0.000    0.000 
#
# Total GULP energy -178489.146281 kJ/mol
# GULP energy per Si atom -5577.785821 kJ/mol
# Density = 2.263351 g / cm^3
# Si number density = 22.685139 Si / 1000 Ang^3
#
#
#
# Elastic Constant Matrix: (Units=GPa)
#
#
# Indices 1 2 3 4 5 6 
#
# 1 146.6200 26.2780 45.2368 0.0000 0.6972 0.0000
# 2 26.2780 42.0315 24.4287 0.0000 -5.9291 0.0000
# 3 45.2368 24.4287 72.0530 0.0000 1.9568 0.0000
# 4 0.0000 0.0000 0.0000 2.1067 0.0000 7.9124
# 5 0.6972 -5.9291 1.9568 0.0000 25.5267 0.0000
# 6 0.0000 0.0000 0.0000 7.9124 0.0000 22.2144
#
#
#
# Elastic Compliance Matrix: (Units=1/GPa)
#
#
# Indices 1 2 3 4 5 6 
#
# 1 0.008729 -0.002943 -0.004467 0.000000 -0.000580 0.000000
# 2 -0.002943 0.032200 -0.009294 0.000000 0.008272 0.000000
# 3 -0.004467 -0.009294 0.019931 0.000000 -0.003565 0.000000
# 4 0.000000 0.000000 0.000000 -1.405394 0.000000 0.500579
# 5 -0.000580 0.008272 -0.003565 0.000000 0.041385 0.000000
# 6 0.000000 0.000000 0.000000 0.500579 0.000000 -0.133282
#
#
# Mechanical properties :
#
#
# Convention : Reuss Voigt Hill
#
# Bulk Modulus (GPa) = 36.42663 50.28792 43.35728
# Shear Modulus (GPa) = -3.58712 20.95364 8.68326
#
# Velocity S-wave (km/s) = -1.25885 3.04250 1.95858
# Velocity P-wave (km/s) = 3.73891 5.87863 4.92634
#
# Compressibility (1/GPa) = 0.02745244
#
# Stress axis : x y z
#
# Youngs Moduli (GPa) = 114.56555 31.05574 50.17368
#
# Poissons Ratio (x) = 0.09139 0.22410
# Poissons Ratio (y) = 0.33716 0.46632
# Poissons Ratio (z) = 0.51172 0.28863
#
# Static dielectric constant tensor:
#      x y z
#    x 1.882440 0.000000 -0.005880 
#    y 0.000000 1.940670 0.000000 
#    z -0.005880 0.000000 1.818190 
# 
# From -- ./inp_files/35528.got.cif
#   From: 2010.05.17/outbox.cif.g08.bks.cpg/sg11_18_cif.got.tgz:35528.got - 2010.06.03 12:22:45.
