data_PCOD9166350
_publ_section_title
;
Structure prediction by ZEFSAII (Michael W. Deem and Ramdas Pophale) SiO2 
 PCOD9166350
Probable space group: P 21/M
;
_chemical_formula_sum "Si O2"
_cell_formula_units_Z 30
_cell_length_a 14.141202
_cell_length_b 20.243359
_cell_length_c 5.136322
_cell_angle_alpha 90.000000
_cell_angle_beta 110.665171
_cell_angle_gamma 90.000000
_cell_volume 1375.747140
_symmetry_space_group_name_H-M "P 21/M"
_symmetry_group_IT_number 11
_symmetry_cell_setting 'monoclinic'
loop_
_space_group_symop_operation_xyz
x,y,z
-x,1/2+y,-z
-x,-y,-z
x,1/2-y,z
loop_
_atom_site_type_symbol
_atom_site_label
_atom_site_fract_x
_atom_site_fract_y
_atom_site_fract_z
Si Si1 0.273386 0.631369 0.448604
Si Si2 0.600690 0.939378 0.333819
Si Si3 0.800388 0.573301 0.840526
Si Si4 0.786076 0.057980 0.096996
Si Si5 0.914734 0.677986 0.241090
Si Si6 0.987540 0.561969 0.681280
Si Si7 0.521946 0.410554 0.271636
Si Si8 0.110958 0.750000 0.257616
O O1 0.227541 0.582457 0.623597
O O2 0.388428 0.642719 0.652724
O O3 0.198765 0.692656 0.353009
O O4 0.282838 0.596129 0.177091
O O5 0.714308 0.926848 0.539695
O O6 0.531334 0.913607 0.502499
O O7 0.577175 0.017877 0.286114
O O8 0.562402 0.905993 0.032715
O O9 0.906353 0.547800 0.824006
O O10 0.770294 0.519537 0.030259
O O11 0.828552 0.644038 0.985691
O O12 0.899360 0.077272 0.123246
O O13 0.885173 0.750000 0.320637
O O14 0.944016 0.625057 0.486709
O O15 0.018566 0.693792 0.185815
O O16 0.000000 0.500000 0.500000
#
# Coordination Sequence:
#
# PCOD9166350 Si02
#       8
#     4   4   4   4   4   4   4   2
#     4  12  24  44  70  98 137 180 226 282 351 401
#     4  10  23  39  67  99 135 167 220 285 344 400
#     4  12  25  38  70  96 136 179 224 280 352 406
#     4  12  24  39  67 104 134 171 225 281 337 408
#     4  10  24  44  62  95 137 177 230 269 343 422
#     4  12  24  39  64  99 137 179 228 286 329 418
#     4  10  22  40  65 100 132 170 220 285 345 400
#     4  10  24  46  66  96 136 192 220 282 334 432
#
# _framework density 21.806331
#
# number of rings (size 3 to 8) (size 9 to 14) (size 15 to 20)
#    0.400    0.533    4.000    2.800    5.600    1.067 
#    3.600    0.000    2.933    0.000    0.000    0.000 
#    0.000    0.000    0.000    0.000    0.000    0.000 
#
# Total GULP energy -167184.960045 kJ/mol
# GULP energy per Si atom -5572.832002 kJ/mol
# Density = 2.175670 g / cm^3
# Si number density = 21.806331 Si / 1000 Ang^3
#
#
#
# Elastic Constant Matrix: (Units=GPa)
#
#
# Indices 1 2 3 4 5 6 
#
# 1 57.4722 6.0630 4.4579 0.0000 21.1687 0.0000
# 2 6.0630 106.3878 33.2034 0.0000 -7.0434 0.0000
# 3 4.4579 33.2034 92.1042 0.0000 20.9826 0.0000
# 4 0.0000 0.0000 0.0000 3.2947 0.0000 6.1304
# 5 21.1687 -7.0434 20.9826 0.0000 38.2405 0.0000
# 6 0.0000 0.0000 0.0000 6.1304 0.0000 26.7279
#
#
#
# Elastic Compliance Matrix: (Units=1/GPa)
#
#
# Indices 1 2 3 4 5 6 
#
# 1 0.023190 -0.003491 0.003665 0.000000 -0.015491 0.000000
# 2 -0.003491 0.011884 -0.005776 0.000000 0.007291 0.000000
# 3 0.003665 -0.005776 0.015391 0.000000 -0.011538 0.000000
# 4 0.000000 0.000000 0.000000 0.529490 0.000000 -0.121445
# 5 -0.015491 0.007291 -0.011538 0.000000 0.042399 0.000000
# 6 0.000000 0.000000 0.000000 -0.121445 0.000000 0.065269
#
#
# Mechanical properties :
#
#
# Convention : Reuss Voigt Hill
#
# Bulk Modulus (GPa) = 25.47113 38.15699 31.81406
# Shear Modulus (GPa) = 7.02333 27.80194 17.41264
#
# Velocity S-wave (km/s) = 1.79660 3.57452 2.82886
# Velocity P-wave (km/s) = 4.00121 5.87982 5.02902
#
# Compressibility (1/GPa) = 0.03926013
#
# Stress axis : x y z
#
# Youngs Moduli (GPa) = 43.12291 84.14733 64.97485
#
# Poissons Ratio (x) = 0.29376 -0.23815
# Poissons Ratio (y) = 0.15055 0.37530
# Poissons Ratio (z) = -0.15805 0.48604
#
# Static dielectric constant tensor:
#      x y z
#    x 1.829060 0.000000 -0.000500 
#    y 0.000000 1.795480 0.000000 
#    z -0.000500 0.000000 1.833880 
# 
# From -- ./inp_files/7095.got.cif
#   From: 2010.05.17/outbox.cif.g08.bks.cpg/sg11_4_cif.got.tgz:7095.got - 2010.06.03 12:22:45.
