data_PCOD9166829
_publ_section_title
;
Structure prediction by ZEFSAII (Michael W. Deem and Ramdas Pophale) SiO2 
 PCOD9166829
Probable space group: P 21/M
;
_chemical_formula_sum "Si O2"
_cell_formula_units_Z 26
_cell_length_a 8.835536
_cell_length_b 21.060862
_cell_length_c 9.967645
_cell_angle_alpha 90.000000
_cell_angle_beta 134.538982
_cell_angle_gamma 90.000000
_cell_volume 1322.065875
_symmetry_space_group_name_H-M "P 21/M"
_symmetry_group_IT_number 11
_symmetry_cell_setting 'monoclinic'
loop_
_space_group_symop_operation_xyz
x,y,z
-x,1/2+y,-z
-x,-y,-z
x,1/2-y,z
loop_
_atom_site_type_symbol
_atom_site_label
_atom_site_fract_x
_atom_site_fract_y
_atom_site_fract_z
Si Si1 0.714845 0.750000 0.852914
Si Si2 0.371941 0.419684 0.551181
Si Si3 0.958188 0.679928 0.774609
Si Si4 0.859908 0.969552 0.031017
Si Si5 0.495776 0.877253 0.800997
Si Si6 0.363958 0.594371 0.018975
Si Si7 0.749838 0.434373 0.573341
O O1 0.849634 0.695875 0.849456
O O2 0.575894 0.806380 0.836053
O O3 0.196199 0.368378 0.399258
O O4 0.574162 0.416341 0.576198
O O5 0.281739 0.491124 0.481440
O O6 0.461743 0.407313 0.755370
O O7 0.974183 0.750000 0.717567
O O8 0.185885 0.647822 0.934397
O O9 0.017680 0.928241 0.219277
O O10 0.756592 0.027030 0.048650
O O11 0.670462 0.927568 0.855904
O O12 0.000000 0.000000 0.000000
O O13 0.457979 0.894618 0.931361
O O14 0.291777 0.891662 0.582287
#
# Coordination Sequence:
#
# PCOD9166829 Si02
#       7
#     2   4   4   4   4   4   4
#     4  10  24  46  68  86 134 176 220 260 328 406
#     4  11  21  39  67 102 122 172 220 270 309 398
#     4  10  23  44  67  89 128 173 220 260 319 401
#     4  12  22  40  69 102 130 172 224 268 320 396
#     4  12  26  44  63 102 136 171 210 283 332 386
#     4  12  25  40  71  99 135 166 219 276 340 372
#     4  11  21  37  70  95 133 168 219 261 330 378
#
# _framework density 19.666193
#
# number of rings (size 3 to 8) (size 9 to 14) (size 15 to 20)
#    0.462    0.308    6.154    2.308    1.077    2.462 
#    0.000    2.308    0.000    0.000    0.000    0.000 
#    0.000    0.000    0.000    0.000    0.000    0.000 
#
# Total GULP energy -144773.436093 kJ/mol
# GULP energy per Si atom -5568.209081 kJ/mol
# Density = 1.962143 g / cm^3
# Si number density = 19.666193 Si / 1000 Ang^3
#
#
#
# Elastic Constant Matrix: (Units=GPa)
#
#
# Indices 1 2 3 4 5 6 
#
# 1 36.6282 25.5185 7.8627 0.0000 -9.2558 0.0000
# 2 25.5185 86.2060 -10.9399 0.0000 -1.6964 0.0000
# 3 7.8627 -10.9399 64.7967 0.0000 0.9455 0.0000
# 4 0.0000 0.0000 0.0000 8.2725 0.0000 -3.1596
# 5 -9.2558 -1.6964 0.9455 0.0000 30.2879 0.0000
# 6 0.0000 0.0000 0.0000 -3.1596 0.0000 34.0629
#
#
#
# Elastic Compliance Matrix: (Units=1/GPa)
#
#
# Indices 1 2 3 4 5 6 
#
# 1 0.040778 -0.012759 -0.007277 0.000000 0.011974 0.000000
# 2 -0.012759 0.015857 0.004271 0.000000 -0.003144 0.000000
# 3 -0.007277 0.004271 0.017074 0.000000 -0.002518 0.000000
# 4 0.000000 0.000000 0.000000 0.125323 0.000000 0.011625
# 5 0.011974 -0.003144 -0.002518 0.000000 0.036578 0.000000
# 6 0.000000 0.000000 0.000000 0.011625 0.000000 0.030436
#
#
# Mechanical properties :
#
#
# Convention : Reuss Voigt Hill
#
# Bulk Modulus (GPa) = 23.70800 25.83484 24.77142
# Shear Modulus (GPa) = 16.04440 25.53729 20.79085
#
# Velocity S-wave (km/s) = 2.85938 3.60743 3.25497
# Velocity P-wave (km/s) = 4.79404 5.52418 5.17201
#
# Compressibility (1/GPa) = 0.04217985
#
# Stress axis : x y z
#
# Youngs Moduli (GPa) = 24.52288 63.06295 58.56922
#
# Poissons Ratio (x) = 0.80462 0.42621
# Poissons Ratio (y) = 0.31289 -0.25017
# Poissons Ratio (z) = 0.17846 -0.26936
#
# Static dielectric constant tensor:
#      x y z
#    x 1.706790 0.000000 -0.009980 
#    y 0.000000 1.684800 0.000000 
#    z -0.009980 0.000000 1.689590 
# 
# From -- ./inp_files/14565.got.cif
#   From: 2010.05.17/outbox.cif.g08.bks.cpg/sg11_8_cif.got.tgz:14565.got - 2010.06.03 12:22:45.
