data_PCOD9166054
_publ_section_title
;
Structure prediction by ZEFSAII (Michael W. Deem and Ramdas Pophale) SiO2 
 PCOD9166054
Probable space group: P 21/M
;
_chemical_formula_sum "Si O2"
_cell_formula_units_Z 32
_cell_length_a 23.586682
_cell_length_b 8.643070
_cell_length_c 14.700156
_cell_angle_alpha 90.000000
_cell_angle_beta 149.143029
_cell_angle_gamma 90.000000
_cell_volume 1537.045532
_symmetry_space_group_name_H-M "P 21/M"
_symmetry_group_IT_number 11
_symmetry_cell_setting 'monoclinic'
loop_
_space_group_symop_operation_xyz
x,y,z
-x,1/2+y,-z
-x,-y,-z
x,1/2-y,z
loop_
_atom_site_type_symbol
_atom_site_label
_atom_site_fract_x
_atom_site_fract_y
_atom_site_fract_z
Si Si1 0.217778 0.064649 0.561962
Si Si2 0.313808 0.936130 0.877237
Si Si3 0.382961 0.573101 0.314167
Si Si4 0.971725 0.935463 0.200729
Si Si5 0.330540 0.573316 0.451155
Si Si6 0.225874 0.065561 0.945514
Si Si7 0.104748 0.563842 0.093393
Si Si8 0.436837 0.066470 0.755551
O O1 0.212326 0.250000 0.544925
O O2 0.325618 0.007264 0.652667
O O3 0.245719 0.015688 0.703308
O O4 0.097063 0.997198 0.372506
O O5 0.310994 0.750000 0.863275
O O6 0.263453 0.981964 0.905342
O O7 0.442528 0.990468 0.047982
O O8 0.500000 0.500000 0.500000
O O9 0.393454 0.750000 0.296184
O O10 0.330611 0.576029 0.342384
O O11 0.312798 0.478506 0.144698
O O12 0.974752 0.750000 0.199334
O O13 0.896126 0.977738 0.184266
O O14 0.906164 0.000621 0.023456
O O15 0.344276 0.750000 0.501802
O O16 0.208023 0.510323 0.297280
O O17 0.420446 0.473741 0.626757
O O18 0.228442 0.250000 0.934829
O O19 0.108256 0.750000 0.096091
O O20 0.000000 0.500000 0.000000
O O21 0.438035 0.250000 0.769668
#
# Coordination Sequence:
#
# PCOD9166054 Si02
#       8
#     4   4   4   4   4   4   4   4
#     4  11  24  43  67  94 125 164 210 265 324 384
#     4  11  24  43  67  94 125 164 210 265 324 384
#     4  11  22  38  59  88 124 164 208 254 307 367
#     4  11  24  42  64  92 127 168 214 264 317 377
#     4  10  22  37  57  86 122 161 200 242 299 364
#     4  11  24  42  64  92 127 168 214 264 317 377
#     4  11  22  38  59  88 124 164 208 254 307 367
#     4  10  23  41  63  94 128 163 207 260 317 378
#
# _framework density 20.819161999999999
#
# number of rings (size 3 to 8) (size 9 to 14) (size 15 to 20)
#    0.000    1.250    1.250    4.125    0.000   10.000 
#    0.000    0.000    0.000    0.000    0.000    0.000 
#    0.000    0.000    0.000    0.000    0.000    0.000 
#
# Total GULP energy -178722.984481 kJ/mol
# GULP energy per Si atom -5585.093265 kJ/mol
# Density = 2.077178 g / cm^3
# Si number density = 20.819162 Si / 1000 Ang^3
#
#
#
# Elastic Constant Matrix: (Units=GPa)
#
#
# Indices 1 2 3 4 5 6 
#
# 1 67.9662 10.1931 12.8044 0.0000 5.8344 0.0000
# 2 10.1931 35.1154 12.9355 0.0000 12.8849 0.0000
# 3 12.8044 12.9355 94.9976 0.0000 9.3187 0.0000
# 4 0.0000 0.0000 0.0000 27.1046 0.0000 -2.7131
# 5 5.8344 12.8849 9.3187 0.0000 35.7827 0.0000
# 6 0.0000 0.0000 0.0000 -2.7131 0.0000 31.8491
#
#
#
# Elastic Compliance Matrix: (Units=1/GPa)
#
#
# Indices 1 2 3 4 5 6 
#
# 1 0.015622 -0.003669 -0.001525 0.000000 -0.000829 0.000000
# 2 -0.003669 0.034778 -0.003152 0.000000 -0.011104 0.000000
# 3 -0.001525 -0.003152 0.011315 0.000000 -0.001563 0.000000
# 4 0.000000 0.000000 0.000000 0.037211 0.000000 0.003170
# 5 -0.000829 -0.011104 -0.001563 0.000000 0.032487 0.000000
# 6 0.000000 0.000000 0.000000 0.003170 0.000000 0.031668
#
#
# Mechanical properties :
#
#
# Convention : Reuss Voigt Hill
#
# Bulk Modulus (GPa) = 22.21052 29.99389 26.10220
# Shear Modulus (GPa) = 25.67003 29.75701 27.71352
#
# Velocity S-wave (km/s) = 3.51522 3.78472 3.65246
# Velocity P-wave (km/s) = 5.21221 5.79111 5.50927
#
# Compressibility (1/GPa) = 0.04502371
#
# Stress axis : x y z
#
# Youngs Moduli (GPa) = 64.01301 28.75384 88.38139
#
# Poissons Ratio (x) = 0.10549 0.13476
# Poissons Ratio (y) = 0.23485 0.27857
# Poissons Ratio (z) = 0.09760 0.09063
#
# Static dielectric constant tensor:
#      x y z
#    x 1.757800 0.000000 0.088890 
#    y 0.000000 1.708120 0.000000 
#    z 0.088890 0.000000 1.793080 
# 
# From -- ./inp_files/55677.got.cif
#   From: 2010.05.17/outbox.cif.g08.bks.cpg/sg11_28_cif.got.tgz:55677.got - 2010.06.03 12:22:45.
