data_PCOD9166855
_publ_section_title
;
Structure prediction by ZEFSAII (Michael W. Deem and Ramdas Pophale) SiO2 
 PCOD9166855
Probable space group: P 21/M
;
_chemical_formula_sum "Si O2"
_cell_formula_units_Z 30
_cell_length_a 21.187640
_cell_length_b 14.504165
_cell_length_c 8.480925
_cell_angle_alpha 90.000000
_cell_angle_beta 31.325461
_cell_angle_gamma 90.000000
_cell_volume 1354.993850
_symmetry_space_group_name_H-M "P 21/M"
_symmetry_group_IT_number 11
_symmetry_cell_setting 'monoclinic'
loop_
_space_group_symop_operation_xyz
x,y,z
-x,1/2+y,-z
-x,-y,-z
x,1/2-y,z
loop_
_atom_site_type_symbol
_atom_site_label
_atom_site_fract_x
_atom_site_fract_y
_atom_site_fract_z
Si Si1 0.691197 0.403462 0.408143
Si Si2 0.820300 0.358208 0.805422
Si Si3 0.548846 0.594972 0.715549
Si Si4 0.305260 0.996663 0.164694
Si Si5 0.130002 0.011936 0.801175
Si Si6 0.657219 0.646891 0.160194
Si Si7 0.098006 0.357514 0.170591
Si Si8 0.503261 0.250000 0.936859
O O1 0.631195 0.504581 0.541362
O O2 0.808278 0.416061 0.272223
O O3 0.591964 0.329574 0.668719
O O4 0.742968 0.381354 0.125076
O O5 0.804359 0.250000 0.799299
O O6 0.774830 0.425082 0.764759
O O7 0.963949 0.374682 0.525627
O O8 0.570930 0.638889 0.495852
O O9 0.410898 0.561055 0.020745
O O10 0.569372 0.669054 0.806930
O O11 0.219922 0.046626 0.472383
O O12 0.367541 0.069835 0.915543
O O13 0.118239 0.077845 0.977162
O O14 0.000000 0.000000 0.000000
O O15 0.647982 0.750000 0.111775
O O16 0.793559 0.629919 0.935536
O O17 0.103698 0.250000 0.110356
#
# Coordination Sequence:
#
# PCOD9166855 Si02
#       8
#     4   4   4   4   4   4   4   2
#     4  12  26  48  73 104 136 186 238 282 347 424
#     4  11  24  43  71 102 139 178 233 282 341 419
#     4  12  25  47  71 100 141 183 227 287 348 409
#     4  12  26  42  68 101 140 175 231 285 344 406
#     4  12  25  43  69 101 137 178 227 290 350 403
#     4  11  24  45  71  98 135 184 227 280 348 412
#     4  10  23  45  70  99 136 185 229 280 348 416
#     4  12  26  46  72 104 136 186 236 284 346 416
#
# _framework density 22.140321
#
# number of rings (size 3 to 8) (size 9 to 14) (size 15 to 20)
#    0.000    0.533    6.667    0.800    2.800    1.600 
#    2.400    0.000    0.000    0.000    0.000    0.000 
#    0.000    0.000    0.000    0.000    0.000    0.000 
#
# Total GULP energy -167437.067795 kJ/mol
# GULP energy per Si atom -5581.235593 kJ/mol
# Density = 2.208993 g / cm^3
# Si number density = 22.140321 Si / 1000 Ang^3
#
#
#
# Elastic Constant Matrix: (Units=GPa)
#
#
# Indices 1 2 3 4 5 6 
#
# 1 31.7270 11.6035 -0.7047 0.0000 -4.5874 0.0000
# 2 11.6035 120.7131 31.3900 0.0000 5.3985 0.0000
# 3 -0.7047 31.3900 122.1849 0.0000 15.4777 0.0000
# 4 0.0000 0.0000 0.0000 48.7513 0.0000 5.8294
# 5 -4.5874 5.3985 15.4777 0.0000 38.7037 0.0000
# 6 0.0000 0.0000 0.0000 5.8294 0.0000 4.2827
#
#
#
# Elastic Compliance Matrix: (Units=1/GPa)
#
#
# Indices 1 2 3 4 5 6 
#
# 1 0.033442 -0.003552 0.000569 0.000000 0.004232 0.000000
# 2 -0.003552 0.009259 -0.002299 0.000000 -0.000793 0.000000
# 3 0.000569 -0.002299 0.009195 0.000000 -0.003289 0.000000
# 4 0.000000 0.000000 0.000000 0.024500 0.000000 -0.033348
# 5 0.004232 -0.000793 -0.003289 0.000000 0.027765 0.000000
# 6 0.000000 0.000000 0.000000 -0.033348 0.000000 0.278892
#
#
# Mechanical properties :
#
#
# Convention : Reuss Voigt Hill
#
# Bulk Modulus (GPa) = 24.19345 39.91143 32.05244
# Shear Modulus (GPa) = 12.27318 33.83662 23.05490
#
# Velocity S-wave (km/s) = 2.35699 3.91356 3.23043
# Velocity P-wave (km/s) = 4.28465 6.20379 5.33129
#
# Compressibility (1/GPa) = 0.04133349
#
# Stress axis : x y z
#
# Youngs Moduli (GPa) = 29.90210 108.00604 108.75773
#
# Poissons Ratio (x) = 0.38363 -0.06192
# Poissons Ratio (y) = 0.10621 0.24999
# Poissons Ratio (z) = -0.01702 0.24827
#
# Static dielectric constant tensor:
#      x y z
#    x 1.865710 0.000000 -0.010800 
#    y 0.000000 1.801290 0.000000 
#    z -0.010800 0.000000 1.814610 
# 
# From -- ./inp_files/27721.got.cif
#   From: 2010.05.17/outbox.cif.g08.bks.cpg/sg11_14_cif.got.tgz:27721.got - 2010.06.03 12:22:45.
