data_PCOD9166165
_publ_section_title
;
Structure prediction by ZEFSAII (Michael W. Deem and Ramdas Pophale) SiO2 
 PCOD9166165
Probable space group: P 21/M
;
_chemical_formula_sum "Si O2"
_cell_formula_units_Z 28
_cell_length_a 5.545407
_cell_length_b 8.956101
_cell_length_c 31.943332
_cell_angle_alpha 90.000000
_cell_angle_beta 121.513481
_cell_angle_gamma 90.000000
_cell_volume 1352.495335
_symmetry_space_group_name_H-M "P 21/M"
_symmetry_group_IT_number 11
_symmetry_cell_setting 'monoclinic'
loop_
_space_group_symop_operation_xyz
x,y,z
-x,1/2+y,-z
-x,-y,-z
x,1/2-y,z
loop_
_atom_site_type_symbol
_atom_site_label
_atom_site_fract_x
_atom_site_fract_y
_atom_site_fract_z
Si Si1 0.932480 0.089417 0.787005
Si Si2 0.167492 0.070075 0.391420
Si Si3 0.400409 0.415299 0.190828
Si Si4 0.168010 0.569350 0.554033
Si Si5 0.900824 0.579129 0.286353
Si Si6 0.318066 0.069444 0.022148
Si Si7 0.448141 0.916705 0.117783
O O1 0.807755 0.250000 0.791439
O O2 0.882368 0.085314 0.733003
O O3 0.255012 0.099076 0.831333
O O4 0.844988 0.932315 0.797926
O O5 0.159980 0.250000 0.388947
O O6 0.499881 0.025239 0.419439
O O7 0.994951 0.025250 0.417749
O O8 0.014006 0.004341 0.336851
O O9 0.485127 0.250000 0.187174
O O10 0.642874 0.496475 0.239955
O O11 0.279780 0.499648 0.139102
O O12 0.158431 0.750000 0.550940
O O13 0.000000 0.500000 0.500000
O O14 0.830508 0.750000 0.290517
O O15 0.305135 0.250000 0.017346
O O16 0.468643 0.015478 0.078506
O O17 0.500000 0.000000 0.000000
O O18 0.000000 0.000000 0.000000
O O19 0.341223 0.750000 0.098293
#
# Coordination Sequence:
#
# PCOD9166165 Si02
#       7
#     4   4   4   4   4   4   4
#     4   9  20  38  60  86 121 162 207 257 311 377
#     4  10  22  39  60  90 124 160 202 255 315 371
#     4  11  22  36  60  90 124 164 207 258 316 383
#     4  10  22  40  62  88 121 158 205 257 309 371
#     4  10  22  39  58  86 121 160 209 258 311 376
#     4  12  27  48  73 103 139 179 228 283 343 407
#     4  10  22  42  65  91 125 167 215 267 326 390
#
# _framework density 20.702476999999998
#
# number of rings (size 3 to 8) (size 9 to 14) (size 15 to 20)
#    0.000    1.714    0.000    4.714    4.000    4.571 
#    0.000    0.000    0.000    0.000    0.000    0.000 
#    0.000    0.000    0.000    0.000    0.000    0.000 
#
# Total GULP energy -155910.737783 kJ/mol
# GULP energy per Si atom -5568.240635 kJ/mol
# Density = 2.065536 g / cm^3
# Si number density = 20.702477 Si / 1000 Ang^3
#
#
#
# Elastic Constant Matrix: (Units=GPa)
#
#
# Indices 1 2 3 4 5 6 
#
# 1 102.8587 39.5884 55.4871 0.0000 -18.8233 0.0000
# 2 39.5884 97.9493 41.5349 0.0000 -15.8455 0.0000
# 3 55.4871 41.5349 143.1741 0.0000 -29.7904 0.0000
# 4 0.0000 0.0000 0.0000 30.6036 0.0000 -2.2161
# 5 -18.8233 -15.8455 -29.7904 0.0000 28.8841 0.0000
# 6 0.0000 0.0000 0.0000 -2.2161 0.0000 17.8710
#
#
#
# Elastic Compliance Matrix: (Units=1/GPa)
#
#
# Indices 1 2 3 4 5 6 
#
# 1 0.013577 -0.003439 -0.003585 0.000000 0.003264 0.000000
# 2 -0.003439 0.012831 -0.001771 0.000000 0.002971 0.000000
# 3 -0.003585 -0.001771 0.010440 0.000000 0.007459 0.000000
# 4 0.000000 0.000000 0.000000 0.032972 0.000000 0.004089
# 5 0.003264 0.002971 0.007459 0.000000 0.046071 0.000000
# 6 0.000000 0.000000 0.000000 0.004089 0.000000 0.056464
#
#
# Mechanical properties :
#
#
# Convention : Reuss Voigt Hill
#
# Bulk Modulus (GPa) = 51.92947 68.57809 60.25378
# Shear Modulus (GPa) = 25.46282 29.29651 27.37966
#
# Velocity S-wave (km/s) = 3.51086 3.76589 3.64061
# Velocity P-wave (km/s) = 6.44771 7.21850 6.84396
#
# Compressibility (1/GPa) = 0.01925689
#
# Stress axis : x y z
#
# Youngs Moduli (GPa) = 73.65430 77.93545 95.78748
#
# Poissons Ratio (x) = 0.26804 0.34339
# Poissons Ratio (y) = 0.25332 0.16967
# Poissons Ratio (z) = 0.26404 0.13805
#
# Static dielectric constant tensor:
#      x y z
#    x 1.922510 0.000000 -0.006700 
#    y 0.000000 1.954870 0.000000 
#    z -0.006700 0.000000 1.687730 
# 
# From -- ./inp_files/9634.got.cif
#   From: 2010.05.17/outbox.cif.g08.bks.cpg/sg11_5_cif.got.tgz:9634.got - 2010.06.03 12:22:45.
