data_PCOD9166677
_publ_section_title
;
Structure prediction by ZEFSAII (Michael W. Deem and Ramdas Pophale) SiO2 
 PCOD9166677
Probable space group: P 21/M
;
_chemical_formula_sum "Si O2"
_cell_formula_units_Z 18
_cell_length_a 5.629843
_cell_length_b 16.681787
_cell_length_c 7.227469
_cell_angle_alpha 90.000000
_cell_angle_beta 107.094463
_cell_angle_gamma 90.000000
_cell_volume 648.786575
_symmetry_space_group_name_H-M "P 21/M"
_symmetry_group_IT_number 11
_symmetry_cell_setting 'monoclinic'
loop_
_space_group_symop_operation_xyz
x,y,z
-x,1/2+y,-z
-x,-y,-z
x,1/2-y,z
loop_
_atom_site_type_symbol
_atom_site_label
_atom_site_fract_x
_atom_site_fract_y
_atom_site_fract_z
Si Si1 0.715272 0.750000 0.259081
Si Si2 0.161496 0.250000 0.104383
Si Si3 0.063171 0.919916 0.906840
Si Si4 0.250224 0.578497 0.586851
Si Si5 0.460922 0.915414 0.257014
Si Si6 0.835106 0.250000 0.399430
O O1 0.647660 0.750000 0.026437
O O2 0.611024 0.833199 0.317812
O O3 0.009718 0.750000 0.373775
O O4 0.057304 0.340029 0.042243
O O5 0.056910 0.250000 0.296740
O O6 0.019967 0.927058 0.676619
O O7 0.352523 0.912160 0.026646
O O8 0.000000 0.000000 0.000000
O O9 0.402205 0.499649 0.677623
O O10 0.246682 0.582703 0.365632
O O11 0.332207 0.670398 0.651988
#
# Coordination Sequence:
#
# PCOD9166677 Si02
#       6
#     2   2   4   4   4   2
#     4  12  24  40  64  91 122 159 201 250 298 356
#     4  10  23  39  63  89 118 162 202 245 297 359
#     4  11  23  42  64  89 122 160 201 248 300 357
#     4  10  23  41  62  90 123 159 199 248 298 357
#     4  11  24  39  62  92 122 158 201 250 301 354
#     4  10  23  41  61  88 122 161 203 245 301 359
#
# _framework density 27.744102000000002
#
# number of rings (size 3 to 8) (size 9 to 14) (size 15 to 20)
#    0.000    1.333    0.000    4.667    0.000   10.667 
#    0.000    1.111    0.000    0.000    0.000    0.000 
#    0.000    0.000    0.000    0.000    0.000    0.000 
#
# Total GULP energy -100290.766483 kJ/mol
# GULP energy per Si atom -5571.709249 kJ/mol
# Density = 2.768096 g / cm^3
# Si number density = 27.744102 Si / 1000 Ang^3
#
#
#
# Elastic Constant Matrix: (Units=GPa)
#
#
# Indices 1 2 3 4 5 6 
#
# 1 33.2673 55.9297 36.8122 0.0000 -14.3503 0.0000
# 2 55.9297 277.7734 50.0378 0.0000 -9.8866 0.0000
# 3 36.8122 50.0378 142.6153 0.0000 -27.3427 0.0000
# 4 0.0000 0.0000 0.0000 40.9408 0.0000 -2.8143
# 5 -14.3503 -9.8866 -27.3427 0.0000 43.8564 0.0000
# 6 0.0000 0.0000 0.0000 -2.8143 0.0000 50.4543
#
#
#
# Elastic Compliance Matrix: (Units=1/GPa)
#
#
# Indices 1 2 3 4 5 6 
#
# 1 0.065376 -0.010793 -0.010737 0.000000 0.012265 0.000000
# 2 -0.010793 0.005625 0.000430 0.000000 -0.001996 0.000000
# 3 -0.010737 0.000430 0.010196 0.000000 0.002941 0.000000
# 4 0.000000 0.000000 0.000000 0.024520 0.000000 0.001368
# 5 0.012265 -0.001996 0.002941 0.000000 0.028198 0.000000
# 6 0.000000 0.000000 0.000000 0.001368 0.000000 0.019896
#
#
# Mechanical properties :
#
#
# Convention : Reuss Voigt Hill
#
# Bulk Modulus (GPa) = 25.64271 82.13504 53.88888
# Shear Modulus (GPa) = 23.92225 47.77537 35.84881
#
# Velocity S-wave (km/s) = 2.93959 4.15420 3.59851
# Velocity P-wave (km/s) = 4.55897 7.25800 6.06065
#
# Compressibility (1/GPa) = 0.03899743
#
# Stress axis : x y z
#
# Youngs Moduli (GPa) = 15.29607 177.78566 98.07479
#
# Poissons Ratio (x) = 1.91881 1.05302
# Poissons Ratio (y) = 0.16509 -0.04215
# Poissons Ratio (z) = 0.16423 -0.07641
#
# Static dielectric constant tensor:
#      x y z
#    x 2.233350 0.000000 0.039260 
#    y 0.000000 2.129910 0.000000 
#    z 0.039260 0.000000 2.147720 
# 
# From -- ./inp_files/10012.got.cif
#   From: 2010.05.17/outbox.cif.g08.bks.cpg/sg11_6_cif.got.tgz:10012.got - 2010.06.03 12:22:45.
