data_PCOD9166274
_publ_section_title
;
Structure prediction by ZEFSAII (Michael W. Deem and Ramdas Pophale) SiO2 
 PCOD9166274
Probable space group: P 21/M
;
_chemical_formula_sum "Si O2"
_cell_formula_units_Z 32
_cell_length_a 9.249193
_cell_length_b 20.087393
_cell_length_c 11.546053
_cell_angle_alpha 90.000000
_cell_angle_beta 52.069484
_cell_angle_gamma 90.000000
_cell_volume 1692.014507
_symmetry_space_group_name_H-M "P 21/M"
_symmetry_group_IT_number 11
_symmetry_cell_setting 'monoclinic'
loop_
_space_group_symop_operation_xyz
x,y,z
-x,1/2+y,-z
-x,-y,-z
x,1/2-y,z
loop_
_atom_site_type_symbol
_atom_site_label
_atom_site_fract_x
_atom_site_fract_y
_atom_site_fract_z
Si Si1 0.347303 0.679377 0.700634
Si Si2 0.207319 0.079748 0.834421
Si Si3 0.699031 0.464798 0.379088
Si Si4 0.794537 0.371848 0.004022
Si Si5 0.185953 0.957646 0.416356
Si Si6 0.446441 0.496567 0.891167
Si Si7 0.276585 0.324435 0.605446
Si Si8 0.118791 0.829266 0.294901
O O1 0.278574 0.750000 0.683148
O O2 0.289210 0.608790 0.678741
O O3 0.562126 0.677345 0.566169
O O4 0.292251 0.677568 0.860924
O O5 0.318423 0.129739 0.694996
O O6 0.003625 0.110661 0.939847
O O7 0.196865 0.013161 0.761340
O O8 0.317559 0.061714 0.897407
O O9 0.500000 0.500000 0.500000
O O10 0.781357 0.456280 0.464096
O O11 0.790247 0.344446 0.875042
O O12 0.672804 0.437880 0.070764
O O13 0.177320 0.884501 0.360212
O O14 0.362029 0.993523 0.271989
O O15 0.000000 0.000000 0.500000
O O16 0.500000 0.500000 0.000000
O O17 0.243109 0.250000 0.666728
O O18 0.093612 0.345197 0.629429
O O19 0.138214 0.750000 0.314325
#
# Coordination Sequence:
#
# PCOD9166274 Si02
#       8
#     4   4   4   4   4   4   4   4
#     4  11  22  36  61  92 120 155 204 254 302 354
#     4  11  22  40  65  90 120 161 208 254 303 363
#     4  12  22  39  65  91 121 157 206 261 300 353
#     4  11  22  39  65  88 121 163 205 251 300 365
#     4  12  25  39  63  94 123 160 202 256 308 362
#     4  12  24  39  59  93 125 157 202 254 311 361
#     4   9  19  37  62  90 120 159 209 256 301 360
#     4  10  22  40  60  88 126 167 203 242 306 376
#
# _framework density 18.912367
#
# number of rings (size 3 to 8) (size 9 to 14) (size 15 to 20)
#    0.000    1.000    5.000    2.250    1.750    1.000 
#    0.000    0.625    0.000    0.000    0.000    0.000 
#    0.000    0.000    0.000    0.000    0.000    0.000 
#
# Total GULP energy -178324.379164 kJ/mol
# GULP energy per Si atom -5572.636849 kJ/mol
# Density = 1.886932 g / cm^3
# Si number density = 18.912367 Si / 1000 Ang^3
#
#
#
# Elastic Constant Matrix: (Units=GPa)
#
#
# Indices 1 2 3 4 5 6 
#
# 1 93.7529 37.3533 35.4306 0.0000 25.6077 0.0000
# 2 37.3533 82.5031 27.0634 0.0000 9.2162 0.0000
# 3 35.4306 27.0634 76.3303 0.0000 10.9001 0.0000
# 4 0.0000 0.0000 0.0000 9.4990 0.0000 8.3859
# 5 25.6077 9.2162 10.9001 0.0000 31.6576 0.0000
# 6 0.0000 0.0000 0.0000 8.3859 0.0000 14.6140
#
#
#
# Elastic Compliance Matrix: (Units=1/GPa)
#
#
# Indices 1 2 3 4 5 6 
#
# 1 0.017522 -0.005147 -0.004731 0.000000 -0.011046 0.000000
# 2 -0.005147 0.015409 -0.003185 0.000000 0.000774 0.000000
# 3 -0.004731 -0.003185 0.016562 0.000000 -0.000948 0.000000
# 4 0.000000 0.000000 0.000000 0.213358 0.000000 -0.122431
# 5 -0.011046 0.000774 -0.000948 0.000000 0.040624 0.000000
# 6 0.000000 0.000000 0.000000 -0.122431 0.000000 0.138682
#
#
# Mechanical properties :
#
#
# Convention : Reuss Voigt Hill
#
# Bulk Modulus (GPa) = 42.79534 50.25343 46.52438
# Shear Modulus (GPa) = 10.50259 21.33672 15.91966
#
# Velocity S-wave (km/s) = 2.35910 3.36250 2.90446
# Velocity P-wave (km/s) = 5.48615 6.45791 5.99176
#
# Compressibility (1/GPa) = 0.02336703
#
# Stress axis : x y z
#
# Youngs Moduli (GPa) = 57.07037 64.89528 60.38078
#
# Poissons Ratio (x) = 0.33404 0.28566
# Poissons Ratio (y) = 0.29376 0.19230
# Poissons Ratio (z) = 0.27000 0.20668
#
# Static dielectric constant tensor:
#      x y z
#    x 1.641220 0.000000 0.003820 
#    y 0.000000 1.697640 0.000000 
#    z 0.003820 0.000000 1.697860 
# 
# From -- ./inp_files/32799.got.cif
#   From: 2010.05.17/outbox.cif.g08.bks.cpg/sg11_17_cif.got.tgz:32799.got - 2010.06.03 12:22:45.
