data_PCOD9166453
_publ_section_title
;
Structure prediction by ZEFSAII (Michael W. Deem and Ramdas Pophale) SiO2 
 PCOD9166453
Probable space group: P 21/M
;
_chemical_formula_sum "Si O2"
_cell_formula_units_Z 24
_cell_length_a 15.025684
_cell_length_b 8.650262
_cell_length_c 9.706241
_cell_angle_alpha 90.000000
_cell_angle_beta 80.502445
_cell_angle_gamma 90.000000
_cell_volume 1244.286465
_symmetry_space_group_name_H-M "P 21/M"
_symmetry_group_IT_number 11
_symmetry_cell_setting 'monoclinic'
loop_
_space_group_symop_operation_xyz
x,y,z
-x,1/2+y,-z
-x,-y,-z
x,1/2-y,z
loop_
_atom_site_type_symbol
_atom_site_label
_atom_site_fract_x
_atom_site_fract_y
_atom_site_fract_z
Si Si1 0.254339 0.565884 0.351650
Si Si2 0.914843 0.936404 0.435141
Si Si3 0.759442 0.933042 0.950387
Si Si4 0.549212 0.931705 0.619266
Si Si5 0.442454 0.067490 0.891196
Si Si6 0.081484 0.063237 0.887652
O O1 0.251232 0.750000 0.363804
O O2 0.177125 0.493735 0.468938
O O3 0.235583 0.517530 0.197704
O O4 0.354227 0.507409 0.368337
O O5 0.916990 0.750000 0.438066
O O6 0.919487 0.986308 0.272587
O O7 0.000000 0.000000 0.500000
O O8 0.773788 0.750000 0.919077
O O9 0.661063 0.950878 0.041331
O O10 0.830312 0.983976 0.048118
O O11 0.564549 0.750000 0.600872
O O12 0.500000 0.000000 0.500000
O O13 0.477212 0.969567 0.755403
O O14 0.460277 0.250000 0.863951
O O15 0.500000 0.000000 0.000000
O O16 0.078114 0.250000 0.886591
O O17 0.000000 0.000000 0.000000
#
# Coordination Sequence:
#
# PCOD9166453 Si02
#       6
#     4   4   4   4   4   4
#     4  12  25  42  65  96 129 169 217 264 322 389
#     4  11  24  43  67  95 130 170 211 264 323 386
#     4  10  22  41  65  92 126 168 212 262 321 382
#     4  12  26  44  65  93 131 173 218 271 326 385
#     4  11  22  39  65  95 128 170 217 264 319 381
#     4  10  23  42  65  94 124 162 207 257 316 377
#
# _framework density 19.288162
#
# number of rings (size 3 to 8) (size 9 to 14) (size 15 to 20)
#    0.000    1.000    1.667    5.000    2.333    5.333 
#    0.000    0.000    0.000    0.000    0.000    0.000 
#    0.000    0.000    0.000    0.000    0.000    0.000 
#
# Total GULP energy -134139.596263 kJ/mol
# GULP energy per Si atom -5589.149844 kJ/mol
# Density = 1.924426 g / cm^3
# Si number density = 19.288162 Si / 1000 Ang^3
#
#
#
# Elastic Constant Matrix: (Units=GPa)
#
#
# Indices 1 2 3 4 5 6 
#
# 1 114.8361 56.7848 66.8516 0.0000 20.6389 0.0000
# 2 56.7848 92.0815 54.4664 0.0000 3.8684 0.0000
# 3 66.8516 54.4664 176.8885 0.0000 21.8537 0.0000
# 4 0.0000 0.0000 0.0000 37.3278 0.0000 -3.7411
# 5 20.6389 3.8684 21.8537 0.0000 35.8570 0.0000
# 6 0.0000 0.0000 0.0000 -3.7411 0.0000 33.8950
#
#
#
# Elastic Compliance Matrix: (Units=1/GPa)
#
#
# Indices 1 2 3 4 5 6 
#
# 1 0.015050 -0.007472 -0.002613 0.000000 -0.006264 0.000000
# 2 -0.007472 0.017032 -0.002947 0.000000 0.004259 0.000000
# 3 -0.002613 -0.002947 0.007919 0.000000 -0.003005 0.000000
# 4 0.000000 0.000000 0.000000 0.027089 0.000000 0.002990
# 5 -0.006264 0.004259 -0.003005 0.000000 0.032866 0.000000
# 6 0.000000 0.000000 0.000000 0.002990 0.000000 0.029833
#
#
# Mechanical properties :
#
#
# Convention : Reuss Voigt Hill
#
# Bulk Modulus (GPa) = 71.74989 82.22352 76.98670
# Shear Modulus (GPa) = 31.15290 35.12952 33.14121
#
# Velocity S-wave (km/s) = 4.02323 4.27230 4.14963
# Velocity P-wave (km/s) = 7.67213 8.18891 7.93473
#
# Compressibility (1/GPa) = 0.01393730
#
# Stress axis : x y z
#
# Youngs Moduli (GPa) = 66.44544 58.71357 126.27231
#
# Poissons Ratio (x) = 0.43872 0.32997
# Poissons Ratio (y) = 0.49649 0.37207
# Poissons Ratio (z) = 0.17364 0.17301
#
# Static dielectric constant tensor:
#      x y z
#    x 1.701900 0.000000 0.007040 
#    y 0.000000 1.663990 0.000000 
#    z 0.007040 0.000000 1.611350 
# 
# From -- ./inp_files/20330.got.cif
#   From: 2010.05.17/outbox.cif.g08.bks.cpg/sg11_11_cif.got.tgz:20330.got - 2010.06.03 12:22:45.
