data_PCOD9166788
_publ_section_title
;
Structure prediction by ZEFSAII (Michael W. Deem and Ramdas Pophale) SiO2 
 PCOD9166788
Probable space group: P 21/M
;
_chemical_formula_sum "Si O2"
_cell_formula_units_Z 24
_cell_length_a 22.097313
_cell_length_b 10.734342
_cell_length_c 15.818184
_cell_angle_alpha 90.000000
_cell_angle_beta 163.600757
_cell_angle_gamma 90.000000
_cell_volume 1059.318784
_symmetry_space_group_name_H-M "P 21/M"
_symmetry_group_IT_number 11
_symmetry_cell_setting 'monoclinic'
loop_
_space_group_symop_operation_xyz
x,y,z
-x,1/2+y,-z
-x,-y,-z
x,1/2-y,z
loop_
_atom_site_type_symbol
_atom_site_label
_atom_site_fract_x
_atom_site_fract_y
_atom_site_fract_z
Si Si1 0.613188 0.250000 0.008794
Si Si2 0.725672 0.516506 0.082978
Si Si3 0.277987 0.750000 0.650059
Si Si4 0.876510 0.889782 0.115401
Si Si5 0.876238 0.035398 0.966690
Si Si6 0.732252 0.394114 0.596731
Si Si7 0.770283 0.750000 0.260371
Si Si8 0.111986 0.250000 0.384775
O O1 0.697217 0.376767 0.078760
O O2 0.353818 0.250000 0.670129
O O3 0.699436 0.250000 0.219263
O O4 0.487700 0.559745 0.737549
O O5 0.854759 0.526793 0.168513
O O6 0.813717 0.622268 0.265986
O O7 0.127344 0.867797 0.427805
O O8 0.512127 0.750000 0.926721
O O9 0.800014 0.750000 0.035964
O O10 0.765801 0.939135 0.882763
O O11 0.981750 0.134555 0.171604
O O12 0.733324 0.088819 0.699733
O O13 0.071711 0.969909 0.179685
O O14 0.765619 0.250000 0.621800
O O15 0.866987 0.750000 0.484924
#
# Coordination Sequence:
#
# PCOD9166788 Si02
#       8
#     2   4   2   4   4   4   2   2
#     4  11  26  40  64  95 138 168 226 270 333 384
#     4  12  24  45  65 101 130 182 218 272 335 400
#     4   9  23  41  64  95 126 173 222 276 321 395
#     4  10  23  43  64  97 130 171 224 267 329 406
#     4  11  23  41  67  99 135 170 219 281 328 383
#     4  11  22  41  71  95 132 175 227 273 325 398
#     4  11  23  40  76  90 135 178 217 276 328 391
#     4  11  24  41  64 106 131 165 227 268 332 392
#
# _framework density 22.656068999999999
#
# number of rings (size 3 to 8) (size 9 to 14) (size 15 to 20)
#    0.500    0.667    4.167    1.500    2.333    3.333 
#    4.500    0.000    0.000    0.000    0.000    0.000 
#    0.000    0.000    0.000    0.000    0.000    0.000 
#
# Total GULP energy -134200.709219 kJ/mol
# GULP energy per Si atom -5591.696217 kJ/mol
# Density = 2.260450 g / cm^3
# Si number density = 22.656069 Si / 1000 Ang^3
#
#
#
# Elastic Constant Matrix: (Units=GPa)
#
#
# Indices 1 2 3 4 5 6 
#
# 1 138.6853 40.1011 23.6076 0.0000 -35.1543 0.0000
# 2 40.1011 98.8837 26.6779 0.0000 -34.0583 0.0000
# 3 23.6076 26.6779 64.6562 0.0000 -20.5755 0.0000
# 4 0.0000 0.0000 0.0000 -11.4047 0.0000 -26.7882
# 5 -35.1543 -34.0583 -20.5755 0.0000 40.8435 0.0000
# 6 0.0000 0.0000 0.0000 -26.7882 0.0000 43.3424
#
#
#
# Elastic Compliance Matrix: (Units=1/GPa)
#
#
# Indices 1 2 3 4 5 6 
#
# 1 0.009398 -0.001332 -0.000787 0.000000 0.006582 0.000000
# 2 -0.001332 0.014721 -0.002437 0.000000 0.009901 0.000000
# 3 -0.000787 -0.002437 0.018932 0.000000 0.006828 0.000000
# 4 0.000000 0.000000 0.000000 -0.035764 0.000000 -0.022104
# 5 0.006582 0.009901 0.006828 0.000000 0.041844 0.000000
# 6 0.000000 0.000000 0.000000 -0.022104 0.000000 0.009410
#
#
# Mechanical properties :
#
#
# Convention : Reuss Voigt Hill
#
# Bulk Modulus (GPa) = 29.46491 53.66649 41.56570
# Shear Modulus (GPa) = 63.31728 28.67882 45.99805
#
# Velocity S-wave (km/s) = 5.29224 3.56172 4.51075
# Velocity P-wave (km/s) = 7.09770 6.37600 6.74650
#
# Compressibility (1/GPa) = 0.03393868
#
# Stress axis : x y z
#
# Youngs Moduli (GPa) = 106.40483 67.93142 52.82031
#
# Poissons Ratio (x) = 0.09048 0.04159
# Poissons Ratio (y) = 0.14172 0.12871
# Poissons Ratio (z) = 0.08379 0.16553
#
# Static dielectric constant tensor:
#      x y z
#    x 1.818130 0.000000 0.016760 
#    y 0.000000 1.866970 0.000000 
#    z 0.016760 0.000000 1.838090 
# 
# From -- ./inp_files/54853.got.cif
#   From: 2010.05.17/outbox.cif.g08.bks.cpg/sg11_28_cif.got.tgz:54853.got - 2010.06.03 12:22:45.
