data_PCOD9166762
_publ_section_title
;
Structure prediction by ZEFSAII (Michael W. Deem and Ramdas Pophale) SiO2 
 PCOD9166762
Probable space group: P 21/M
;
_chemical_formula_sum "Si O2"
_cell_formula_units_Z 28
_cell_length_a 15.741300
_cell_length_b 8.674995
_cell_length_c 11.980887
_cell_angle_alpha 90.000000
_cell_angle_beta 55.992712
_cell_angle_gamma 90.000000
_cell_volume 1356.237499
_symmetry_space_group_name_H-M "P 21/M"
_symmetry_group_IT_number 11
_symmetry_cell_setting 'monoclinic'
loop_
_space_group_symop_operation_xyz
x,y,z
-x,1/2+y,-z
-x,-y,-z
x,1/2-y,z
loop_
_atom_site_type_symbol
_atom_site_label
_atom_site_fract_x
_atom_site_fract_y
_atom_site_fract_z
Si Si1 0.704960 0.567079 0.582047
Si Si2 0.039016 0.434363 0.853115
Si Si3 0.858544 0.565288 0.842802
Si Si4 0.733744 0.432054 0.331149
Si Si5 0.114559 0.566543 0.413877
Si Si6 0.474519 0.566493 0.139834
Si Si7 0.326914 0.432940 0.853505
O O1 0.707590 0.750000 0.569614
O O2 0.678382 0.490644 0.483185
O O3 0.815165 0.505677 0.541766
O O4 0.623129 0.514949 0.734128
O O5 0.029682 0.250000 0.858261
O O6 0.156349 0.483370 0.753031
O O7 0.966495 0.507991 0.812406
O O8 0.000000 0.500000 0.000000
O O9 0.859555 0.750000 0.826454
O O10 0.839005 0.483835 0.739551
O O11 0.771222 0.526983 0.997633
O O12 0.749918 0.250000 0.325259
O O13 0.676600 0.476198 0.259333
O O14 0.112355 0.750000 0.426387
O O15 0.000000 0.500000 0.500000
O O16 0.456696 0.750000 0.145776
O O17 0.571590 0.539944 0.149257
O O18 0.500000 0.500000 0.000000
O O19 0.319642 0.250000 0.834259
#
# Coordination Sequence:
#
# PCOD9166762 Si02
#       7
#     4   4   4   4   4   4   4
#     4  12  26  46  69  95 132 176 220 270 330 389
#     4  12  23  38  60  92 132 175 218 266 322 385
#     4  11  22  39  64  95 131 170 216 268 326 388
#     4  12  25  42  66  96 131 172 220 272 328 394
#     4  12  25  43  66  95 131 170 218 269 325 391
#     4  11  24  45  72 102 133 169 218 270 330 391
#     4  10  23  42  66  95 130 169 213 267 323 387
#
# _framework density 20.645350000000001
#
# number of rings (size 3 to 8) (size 9 to 14) (size 15 to 20)
#    0.000    0.571    1.429    7.714    0.000    3.429 
#    0.000    0.000    0.000    0.000    0.000    0.000 
#    0.000    0.000    0.000    0.000    0.000    0.000 
#
# Total GULP energy -156867.260741 kJ/mol
# GULP energy per Si atom -5602.402169 kJ/mol
# Density = 2.059836 g / cm^3
# Si number density = 20.645350 Si / 1000 Ang^3
#
#
#
# Elastic Constant Matrix: (Units=GPa)
#
#
# Indices 1 2 3 4 5 6 
#
# 1 62.0179 32.2230 14.0417 0.0000 8.9151 0.0000
# 2 32.2230 86.3200 17.8727 0.0000 2.2760 0.0000
# 3 14.0417 17.8727 99.4367 0.0000 11.2612 0.0000
# 4 0.0000 0.0000 0.0000 37.9805 0.0000 4.4634
# 5 8.9151 2.2760 11.2612 0.0000 34.8571 0.0000
# 6 0.0000 0.0000 0.0000 4.4634 0.0000 34.3784
#
#
#
# Elastic Compliance Matrix: (Units=1/GPa)
#
#
# Indices 1 2 3 4 5 6 
#
# 1 0.020893 -0.007453 -0.001101 0.000000 -0.004501 0.000000
# 2 -0.007453 0.014691 -0.001760 0.000000 0.001515 0.000000
# 3 -0.001101 -0.001760 0.010882 0.000000 -0.003119 0.000000
# 4 0.000000 0.000000 0.000000 0.026737 0.000000 -0.003471
# 5 -0.004501 0.001515 -0.003119 0.000000 0.030749 0.000000
# 6 0.000000 0.000000 0.000000 -0.003471 0.000000 0.029539
#
#
# Mechanical properties :
#
#
# Convention : Reuss Voigt Hill
#
# Bulk Modulus (GPa) = 38.70130 41.78326 40.24228
# Shear Modulus (GPa) = 30.72570 33.68568 32.20569
#
# Velocity S-wave (km/s) = 3.86199 4.04373 3.95390
# Velocity P-wave (km/s) = 6.21877 6.48729 6.35444
#
# Compressibility (1/GPa) = 0.02583893
#
# Stress axis : x y z
#
# Youngs Moduli (GPa) = 47.86310 68.06769 91.89770
#
# Poissons Ratio (x) = 0.50728 0.10118
# Poissons Ratio (y) = 0.35670 0.16172
# Poissons Ratio (z) = 0.05270 0.11979
#
# Static dielectric constant tensor:
#      x y z
#    x 1.724220 0.000000 0.002660 
#    y 0.000000 1.684710 0.000000 
#    z 0.002660 0.000000 1.758190 
# 
# From -- ./inp_files/37931.got.cif
#   From: 2010.05.17/outbox.cif.g08.bks.cpg/sg11_19_cif.got.tgz:37931.got - 2010.06.03 12:22:45.
