data_PCOD9166049
_publ_section_title
;
Structure prediction by ZEFSAII (Michael W. Deem and Ramdas Pophale) SiO2 
 PCOD9166049
Probable space group: P 21/M
;
_chemical_formula_sum "Si O2"
_cell_formula_units_Z 28
_cell_length_a 21.923979
_cell_length_b 8.440201
_cell_length_c 17.293003
_cell_angle_alpha 90.000000
_cell_angle_beta 24.871615
_cell_angle_gamma 90.000000
_cell_volume 1345.853569
_symmetry_space_group_name_H-M "P 21/M"
_symmetry_group_IT_number 11
_symmetry_cell_setting 'monoclinic'
loop_
_space_group_symop_operation_xyz
x,y,z
-x,1/2+y,-z
-x,-y,-z
x,1/2-y,z
loop_
_atom_site_type_symbol
_atom_site_label
_atom_site_fract_x
_atom_site_fract_y
_atom_site_fract_z
Si Si1 0.860607 0.568838 0.770753
Si Si2 0.035916 0.439716 0.186364
Si Si3 0.582688 0.440146 0.519678
Si Si4 0.151738 0.066015 0.376419
Si Si5 0.427960 0.071597 0.158649
Si Si6 0.290956 0.440763 0.464925
Si Si7 0.715471 0.060618 0.202324
O O1 0.814513 0.750000 0.835318
O O2 0.778744 0.513126 0.786472
O O3 0.879405 0.495456 0.834026
O O4 0.023689 0.548808 0.549520
O O5 0.025064 0.250000 0.207402
O O6 0.873361 0.504092 0.363333
O O7 0.137830 0.483261 0.997425
O O8 0.574797 0.250000 0.531831
O O9 0.657630 0.504184 0.510272
O O10 0.420997 0.506719 0.692820
O O11 0.673332 0.485249 0.338475
O O12 0.102377 0.250000 0.423490
O O13 0.262719 0.073645 0.318309
O O14 0.484335 0.250000 0.102425
O O15 0.407190 0.996671 0.267030
O O16 0.500000 0.000000 0.000000
O O17 0.293651 0.250000 0.457210
O O18 0.728996 0.250000 0.183302
#
# Coordination Sequence:
#
# PCOD9166049 Si02
#       7
#     4   4   4   4   4   4   4
#     4   9  18  31  52  79 106 140 184 232 282 336
#     4  11  22  36  58  91 126 160 203 250 301 358
#     4  10  22  42  66  91 120 157 199 245 301 362
#     4   9  17  33  52  73 104 142 184 231 283 334
#     4  10  22  37  55  80 113 153 197 242 293 351
#     4  11  23  40  61  88 122 161 204 251 304 360
#     4  10  22  41  65  92 122 156 196 245 300 362
#
# _framework density 20.804641
#
# number of rings (size 3 to 8) (size 9 to 14) (size 15 to 20)
#    0.000    2.000    1.429    1.714    0.000    5.714 
#    0.000    1.429    0.000    0.000    0.000    0.000 
#    0.000    0.000    0.000    0.000    0.000    0.000 
#
# Total GULP energy -155980.040105 kJ/mol
# GULP energy per Si atom -5570.715718 kJ/mol
# Density = 2.075729 g / cm^3
# Si number density = 20.804641 Si / 1000 Ang^3
#
#
#
# Elastic Constant Matrix: (Units=GPa)
#
#
# Indices 1 2 3 4 5 6 
#
# 1 100.6335 14.8625 29.0134 0.0000 32.2906 0.0000
# 2 14.8625 28.5207 14.2559 0.0000 6.5446 0.0000
# 3 29.0134 14.2559 104.6785 0.0000 23.5407 0.0000
# 4 0.0000 0.0000 0.0000 26.8037 0.0000 -2.8063
# 5 32.2906 6.5446 23.5407 0.0000 18.4518 0.0000
# 6 0.0000 0.0000 0.0000 -2.8063 0.0000 28.8517
#
#
#
# Elastic Compliance Matrix: (Units=1/GPa)
#
#
# Indices 1 2 3 4 5 6 
#
# 1 0.024158 -0.004106 0.004268 0.000000 -0.046266 0.000000
# 2 -0.004106 0.039560 -0.003800 0.000000 -0.001998 0.000000
# 3 0.004268 -0.003800 0.014394 0.000000 -0.024484 0.000000
# 4 0.000000 0.000000 0.000000 0.037692 0.000000 0.003666
# 5 -0.046266 -0.001998 -0.024484 0.000000 0.167106 0.000000
# 6 0.000000 0.000000 0.000000 0.003666 0.000000 0.035017
#
#
# Mechanical properties :
#
#
# Convention : Reuss Voigt Hill
#
# Bulk Modulus (GPa) = 14.11724 38.89958 26.50841
# Shear Modulus (GPa) = 14.33424 26.53483 20.43454
#
# Velocity S-wave (km/s) = 2.62771 3.57519 3.13742
# Velocity P-wave (km/s) = 4.00086 5.98170 5.08860
#
# Compressibility (1/GPa) = 0.07083540
#
# Stress axis : x y z
#
# Youngs Moduli (GPa) = 41.39345 25.27821 69.47376
#
# Poissons Ratio (x) = 0.10379 -0.29650
# Poissons Ratio (y) = 0.16996 0.26402
# Poissons Ratio (z) = -0.17666 0.09606
#
# Static dielectric constant tensor:
#      x y z
#    x 1.819990 0.000000 0.019450 
#    y 0.000000 1.748080 0.000000 
#    z 0.019450 0.000000 1.774810 
# 
# From -- ./inp_files/54450.got.cif
#   From: 2010.05.17/outbox.cif.g08.bks.cpg/sg11_28_cif.got.tgz:54450.got - 2010.06.03 12:22:45.
