data_PCOD9166175
_publ_section_title
;
Structure prediction by ZEFSAII (Michael W. Deem and Ramdas Pophale) SiO2 
 PCOD9166175
Probable space group: P 21/M
;
_chemical_formula_sum "Si O2"
_cell_formula_units_Z 28
_cell_length_a 29.298290
_cell_length_b 8.680907
_cell_length_c 9.124276
_cell_angle_alpha 90.000000
_cell_angle_beta 38.948120
_cell_angle_gamma 90.000000
_cell_volume 1458.785807
_symmetry_space_group_name_H-M "P 21/M"
_symmetry_group_IT_number 11
_symmetry_cell_setting 'monoclinic'
loop_
_space_group_symop_operation_xyz
x,y,z
-x,1/2+y,-z
-x,-y,-z
x,1/2-y,z
loop_
_atom_site_type_symbol
_atom_site_label
_atom_site_fract_x
_atom_site_fract_y
_atom_site_fract_z
Si Si1 0.860887 0.564909 0.512641
Si Si2 0.284047 0.935801 0.630691
Si Si3 0.570646 0.435999 0.904355
Si Si4 0.138094 0.935322 0.818100
Si Si5 0.571100 0.065103 0.243252
Si Si6 0.287774 0.065844 0.948284
Si Si7 0.999701 0.434378 0.336548
O O1 0.868337 0.750000 0.493013
O O2 0.860100 0.502173 0.349713
O O3 0.928021 0.492401 0.432242
O O4 0.785709 0.524516 0.781503
O O5 0.285763 0.750000 0.641224
O O6 0.356205 0.984063 0.362592
O O7 0.212091 0.975861 0.718944
O O8 0.282750 0.008575 0.794307
O O9 0.567928 0.250000 0.908208
O O10 0.500000 0.500000 0.000000
O O11 0.572397 0.484395 0.069813
O O12 0.132406 0.750000 0.826119
O O13 0.069681 0.002845 0.075697
O O14 0.569055 0.250000 0.252843
O O15 0.500000 0.000000 0.500000
O O16 0.642780 0.007397 0.146428
O O17 0.295210 0.250000 0.931587
O O18 0.001078 0.250000 0.336811
O O19 0.000000 0.500000 0.500000
#
# Coordination Sequence:
#
# PCOD9166175 Si02
#       7
#     4   4   4   4   4   4   4
#     4  11  24  42  63  90 124 162 204 251 303 362
#     4  10  22  40  62  87 118 157 200 245 298 358
#     4  10  22  39  59  86 117 153 195 241 292 349
#     4  11  23  41  65  92 122 160 205 252 305 363
#     4  11  23  40  62  88 121 158 200 247 299 359
#     4  11  24  40  61  90 122 157 200 248 300 355
#     4  12  25  42  64  91 124 161 203 252 306 366
#
# _framework density 19.194046
#
# number of rings (size 3 to 8) (size 9 to 14) (size 15 to 20)
#    0.000    1.143    0.000    6.000    0.000   10.857 
#    0.000    0.000    0.000    0.000    0.000    0.000 
#    0.000    0.000    0.000    0.000    0.000    0.000 
#
# Total GULP energy -156705.409275 kJ/mol
# GULP energy per Si atom -5596.621760 kJ/mol
# Density = 1.915036 g / cm^3
# Si number density = 19.194046 Si / 1000 Ang^3
#
#
#
# Elastic Constant Matrix: (Units=GPa)
#
#
# Indices 1 2 3 4 5 6 
#
# 1 213.3986 68.7722 136.2712 0.0000 4.1306 0.0000
# 2 68.7722 68.9573 77.7639 0.0000 -2.7024 0.0000
# 3 136.2712 77.7639 233.4119 0.0000 3.5014 0.0000
# 4 0.0000 0.0000 0.0000 32.2727 0.0000 2.5705
# 5 4.1306 -2.7024 3.5014 0.0000 46.6636 0.0000
# 6 0.0000 0.0000 0.0000 2.5705 0.0000 38.0351
#
#
#
# Elastic Compliance Matrix: (Units=1/GPa)
#
#
# Indices 1 2 3 4 5 6 
#
# 1 0.008280 -0.004563 -0.003303 0.000000 -0.000749 0.000000
# 2 -0.004563 0.025918 -0.006006 0.000000 0.002356 0.000000
# 3 -0.003303 -0.006006 0.008224 0.000000 -0.000673 0.000000
# 4 0.000000 0.000000 0.000000 0.031154 0.000000 -0.002105
# 5 -0.000749 0.002356 -0.000673 0.000000 0.021683 0.000000
# 6 0.000000 0.000000 0.000000 -0.002105 0.000000 0.026434
#
#
# Mechanical properties :
#
#
# Convention : Reuss Voigt Hill
#
# Bulk Modulus (GPa) = 68.12894 120.15360 94.14127
# Shear Modulus (GPa) = 32.39842 38.92499 35.66170
#
# Velocity S-wave (km/s) = 4.11291 4.50819 4.31508
# Velocity P-wave (km/s) = 7.62408 9.47806 8.60117
#
# Compressibility (1/GPa) = 0.01467805
#
# Stress axis : x y z
#
# Youngs Moduli (GPa) = 120.77271 38.58334 121.60004
#
# Poissons Ratio (x) = 0.17604 0.40161
# Poissons Ratio (y) = 0.55104 0.73038
# Poissons Ratio (z) = 0.39888 0.23175
#
# Static dielectric constant tensor:
#      x y z
#    x 1.621580 0.000000 0.000200 
#    y 0.000000 1.647600 0.000000 
#    z 0.000200 0.000000 1.637310 
# 
# From -- ./inp_files/28353.got.cif
#   From: 2010.05.17/outbox.cif.g08.bks.cpg/sg11_15_cif.got.tgz:28353.got - 2010.06.03 12:22:45.
