data_PCOD9166276
_publ_section_title
;
Structure prediction by ZEFSAII (Michael W. Deem and Ramdas Pophale) SiO2 
 PCOD9166276
Probable space group: P 21/M
;
_chemical_formula_sum "Si O2"
_cell_formula_units_Z 20
_cell_length_a 12.012792
_cell_length_b 7.858930
_cell_length_c 9.895594
_cell_angle_alpha 90.000000
_cell_angle_beta 106.292950
_cell_angle_gamma 90.000000
_cell_volume 896.701734
_symmetry_space_group_name_H-M "P 21/M"
_symmetry_group_IT_number 11
_symmetry_cell_setting 'monoclinic'
loop_
_space_group_symop_operation_xyz
x,y,z
-x,1/2+y,-z
-x,-y,-z
x,1/2-y,z
loop_
_atom_site_type_symbol
_atom_site_label
_atom_site_fract_x
_atom_site_fract_y
_atom_site_fract_z
Si Si1 0.546836 0.442262 0.871945
Si Si2 0.641974 0.447948 0.400639
Si Si3 0.888654 0.954209 0.371483
Si Si4 0.021394 0.545799 0.161484
Si Si5 0.717500 0.040432 0.714914
O O1 0.583103 0.250000 0.907532
O O2 0.443655 0.454208 0.727720
O O3 0.655429 0.524106 0.829890
O O4 0.500000 0.500000 0.000000
O O5 0.607131 0.250000 0.387793
O O6 0.772565 0.462696 0.388341
O O7 0.648358 0.511889 0.556962
O O8 0.872282 0.750000 0.367635
O O9 0.923135 0.013020 0.232271
O O10 0.000000 0.000000 0.500000
O O11 0.023792 0.750000 0.173858
O O12 0.149383 0.484221 0.247407
O O13 0.000000 0.500000 0.000000
O O14 0.716609 0.250000 0.713205
#
# Coordination Sequence:
#
# PCOD9166276 Si02
#       5
#     4   4   4   4   4
#     4  11  24  42  63  91 123 159 204 253 306 362
#     4  11  22  41  66  90 121 161 203 252 305 360
#     4  11  22  39  63  93 126 158 200 249 300 363
#     4  10  22  40  60  89 124 161 199 245 300 359
#     4   9  20  41  64  86 120 161 202 249 302 359
#
# _framework density 22.303963
#
# number of rings (size 3 to 8) (size 9 to 14) (size 15 to 20)
#    0.000    1.600    2.000    2.400    2.800    1.600 
#    0.000    4.000    0.000    0.000    0.000    0.000 
#    0.000    0.000    0.000    0.000    0.000    0.000 
#
# Total GULP energy -111784.075567 kJ/mol
# GULP energy per Si atom -5589.203778 kJ/mol
# Density = 2.225320 g / cm^3
# Si number density = 22.303963 Si / 1000 Ang^3
#
#
#
# Elastic Constant Matrix: (Units=GPa)
#
#
# Indices 1 2 3 4 5 6 
#
# 1 66.9239 -6.8258 4.5601 0.0000 -29.0237 0.0000
# 2 -6.8258 34.0641 -0.2769 0.0000 -10.9519 0.0000
# 3 4.5601 -0.2769 115.1467 0.0000 -36.3699 0.0000
# 4 0.0000 0.0000 0.0000 30.6959 0.0000 0.7631
# 5 -29.0237 -10.9519 -36.3699 0.0000 46.7847 0.0000
# 6 0.0000 0.0000 0.0000 0.7631 0.0000 21.1973
#
#
#
# Elastic Compliance Matrix: (Units=1/GPa)
#
#
# Indices 1 2 3 4 5 6 
#
# 1 0.026739 0.013489 0.006906 0.000000 0.025114 0.000000
# 2 0.013489 0.039473 0.006789 0.000000 0.022886 0.000000
# 3 0.006906 0.006789 0.013629 0.000000 0.016469 0.000000
# 4 0.000000 0.000000 0.000000 0.032607 0.000000 -0.001174
# 5 0.025114 0.022886 0.016469 0.000000 0.055115 0.000000
# 6 0.000000 0.000000 0.000000 -0.001174 0.000000 0.047218
#
#
# Mechanical properties :
#
#
# Convention : Reuss Voigt Hill
#
# Bulk Modulus (GPa) = 7.45104 23.44994 15.45049
# Shear Modulus (GPa) = 24.37256 34.31407 29.34332
#
# Velocity S-wave (km/s) = 3.30926 3.92659 3.63107
# Velocity P-wave (km/s) = 4.23669 5.57621 4.95195
#
# Compressibility (1/GPa) = 0.13420936
#
# Stress axis : x y z
#
# Youngs Moduli (GPa) = 37.39829 25.33406 73.37188
#
# Poissons Ratio (x) = -0.34172 -0.50671
# Poissons Ratio (y) = -0.50445 -0.49816
# Poissons Ratio (z) = -0.25827 -0.17201
#
# Static dielectric constant tensor:
#      x y z
#    x 1.830400 0.000000 -0.052520 
#    y 0.000000 1.864820 0.000000 
#    z -0.052520 0.000000 1.842270 
# 
# From -- ./inp_files/15892.got.cif
#   From: 2010.05.17/outbox.cif.g08.bks.cpg/sg11_8_cif.got.tgz:15892.got - 2010.06.03 12:22:45.
