data_PCOD9166626
_publ_section_title
;
Structure prediction by ZEFSAII (Michael W. Deem and Ramdas Pophale) SiO2 
 PCOD9166626
Probable space group: P 21/M
;
_chemical_formula_sum "Si O2"
_cell_formula_units_Z 30
_cell_length_a 13.985990
_cell_length_b 13.453662
_cell_length_c 14.981140
_cell_angle_alpha 90.000000
_cell_angle_beta 29.418267
_cell_angle_gamma 90.000000
_cell_volume 1384.588051
_symmetry_space_group_name_H-M "P 21/M"
_symmetry_group_IT_number 11
_symmetry_cell_setting 'monoclinic'
loop_
_space_group_symop_operation_xyz
x,y,z
-x,1/2+y,-z
-x,-y,-z
x,1/2-y,z
loop_
_atom_site_type_symbol
_atom_site_label
_atom_site_fract_x
_atom_site_fract_y
_atom_site_fract_z
Si Si1 0.351765 0.633584 0.366567
Si Si2 0.820271 0.750000 0.011724
Si Si3 0.991240 0.984783 0.611802
Si Si4 0.334986 0.965367 0.566739
Si Si5 0.775180 0.864089 0.459219
Si Si6 0.319468 0.642017 0.888275
Si Si7 0.701382 0.560593 0.988746
Si Si8 0.057137 0.610480 0.930778
O O1 0.397548 0.750000 0.334947
O O2 0.130033 0.606375 0.529226
O O3 0.407241 0.584209 0.416162
O O4 0.474344 0.583911 0.187758
O O5 0.794654 0.658622 0.959008
O O6 0.867741 0.666795 0.052123
O O7 0.088636 0.081277 0.579668
O O8 0.000000 0.000000 0.500000
O O9 0.784075 0.959468 0.823605
O O10 0.197268 0.888605 0.729881
O O11 0.500000 0.000000 0.500000
O O12 0.218858 0.064205 0.631532
O O13 0.827301 0.750000 0.400126
O O14 0.548258 0.866365 0.675166
O O15 0.297086 0.750000 0.952976
O O16 0.262819 0.543189 0.988063
O O17 0.187191 0.645566 0.907446
O O18 0.000000 0.500000 0.000000
#
# Coordination Sequence:
#
# PCOD9166626 Si02
#       8
#     4   2   4   4   4   4   4   4
#     4  11  25  45  71 103 144 187 232 295 365 427
#     4  12  24  38  68 106 138 190 240 298 334 420
#     4  11  27  48  76 104 135 175 231 306 369 445
#     4  11  22  39  62  93 137 187 234 278 333 413
#     4  10  22  44  66  93 132 177 228 285 347 414
#     4  11  22  42  65  93 141 195 231 283 345 412
#     4  12  24  46  73 102 143 183 236 292 369 420
#     4  12  24  37  58  97 142 188 244 281 331 405
#
# _framework density 21.667095
#
# number of rings (size 3 to 8) (size 9 to 14) (size 15 to 20)
#    0.000    0.800    6.667    1.600    3.733    2.133 
#    1.200    0.000    0.000    0.000    0.000    0.000 
#    0.000    0.000    0.000    0.000    0.000    0.000 
#
# Total GULP energy -167071.508644 kJ/mol
# GULP energy per Si atom -5569.050288 kJ/mol
# Density = 2.161778 g / cm^3
# Si number density = 21.667095 Si / 1000 Ang^3
#
#
#
# Elastic Constant Matrix: (Units=GPa)
#
#
# Indices 1 2 3 4 5 6 
#
# 1 34.9820 11.2822 -3.4192 0.0000 10.2184 0.0000
# 2 11.2822 168.5447 5.2784 0.0000 16.1485 0.0000
# 3 -3.4192 5.2784 91.2310 0.0000 10.6495 0.0000
# 4 0.0000 0.0000 0.0000 18.1178 0.0000 -15.2159
# 5 10.2184 16.1485 10.6495 0.0000 22.3289 0.0000
# 6 0.0000 0.0000 0.0000 -15.2159 0.0000 23.6213
#
#
#
# Elastic Compliance Matrix: (Units=1/GPa)
#
#
# Indices 1 2 3 4 5 6 
#
# 1 0.033988 -0.000793 0.003249 0.000000 -0.016530 0.000000
# 2 -0.000793 0.006396 0.000104 0.000000 -0.004312 0.000000
# 3 0.003249 0.000104 0.011923 0.000000 -0.007248 0.000000
# 4 0.000000 0.000000 0.000000 0.120246 0.000000 0.077458
# 5 -0.016530 -0.004312 -0.007248 0.000000 0.058926 0.000000
# 6 0.000000 0.000000 0.000000 0.077458 0.000000 0.092230
#
#
# Mechanical properties :
#
#
# Convention : Reuss Voigt Hill
#
# Bulk Modulus (GPa) = 17.41348 35.67118 26.54233
# Shear Modulus (GPa) = 14.80467 31.58800 23.19633
#
# Velocity S-wave (km/s) = 2.61680 3.82236 3.27552
# Velocity P-wave (km/s) = 4.14541 5.99830 5.15578
#
# Compressibility (1/GPa) = 0.05742678
#
# Stress axis : x y z
#
# Youngs Moduli (GPa) = 29.42213 156.34400 83.87086
#
# Poissons Ratio (x) = 0.12400 -0.27252
# Poissons Ratio (y) = 0.02333 -0.00869
# Poissons Ratio (z) = -0.09560 -0.01619
#
# Static dielectric constant tensor:
#      x y z
#    x 1.659020 0.000000 0.058820 
#    y 0.000000 1.787040 0.000000 
#    z 0.058820 0.000000 1.787970 
# 
# From -- ./inp_files/52482.got.cif
#   From: 2010.05.17/outbox.cif.g08.bks.cpg/sg11_27_cif.got.tgz:52482.got - 2010.06.03 12:22:45.
