data_PCOD9166463
_publ_section_title
;
Structure prediction by ZEFSAII (Michael W. Deem and Ramdas Pophale) SiO2 
 PCOD9166463
Probable space group: P 21/M
;
_chemical_formula_sum "Si O2"
_cell_formula_units_Z 30
_cell_length_a 7.763758
_cell_length_b 21.981845
_cell_length_c 8.771203
_cell_angle_alpha 90.000000
_cell_angle_beta 85.333524
_cell_angle_gamma 90.000000
_cell_volume 1491.946620
_symmetry_space_group_name_H-M "P 21/M"
_symmetry_group_IT_number 11
_symmetry_cell_setting 'monoclinic'
loop_
_space_group_symop_operation_xyz
x,y,z
-x,1/2+y,-z
-x,-y,-z
x,1/2-y,z
loop_
_atom_site_type_symbol
_atom_site_label
_atom_site_fract_x
_atom_site_fract_y
_atom_site_fract_z
Si Si1 0.179584 0.019200 0.789579
Si Si2 0.298248 0.896678 0.247112
Si Si3 0.210661 0.022670 0.129425
Si Si4 0.341502 0.358509 0.269731
Si Si5 0.599260 0.438617 0.437536
Si Si6 0.087334 0.147179 0.736867
Si Si7 0.830676 0.750000 0.523918
Si Si8 0.397564 0.179163 0.923876
O O1 0.280027 0.965268 0.702820
O O2 0.986418 0.997275 0.835626
O O3 0.166621 0.080479 0.690599
O O4 0.252952 0.035764 0.950508
O O5 0.299730 0.910345 0.426976
O O6 0.462087 0.857489 0.184951
O O7 0.115466 0.865498 0.215660
O O8 0.315622 0.963201 0.170855
O O9 0.236962 0.080981 0.231550
O O10 0.482672 0.385183 0.376242
O O11 0.237342 0.303868 0.353265
O O12 0.414880 0.337007 0.100628
O O13 0.500000 0.500000 0.500000
O O14 0.111831 0.196558 0.604374
O O15 0.203894 0.167357 0.872984
O O16 0.433349 0.250000 0.899168
#
# Coordination Sequence:
#
# PCOD9166463 Si02
#       8
#     4   4   4   4   4   4   2   4
#     4  10  22  41  66 102 135 172 221 290 351 409
#     4  11  26  44  70 107 138 181 228 291 350 413
#     4  10  22  41  70 100 134 172 233 286 345 412
#     4  12  25  43  70  98 137 182 234 283 345 408
#     4  12  24  40  67 104 140 177 218 283 359 414
#     4  11  25  44  73  97 137 181 228 281 350 411
#     4  12  26  44  64  98 136 182 226 280 338 420
#     4  12  25  47  72  95 137 189 237 283 336 417
#
# _framework density 20.107959000000001
#
# number of rings (size 3 to 8) (size 9 to 14) (size 15 to 20)
#    0.000    0.800    4.000    3.200    2.800    2.133 
#    0.000    0.000    2.933    0.000    0.000    0.000 
#    0.000    0.000    0.000    0.000    0.000    0.000 
#
# Total GULP energy -167049.264261 kJ/mol
# GULP energy per Si atom -5568.308809 kJ/mol
# Density = 2.006219 g / cm^3
# Si number density = 20.107959 Si / 1000 Ang^3
#
#
#
# Elastic Constant Matrix: (Units=GPa)
#
#
# Indices 1 2 3 4 5 6 
#
# 1 67.8505 41.4370 32.9701 0.0000 12.3311 0.0000
# 2 41.4370 165.4290 45.2315 0.0000 -0.6698 0.0000
# 3 32.9701 45.2315 72.5070 0.0000 -7.0270 0.0000
# 4 0.0000 0.0000 0.0000 45.8877 0.0000 -16.9807
# 5 12.3311 -0.6698 -7.0270 0.0000 22.1083 0.0000
# 6 0.0000 0.0000 0.0000 -16.9807 0.0000 6.5246
#
#
#
# Elastic Compliance Matrix: (Units=1/GPa)
#
#
# Indices 1 2 3 4 5 6 
#
# 1 0.025518 -0.003397 -0.011219 0.000000 -0.017902 0.000000
# 2 -0.003397 0.007774 -0.003197 0.000000 0.001114 0.000000
# 3 -0.011219 -0.003197 0.022168 0.000000 0.013207 0.000000
# 4 0.000000 0.000000 0.000000 0.590241 0.000000 1.536149
# 5 -0.017902 0.001114 0.013207 0.000000 0.059448 0.000000
# 6 0.000000 0.000000 0.000000 1.536149 0.000000 4.151215
#
#
# Mechanical properties :
#
#
# Convention : Reuss Voigt Hill
#
# Bulk Modulus (GPa) = 50.42025 60.56265 55.49145
# Shear Modulus (GPa) = 1.02070 27.31397 14.16734
#
# Velocity S-wave (km/s) = 0.71324 3.68960 2.65724
# Velocity P-wave (km/s) = 5.08011 6.95234 6.08862
#
# Compressibility (1/GPa) = 0.01983330
#
# Stress axis : x y z
#
# Youngs Moduli (GPa) = 39.18826 128.62680 45.11006
#
# Poissons Ratio (x) = 0.43690 0.50611
# Poissons Ratio (y) = 0.13311 0.14424
# Poissons Ratio (z) = 0.43967 0.41127
#
# Static dielectric constant tensor:
#      x y z
#    x 1.756510 0.000000 0.038140 
#    y 0.000000 1.697330 0.000000 
#    z 0.038140 0.000000 1.720890 
# 
# From -- ./inp_files/14326.got.cif
#   From: 2010.05.17/outbox.cif.g08.bks.cpg/sg11_8_cif.got.tgz:14326.got - 2010.06.03 12:22:45.
