data_PCOD9166302
_publ_section_title
;
Structure prediction by ZEFSAII (Michael W. Deem and Ramdas Pophale) SiO2 
 PCOD9166302
Probable space group: P 21/M
;
_chemical_formula_sum "Si O2"
_cell_formula_units_Z 28
_cell_length_a 14.774867
_cell_length_b 8.890901
_cell_length_c 11.330346
_cell_angle_alpha 90.000000
_cell_angle_beta 119.206536
_cell_angle_gamma 90.000000
_cell_volume 1299.153036
_symmetry_space_group_name_H-M "P 21/M"
_symmetry_group_IT_number 11
_symmetry_cell_setting 'monoclinic'
loop_
_space_group_symop_operation_xyz
x,y,z
-x,1/2+y,-z
-x,-y,-z
x,1/2-y,z
loop_
_atom_site_type_symbol
_atom_site_label
_atom_site_fract_x
_atom_site_fract_y
_atom_site_fract_z
Si Si1 0.926809 0.422770 0.590531
Si Si2 0.845349 0.929794 0.324542
Si Si3 0.571069 0.568271 0.438478
Si Si4 0.725885 0.927251 0.038494
Si Si5 0.766734 0.422886 0.681037
Si Si6 0.516680 0.428593 0.877718
Si Si7 0.889362 0.575542 0.953262
O O1 0.928097 0.250000 0.548668
O O2 0.849636 0.515663 0.459718
O O3 0.878433 0.421676 0.687736
O O4 0.042733 0.483801 0.652999
O O5 0.844241 0.750000 0.316783
O O6 0.747860 0.979231 0.186339
O O7 0.500000 0.500000 0.500000
O O8 0.565927 0.750000 0.440766
O O9 0.683440 0.507183 0.548207
O O10 0.542166 0.525357 0.283128
O O11 0.695844 0.750000 0.013991
O O12 0.839521 0.936724 0.051372
O O13 0.636103 0.027486 0.927937
O O14 0.734137 0.250000 0.678851
O O15 0.794814 0.507943 0.817456
O O16 0.500517 0.250000 0.879824
O O17 0.500000 0.500000 0.000000
O O18 0.901762 0.750000 0.932294
O O19 0.000000 0.500000 0.000000
#
# Coordination Sequence:
#
# PCOD9166302 Si02
#       7
#     4   4   4   4   4   4   4
#     4   9  19  35  54  82 117 154 195 241 297 360
#     4   9  18  34  56  81 115 154 193 241 296 359
#     4  11  25  45  68  95 127 168 220 277 337 398
#     4  10  22  40  62  88 123 164 207 261 322 379
#     4  11  23  39  62  90 124 162 207 259 315 379
#     4  11  26  45  67  96 131 171 222 279 337 403
#     4  11  23  40  64  95 133 174 216 264 320 385
#
# _framework density 21.552502
#
# number of rings (size 3 to 8) (size 9 to 14) (size 15 to 20)
#    0.000    1.714    0.000    3.429    2.000    9.714 
#    0.000    2.857    0.000    0.000    0.000    0.000 
#    0.000    0.000    0.000    0.000    0.000    0.000 
#
# Total GULP energy -156094.154899 kJ/mol
# GULP energy per Si atom -5574.791246 kJ/mol
# Density = 2.150345 g / cm^3
# Si number density = 21.552502 Si / 1000 Ang^3
#
#
#
# Elastic Constant Matrix: (Units=GPa)
#
#
# Indices 1 2 3 4 5 6 
#
# 1 81.0963 19.5236 16.7338 0.0000 -3.7893 0.0000
# 2 19.5236 60.1830 45.5999 0.0000 -4.5894 0.0000
# 3 16.7338 45.5999 159.8268 0.0000 4.5434 0.0000
# 4 0.0000 0.0000 0.0000 29.0851 0.0000 2.3353
# 5 -3.7893 -4.5894 4.5434 0.0000 27.2919 0.0000
# 6 0.0000 0.0000 0.0000 2.3353 0.0000 29.5311
#
#
#
# Elastic Compliance Matrix: (Units=1/GPa)
#
#
# Indices 1 2 3 4 5 6 
#
# 1 0.013421 -0.004043 -0.000287 0.000000 0.001231 0.000000
# 2 -0.004043 0.023005 -0.006264 0.000000 0.004350 0.000000
# 3 -0.000287 -0.006264 0.008144 0.000000 -0.002449 0.000000
# 4 0.000000 0.000000 0.000000 0.034602 0.000000 -0.002736
# 5 0.001231 0.004350 -0.002449 0.000000 0.037951 0.000000
# 6 0.000000 0.000000 0.000000 -0.002736 0.000000 0.034079
#
#
# Mechanical properties :
#
#
# Convention : Reuss Voigt Hill
#
# Bulk Modulus (GPa) = 42.76599 51.64675 47.20637
# Shear Modulus (GPa) = 27.74962 31.79821 29.77392
#
# Velocity S-wave (km/s) = 3.59212 3.84524 3.72083
# Velocity P-wave (km/s) = 6.09017 6.61285 6.35688
#
# Compressibility (1/GPa) = 0.02338306
#
# Stress axis : x y z
#
# Youngs Moduli (GPa) = 74.51022 43.46820 122.79602
#
# Poissons Ratio (x) = 0.17573 0.03522
# Poissons Ratio (y) = 0.30122 0.76920
# Poissons Ratio (z) = 0.02137 0.27229
#
# Static dielectric constant tensor:
#      x y z
#    x 1.934190 0.000000 -0.091310 
#    y 0.000000 1.740410 0.000000 
#    z -0.091310 0.000000 1.838360 
# 
# From -- ./inp_files/38482.got.cif
#   From: 2010.05.17/outbox.cif.g08.bks.cpg/sg11_20_cif.got.tgz:38482.got - 2010.06.03 12:22:45.
