data_PCOD9166858
_publ_section_title
;
Structure prediction by ZEFSAII (Michael W. Deem and Ramdas Pophale) SiO2 
 PCOD9166858
Probable space group: P 21/M
;
_chemical_formula_sum "Si O2"
_cell_formula_units_Z 14
_cell_length_a 5.881757
_cell_length_b 8.982564
_cell_length_c 10.489755
_cell_angle_alpha 90.000000
_cell_angle_beta 102.150632
_cell_angle_gamma 90.000000
_cell_volume 541.792360
_symmetry_space_group_name_H-M "P 21/M"
_symmetry_group_IT_number 11
_symmetry_cell_setting 'monoclinic'
loop_
_space_group_symop_operation_xyz
x,y,z
-x,1/2+y,-z
-x,-y,-z
x,1/2-y,z
loop_
_atom_site_type_symbol
_atom_site_label
_atom_site_fract_x
_atom_site_fract_y
_atom_site_fract_z
Si Si1 0.079588 0.497290 0.293329
Si Si2 0.713961 0.250000 0.230769
Si Si3 0.161834 0.750000 0.104634
Si Si4 0.778965 0.750000 0.339171
Si Si5 0.429149 0.250000 0.431583
Si Si6 0.366467 0.250000 0.982049
O O1 0.868798 0.393924 0.218982
O O2 0.947241 0.608800 0.372912
O O3 0.177423 0.601369 0.192053
O O4 0.277887 0.394667 0.375056
O O5 0.662962 0.250000 0.377758
O O6 0.456147 0.250000 0.141790
O O7 0.358858 0.750000 0.023297
O O8 0.905436 0.750000 0.015446
O O9 0.570560 0.750000 0.415110
O O10 0.697288 0.750000 0.181834
#
# Coordination Sequence:
#
# PCOD9166858 Si02
#       6
#     4   2   2   2   2   2
#     4   9  23  44  66  98 135 177 225 280 335 403
#     4  11  25  42  66 105 133 173 225 286 339 395
#     4  10  24  45  71  99 135 183 228 274 336 406
#     4  10  23  46  66  98 132 184 227 274 337 410
#     4  11  23  42  70  97 137 174 226 282 342 397
#     4  10  25  45  69 103 135 180 226 278 338 402
#
# _framework density 25.840157999999999
#
# number of rings (size 3 to 8) (size 9 to 14) (size 15 to 20)
#    0.000    2.286    0.000    0.857   12.000    6.857 
#   15.429    0.000    0.000    0.000    0.000    0.000 
#    0.000    0.000    0.000    0.000    0.000    0.000 
#
# Total GULP energy -77983.014011 kJ/mol
# GULP energy per Si atom -5570.215287 kJ/mol
# Density = 2.578134 g / cm^3
# Si number density = 25.840158 Si / 1000 Ang^3
#
#
#
# Elastic Constant Matrix: (Units=GPa)
#
#
# Indices 1 2 3 4 5 6 
#
# 1 136.2243 22.7012 35.0999 0.0000 -2.4871 0.0000
# 2 22.7012 144.7080 22.8446 0.0000 12.0991 0.0000
# 3 35.0999 22.8446 95.7100 0.0000 3.5314 0.0000
# 4 0.0000 0.0000 0.0000 -27.8130 0.0000 28.5428
# 5 -2.4871 12.0991 3.5314 0.0000 64.5054 0.0000
# 6 0.0000 0.0000 0.0000 28.5428 0.0000 -16.1554
#
#
#
# Elastic Compliance Matrix: (Units=1/GPa)
#
#
# Indices 1 2 3 4 5 6 
#
# 1 0.008231 -0.000898 -0.002828 0.000000 0.000641 0.000000
# 2 -0.000898 0.007382 -0.001383 0.000000 -0.001344 0.000000
# 3 -0.002828 -0.001383 0.011834 0.000000 -0.000497 0.000000
# 4 0.000000 0.000000 0.000000 0.044217 0.000000 0.078122
# 5 0.000641 -0.001344 -0.000497 0.000000 0.015807 0.000000
# 6 0.000000 0.000000 0.000000 0.078122 0.000000 0.076124
#
#
# Mechanical properties :
#
#
# Convention : Reuss Voigt Hill
#
# Bulk Modulus (GPa) = 58.04343 59.77042 58.90693
# Shear Modulus (GPa) = 27.84660 23.84052 25.84356
#
# Velocity S-wave (km/s) = 3.28632 3.04075 3.16592
# Velocity P-wave (km/s) = 6.07545 5.95897 6.01749
#
# Compressibility (1/GPa) = 0.01722848
#
# Stress axis : x y z
#
# Youngs Moduli (GPa) = 121.49431 135.46358 84.50454
#
# Poissons Ratio (x) = 0.12170 0.23895
# Poissons Ratio (y) = 0.10915 0.11687
# Poissons Ratio (z) = 0.34355 0.18734
#
# Static dielectric constant tensor:
#      x y z
#    x 1.965150 0.000000 0.059830 
#    y 0.000000 2.108280 0.000000 
#    z 0.059830 0.000000 2.162530 
# 
# From -- ./inp_files/3569.got.cif
#   From: 2010.05.17/outbox.cif.g08.bks.cpg/sg11_2_cif.got.tgz:3569.got - 2010.06.03 12:22:45.
