data_PCOD9166590
_publ_section_title
;
Structure prediction by ZEFSAII (Michael W. Deem and Ramdas Pophale) SiO2 
 PCOD9166590
Probable space group: P 21/M
;
_chemical_formula_sum "Si O2"
_cell_formula_units_Z 18
_cell_length_a 13.169404
_cell_length_b 10.959704
_cell_length_c 18.391452
_cell_angle_alpha 90.000000
_cell_angle_beta 159.972331
_cell_angle_gamma 90.000000
_cell_volume 909.093258
_symmetry_space_group_name_H-M "P 21/M"
_symmetry_group_IT_number 11
_symmetry_cell_setting 'monoclinic'
loop_
_space_group_symop_operation_xyz
x,y,z
-x,1/2+y,-z
-x,-y,-z
x,1/2-y,z
loop_
_atom_site_type_symbol
_atom_site_label
_atom_site_fract_x
_atom_site_fract_y
_atom_site_fract_z
Si Si1 0.624263 0.462742 0.163038
Si Si2 0.288450 0.112204 0.639326
Si Si3 0.334432 0.750000 0.322237
Si Si4 0.801735 0.750000 0.069498
Si Si5 0.568996 0.250000 0.452247
Si Si6 0.349680 0.995095 0.241595
O O1 0.674975 0.575849 0.251916
O O2 0.951674 0.402654 0.384000
O O3 0.500000 0.500000 0.000000
O O4 0.398330 0.367876 0.049163
O O5 0.386740 0.250000 0.694525
O O6 0.492050 0.025336 0.728384
O O7 0.511883 0.750000 0.516962
O O8 0.409253 0.873792 0.329915
O O9 0.987913 0.750000 0.118367
O O10 0.073635 0.750000 0.309522
O O11 0.456389 0.376130 0.344262
O O12 0.000000 0.000000 0.000000
#
# Coordination Sequence:
#
# PCOD9166590 Si02
#       6
#     4   4   2   2   2   4
#     4  11  24  45  70 100 137 183 231 286 351 413
#     4  11  25  44  70 103 139 178 233 291 344 418
#     4  10  23  42  68  97 140 171 232 280 341 416
#     4  10  22  43  67 100 131 177 231 277 347 413
#     4  10  25  41  69  99 133 186 229 281 338 423
#     4  12  23  45  67 102 140 181 225 288 351 409
#
# _framework density 19.799949999999999
#
# number of rings (size 3 to 8) (size 9 to 14) (size 15 to 20)
#    0.667    0.444    2.222    4.000    1.556    0.889 
#    6.000    0.000    0.000    0.000    0.000    0.000 
#    0.000    0.000    0.000    0.000    0.000    0.000 
#
# Total GULP energy -100437.528661 kJ/mol
# GULP energy per Si atom -5579.862703 kJ/mol
# Density = 1.975488 g / cm^3
# Si number density = 19.799950 Si / 1000 Ang^3
#
#
#
# Elastic Constant Matrix: (Units=GPa)
#
#
# Indices 1 2 3 4 5 6 
#
# 1 96.1348 34.2572 26.5065 0.0000 -17.9241 0.0000
# 2 34.2572 139.7142 36.3580 0.0000 -20.4297 0.0000
# 3 26.5065 36.3580 115.5824 0.0000 -3.9835 0.0000
# 4 0.0000 0.0000 0.0000 19.5939 0.0000 -0.4823
# 5 -17.9241 -20.4297 -3.9835 0.0000 40.3182 0.0000
# 6 0.0000 0.0000 0.0000 -0.4823 0.0000 35.7752
#
#
#
# Elastic Compliance Matrix: (Units=1/GPa)
#
#
# Indices 1 2 3 4 5 6 
#
# 1 0.012470 -0.001863 -0.002122 0.000000 0.004390 0.000000
# 2 -0.001863 0.008673 -0.002185 0.000000 0.003350 0.000000
# 3 -0.002122 -0.002185 0.009789 0.000000 -0.001084 0.000000
# 4 0.000000 0.000000 0.000000 0.051053 0.000000 0.000688
# 5 0.004390 0.003350 -0.001084 0.000000 0.028345 0.000000
# 6 0.000000 0.000000 0.000000 0.000688 0.000000 0.027962
#
#
# Mechanical properties :
#
#
# Convention : Reuss Voigt Hill
#
# Bulk Modulus (GPa) = 53.79441 60.63052 57.21247
# Shear Modulus (GPa) = 31.88179 36.09144 33.98661
#
# Velocity S-wave (km/s) = 4.01708 4.27406 4.14756
# Velocity P-wave (km/s) = 6.98168 7.41922 7.20377
#
# Compressibility (1/GPa) = 0.01858929
#
# Stress axis : x y z
#
# Youngs Moduli (GPa) = 80.19470 115.30076 102.15935
#
# Poissons Ratio (x) = 0.21484 0.21681
# Poissons Ratio (y) = 0.14943 0.22326
# Poissons Ratio (z) = 0.17019 0.25198
#
# Static dielectric constant tensor:
#      x y z
#    x 1.728960 0.000000 -0.002530 
#    y 0.000000 1.747480 0.000000 
#    z -0.002530 0.000000 1.690320 
# 
# From -- ./inp_files/65331.got.cif
#   From: 2010.05.17/outbox.cif.g08.bks.cpg/sg11_33_cif.got.tgz:65331.got - 2010.06.03 12:22:45.
