data_PCOD9166535
_publ_section_title
;
Structure prediction by ZEFSAII (Michael W. Deem and Ramdas Pophale) SiO2 
 PCOD9166535
Probable space group: P 21/M
;
_chemical_formula_sum "Si O2"
_cell_formula_units_Z 24
_cell_length_a 10.186960
_cell_length_b 19.506417
_cell_length_c 8.413811
_cell_angle_alpha 90.000000
_cell_angle_beta 137.797036
_cell_angle_gamma 90.000000
_cell_volume 1123.125515
_symmetry_space_group_name_H-M "P 21/M"
_symmetry_group_IT_number 11
_symmetry_cell_setting 'monoclinic'
loop_
_space_group_symop_operation_xyz
x,y,z
-x,1/2+y,-z
-x,-y,-z
x,1/2-y,z
loop_
_atom_site_type_symbol
_atom_site_label
_atom_site_fract_x
_atom_site_fract_y
_atom_site_fract_z
Si Si1 0.538599 0.063233 0.918516
Si Si2 0.635823 0.170461 0.553734
Si Si3 0.367609 0.331424 0.003241
Si Si4 0.310134 0.401608 0.445577
Si Si5 0.960434 0.590949 0.102899
Si Si6 0.019403 0.543331 0.679590
O O1 0.443169 0.129076 0.916180
O O2 0.767451 0.074017 0.115154
O O3 0.449815 0.045481 0.665955
O O4 0.500000 0.000000 0.000000
O O5 0.689995 0.250000 0.608084
O O6 0.528641 0.156726 0.288222
O O7 0.468858 0.154901 0.535787
O O8 0.832480 0.126287 0.749643
O O9 0.347085 0.250000 0.963940
O O10 0.164002 0.364707 0.880633
O O11 0.187819 0.414981 0.177392
O O12 0.137882 0.398232 0.422656
O O13 0.998809 0.483618 0.791221
O O14 0.000000 0.500000 0.500000
#
# Coordination Sequence:
#
# PCOD9166535 Si02
#       6
#     4   4   4   4   4   4
#     4  12  23  42  63  95 134 172 214 269 324 388
#     4  10  23  43  66  91 126 168 213 268 328 387
#     4  10  22  42  66  92 123 169 218 265 321 391
#     4  11  25  40  62  95 127 167 212 266 328 378
#     4  11  22  40  65  95 127 166 219 269 321 392
#     4  12  23  39  62  94 131 171 214 264 326 380
#
# _framework density 21.368939000000001
#
# number of rings (size 3 to 8) (size 9 to 14) (size 15 to 20)
#    0.000    1.000    3.333    3.000    0.000    2.667 
#    0.000    0.833    0.000    0.000    0.000    0.000 
#    0.000    0.000    0.000    0.000    0.000    0.000 
#
# Total GULP energy -133909.492153 kJ/mol
# GULP energy per Si atom -5579.562173 kJ/mol
# Density = 2.132030 g / cm^3
# Si number density = 21.368939 Si / 1000 Ang^3
#
#
#
# Elastic Constant Matrix: (Units=GPa)
#
#
# Indices 1 2 3 4 5 6 
#
# 1 133.6895 50.9447 58.1543 0.0000 33.1846 0.0000
# 2 50.9447 89.6562 29.9457 0.0000 6.0305 0.0000
# 3 58.1543 29.9457 114.3588 0.0000 15.6271 0.0000
# 4 0.0000 0.0000 0.0000 15.8113 0.0000 -0.9727
# 5 33.1846 6.0305 15.6271 0.0000 37.3194 0.0000
# 6 0.0000 0.0000 0.0000 -0.9727 0.0000 38.1686
#
#
#
# Elastic Compliance Matrix: (Units=1/GPa)
#
#
# Indices 1 2 3 4 5 6 
#
# 1 0.013968 -0.005868 -0.004241 0.000000 -0.009696 0.000000
# 2 -0.005868 0.014704 -0.001331 0.000000 0.003399 0.000000
# 3 -0.004241 -0.001331 0.011355 0.000000 -0.000768 0.000000
# 4 0.000000 0.000000 0.000000 0.063345 0.000000 0.001614
# 5 -0.009696 0.003399 -0.000768 0.000000 0.035190 0.000000
# 6 0.000000 0.000000 0.000000 0.001614 0.000000 0.026241
#
#
# Mechanical properties :
#
#
# Convention : Reuss Voigt Hill
#
# Bulk Modulus (GPa) = 58.32264 68.42153 63.37209
# Shear Modulus (GPa) = 25.85339 31.50385 28.67862
#
# Velocity S-wave (km/s) = 3.48208 3.84380 3.66740
# Velocity P-wave (km/s) = 6.59689 7.19642 6.90316
#
# Compressibility (1/GPa) = 0.01714600
#
# Stress axis : x y z
#
# Youngs Moduli (GPa) = 71.59265 68.00906 88.06890
#
# Poissons Ratio (x) = 0.39908 0.37354
# Poissons Ratio (y) = 0.42011 0.11720
# Poissons Ratio (z) = 0.30366 0.09051
#
# Static dielectric constant tensor:
#      x y z
#    x 1.824170 0.000000 -0.011020 
#    y 0.000000 1.779040 0.000000 
#    z -0.011020 0.000000 1.846910 
# 
# From -- ./inp_files/14413.got.cif
#   From: 2010.05.17/outbox.cif.g08.bks.cpg/sg11_8_cif.got.tgz:14413.got - 2010.06.03 12:22:45.
