data_PCOD9166133
_publ_section_title
;
Structure prediction by ZEFSAII (Michael W. Deem and Ramdas Pophale) SiO2 
 PCOD9166133
Probable space group: P 21/M
;
_chemical_formula_sum "Si O2"
_cell_formula_units_Z 28
_cell_length_a 4.987661
_cell_length_b 17.119171
_cell_length_c 13.879186
_cell_angle_alpha 90.000000
_cell_angle_beta 77.657282
_cell_angle_gamma 90.000000
_cell_volume 1157.677920
_symmetry_space_group_name_H-M "P 21/M"
_symmetry_group_IT_number 11
_symmetry_cell_setting 'monoclinic'
loop_
_space_group_symop_operation_xyz
x,y,z
-x,1/2+y,-z
-x,-y,-z
x,1/2-y,z
loop_
_atom_site_type_symbol
_atom_site_label
_atom_site_fract_x
_atom_site_fract_y
_atom_site_fract_z
Si Si1 0.891961 0.402836 0.242541
Si Si2 0.220836 0.250000 0.437169
Si Si3 0.436649 0.417690 0.408669
Si Si4 0.648957 0.250000 0.571359
Si Si5 0.449779 0.083588 0.951308
Si Si6 0.477379 0.412841 0.631434
Si Si7 0.432217 0.165047 0.150909
Si Si8 0.008714 0.427962 0.822238
O O1 0.760715 0.410330 0.358114
O O2 0.628365 0.392843 0.194251
O O3 0.035965 0.481214 0.196838
O O4 0.118936 0.338777 0.208951
O O5 0.316919 0.333250 0.386368
O O6 0.367765 0.250000 0.531295
O O7 0.897693 0.250000 0.477160
O O8 0.385978 0.420970 0.526577
O O9 0.370047 0.502709 0.366343
O O10 0.652806 0.333169 0.625298
O O11 0.176872 0.080788 0.908567
O O12 0.705993 0.104778 0.862324
O O13 0.432875 0.144577 0.038842
O O14 0.500000 0.000000 0.000000
O O15 0.217526 0.403085 0.721640
O O16 0.549680 0.250000 0.159815
#
# Coordination Sequence:
#
# PCOD9166133 Si02
#       8
#     4   2   4   2   4   4   4   4
#     4  11  22  41  64  96 128 167 210 254 328 384
#     4  10  22  38  62  92 123 170 215 248 322 366
#     4   9  21  40  67  97 133 173 210 268 314 391
#     4  10  22  42  62  88 127 170 209 266 306 370
#     4  12  22  43  67  92 125 165 217 269 323 381
#     4   9  21  43  65  97 134 169 220 262 320 380
#     4  12  26  41  62  94 130 164 207 271 325 384
#     4  11  22  40  71  94 120 172 217 264 320 383
#
# _framework density 24.186347000000001
#
# number of rings (size 3 to 8) (size 9 to 14) (size 15 to 20)
#    0.000    1.429    2.857    1.714    2.000    5.143 
#    2.571    8.571    0.000    0.000    0.000    0.000 
#    0.000    0.000    0.000    0.000    0.000    0.000 
#
# Total GULP energy -156501.365637 kJ/mol
# GULP energy per Si atom -5589.334487 kJ/mol
# Density = 2.413130 g / cm^3
# Si number density = 24.186347 Si / 1000 Ang^3
#
#
#
# Elastic Constant Matrix: (Units=GPa)
#
#
# Indices 1 2 3 4 5 6 
#
# 1 73.9165 13.4855 15.4546 0.0000 6.5432 0.0000
# 2 13.4855 157.1937 22.2482 0.0000 -14.5373 0.0000
# 3 15.4546 22.2482 116.6383 0.0000 -10.7223 0.0000
# 4 0.0000 0.0000 0.0000 25.5726 0.0000 -6.0876
# 5 6.5432 -14.5373 -10.7223 0.0000 34.4113 0.0000
# 6 0.0000 0.0000 0.0000 -6.0876 0.0000 16.0503
#
#
#
# Elastic Compliance Matrix: (Units=1/GPa)
#
#
# Indices 1 2 3 4 5 6 
#
# 1 0.014548 -0.001326 -0.002039 0.000000 -0.003962 0.000000
# 2 -0.001326 0.006865 -0.000869 0.000000 0.002881 0.000000
# 3 -0.002039 -0.000869 0.009277 0.000000 0.002911 0.000000
# 4 0.000000 0.000000 0.000000 0.042985 0.000000 0.016304
# 5 -0.003962 0.002881 0.002911 0.000000 0.031938 0.000000
# 6 0.000000 0.000000 0.000000 0.016304 0.000000 0.068488
#
#
# Mechanical properties :
#
#
# Convention : Reuss Voigt Hill
#
# Bulk Modulus (GPa) = 44.99975 50.01389 47.50682
# Shear Modulus (GPa) = 26.31925 34.97751 30.64838
#
# Velocity S-wave (km/s) = 3.30235 3.80698 3.56360
# Velocity P-wave (km/s) = 5.76077 6.32831 6.05120
#
# Compressibility (1/GPa) = 0.02222235
#
# Stress axis : x y z
#
# Youngs Moduli (GPa) = 68.73963 145.67124 107.79320
#
# Poissons Ratio (x) = 0.19314 0.21977
# Poissons Ratio (y) = 0.09114 0.09366
# Poissons Ratio (z) = 0.14015 0.12657
#
# Static dielectric constant tensor:
#      x y z
#    x 1.886670 0.000000 0.018340 
#    y 0.000000 1.990700 0.000000 
#    z 0.018340 0.000000 1.950030 
# 
# From -- ./inp_files/46011.got.cif
#   From: 2010.05.17/outbox.cif.g08.bks.cpg/sg11_24_cif.got.tgz:46011.got - 2010.06.03 12:22:45.
