data_PCOD9166529
_publ_section_title
;
Structure prediction by ZEFSAII (Michael W. Deem and Ramdas Pophale) SiO2 
 PCOD9166529
Probable space group: P 21/M
;
_chemical_formula_sum "Si O2"
_cell_formula_units_Z 20
_cell_length_a 5.894868
_cell_length_b 14.297437
_cell_length_c 11.130494
_cell_angle_alpha 90.000000
_cell_angle_beta 86.985577
_cell_angle_gamma 90.000000
_cell_volume 936.796758
_symmetry_space_group_name_H-M "P 21/M"
_symmetry_group_IT_number 11
_symmetry_cell_setting 'monoclinic'
loop_
_space_group_symop_operation_xyz
x,y,z
-x,1/2+y,-z
-x,-y,-z
x,1/2-y,z
loop_
_atom_site_type_symbol
_atom_site_label
_atom_site_fract_x
_atom_site_fract_y
_atom_site_fract_z
Si Si1 0.520649 0.250000 0.464114
Si Si2 0.985772 0.750000 0.399275
Si Si3 0.538227 0.145410 0.960751
Si Si4 0.141909 0.577489 0.245308
Si Si5 0.766171 0.013072 0.125442
Si Si6 0.521865 0.954669 0.630075
O O1 0.271589 0.250000 0.538656
O O2 0.507454 0.344504 0.387215
O O3 0.769030 0.250000 0.529812
O O4 0.999997 0.654792 0.321045
O O5 0.458492 0.250000 0.983895
O O6 0.668998 0.137195 0.830462
O O7 0.341917 0.069640 0.951014
O O8 0.702038 0.109075 0.062146
O O9 0.243735 0.498369 0.328491
O O10 0.017758 0.518992 0.145441
O O11 0.653515 0.014730 0.261467
O O12 0.500000 0.000000 0.500000
#
# Coordination Sequence:
#
# PCOD9166529 Si02
#       6
#     2   2   4   4   4   4
#     4  12  28  44  67 105 139 189 230 285 344 412
#     4  12  26  42  73 101 139 181 242 275 344 412
#     4  10  22  42  65  96 131 174 230 287 348 414
#     4  11  23  41  68  97 130 180 225 292 338 418
#     4  10  24  41  67  94 135 176 229 285 350 409
#     4  11  24  44  65  95 141 175 229 282 346 406
#
# _framework density 21.349350000000001
#
# number of rings (size 3 to 8) (size 9 to 14) (size 15 to 20)
#    0.000    1.200    3.000    1.800    8.400    1.600 
#    1.800    0.000    0.000    0.000    0.000    0.000 
#    0.000    0.000    0.000    0.000    0.000    0.000 
#
# Total GULP energy -111511.982026 kJ/mol
# GULP energy per Si atom -5575.599101 kJ/mol
# Density = 2.130076 g / cm^3
# Si number density = 21.349350 Si / 1000 Ang^3
#
#
#
# Elastic Constant Matrix: (Units=GPa)
#
#
# Indices 1 2 3 4 5 6 
#
# 1 65.5955 12.8357 27.2750 0.0000 0.5784 0.0000
# 2 12.8357 157.2942 41.8509 0.0000 10.7581 0.0000
# 3 27.2750 41.8509 79.1151 0.0000 15.1690 0.0000
# 4 0.0000 0.0000 0.0000 34.2125 0.0000 -4.6786
# 5 0.5784 10.7581 15.1690 0.0000 41.6876 0.0000
# 6 0.0000 0.0000 0.0000 -4.6786 0.0000 21.2553
#
#
#
# Elastic Compliance Matrix: (Units=1/GPa)
#
#
# Indices 1 2 3 4 5 6 
#
# 1 0.017978 0.000168 -0.006698 0.000000 0.002144 0.000000
# 2 0.000168 0.007411 -0.003882 0.000000 -0.000502 0.000000
# 3 -0.006698 -0.003882 0.018052 0.000000 -0.005474 0.000000
# 4 0.000000 0.000000 0.000000 0.030136 0.000000 0.006633
# 5 0.002144 -0.000502 -0.005474 0.000000 0.026080 0.000000
# 6 0.000000 0.000000 0.000000 0.006633 0.000000 0.048507
#
#
# Mechanical properties :
#
#
# Convention : Reuss Voigt Hill
#
# Bulk Modulus (GPa) = 44.21342 51.76977 47.99160
# Shear Modulus (GPa) = 28.32421 34.10065 31.21243
#
# Velocity S-wave (km/s) = 3.64634 4.00092 3.82774
# Velocity P-wave (km/s) = 6.20340 6.75608 6.48563
#
# Compressibility (1/GPa) = 0.02261757
#
# Stress axis : x y z
#
# Youngs Moduli (GPa) = 55.62278 134.93408 55.39500
#
# Poissons Ratio (x) = -0.02273 0.37105
# Poissons Ratio (y) = -0.00937 0.21505
# Poissons Ratio (z) = 0.37258 0.52383
#
# Static dielectric constant tensor:
#      x y z
#    x 1.865560 0.000000 -0.002850 
#    y 0.000000 1.730520 0.000000 
#    z -0.002850 0.000000 1.803920 
# 
# From -- ./inp_files/4142.got.cif
#   From: 2010.05.17/outbox.cif.g08.bks.cpg/sg11_3_cif.got.tgz:4142.got - 2010.06.03 12:22:45.
