data_PCOD9166671
_publ_section_title
;
Structure prediction by ZEFSAII (Michael W. Deem and Ramdas Pophale) SiO2 
 PCOD9166671
Probable space group: P 21/M
;
_chemical_formula_sum "Si O2"
_cell_formula_units_Z 32
_cell_length_a 7.899687
_cell_length_b 14.653303
_cell_length_c 13.742418
_cell_angle_alpha 90.000000
_cell_angle_beta 68.454535
_cell_angle_gamma 90.000000
_cell_volume 1479.621262
_symmetry_space_group_name_H-M "P 21/M"
_symmetry_group_IT_number 11
_symmetry_cell_setting 'monoclinic'
loop_
_space_group_symop_operation_xyz
x,y,z
-x,1/2+y,-z
-x,-y,-z
x,1/2-y,z
loop_
_atom_site_type_symbol
_atom_site_label
_atom_site_fract_x
_atom_site_fract_y
_atom_site_fract_z
Si Si1 0.842904 0.355775 0.950106
Si Si2 0.637281 0.616390 0.351416
Si Si3 0.249585 0.348023 0.876285
Si Si4 0.800775 0.081481 0.358761
Si Si5 0.453667 0.971901 0.900650
Si Si6 0.751782 0.047316 0.589195
Si Si7 0.150804 0.499316 0.229982
Si Si8 0.589395 0.846485 0.582602
O O1 0.810180 0.250000 0.928217
O O2 0.849603 0.427065 0.857655
O O3 0.043410 0.359917 0.954689
O O4 0.690929 0.391062 0.057826
O O5 0.753655 0.656936 0.240214
O O6 0.711943 0.515939 0.354007
O O7 0.429668 0.607401 0.359012
O O8 0.631726 0.658243 0.458624
O O9 0.322831 0.250000 0.897149
O O10 0.362674 0.437911 0.875358
O O11 0.631632 0.145233 0.364759
O O12 0.832332 0.081949 0.469314
O O13 0.991376 0.076066 0.261752
O O14 0.648459 0.954387 0.811460
O O15 0.500000 0.000000 0.000000
O O16 0.685887 0.941421 0.592281
O O17 0.870067 0.051119 0.661734
O O18 0.648359 0.750000 0.616106
#
# Coordination Sequence:
#
# PCOD9166671 Si02
#       8
#     4   4   4   4   4   4   4   4
#     4  10  23  41  62  88 113 145 194 248 295 344
#     4   9  16  33  55  84 112 150 196 236 279 331
#     4  11  20  36  65  91 112 144 192 240 287 346
#     4   9  18  32  56  82 117 158 194 229 279 345
#     4  10  23  39  58  84 119 152 181 238 301 351
#     4   9  18  32  54  83 116 159 192 226 288 335
#     4  11  19  36  59  82 117 158 189 229 287 351
#     4   9  18  33  52  79 120 157 199 244 274 325
#
# _framework density 21.627154999999998
#
# number of rings (size 3 to 8) (size 9 to 14) (size 15 to 20)
#    0.000    2.250    2.500    2.625    0.000    2.000 
#    0.000    2.500    0.000    1.500    0.000    0.000 
#    0.000    0.000    0.000    0.000    0.000    0.000 
#
# Total GULP energy -178288.280535 kJ/mol
# GULP energy per Si atom -5571.508767 kJ/mol
# Density = 2.157793 g / cm^3
# Si number density = 21.627155 Si / 1000 Ang^3
#
#
#
# Elastic Constant Matrix: (Units=GPa)
#
#
# Indices 1 2 3 4 5 6 
#
# 1 43.2495 4.0015 20.4749 0.0000 -25.6045 0.0000
# 2 4.0015 77.5770 17.7241 0.0000 -15.3501 0.0000
# 3 20.4749 17.7241 63.1026 0.0000 -19.9094 0.0000
# 4 0.0000 0.0000 0.0000 92.2185 0.0000 -68.4990
# 5 -25.6045 -15.3501 -19.9094 0.0000 47.3689 0.0000
# 6 0.0000 0.0000 0.0000 -68.4990 0.0000 62.6016
#
#
#
# Elastic Compliance Matrix: (Units=1/GPa)
#
#
# Indices 1 2 3 4 5 6 
#
# 1 0.036871 0.003303 -0.007223 0.000000 0.017964 0.000000
# 2 0.003303 0.014524 -0.003577 0.000000 0.004989 0.000000
# 3 -0.007223 -0.003577 0.020289 0.000000 0.003464 0.000000
# 4 0.000000 0.000000 0.000000 0.057915 0.000000 0.063371
# 5 0.017964 0.004989 0.003464 0.000000 0.033894 0.000000
# 6 0.000000 0.000000 0.000000 0.063371 0.000000 0.085315
#
#
# Mechanical properties :
#
#
# Convention : Reuss Voigt Hill
#
# Bulk Modulus (GPa) = 17.64024 29.81446 23.72735
# Shear Modulus (GPa) = 17.68664 49.88637 33.78651
#
# Velocity S-wave (km/s) = 2.86282 4.80797 3.95679
# Velocity P-wave (km/s) = 4.37057 6.68115 5.64534
#
# Compressibility (1/GPa) = 0.05668857
#
# Stress axis : x y z
#
# Youngs Moduli (GPa) = 27.12167 68.84941 49.28877
#
# Poissons Ratio (x) = -0.22741 0.35603
# Poissons Ratio (y) = -0.08958 0.17633
# Poissons Ratio (z) = 0.19591 0.24630
#
# Static dielectric constant tensor:
#      x y z
#    x 2.630620 0.000000 0.262530 
#    y 0.000000 1.773640 0.000000 
#    z 0.262530 0.000000 1.938740 
# 
# From -- ./inp_files/47609.got.cif
#   From: 2010.05.17/outbox.cif.g08.bks.cpg/sg11_24_cif.got.tgz:47609.got - 2010.06.03 12:22:45.
