data_PCOD9166781
_publ_section_title
;
Structure prediction by ZEFSAII (Michael W. Deem and Ramdas Pophale) SiO2 
 PCOD9166781
Probable space group: P 21/M
;
_chemical_formula_sum "Si O2"
_cell_formula_units_Z 20
_cell_length_a 8.166136
_cell_length_b 18.356885
_cell_length_c 7.614167
_cell_angle_alpha 90.000000
_cell_angle_beta 56.078333
_cell_angle_gamma 90.000000
_cell_volume 947.135487
_symmetry_space_group_name_H-M "P 21/M"
_symmetry_group_IT_number 11
_symmetry_cell_setting 'monoclinic'
loop_
_space_group_symop_operation_xyz
x,y,z
-x,1/2+y,-z
-x,-y,-z
x,1/2-y,z
loop_
_atom_site_type_symbol
_atom_site_label
_atom_site_fract_x
_atom_site_fract_y
_atom_site_fract_z
Si Si1 0.212847 0.667939 0.733238
Si Si2 0.130582 0.058854 0.016236
Si Si3 0.774945 0.523746 0.670579
Si Si4 0.475785 0.613332 0.271810
Si Si5 0.532829 0.836103 0.836337
O O1 0.142887 0.750000 0.796528
O O2 0.357238 0.661142 0.480865
O O3 0.342874 0.648644 0.827115
O O4 0.024382 0.617287 0.819456
O O5 0.243926 0.019927 0.107462
O O6 0.299538 0.098215 0.804279
O O7 0.000000 0.000000 0.000000
O O8 0.635747 0.464264 0.665832
O O9 0.702547 0.606261 0.676229
O O10 0.000000 0.500000 0.500000
O O11 0.485135 0.647389 0.070099
O O12 0.582991 0.750000 0.786667
#
# Coordination Sequence:
#
# PCOD9166781 Si02
#       5
#     4   4   4   4   4
#     4  11  24  42  65  95 128 168 213 264 322 379
#     4  11  23  39  66  95 125 163 213 266 312 380
#     4  11  22  40  64  93 126 167 213 259 315 380
#     4  11  23  43  66  92 129 169 211 261 322 376
#     4  10  23  43  63  91 131 168 213 267 319 379
#
# _framework density 21.116302999999998
#
# number of rings (size 3 to 8) (size 9 to 14) (size 15 to 20)
#    0.000    1.200    2.000    5.400    2.800    5.600 
#    0.000    0.000    0.000    0.000    0.000    0.000 
#    0.000    0.000    0.000    0.000    0.000    0.000 
#
# Total GULP energy -111712.468605 kJ/mol
# GULP energy per Si atom -5585.623430 kJ/mol
# Density = 2.106824 g / cm^3
# Si number density = 21.116303 Si / 1000 Ang^3
#
#
#
# Elastic Constant Matrix: (Units=GPa)
#
#
# Indices 1 2 3 4 5 6 
#
# 1 66.8232 23.2034 14.3564 0.0000 -3.2580 0.0000
# 2 23.2034 99.8720 13.8184 0.0000 -7.7950 0.0000
# 3 14.3564 13.8184 71.8355 0.0000 -23.4509 0.0000
# 4 0.0000 0.0000 0.0000 25.6204 0.0000 1.6221
# 5 -3.2580 -7.7950 -23.4509 0.0000 37.2551 0.0000
# 6 0.0000 0.0000 0.0000 1.6221 0.0000 23.0199
#
#
#
# Elastic Compliance Matrix: (Units=1/GPa)
#
#
# Indices 1 2 3 4 5 6 
#
# 1 0.016806 -0.003575 -0.003065 0.000000 -0.001208 0.000000
# 2 -0.003575 0.011086 -0.000960 0.000000 0.001402 0.000000
# 3 -0.003065 -0.000960 0.018332 0.000000 0.011070 0.000000
# 4 0.000000 0.000000 0.000000 0.039206 0.000000 -0.002763
# 5 -0.001208 0.001402 0.011070 0.000000 0.033998 0.000000
# 6 0.000000 0.000000 0.000000 -0.002763 0.000000 0.043635
#
#
# Mechanical properties :
#
#
# Convention : Reuss Voigt Hill
#
# Bulk Modulus (GPa) = 32.23414 37.92079 35.07747
# Shear Modulus (GPa) = 26.51047 29.65591 28.08319
#
# Velocity S-wave (km/s) = 3.54708 3.75161 3.65078
# Velocity P-wave (km/s) = 5.66338 6.06326 5.86673
#
# Compressibility (1/GPa) = 0.03102301
#
# Stress axis : x y z
#
# Youngs Moduli (GPa) = 59.50339 90.20681 54.54951
#
# Poissons Ratio (x) = 0.32246 0.16721
# Poissons Ratio (y) = 0.21270 0.05238
# Poissons Ratio (z) = 0.18240 0.08662
#
# Static dielectric constant tensor:
#      x y z
#    x 1.784430 0.000000 0.027370 
#    y 0.000000 1.722610 0.000000 
#    z 0.027370 0.000000 1.806470 
# 
# From -- ./inp_files/13322.got.cif
#   From: 2010.05.17/outbox.cif.g08.bks.cpg/sg11_7_cif.got.tgz:13322.got - 2010.06.03 12:22:45.
