data_PCOD9166702
_publ_section_title
;
Structure prediction by ZEFSAII (Michael W. Deem and Ramdas Pophale) SiO2 
 PCOD9166702
Probable space group: P 21/M
;
_chemical_formula_sum "Si O2"
_cell_formula_units_Z 20
_cell_length_a 5.719862
_cell_length_b 20.936127
_cell_length_c 7.206968
_cell_angle_alpha 90.000000
_cell_angle_beta 68.856237
_cell_angle_gamma 90.000000
_cell_volume 804.945281
_symmetry_space_group_name_H-M "P 21/M"
_symmetry_group_IT_number 11
_symmetry_cell_setting 'monoclinic'
loop_
_space_group_symop_operation_xyz
x,y,z
-x,1/2+y,-z
-x,-y,-z
x,1/2-y,z
loop_
_atom_site_type_symbol
_atom_site_label
_atom_site_fract_x
_atom_site_fract_y
_atom_site_fract_z
Si Si1 0.468365 0.821372 0.049293
Si Si2 0.904936 0.674448 0.183008
Si Si3 0.162765 0.951015 0.574250
Si Si4 0.751522 0.861209 0.633718
Si Si5 0.461292 0.993362 0.791466
O O1 0.425650 0.750000 0.141829
O O2 0.191354 0.851912 0.107993
O O3 0.595193 0.816746 0.812513
O O4 0.696625 0.852585 0.100963
O O5 0.931612 0.750000 0.128501
O O6 0.790388 0.665297 0.418994
O O7 0.195474 0.981896 0.767921
O O8 0.027817 0.883065 0.623637
O O9 0.409263 0.952615 0.374348
O O10 0.000000 0.000000 0.500000
O O11 0.593786 0.926572 0.695931
O O12 0.500000 0.000000 0.000000
#
# Coordination Sequence:
#
# PCOD9166702 Si02
#       5
#     4   4   4   4   4
#     4  10  24  43  66  98 132 171 216 266 330 393
#     4  10  24  44  66  96 135 170 213 272 324 391
#     4   9  22  41  59  92 126 167 213 268 325 383
#     4  11  24  37  69  94 126 171 219 266 327 392
#     4  10  23  40  63  91 131 170 218 274 325 390
#
# _framework density 24.846412000000001
#
# number of rings (size 3 to 8) (size 9 to 14) (size 15 to 20)
#    0.000    2.000    0.000    0.600    8.400    6.400 
#    0.000    6.000    0.000    0.000    0.000    0.000 
#    0.000    0.000    0.000    0.000    0.000    0.000 
#
# Total GULP energy -111547.519945 kJ/mol
# GULP energy per Si atom -5577.375997 kJ/mol
# Density = 2.478986 g / cm^3
# Si number density = 24.846412 Si / 1000 Ang^3
#
#
#
# Elastic Constant Matrix: (Units=GPa)
#
#
# Indices 1 2 3 4 5 6 
#
# 1 153.4256 19.9729 69.3802 0.0000 24.4301 0.0000
# 2 19.9729 44.9730 3.2133 0.0000 -5.0596 0.0000
# 3 69.3802 3.2133 173.3498 0.0000 13.9110 0.0000
# 4 0.0000 0.0000 0.0000 31.4674 0.0000 -9.6823
# 5 24.4301 -5.0596 13.9110 0.0000 36.7859 0.0000
# 6 0.0000 0.0000 0.0000 -9.6823 0.0000 10.8612
#
#
#
# Elastic Compliance Matrix: (Units=1/GPa)
#
#
# Indices 1 2 3 4 5 6 
#
# 1 0.009505 -0.004632 -0.003260 0.000000 -0.005717 0.000000
# 2 -0.004632 0.024922 0.000897 0.000000 0.006164 0.000000
# 3 -0.003260 0.000897 0.007088 0.000000 -0.000392 0.000000
# 4 0.000000 0.000000 0.000000 0.043790 0.000000 0.039037
# 5 -0.005717 0.006164 -0.000392 0.000000 0.031977 0.000000
# 6 0.000000 0.000000 0.000000 0.039037 0.000000 0.126871
#
#
# Mechanical properties :
#
#
# Convention : Reuss Voigt Hill
#
# Bulk Modulus (GPa) = 36.32817 61.87570 49.10194
# Shear Modulus (GPa) = 18.70438 34.43503 26.56971
#
# Velocity S-wave (km/s) = 2.74670 3.72683 3.27365
# Velocity P-wave (km/s) = 4.97111 6.59366 5.83902
#
# Compressibility (1/GPa) = 0.02752685
#
# Stress axis : x y z
#
# Youngs Moduli (GPa) = 105.20689 40.12538 141.08066
#
# Poissons Ratio (x) = 0.18584 0.45987
# Poissons Ratio (y) = 0.48727 -0.12656
# Poissons Ratio (z) = 0.34293 -0.03599
#
# Static dielectric constant tensor:
#      x y z
#    x 2.418410 0.000000 0.012930 
#    y 0.000000 2.106110 0.000000 
#    z 0.012930 0.000000 1.937960 
# 
# From -- ./inp_files/786.got.cif
#   From: 2010.05.17/outbox.cif.g08.bks.cpg/sg11_1_cif.got.tgz:786.got - 2010.06.03 12:22:45.
