data_PCOD9166038
_publ_section_title
;
Structure prediction by ZEFSAII (Michael W. Deem and Ramdas Pophale) SiO2 
 PCOD9166038
Probable space group: P 21/M
;
_chemical_formula_sum "Si O2"
_cell_formula_units_Z 30
_cell_length_a 21.683880
_cell_length_b 15.071162
_cell_length_c 8.102091
_cell_angle_alpha 90.000000
_cell_angle_beta 33.288792
_cell_angle_gamma 90.000000
_cell_volume 1453.255198
_symmetry_space_group_name_H-M "P 21/M"
_symmetry_group_IT_number 11
_symmetry_cell_setting 'monoclinic'
loop_
_space_group_symop_operation_xyz
x,y,z
-x,1/2+y,-z
-x,-y,-z
x,1/2-y,z
loop_
_atom_site_type_symbol
_atom_site_label
_atom_site_fract_x
_atom_site_fract_y
_atom_site_fract_z
Si Si1 0.587711 0.650566 0.897884
Si Si2 0.402347 0.489914 0.849456
Si Si3 0.800900 0.439048 0.228372
Si Si4 0.165189 0.250000 0.962533
Si Si5 0.972035 0.850032 0.351905
Si Si6 0.853118 0.882961 0.269687
Si Si7 0.384027 0.646648 0.125801
Si Si8 0.215061 0.425320 0.029091
O O1 0.562726 0.750000 0.016493
O O2 0.558903 0.573729 0.089407
O O3 0.511927 0.638409 0.905637
O O4 0.721147 0.644683 0.569825
O O5 0.500000 0.500000 0.500000
O O6 0.369600 0.584035 0.000923
O O7 0.297590 0.443857 0.995478
O O8 0.854222 0.512176 0.233886
O O9 0.697750 0.391440 0.548790
O O10 0.768570 0.497909 0.142097
O O11 0.898016 0.371345 0.960517
O O12 0.103462 0.327946 0.984375
O O13 0.233464 0.329504 0.906974
O O14 0.954629 0.750000 0.459969
O O15 0.913136 0.857209 0.304834
O O16 0.909658 0.917308 0.614005
O O17 0.360262 0.750000 0.149214
#
# Coordination Sequence:
#
# PCOD9166038 Si02
#       8
#     4   4   4   2   4   4   4   4
#     4  11  22  39  69  96 127 166 223 279 327 391
#     4  12  26  40  65  98 137 174 215 280 344 397
#     4  11  24  42  66  92 132 180 216 271 331 405
#     4  10  22  36  64 102 132 166 214 284 334 392
#     4  12  22  41  66  96 131 169 224 276 329 391
#     4  11  21  38  67  97 124 164 225 273 331 384
#     4  11  25  45  67  95 132 182 234 271 325 404
#     4  11  24  41  65  97 142 167 218 273 346 399
#
# _framework density 20.643311000000001
#
# number of rings (size 3 to 8) (size 9 to 14) (size 15 to 20)
#    0.000    0.800    4.667    2.400    4.667    0.533 
#    0.000    1.333    0.000    0.000    0.000    0.000 
#    0.000    0.000    0.000    0.000    0.000    0.000 
#
# Total GULP energy -167180.030537 kJ/mol
# GULP energy per Si atom -5572.667685 kJ/mol
# Density = 2.059633 g / cm^3
# Si number density = 20.643311 Si / 1000 Ang^3
#
#
#
# Elastic Constant Matrix: (Units=GPa)
#
#
# Indices 1 2 3 4 5 6 
#
# 1 60.4674 30.6029 6.7627 0.0000 8.7168 0.0000
# 2 30.6029 111.2367 8.8656 0.0000 10.3711 0.0000
# 3 6.7627 8.8656 68.8798 0.0000 -2.4675 0.0000
# 4 0.0000 0.0000 0.0000 13.7631 0.0000 -8.3147
# 5 8.7168 10.3711 -2.4675 0.0000 21.7954 0.0000
# 6 0.0000 0.0000 0.0000 -8.3147 0.0000 11.4848
#
#
#
# Elastic Compliance Matrix: (Units=1/GPa)
#
#
# Indices 1 2 3 4 5 6 
#
# 1 0.020004 -0.004832 -0.001553 0.000000 -0.005877 0.000000
# 2 -0.004832 0.010706 -0.001021 0.000000 -0.003278 0.000000
# 3 -0.001553 -0.001021 0.014902 0.000000 0.002794 0.000000
# 4 0.000000 0.000000 0.000000 0.129142 0.000000 0.093496
# 5 -0.005877 -0.003278 0.002794 0.000000 0.050108 0.000000
# 6 0.000000 0.000000 0.000000 0.093496 0.000000 0.154761
#
#
# Mechanical properties :
#
#
# Convention : Reuss Voigt Hill
#
# Bulk Modulus (GPa) = 32.46615 37.00515 34.73565
# Shear Modulus (GPa) = 12.35481 22.36550 17.36015
#
# Velocity S-wave (km/s) = 2.44906 3.29511 2.90307
# Velocity P-wave (km/s) = 4.87427 5.69578 5.30097
#
# Compressibility (1/GPa) = 0.03080131
#
# Stress axis : x y z
#
# Youngs Moduli (GPa) = 49.98984 93.40484 67.10515
#
# Poissons Ratio (x) = 0.45131 0.10419
# Poissons Ratio (y) = 0.24154 0.06852
# Poissons Ratio (z) = 0.07762 0.09537
#
# Static dielectric constant tensor:
#      x y z
#    x 1.739810 0.000000 0.044220 
#    y 0.000000 1.762810 0.000000 
#    z 0.044220 0.000000 1.810640 
# 
# From -- ./inp_files/27736.got.cif
#   From: 2010.05.17/outbox.cif.g08.bks.cpg/sg11_14_cif.got.tgz:27736.got - 2010.06.03 12:22:45.
