data_PCOD9166897
_publ_section_title
;
Structure prediction by ZEFSAII (Michael W. Deem and Ramdas Pophale) SiO2 
 PCOD9166897
Probable space group: P 21/M
;
_chemical_formula_sum "Si O2"
_cell_formula_units_Z 12
_cell_length_a 5.340844
_cell_length_b 9.116635
_cell_length_c 10.632799
_cell_angle_alpha 90.000000
_cell_angle_beta 59.847641
_cell_angle_gamma 90.000000
_cell_volume 447.665769
_symmetry_space_group_name_H-M "P 21/M"
_symmetry_group_IT_number 11
_symmetry_cell_setting 'monoclinic'
loop_
_space_group_symop_operation_xyz
x,y,z
-x,1/2+y,-z
-x,-y,-z
x,1/2-y,z
loop_
_atom_site_type_symbol
_atom_site_label
_atom_site_fract_x
_atom_site_fract_y
_atom_site_fract_z
Si Si1 0.524855 0.750000 0.315321
Si Si2 0.938868 0.750000 0.581188
Si Si3 0.063363 0.500000 0.750000
Si Si4 0.398756 0.750000 0.081187
Si Si5 0.655498 0.250000 0.184679
O O1 0.666243 0.607565 0.340256
O O2 0.611997 0.750000 0.145818
O O3 0.178113 0.750000 0.412450
O O4 0.596367 0.750000 0.645818
O O5 0.999627 0.604779 0.648617
O O6 0.153243 0.607565 0.840257
O O7 0.796860 0.395221 0.851384
O O8 0.496988 0.750000 0.912449
#
# Coordination Sequence:
#
# PCOD9166897 Si02
#       5
#     2   2   4   2   2
#     4  11  24  42  65  93 125 163 207 255 308 366
#     4  11  24  42  65  93 125 163 207 255 308 366
#     4  10  24  42  64  90 126 166 206 252 306 368
#     4  11  24  42  65  93 125 163 207 255 308 366
#     4  11  24  42  65  93 125 163 207 255 308 366
#
# _framework density 26.805712
#
# number of rings (size 3 to 8) (size 9 to 14) (size 15 to 20)
#    0.000    1.333    0.000    4.000    0.000   21.333 
#    0.000    0.000    0.000    0.000    0.000    0.000 
#    0.000    0.000    0.000    0.000    0.000    0.000 
#
# Total GULP energy -67366.420152 kJ/mol
# GULP energy per Si atom -5613.868346 kJ/mol
# Density = 2.674470 g / cm^3
# Si number density = 26.805712 Si / 1000 Ang^3
#
#
#
# Elastic Constant Matrix: (Units=GPa)
#
#
# Indices 1 2 3 4 5 6 
#
# 1 61.4557 37.0944 7.7697 0.0000 -3.0045 0.0000
# 2 37.0944 188.9326 31.7926 0.0000 0.8449 0.0000
# 3 7.7697 31.7926 101.2580 0.0000 -3.3386 0.0000
# 4 0.0000 0.0000 0.0000 17.4194 0.0000 0.6887
# 5 -3.0045 0.8449 -3.3386 0.0000 36.3228 0.0000
# 6 0.0000 0.0000 0.0000 0.6887 0.0000 21.7415
#
#
#
# Elastic Compliance Matrix: (Units=1/GPa)
#
#
# Indices 1 2 3 4 5 6 
#
# 1 0.018560 -0.003611 -0.000238 0.000000 0.001597 0.000000
# 2 -0.003611 0.006294 -0.001719 0.000000 -0.000603 0.000000
# 3 -0.000238 -0.001719 0.010466 0.000000 0.000982 0.000000
# 4 0.000000 0.000000 0.000000 0.057479 0.000000 -0.001821
# 5 0.001597 -0.000603 0.000982 0.000000 0.027767 0.000000
# 6 0.000000 0.000000 0.000000 -0.001821 0.000000 0.046053
#
#
# Mechanical properties :
#
#
# Convention : Reuss Voigt Hill
#
# Bulk Modulus (GPa) = 41.34924 56.10666 48.72795
# Shear Modulus (GPa) = 26.90841 33.42938 30.16889
#
# Velocity S-wave (km/s) = 3.17177 3.53526 3.35843
# Velocity P-wave (km/s) = 5.37331 6.13518 5.76684
#
# Compressibility (1/GPa) = 0.02418424
#
# Stress axis : x y z
#
# Youngs Moduli (GPa) = 53.88029 158.88572 95.54676
#
# Poissons Ratio (x) = 0.57375 0.02271
# Poissons Ratio (y) = 0.19457 0.16424
# Poissons Ratio (z) = 0.01280 0.27311
#
# Static dielectric constant tensor:
#      x y z
#    x 2.025440 0.000000 -0.008390 
#    y 0.000000 1.997540 0.000000 
#    z -0.008390 0.000000 2.078060 
# 
# From -- ./inp_files/1094.got.cif
#   From: 2010.05.17/outbox.cif.g08.bks.cpg/sg11_1_cif.got.tgz:1094.got - 2010.06.03 12:22:45.
