data_PCOD9166462
_publ_section_title
;
Structure prediction by ZEFSAII (Michael W. Deem and Ramdas Pophale) SiO2 
 PCOD9166462
Probable space group: P 21/M
;
_chemical_formula_sum "Si O2"
_cell_formula_units_Z 30
_cell_length_a 5.461576
_cell_length_b 18.281544
_cell_length_c 13.658315
_cell_angle_alpha 90.000000
_cell_angle_beta 114.106849
_cell_angle_gamma 90.000000
_cell_volume 1244.791585
_symmetry_space_group_name_H-M "P 21/M"
_symmetry_group_IT_number 11
_symmetry_cell_setting 'monoclinic'
loop_
_space_group_symop_operation_xyz
x,y,z
-x,1/2+y,-z
-x,-y,-z
x,1/2-y,z
loop_
_atom_site_type_symbol
_atom_site_label
_atom_site_fract_x
_atom_site_fract_y
_atom_site_fract_z
Si Si1 0.751396 0.955190 0.884744
Si Si2 0.058908 0.399171 0.903917
Si Si3 0.248816 0.586375 0.685068
Si Si4 0.499272 0.827884 0.576574
Si Si5 0.427444 0.370231 0.623677
Si Si6 0.753639 0.250000 0.806961
Si Si7 0.001037 0.329531 0.196460
Si Si8 0.018341 0.553066 0.323316
O O1 0.498897 0.956051 0.772174
O O2 0.965172 0.898894 0.869189
O O3 0.700775 0.916383 0.981144
O O4 0.848860 0.038670 0.906842
O O5 0.113825 0.424673 0.802473
O O6 0.947746 0.316813 0.882212
O O7 0.304900 0.609637 0.584279
O O8 0.000449 0.532438 0.657303
O O9 0.210364 0.654177 0.752174
O O10 0.350763 0.750000 0.548878
O O11 0.631400 0.837198 0.492719
O O12 0.722062 0.825566 0.697410
O O13 0.562755 0.313053 0.721048
O O14 0.167338 0.405578 0.628991
O O15 0.674649 0.423937 0.638094
O O16 0.952228 0.250000 0.141659
#
# Coordination Sequence:
#
# PCOD9166462 Si02
#       8
#     4   4   4   4   4   2   4   4
#     4  10  22  44  70  95 141 181 236 281 366 404
#     4  10  22  45  69 101 136 190 226 295 345 430
#     4  11  22  41  68  96 136 179 227 298 342 420
#     4  10  23  43  66  95 134 184 234 280 356 409
#     4  11  25  45  70 100 137 188 225 292 342 427
#     4  10  22  44  70  98 142 176 234 282 348 408
#     4  10  22  41  65  98 134 177 232 297 340 416
#     4  11  25  44  69 101 142 177 237 284 355 405
#
# _framework density 24.100418999999999
#
# number of rings (size 3 to 8) (size 9 to 14) (size 15 to 20)
#    0.000    1.600    2.000    2.000    4.667    4.267 
#    4.800    0.000    0.000    0.000    0.000    0.000 
#    0.000    0.000    0.000    0.000    0.000    0.000 
#
# Total GULP energy -167054.216489 kJ/mol
# GULP energy per Si atom -5568.473883 kJ/mol
# Density = 2.404557 g / cm^3
# Si number density = 24.100419 Si / 1000 Ang^3
#
#
#
# Elastic Constant Matrix: (Units=GPa)
#
#
# Indices 1 2 3 4 5 6 
#
# 1 70.5766 24.0195 24.9821 0.0000 -7.1870 0.0000
# 2 24.0195 161.0729 28.9768 0.0000 -2.9695 0.0000
# 3 24.9821 28.9768 95.6672 0.0000 -17.1179 0.0000
# 4 0.0000 0.0000 0.0000 16.4396 0.0000 -8.8644
# 5 -7.1870 -2.9695 -17.1179 0.0000 25.3115 0.0000
# 6 0.0000 0.0000 0.0000 -8.8644 0.0000 21.1913
#
#
#
# Elastic Compliance Matrix: (Units=1/GPa)
#
#
# Indices 1 2 3 4 5 6 
#
# 1 0.016160 -0.001777 -0.003297 0.000000 0.002150 0.000000
# 2 -0.001777 0.006771 -0.001746 0.000000 -0.000891 0.000000
# 3 -0.003297 -0.001746 0.013241 0.000000 0.007814 0.000000
# 4 0.000000 0.000000 0.000000 0.078545 0.000000 0.032856
# 5 0.002150 -0.000891 0.007814 0.000000 0.045298 0.000000
# 6 0.000000 0.000000 0.000000 0.032856 0.000000 0.060933
#
#
# Mechanical properties :
#
#
# Convention : Reuss Voigt Hill
#
# Bulk Modulus (GPa) = 44.38274 53.69705 49.03990
# Shear Modulus (GPa) = 20.65275 29.21104 24.93190
#
# Velocity S-wave (km/s) = 2.93054 3.48524 3.21985
# Velocity P-wave (km/s) = 5.46868 6.20683 5.84941
#
# Compressibility (1/GPa) = 0.02253128
#
# Stress axis : x y z
#
# Youngs Moduli (GPa) = 61.88213 147.68661 75.52359
#
# Poissons Ratio (x) = 0.26244 0.24899
# Poissons Ratio (y) = 0.10997 0.13189
# Poissons Ratio (z) = 0.20402 0.25791
#
# Static dielectric constant tensor:
#      x y z
#    x 1.952090 0.000000 0.021820 
#    y 0.000000 1.948520 0.000000 
#    z 0.021820 0.000000 1.987320 
# 
# From -- ./inp_files/46059.got.cif
#   From: 2010.05.17/outbox.cif.g08.bks.cpg/sg11_24_cif.got.tgz:46059.got - 2010.06.03 12:22:45.
