data_PCOD9166672
_publ_section_title
;
Structure prediction by ZEFSAII (Michael W. Deem and Ramdas Pophale) SiO2 
 PCOD9166672
Probable space group: P 21/M
;
_chemical_formula_sum "Si O2"
_cell_formula_units_Z 32
_cell_length_a 9.141214
_cell_length_b 23.932690
_cell_length_c 7.094120
_cell_angle_alpha 90.000000
_cell_angle_beta 88.042757
_cell_angle_gamma 90.000000
_cell_volume 1551.102427
_symmetry_space_group_name_H-M "P 21/M"
_symmetry_group_IT_number 11
_symmetry_cell_setting 'monoclinic'
loop_
_space_group_symop_operation_xyz
x,y,z
-x,1/2+y,-z
-x,-y,-z
x,1/2-y,z
loop_
_atom_site_type_symbol
_atom_site_label
_atom_site_fract_x
_atom_site_fract_y
_atom_site_fract_z
Si Si1 0.959767 0.466037 0.782069
Si Si2 0.512366 0.058508 0.210557
Si Si3 0.373949 0.687466 0.420603
Si Si4 0.292667 0.455619 0.890943
Si Si5 0.059114 0.088035 0.393361
Si Si6 0.728415 0.120518 0.930749
Si Si7 0.632462 0.881818 0.451368
Si Si8 0.135890 0.813661 0.761383
O O1 0.118403 0.462800 0.876840
O O2 0.977825 0.430670 0.588370
O O3 0.832855 0.433416 0.898738
O O4 0.068773 0.470147 0.278630
O O5 0.472845 0.078056 0.420389
O O6 0.620780 0.006114 0.213207
O O7 0.366615 0.046334 0.093627
O O8 0.599420 0.102955 0.078460
O O9 0.354854 0.750000 0.346222
O O10 0.328035 0.642221 0.266581
O O11 0.543590 0.675548 0.458286
O O12 0.271629 0.682605 0.608815
O O13 0.336829 0.402340 0.761837
O O14 0.214601 0.113114 0.447779
O O15 0.973205 0.136928 0.292560
O O16 0.813518 0.170182 0.031584
O O17 0.079518 0.750000 0.753511
#
# Coordination Sequence:
#
# PCOD9166672 Si02
#       8
#     4   4   4   4   4   4   4   4
#     4  10  23  40  64  97 133 170 206 261 324 384
#     4  11  23  36  61  95 124 165 205 245 313 375
#     4  11  24  44  65  89 124 168 219 268 318 375
#     4  10  23  39  58  91 131 166 204 244 305 386
#     4  10  23  42  65  95 130 172 212 256 322 389
#     4  12  23  41  68  95 127 163 212 268 320 383
#     4  11  23  41  63  86 129 165 204 262 306 373
#     4  11  24  43  66  92 125 168 221 270 314 379
#
# _framework density 20.630489000000001
#
# number of rings (size 3 to 8) (size 9 to 14) (size 15 to 20)
#    0.000    1.250    3.750    1.500    5.250    2.500 
#    0.000    0.000    0.000    1.500    0.000    0.000 
#    0.000    0.000    0.000    0.000    0.000    0.000 
#
# Total GULP energy -178785.826518 kJ/mol
# GULP energy per Si atom -5587.057079 kJ/mol
# Density = 2.058353 g / cm^3
# Si number density = 20.630489 Si / 1000 Ang^3
#
#
#
# Elastic Constant Matrix: (Units=GPa)
#
#
# Indices 1 2 3 4 5 6 
#
# 1 101.4557 41.0741 16.1438 0.0000 6.0399 0.0000
# 2 41.0741 99.6614 12.7056 0.0000 8.9502 0.0000
# 3 16.1438 12.7056 63.6778 0.0000 -0.3391 0.0000
# 4 0.0000 0.0000 0.0000 31.4489 0.0000 1.5824
# 5 6.0399 8.9502 -0.3391 0.0000 25.7514 0.0000
# 6 0.0000 0.0000 0.0000 1.5824 0.0000 29.1935
#
#
#
# Elastic Compliance Matrix: (Units=1/GPa)
#
#
# Indices 1 2 3 4 5 6 
#
# 1 0.012145 -0.004615 -0.002165 0.000000 -0.001273 0.000000
# 2 -0.004615 0.012396 -0.001321 0.000000 -0.003243 0.000000
# 3 -0.002165 -0.001321 0.016523 0.000000 0.001184 0.000000
# 4 0.000000 0.000000 0.000000 0.031885 0.000000 -0.001728
# 5 -0.001273 -0.003243 0.001184 0.000000 0.040274 0.000000
# 6 0.000000 0.000000 0.000000 -0.001728 0.000000 0.034348
#
#
# Mechanical properties :
#
#
# Convention : Reuss Voigt Hill
#
# Bulk Modulus (GPa) = 40.22166 44.96022 42.59094
# Shear Modulus (GPa) = 29.05979 30.27020 29.66499
#
# Velocity S-wave (km/s) = 3.75718 3.83463 3.79611
# Velocity P-wave (km/s) = 6.19358 6.43788 6.31691
#
# Compressibility (1/GPa) = 0.02486223
#
# Stress axis : x y z
#
# Youngs Moduli (GPa) = 82.33671 80.67339 60.52272
#
# Poissons Ratio (x) = 0.37232 0.13103
# Poissons Ratio (y) = 0.38000 0.07992
# Poissons Ratio (z) = 0.17826 0.10653
#
# Static dielectric constant tensor:
#      x y z
#    x 1.753330 0.000000 -0.009600 
#    y 0.000000 1.727390 0.000000 
#    z -0.009600 0.000000 1.747330 
# 
# From -- ./inp_files/3412.got.cif
#   From: 2010.05.17/outbox.cif.g08.bks.cpg/sg11_2_cif.got.tgz:3412.got - 2010.06.03 12:22:45.
