data_PCOD9166214
_publ_section_title
;
Structure prediction by ZEFSAII (Michael W. Deem and Ramdas Pophale) SiO2 
 PCOD9166214
Probable space group: P 21/M
;
_chemical_formula_sum "Si O2"
_cell_formula_units_Z 32
_cell_length_a 19.095988
_cell_length_b 14.084593
_cell_length_c 14.034748
_cell_angle_alpha 90.000000
_cell_angle_beta 23.442389
_cell_angle_gamma 90.000000
_cell_volume 1501.706460
_symmetry_space_group_name_H-M "P 21/M"
_symmetry_group_IT_number 11
_symmetry_cell_setting 'monoclinic'
loop_
_space_group_symop_operation_xyz
x,y,z
-x,1/2+y,-z
-x,-y,-z
x,1/2-y,z
loop_
_atom_site_type_symbol
_atom_site_label
_atom_site_fract_x
_atom_site_fract_y
_atom_site_fract_z
Si Si1 0.352651 0.639612 0.595207
Si Si2 0.758418 0.542094 0.746580
Si Si3 0.670569 0.856640 0.344040
Si Si4 0.488080 0.645608 0.778900
Si Si5 0.093439 0.982218 0.026987
Si Si6 0.306338 0.531531 0.460906
Si Si7 0.138022 0.955937 0.191520
Si Si8 0.388527 0.860818 0.175849
O O1 0.346559 0.750000 0.577790
O O2 0.515661 0.622424 0.462243
O O3 0.372827 0.576445 0.476119
O O4 0.179137 0.609220 0.870347
O O5 0.803940 0.534076 0.802098
O O6 0.706521 0.435560 0.775933
O O7 0.937834 0.570311 0.468242
O O8 0.594275 0.609800 0.928538
O O9 0.735527 0.750000 0.246448
O O10 0.582823 0.859270 0.557538
O O11 0.822921 0.930982 0.135581
O O12 0.521819 0.750000 0.777802
O O13 0.571786 0.555144 0.726925
O O14 0.281546 0.627248 0.023046
O O15 0.146209 0.988570 0.072102
O O16 0.885275 0.988727 0.283487
O O17 0.305875 0.612346 0.381629
O O18 0.366026 0.750000 0.181609
#
# Coordination Sequence:
#
# PCOD9166214 Si02
#       8
#     4   4   4   4   4   4   4   4
#     4  11  23  39  62  93 131 174 217 261 320 392
#     4  10  24  46  68  97 128 167 216 280 332 376
#     4  10  22  39  61  93 131 173 218 263 316 382
#     4  11  23  41  68  98 131 174 220 264 326 393
#     4  12  23  40  64  94 130 173 213 268 320 380
#     4  12  24  43  63  96 135 178 210 266 326 382
#     4  11  22  43  71  91 129 167 217 276 329 380
#     4  11  24  46  71  97 131 172 218 264 328 396
#
# _framework density 21.309092
#
# number of rings (size 3 to 8) (size 9 to 14) (size 15 to 20)
#    0.000    1.000    5.000    1.875    0.000    2.500 
#    0.000    1.875    0.000    0.000    0.000    0.000 
#    0.000    0.000    0.000    0.000    0.000    0.000 
#
# Total GULP energy -178974.576749 kJ/mol
# GULP energy per Si atom -5592.955523 kJ/mol
# Density = 2.126059 g / cm^3
# Si number density = 21.309092 Si / 1000 Ang^3
#
#
#
# Elastic Constant Matrix: (Units=GPa)
#
#
# Indices 1 2 3 4 5 6 
#
# 1 68.2863 5.6577 -5.4582 0.0000 21.6377 0.0000
# 2 5.6577 109.4759 26.0814 0.0000 -6.2162 0.0000
# 3 -5.4582 26.0814 109.5959 0.0000 -7.6955 0.0000
# 4 0.0000 0.0000 0.0000 -2.2205 0.0000 7.3259
# 5 21.6377 -6.2162 -7.6955 0.0000 41.5137 0.0000
# 6 0.0000 0.0000 0.0000 7.3259 0.0000 13.7562
#
#
#
# Elastic Compliance Matrix: (Units=1/GPa)
#
#
# Indices 1 2 3 4 5 6 
#
# 1 0.017806 -0.001599 0.000607 0.000000 -0.009408 0.000000
# 2 -0.001599 0.009871 -0.002296 0.000000 0.001886 0.000000
# 3 0.000607 -0.002296 0.009782 0.000000 0.001153 0.000000
# 4 0.000000 0.000000 0.000000 -0.163348 0.000000 0.086992
# 5 -0.009408 0.001886 0.001153 0.000000 0.029488 0.000000
# 6 0.000000 0.000000 0.000000 0.086992 0.000000 0.026367
#
#
# Mechanical properties :
#
#
# Convention : Reuss Voigt Hill
#
# Bulk Modulus (GPa) = 32.38089 37.76887 35.07488
# Shear Modulus (GPa) = -94.05228 28.01502 -33.01863
#
# Velocity S-wave (km/s) = -6.65079 3.62981 -3.94065
# Velocity P-wave (km/s) = 6.61427 5.94392 2.05163
#
# Compressibility (1/GPa) = 0.03088241
#
# Stress axis : x y z
#
# Youngs Moduli (GPa) = 56.16001 101.30448 102.22754
#
# Poissons Ratio (x) = 0.16198 -0.06203
# Poissons Ratio (y) = 0.08980 0.23475
# Poissons Ratio (z) = -0.03407 0.23263
#
# Static dielectric constant tensor:
#      x y z
#    x 1.804090 0.000000 0.009250 
#    y 0.000000 1.753030 0.000000 
#    z 0.009250 0.000000 1.757060 
# 
# From -- ./inp_files/55005.got.cif
#   From: 2010.05.17/outbox.cif.g08.bks.cpg/sg11_28_cif.got.tgz:55005.got - 2010.06.03 12:22:45.
