data_PCOD9166713
_publ_section_title
;
Structure prediction by ZEFSAII (Michael W. Deem and Ramdas Pophale) SiO2 
 PCOD9166713
Probable space group: P 21/M
;
_chemical_formula_sum "Si O2"
_cell_formula_units_Z 28
_cell_length_a 22.883539
_cell_length_b 8.746977
_cell_length_c 9.109917
_cell_angle_alpha 90.000000
_cell_angle_beta 53.368878
_cell_angle_gamma 90.000000
_cell_volume 1463.312618
_symmetry_space_group_name_H-M "P 21/M"
_symmetry_group_IT_number 11
_symmetry_cell_setting 'monoclinic'
loop_
_space_group_symop_operation_xyz
x,y,z
-x,1/2+y,-z
-x,-y,-z
x,1/2-y,z
loop_
_atom_site_type_symbol
_atom_site_label
_atom_site_fract_x
_atom_site_fract_y
_atom_site_fract_z
Si Si1 0.140720 0.432777 0.460957
Si Si2 0.709819 0.067027 0.261672
Si Si3 0.568553 0.066245 0.985048
Si Si4 0.148363 0.065731 0.106416
Si Si5 0.430613 0.067316 0.688935
Si Si6 0.281995 0.933534 0.406627
Si Si7 0.001130 0.933053 0.834969
O O1 0.134857 0.250000 0.478777
O O2 0.144463 0.475916 0.283768
O O3 0.213539 0.487156 0.433247
O O4 0.070718 0.505622 0.643137
O O5 0.701110 0.250000 0.262528
O O6 0.712756 0.026615 0.429533
O O7 0.642051 0.986242 0.285268
O O8 0.783968 0.014733 0.072896
O O9 0.563133 0.250000 0.000515
O O10 0.570393 0.997643 0.144887
O O11 0.643136 0.026950 0.788178
O O12 0.500000 0.000000 0.000000
O O13 0.157696 0.250000 0.082542
O O14 0.073117 0.024958 0.138538
O O15 0.434955 0.250000 0.685943
O O16 0.500000 0.000000 0.500000
O O17 0.272299 0.750000 0.411099
O O18 0.004842 0.750000 0.837219
O O19 0.000000 0.000000 0.000000
#
# Coordination Sequence:
#
# PCOD9166713 Si02
#       7
#     4   4   4   4   4   4   4
#     4  11  23  39  61  88 119 156 201 248 298 355
#     4  11  23  40  63  91 122 158 201 249 302 362
#     4  11  23  41  65  93 126 164 206 253 306 364
#     4  10  23  41  60  87 121 159 201 247 299 358
#     4  12  25  42  64  91 124 161 205 255 307 366
#     4  10  23  41  61  88 122 159 200 246 299 359
#     4  11  23  40  62  88 121 157 198 246 299 358
#
# _framework density 19.134667
#
# number of rings (size 3 to 8) (size 9 to 14) (size 15 to 20)
#    0.000    1.143    0.000    6.000    0.000   10.286 
#    0.000    0.000    0.000    0.000    0.000    0.000 
#    0.000    0.000    0.000    0.000    0.000    0.000 
#
# Total GULP energy -156713.236944 kJ/mol
# GULP energy per Si atom -5596.901319 kJ/mol
# Density = 1.909112 g / cm^3
# Si number density = 19.134667 Si / 1000 Ang^3
#
#
#
# Elastic Constant Matrix: (Units=GPa)
#
#
# Indices 1 2 3 4 5 6 
#
# 1 209.5836 86.3953 128.5989 0.0000 1.1941 0.0000
# 2 86.3953 82.8299 88.0881 0.0000 -2.0940 0.0000
# 3 128.5989 88.0881 223.2342 0.0000 1.7218 0.0000
# 4 0.0000 0.0000 0.0000 37.8104 0.0000 -2.6360
# 5 1.1941 -2.0940 1.7218 0.0000 43.7061 0.0000
# 6 0.0000 0.0000 0.0000 -2.6360 0.0000 36.7948
#
#
#
# Elastic Compliance Matrix: (Units=1/GPa)
#
#
# Indices 1 2 3 4 5 6 
#
# 1 0.009179 -0.006835 -0.002587 0.000000 -0.000476 0.000000
# 2 -0.006835 0.025969 -0.006323 0.000000 0.001680 0.000000
# 3 -0.002587 -0.006323 0.008469 0.000000 -0.000566 0.000000
# 4 0.000000 0.000000 0.000000 0.026580 0.000000 0.001904
# 5 -0.000476 0.001680 -0.000566 0.000000 0.022996 0.000000
# 6 0.000000 0.000000 0.000000 0.001904 0.000000 0.027314
#
#
# Mechanical properties :
#
#
# Convention : Reuss Voigt Hill
#
# Bulk Modulus (GPa) = 82.45737 124.64584 103.55160
# Shear Modulus (GPa) = 32.04321 37.83327 34.93824
#
# Velocity S-wave (km/s) = 4.09665 4.45141 4.27771
# Velocity P-wave (km/s) = 8.09712 9.57616 8.86753
#
# Compressibility (1/GPa) = 0.01212748
#
# Stress axis : x y z
#
# Youngs Moduli (GPa) = 108.94508 38.50801 118.07394
#
# Poissons Ratio (x) = 0.26320 0.30546
# Poissons Ratio (y) = 0.74462 0.74656
# Poissons Ratio (z) = 0.28185 0.24348
#
# Static dielectric constant tensor:
#      x y z
#    x 1.626620 0.000000 0.006220 
#    y 0.000000 1.710070 0.000000 
#    z 0.006220 0.000000 1.626790 
# 
# From -- ./inp_files/26109.got.cif
#   From: 2010.05.17/outbox.cif.g08.bks.cpg/sg11_14_cif.got.tgz:26109.got - 2010.06.03 12:22:45.
