data_PCOD9166021
_publ_section_title
;
Structure prediction by ZEFSAII (Michael W. Deem and Ramdas Pophale) SiO2 
 PCOD9166021
Probable space group: P 21/M
;
_chemical_formula_sum "Si O2"
_cell_formula_units_Z 32
_cell_length_a 13.795202
_cell_length_b 21.129375
_cell_length_c 4.942169
_cell_angle_alpha 90.000000
_cell_angle_beta 66.959219
_cell_angle_gamma 90.000000
_cell_volume 1325.644422
_symmetry_space_group_name_H-M "P 21/M"
_symmetry_group_IT_number 11
_symmetry_cell_setting 'monoclinic'
loop_
_space_group_symop_operation_xyz
x,y,z
-x,1/2+y,-z
-x,-y,-z
x,1/2-y,z
loop_
_atom_site_type_symbol
_atom_site_label
_atom_site_fract_x
_atom_site_fract_y
_atom_site_fract_z
Si Si1 0.766499 0.606842 0.488686
Si Si2 0.452368 0.127137 0.364116
Si Si3 0.489099 0.559046 0.208311
Si Si4 0.893530 0.323789 0.146145
Si Si5 0.961761 0.824830 0.535901
Si Si6 0.880730 0.505481 0.048756
Si Si7 0.675101 0.387178 0.273470
Si Si8 0.245254 0.971363 0.315910
O O1 0.667994 0.649412 0.498305
O O2 0.853393 0.641619 0.572068
O O3 0.715706 0.545342 0.697463
O O4 0.828894 0.573299 0.175562
O O5 0.450419 0.065369 0.572602
O O6 0.565348 0.152762 0.348219
O O7 0.476690 0.115971 0.022596
O O8 0.366640 0.566688 0.434961
O O9 0.500000 0.500000 0.000000
O O10 0.887406 0.250000 0.225463
O O11 0.772934 0.344673 0.243305
O O12 0.972159 0.351672 0.284874
O O13 0.955541 0.330898 0.799446
O O14 0.938462 0.750000 0.601993
O O15 0.858048 0.484723 0.771177
O O16 0.695359 0.427223 0.978066
O O17 0.000000 0.500000 0.000000
O O18 0.817099 0.460718 0.329993
#
# Coordination Sequence:
#
# PCOD9166021 Si02
#       8
#     4   4   4   4   4   4   4   4
#     4  10  25  37  63  82 130 155 205 242 300 360
#     4  10  24  36  56  89 117 169 197 246 289 356
#     4  10  22  35  56  83 126 161 201 234 286 351
#     4  10  24  44  67  93 118 154 205 258 311 361
#     4  10  24  43  67  90 117 159 202 256 311 366
#     4  10  24  37  51  85 121 161 197 239 301 348
#     4  10  25  36  67  86 129 158 210 246 312 359
#     4  10  24  32  58  87 118 162 190 246 297 358
#
# _framework density 24.139205
#
# number of rings (size 3 to 8) (size 9 to 14) (size 15 to 20)
#    1.500    0.500    0.000    1.500   14.000    0.000 
#    0.000    0.625    0.000    0.750    0.000    0.000 
#    0.000    0.000    0.000    0.000    0.000    0.000 
#
# Total GULP energy -178273.841995 kJ/mol
# GULP energy per Si atom -5571.057562 kJ/mol
# Density = 2.408426 g / cm^3
# Si number density = 24.139205 Si / 1000 Ang^3
#
#
#
# Elastic Constant Matrix: (Units=GPa)
#
#
# Indices 1 2 3 4 5 6 
#
# 1 70.6620 35.7868 35.8438 0.0000 -55.0151 0.0000
# 2 35.7868 42.2325 18.9935 0.0000 -4.0082 0.0000
# 3 35.8438 18.9935 75.1194 0.0000 13.9078 0.0000
# 4 0.0000 0.0000 0.0000 10.4439 0.0000 0.5261
# 5 -55.0151 -4.0082 13.9078 0.0000 52.0655 0.0000
# 6 0.0000 0.0000 0.0000 0.5261 0.0000 23.8113
#
#
#
# Elastic Compliance Matrix: (Units=1/GPa)
#
#
# Indices 1 2 3 4 5 6 
#
# 1 -0.031709 0.015162 0.018183 0.000000 -0.037195 0.000000
# 2 0.015162 0.020309 -0.016438 0.000000 0.021975 0.000000
# 3 0.018183 -0.016438 0.005754 0.000000 0.016410 0.000000
# 4 0.000000 0.000000 0.000000 0.095856 0.000000 -0.002118
# 5 -0.037195 0.021975 0.016410 0.000000 -0.022787 0.000000
# 6 0.000000 0.000000 0.000000 -0.002118 0.000000 0.042044
#
#
# Mechanical properties :
#
#
# Convention : Reuss Voigt Hill
#
# Bulk Modulus (GPa) = 35.50194 41.02909 38.26552
# Shear Modulus (GPa) = 58.79308 23.75681 41.27494
#
# Velocity S-wave (km/s) = 4.94052 3.14053 4.13955
# Velocity P-wave (km/s) = 6.87634 5.49403 6.22368
#
# Compressibility (1/GPa) = 0.02816747
#
# Stress axis : x y z
#
# Youngs Moduli (GPa) = -31.53718 49.23855 173.79055
#
# Poissons Ratio (x) = -0.74653 -3.16000
# Poissons Ratio (y) = 0.47815 2.85677
# Poissons Ratio (z) = 0.57344 0.80938
#
# Static dielectric constant tensor:
#      x y z
#    x 1.160280 0.000000 -0.495420 
#    y 0.000000 1.737690 0.000000 
#    z -0.495420 0.000000 1.678860 
# 
# From -- ./inp_files/5465.got.cif
#   From: 2010.05.17/outbox.cif.g08.bks.cpg/sg11_3_cif.got.tgz:5465.got - 2010.06.03 12:22:45.
