data_PCOD9166757
_publ_section_title
;
Structure prediction by ZEFSAII (Michael W. Deem and Ramdas Pophale) SiO2 
 PCOD9166757
Probable space group: P 21/M
;
_chemical_formula_sum "Si O2"
_cell_formula_units_Z 28
_cell_length_a 15.306154
_cell_length_b 19.188831
_cell_length_c 9.166248
_cell_angle_alpha 90.000000
_cell_angle_beta 32.264677
_cell_angle_gamma 90.000000
_cell_volume 1437.176493
_symmetry_space_group_name_H-M "P 21/M"
_symmetry_group_IT_number 11
_symmetry_cell_setting 'monoclinic'
loop_
_space_group_symop_operation_xyz
x,y,z
-x,1/2+y,-z
-x,-y,-z
x,1/2-y,z
loop_
_atom_site_type_symbol
_atom_site_label
_atom_site_fract_x
_atom_site_fract_y
_atom_site_fract_z
Si Si1 0.890070 0.403651 0.555856
Si Si2 0.485244 0.669725 0.322390
Si Si3 0.545005 0.332460 0.982620
Si Si4 0.819363 0.668358 0.024566
Si Si5 0.989251 0.049816 0.723217
Si Si6 0.742134 0.592272 0.436019
Si Si7 0.342353 0.969361 0.638604
O O1 0.711596 0.371768 0.788995
O O2 0.946266 0.403308 0.644681
O O3 0.906183 0.483828 0.481580
O O4 0.017956 0.361511 0.277374
O O5 0.437259 0.750000 0.423271
O O6 0.483324 0.660882 0.151014
O O7 0.666861 0.658477 0.130103
O O8 0.373271 0.610932 0.554011
O O9 0.556220 0.250000 0.000676
O O10 0.397694 0.367702 0.278588
O O11 0.838229 0.750000 0.024859
O O12 0.778624 0.630669 0.232900
O O13 0.096346 0.087176 0.694303
O O14 0.818898 0.024285 0.034162
O O15 0.684898 0.515131 0.468006
O O16 0.500000 0.000000 0.500000
#
# Coordination Sequence:
#
# PCOD9166757 Si02
#       7
#     4   4   4   4   4   4   4
#     4  11  23  44  66  95 129 173 222 275 331 398
#     4  10  23  42  65  92 132 175 221 269 335 402
#     4  11  25  44  66  97 132 175 225 277 333 397
#     4  11  23  42  65  92 130 177 217 267 334 400
#     4  11  25  41  67  97 133 171 223 278 335 392
#     4  12  24  41  67  96 134 171 218 279 328 403
#     4  12  22  41  67 103 133 171 224 278 334 390
#
# _framework density 19.482647
#
# number of rings (size 3 to 8) (size 9 to 14) (size 15 to 20)
#    0.000    0.857    2.857    3.857    2.000    4.571 
#    0.000    3.571    0.000    0.000    0.000    0.000 
#    0.000    0.000    0.000    0.000    0.000    0.000 
#
# Total GULP energy -156634.427297 kJ/mol
# GULP energy per Si atom -5594.086689 kJ/mol
# Density = 1.943830 g / cm^3
# Si number density = 19.482647 Si / 1000 Ang^3
#
#
#
# Elastic Constant Matrix: (Units=GPa)
#
#
# Indices 1 2 3 4 5 6 
#
# 1 153.9767 53.7717 55.2301 0.0000 -12.3619 0.0000
# 2 53.7717 81.5281 43.7286 0.0000 -3.1837 0.0000
# 3 55.2301 43.7286 93.4388 0.0000 -11.0607 0.0000
# 4 0.0000 0.0000 0.0000 23.7941 0.0000 9.5640
# 5 -12.3619 -3.1837 -11.0607 0.0000 22.0829 0.0000
# 6 0.0000 0.0000 0.0000 9.5640 0.0000 28.4631
#
#
#
# Elastic Compliance Matrix: (Units=1/GPa)
#
#
# Indices 1 2 3 4 5 6 
#
# 1 0.009401 -0.004399 -0.003136 0.000000 0.003058 0.000000
# 2 -0.004399 0.018486 -0.006407 0.000000 -0.003006 0.000000
# 3 -0.003136 -0.006407 0.016198 0.000000 0.005434 0.000000
# 4 0.000000 0.000000 0.000000 0.048590 0.000000 -0.016327
# 5 0.003058 -0.003006 0.005434 0.000000 0.049284 0.000000
# 6 0.000000 0.000000 0.000000 -0.016327 0.000000 0.040619
#
#
# Mechanical properties :
#
#
# Convention : Reuss Voigt Hill
#
# Bulk Modulus (GPa) = 61.72711 70.48937 66.10824
# Shear Modulus (GPa) = 23.16290 26.61556 24.88923
#
# Velocity S-wave (km/s) = 3.45178 3.70011 3.57810
# Velocity P-wave (km/s) = 6.90205 7.38333 7.14674
#
# Compressibility (1/GPa) = 0.01620034
#
# Stress axis : x y z
#
# Youngs Moduli (GPa) = 106.37059 54.09454 61.73742
#
# Poissons Ratio (x) = 0.23796 0.19362
# Poissons Ratio (y) = 0.46792 0.39556
# Poissons Ratio (z) = 0.33360 0.34659
#
# Static dielectric constant tensor:
#      x y z
#    x 1.664240 0.000000 -0.003060 
#    y 0.000000 1.689040 0.000000 
#    z -0.003060 0.000000 1.635710 
# 
# From -- ./inp_files/23188.got.cif
#   From: 2010.05.17/outbox.cif.g08.bks.cpg/sg11_12_cif.got.tgz:23188.got - 2010.06.03 12:22:45.
