data_PCOD9166039
_publ_section_title
;
Structure prediction by ZEFSAII (Michael W. Deem and Ramdas Pophale) SiO2 
 PCOD9166039
Probable space group: P 21/M
;
_chemical_formula_sum "Si O2"
_cell_formula_units_Z 32
_cell_length_a 11.710977
_cell_length_b 18.539576
_cell_length_c 14.189494
_cell_angle_alpha 90.000000
_cell_angle_beta 150.737304
_cell_angle_gamma 90.000000
_cell_volume 1505.927176
_symmetry_space_group_name_H-M "P 21/M"
_symmetry_group_IT_number 11
_symmetry_cell_setting 'monoclinic'
loop_
_space_group_symop_operation_xyz
x,y,z
-x,1/2+y,-z
-x,-y,-z
x,1/2-y,z
loop_
_atom_site_type_symbol
_atom_site_label
_atom_site_fract_x
_atom_site_fract_y
_atom_site_fract_z
Si Si1 0.493420 0.528425 0.855644
Si Si2 0.368042 0.885422 0.943213
Si Si3 0.990235 0.577270 0.163171
Si Si4 0.155784 0.164771 0.423359
Si Si5 0.712996 0.556889 0.645836
Si Si6 0.259711 0.892105 0.541521
Si Si7 0.733929 0.832434 0.833052
Si Si8 0.169286 0.331341 0.653229
O O1 0.553517 0.448611 0.929430
O O2 0.369577 0.535791 0.666005
O O3 0.347697 0.571798 0.829517
O O4 0.740481 0.568387 0.032000
O O5 0.592684 0.834589 0.114921
O O6 0.123752 0.848025 0.789326
O O7 0.066529 0.497281 0.186780
O O8 0.173207 0.602073 0.372956
O O9 0.940759 0.634711 0.046115
O O10 0.210096 0.250000 0.443025
O O11 0.274864 0.106430 0.439397
O O12 0.210109 0.149927 0.572768
O O13 0.500000 0.500000 0.500000
O O14 0.711915 0.613727 0.729653
O O15 0.481483 0.838424 0.704053
O O16 0.033439 0.875286 0.441022
O O17 0.778235 0.750000 0.839074
O O18 0.078602 0.250000 0.585984
#
# Coordination Sequence:
#
# PCOD9166039 Si02
#       8
#     4   4   4   4   4   4   4   4
#     4  10  22  36  65 100 131 181 220 274 331 408
#     4  11  21  38  63  94 140 179 225 267 334 411
#     4  11  23  44  70 100 133 177 229 281 341 412
#     4  11  25  45  68 100 141 184 228 284 349 417
#     4  12  25  49  76  96 132 183 235 295 350 404
#     4  11  22  42  67 101 139 177 222 276 342 406
#     4  11  26  46  70 101 135 177 231 290 349 408
#     4  11  24  39  62  98 140 182 219 268 339 419
#
# _framework density 21.249368
#
# number of rings (size 3 to 8) (size 9 to 14) (size 15 to 20)
#    0.000    1.000    5.000    1.500    1.750    1.500 
#    2.250    0.000    0.000    0.000    0.000    0.000 
#    0.000    0.000    0.000    0.000    0.000    0.000 
#
# Total GULP energy -178569.164273 kJ/mol
# GULP energy per Si atom -5580.286384 kJ/mol
# Density = 2.120100 g / cm^3
# Si number density = 21.249368 Si / 1000 Ang^3
#
#
#
# Elastic Constant Matrix: (Units=GPa)
#
#
# Indices 1 2 3 4 5 6 
#
# 1 62.0833 45.9191 35.7779 0.0000 -7.4742 0.0000
# 2 45.9191 133.5852 42.4564 0.0000 -16.3059 0.0000
# 3 35.7779 42.4564 95.5289 0.0000 -20.9506 0.0000
# 4 0.0000 0.0000 0.0000 12.6021 0.0000 2.0142
# 5 -7.4742 -16.3059 -20.9506 0.0000 25.0906 0.0000
# 6 0.0000 0.0000 0.0000 2.0142 0.0000 25.7390
#
#
#
# Elastic Compliance Matrix: (Units=1/GPa)
#
#
# Indices 1 2 3 4 5 6 
#
# 1 0.024638 -0.006612 -0.006882 0.000000 -0.002704 0.000000
# 2 -0.006612 0.010677 -0.001443 0.000000 0.003764 0.000000
# 3 -0.006882 -0.001443 0.015953 0.000000 0.010333 0.000000
# 4 0.000000 0.000000 0.000000 0.080357 0.000000 -0.006288
# 5 -0.002704 0.003764 0.010333 0.000000 0.050124 0.000000
# 6 0.000000 0.000000 0.000000 -0.006288 0.000000 0.039344
#
#
# Mechanical properties :
#
#
# Convention : Reuss Voigt Hill
#
# Bulk Modulus (GPa) = 46.74342 59.94492 53.34417
# Shear Modulus (GPa) = 19.37242 23.82263 21.59752
#
# Velocity S-wave (km/s) = 3.02266 3.35191 3.19154
# Velocity P-wave (km/s) = 5.85041 6.57662 6.22411
#
# Compressibility (1/GPa) = 0.02139338
#
# Stress axis : x y z
#
# Youngs Moduli (GPa) = 40.58698 93.66040 62.68376
#
# Poissons Ratio (x) = 0.61929 0.43140
# Poissons Ratio (y) = 0.26836 0.09047
# Poissons Ratio (z) = 0.27932 0.13518
#
# Static dielectric constant tensor:
#      x y z
#    x 1.826500 0.000000 -0.000690 
#    y 0.000000 1.783690 0.000000 
#    z -0.000690 0.000000 1.760110 
# 
# From -- ./inp_files/50710.got.cif
#   From: 2010.05.17/outbox.cif.g08.bks.cpg/sg11_26_cif.got.tgz:50710.got - 2010.06.03 12:22:45.
