data_PCOD9166920
_publ_section_title
;
Structure prediction by ZEFSAII (Michael W. Deem and Ramdas Pophale) SiO2 
 PCOD9166920
Probable space group: P 21/M
;
_chemical_formula_sum "Si O2"
_cell_formula_units_Z 18
_cell_length_a 17.026392
_cell_length_b 8.926060
_cell_length_c 4.662796
_cell_angle_alpha 90.000000
_cell_angle_beta 94.995326
_cell_angle_gamma 90.000000
_cell_volume 705.953619
_symmetry_space_group_name_H-M "P 21/M"
_symmetry_group_IT_number 11
_symmetry_cell_setting 'monoclinic'
loop_
_space_group_symop_operation_xyz
x,y,z
-x,1/2+y,-z
-x,-y,-z
x,1/2-y,z
loop_
_atom_site_type_symbol
_atom_site_label
_atom_site_fract_x
_atom_site_fract_y
_atom_site_fract_z
Si Si1 0.233160 0.579608 0.195152
Si Si2 0.660458 0.488565 0.295895
Si Si3 0.034078 0.250000 0.687387
Si Si4 0.559455 0.750000 0.996360
Si Si5 0.547056 0.250000 0.538127
Si Si6 0.066238 0.065593 0.128064
O O1 0.225770 0.750000 0.311105
O O2 0.274527 0.472943 0.443281
O O3 0.148519 0.515504 0.089597
O O4 0.288950 0.587198 0.937709
O O5 0.609410 0.610479 0.115959
O O6 0.598238 0.389532 0.453050
O O7 0.989158 0.394840 0.877824
O O8 0.055700 0.121085 0.449497
O O9 0.475841 0.750000 0.138151
O O10 0.535784 0.750000 0.658348
O O11 0.095225 0.250000 0.986616
#
# Coordination Sequence:
#
# PCOD9166920 Si02
#       6
#     4   4   2   2   2   4
#     4  12  25  45  70  97 138 188 226 287 348 423
#     4  12  25  45  69 103 140 179 235 282 354 421
#     4  10  24  43  65 100 134 174 226 298 346 396
#     4  12  26  41  72 102 133 184 223 294 344 418
#     4  12  22  46  67 102 141 176 233 278 352 420
#     4  11  25  46  72 103 138 185 235 293 348 425
#
# _framework density 25.497426999999998
#
# number of rings (size 3 to 8) (size 9 to 14) (size 15 to 20)
#    0.000    0.444    2.222    6.000    3.111    5.333 
#    0.000    0.000    0.000    0.000    0.000    0.000 
#    0.000    0.000    0.000    0.000    0.000    0.000 
#
# Total GULP energy -100404.300034 kJ/mol
# GULP energy per Si atom -5578.016669 kJ/mol
# Density = 2.543939 g / cm^3
# Si number density = 25.497427 Si / 1000 Ang^3
#
#
#
# Elastic Constant Matrix: (Units=GPa)
#
#
# Indices 1 2 3 4 5 6 
#
# 1 146.6392 49.4016 32.5055 0.0000 3.3750 0.0000
# 2 49.4016 115.7936 13.2909 0.0000 -16.6729 0.0000
# 3 32.5055 13.2909 145.6222 0.0000 -2.4391 0.0000
# 4 0.0000 0.0000 0.0000 50.6042 0.0000 8.3005
# 5 3.3750 -16.6729 -2.4391 0.0000 28.4368 0.0000
# 6 0.0000 0.0000 0.0000 8.3005 0.0000 39.3794
#
#
#
# Elastic Compliance Matrix: (Units=1/GPa)
#
#
# Indices 1 2 3 4 5 6 
#
# 1 0.008601 -0.003988 -0.001615 0.000000 -0.003498 0.000000
# 2 -0.003988 0.011368 -0.000028 0.000000 0.007136 0.000000
# 3 -0.001615 -0.000028 0.007243 0.000000 0.000797 0.000000
# 4 0.000000 0.000000 0.000000 0.020469 0.000000 -0.004314
# 5 -0.003498 0.007136 0.000797 0.000000 0.039833 0.000000
# 6 0.000000 0.000000 0.000000 -0.004314 0.000000 0.026303
#
#
# Mechanical properties :
#
#
# Convention : Reuss Voigt Hill
#
# Bulk Modulus (GPa) = 62.68742 66.49458 64.59100
# Shear Modulus (GPa) = 38.34458 44.54121 41.44290
#
# Velocity S-wave (km/s) = 3.88217 4.18412 4.03597
# Velocity P-wave (km/s) = 6.68836 7.03406 6.86339
#
# Compressibility (1/GPa) = 0.01595216
#
# Stress axis : x y z
#
# Youngs Moduli (GPa) = 116.26069 87.96487 138.05717
#
# Poissons Ratio (x) = 0.35080 0.22290
# Poissons Ratio (y) = 0.46364 0.00385
# Poissons Ratio (z) = 0.18771 0.00245
#
# Static dielectric constant tensor:
#      x y z
#    x 1.932050 0.000000 0.028310 
#    y 0.000000 2.459120 0.000000 
#    z 0.028310 0.000000 1.928080 
# 
# From -- ./inp_files/7373.got.cif
#   From: 2010.05.17/outbox.cif.g08.bks.cpg/sg11_4_cif.got.tgz:7373.got - 2010.06.03 12:22:45.
