data_PCOD9166805
_publ_section_title
;
Structure prediction by ZEFSAII (Michael W. Deem and Ramdas Pophale) SiO2 
 PCOD9166805
Probable space group: P 21/M
;
_chemical_formula_sum "Si O2"
_cell_formula_units_Z 32
_cell_length_a 10.971543
_cell_length_b 8.668289
_cell_length_c 20.218962
_cell_angle_alpha 90.000000
_cell_angle_beta 53.428295
_cell_angle_gamma 90.000000
_cell_volume 1544.315265
_symmetry_space_group_name_H-M "P 21/M"
_symmetry_group_IT_number 11
_symmetry_cell_setting 'monoclinic'
loop_
_space_group_symop_operation_xyz
x,y,z
-x,1/2+y,-z
-x,-y,-z
x,1/2-y,z
loop_
_atom_site_type_symbol
_atom_site_label
_atom_site_fract_x
_atom_site_fract_y
_atom_site_fract_z
Si Si1 0.199552 0.074125 0.485672
Si Si2 0.746946 0.072868 0.662684
Si Si3 0.000013 0.427695 0.341837
Si Si4 0.533329 0.070585 0.185999
Si Si5 0.259340 0.432723 0.770843
Si Si6 0.955970 0.434077 0.805251
Si Si7 0.544710 0.425514 0.413972
Si Si8 0.400392 0.565426 0.091804
O O1 0.140828 0.250000 0.502872
O O2 0.380330 0.080230 0.432705
O O3 0.165422 0.978902 0.430955
O O4 0.136637 0.984029 0.568876
O O5 0.698608 0.250000 0.675337
O O6 0.607428 0.960501 0.719549
O O7 0.861320 0.040478 0.684994
O O8 0.038542 0.250000 0.342649
O O9 0.972750 0.460709 0.274924
O O10 0.557656 0.250000 0.165823
O O11 0.672040 0.002978 0.183909
O O12 0.474630 0.994405 0.136531
O O13 0.287914 0.250000 0.762600
O O14 0.344961 0.494342 0.676080
O O15 0.077109 0.457505 0.824878
O O16 0.964197 0.250000 0.786821
O O17 0.777239 0.475850 0.865121
O O18 0.500000 0.500000 0.500000
O O19 0.599371 0.250000 0.408125
O O20 0.406651 0.750000 0.091387
O O21 0.500000 0.500000 0.000000
#
# Coordination Sequence:
#
# PCOD9166805 Si02
#       8
#     4   4   4   4   4   4   4   4
#     4  11  23  38  54  79 120 166 218 276 331 381
#     4  12  23  38  60  86 121 166 217 272 329 387
#     4  12  24  37  58  88 125 169 220 274 330 386
#     4  12  24  42  68 101 135 173 219 268 329 400
#     4  11  23  41  66  95 130 176 224 272 329 391
#     4  10  23  43  67  96 132 173 218 266 325 392
#     4  11  23  37  55  80 118 169 224 279 330 384
#     4  11  24  46  76 107 138 171 211 265 326 397
#
# _framework density 20.721159
#
# number of rings (size 3 to 8) (size 9 to 14) (size 15 to 20)
#    0.000    0.750    2.500    6.000    0.000    6.000 
#    0.000    0.625    0.000    0.000    0.000    0.000 
#    0.000    0.000    0.000    0.000    0.000    0.000 
#
# Total GULP energy -178659.737290 kJ/mol
# GULP energy per Si atom -5583.116790 kJ/mol
# Density = 2.067400 g / cm^3
# Si number density = 20.721159 Si / 1000 Ang^3
#
#
#
# Elastic Constant Matrix: (Units=GPa)
#
#
# Indices 1 2 3 4 5 6 
#
# 1 148.8235 47.5090 54.3853 0.0000 1.7143 0.0000
# 2 47.5090 78.3370 24.2558 0.0000 8.0485 0.0000
# 3 54.3853 24.2558 91.9412 0.0000 8.8804 0.0000
# 4 0.0000 0.0000 0.0000 27.5598 0.0000 3.9004
# 5 1.7143 8.0485 8.8804 0.0000 19.4897 0.0000
# 6 0.0000 0.0000 0.0000 3.9004 0.0000 28.5132
#
#
#
# Elastic Compliance Matrix: (Units=1/GPa)
#
#
# Indices 1 2 3 4 5 6 
#
# 1 0.010073 -0.004915 -0.004992 0.000000 0.003418 0.000000
# 2 -0.004915 0.016645 -0.000902 0.000000 -0.006031 0.000000
# 3 -0.004992 -0.000902 0.014633 0.000000 -0.005856 0.000000
# 4 0.000000 0.000000 0.000000 0.037001 0.000000 -0.005061
# 5 0.003418 -0.006031 -0.005856 0.000000 0.056167 0.000000
# 6 0.000000 0.000000 0.000000 -0.005061 0.000000 0.035764
#
#
# Mechanical properties :
#
#
# Convention : Reuss Voigt Hill
#
# Bulk Modulus (GPa) = 50.67345 63.48912 57.08128
# Shear Modulus (GPa) = 25.19178 27.97598 26.58388
#
# Velocity S-wave (km/s) = 3.49055 3.67838 3.58569
# Velocity P-wave (km/s) = 6.38383 6.98190 6.68955
#
# Compressibility (1/GPa) = 0.01973420
#
# Stress axis : x y z
#
# Youngs Moduli (GPa) = 99.27382 60.07933 68.33894
#
# Poissons Ratio (x) = 0.29526 0.34115
# Poissons Ratio (y) = 0.48788 0.06162
# Poissons Ratio (z) = 0.49558 0.05417
#
# Static dielectric constant tensor:
#      x y z
#    x 1.834790 0.000000 0.004540 
#    y 0.000000 1.669690 0.000000 
#    z 0.004540 0.000000 1.747050 
# 
# From -- ./inp_files/64355.got.cif
#   From: 2010.05.17/outbox.cif.g08.bks.cpg/sg11_33_cif.got.tgz:64355.got - 2010.06.03 12:22:45.
