data_PCOD9166741
_publ_section_title
;
Structure prediction by ZEFSAII (Michael W. Deem and Ramdas Pophale) SiO2 
 PCOD9166741
Probable space group: P 21/M
;
_chemical_formula_sum "Si O2"
_cell_formula_units_Z 20
_cell_length_a 5.475401
_cell_length_b 16.925729
_cell_length_c 9.826021
_cell_angle_alpha 90.000000
_cell_angle_beta 72.691254
_cell_angle_gamma 90.000000
_cell_volume 869.390575
_symmetry_space_group_name_H-M "P 21/M"
_symmetry_group_IT_number 11
_symmetry_cell_setting 'monoclinic'
loop_
_space_group_symop_operation_xyz
x,y,z
-x,1/2+y,-z
-x,-y,-z
x,1/2-y,z
loop_
_atom_site_type_symbol
_atom_site_label
_atom_site_fract_x
_atom_site_fract_y
_atom_site_fract_z
Si Si1 0.017895 0.838911 0.596488
Si Si2 0.561697 0.657438 0.202405
Si Si3 0.739864 0.052897 0.915979
Si Si4 0.037241 0.389425 0.094275
Si Si5 0.413739 0.090599 0.520940
O O1 0.986306 0.750000 0.549559
O O2 0.315564 0.863235 0.537272
O O3 0.964636 0.843331 0.766344
O O4 0.805367 0.890922 0.553336
O O5 0.512884 0.750000 0.226907
O O6 0.314830 0.604362 0.207219
O O7 0.685340 0.619669 0.315656
O O8 0.741071 0.641934 0.042053
O O9 0.946176 0.982900 0.867574
O O10 0.797361 0.110968 0.032232
O O11 0.500000 0.000000 0.000000
O O12 0.500000 0.000000 0.500000
#
# Coordination Sequence:
#
# PCOD9166741 Si02
#       5
#     4   4   4   4   4
#     4  12  27  48  72 107 146 187 236 302 366 424
#     4  11  24  42  67 101 136 181 232 292 349 413
#     4   9  21  40  67  98 136 173 232 285 347 414
#     4  10  23  41  72  99 136 180 235 285 352 424
#     4  12  29  49  74 103 146 195 243 289 364 436
#
# _framework density 23.004622000000001
#
# number of rings (size 3 to 8) (size 9 to 14) (size 15 to 20)
#    0.000    1.200    0.000    4.200   16.800    1.600 
#    0.000    0.000    0.000    0.000    0.000    0.000 
#    0.000    0.000    0.000    0.000    0.000    0.000 
#
# Total GULP energy -111728.830481 kJ/mol
# GULP energy per Si atom -5586.441524 kJ/mol
# Density = 2.295226 g / cm^3
# Si number density = 23.004622 Si / 1000 Ang^3
#
#
#
# Elastic Constant Matrix: (Units=GPa)
#
#
# Indices 1 2 3 4 5 6 
#
# 1 95.2534 -2.3949 12.7994 0.0000 12.8154 0.0000
# 2 -2.3949 112.5729 1.5748 0.0000 2.5627 0.0000
# 3 12.7994 1.5748 87.1755 0.0000 4.3394 0.0000
# 4 0.0000 0.0000 0.0000 31.4845 0.0000 6.8384
# 5 12.8154 2.5627 4.3394 0.0000 40.8849 0.0000
# 6 0.0000 0.0000 0.0000 6.8384 0.0000 21.7893
#
#
#
# Elastic Compliance Matrix: (Units=1/GPa)
#
#
# Indices 1 2 3 4 5 6 
#
# 1 0.011157 0.000335 -0.001477 0.000000 -0.003362 0.000000
# 2 0.000335 0.008907 -0.000178 0.000000 -0.000644 0.000000
# 3 -0.001477 -0.000178 0.011730 0.000000 -0.000771 0.000000
# 4 0.000000 0.000000 0.000000 0.034085 0.000000 -0.010697
# 5 -0.003362 -0.000644 -0.000771 0.000000 0.025635 0.000000
# 6 0.000000 0.000000 0.000000 -0.010697 0.000000 0.049251
#
#
# Mechanical properties :
#
#
# Convention : Reuss Voigt Hill
#
# Bulk Modulus (GPa) = 34.30085 35.44004 34.87044
# Shear Modulus (GPa) = 32.65326 37.69992 35.17659
#
# Velocity S-wave (km/s) = 3.77161 4.05260 3.91463
# Velocity P-wave (km/s) = 5.82319 6.11041 5.96853
#
# Compressibility (1/GPa) = 0.02915380
#
# Stress axis : x y z
#
# Youngs Moduli (GPa) = 89.62633 112.26611 85.25481
#
# Poissons Ratio (x) = -0.03756 0.12591
# Poissons Ratio (y) = -0.02998 0.01517
# Poissons Ratio (z) = 0.13237 0.01998
#
# Static dielectric constant tensor:
#      x y z
#    x 2.077130 0.000000 -0.163170 
#    y 0.000000 1.785330 0.000000 
#    z -0.163170 0.000000 2.021110 
# 
# From -- ./inp_files/10054.got.cif
#   From: 2010.05.17/outbox.cif.g08.bks.cpg/sg11_6_cif.got.tgz:10054.got - 2010.06.03 12:22:45.
