data_PCOD9166097
_publ_section_title
;
Structure prediction by ZEFSAII (Michael W. Deem and Ramdas Pophale) SiO2 
 PCOD9166097
Probable space group: P 21/M
;
_chemical_formula_sum "Si O2"
_cell_formula_units_Z 28
_cell_length_a 12.170015
_cell_length_b 8.689049
_cell_length_c 16.105021
_cell_angle_alpha 90.000000
_cell_angle_beta 56.159006
_cell_angle_gamma 90.000000
_cell_volume 1414.520958
_symmetry_space_group_name_H-M "P 21/M"
_symmetry_group_IT_number 11
_symmetry_cell_setting 'monoclinic'
loop_
_space_group_symop_operation_xyz
x,y,z
-x,1/2+y,-z
-x,-y,-z
x,1/2-y,z
loop_
_atom_site_type_symbol
_atom_site_label
_atom_site_fract_x
_atom_site_fract_y
_atom_site_fract_z
Si Si1 0.145187 0.933575 0.634815
Si Si2 0.588279 0.065699 0.388881
Si Si3 0.128478 0.935831 0.180724
Si Si4 0.868920 0.064414 0.012717
Si Si5 0.853962 0.566250 0.544281
Si Si6 0.332883 0.934278 0.233444
Si Si7 0.586647 0.436204 0.202800
O O1 0.140405 0.750000 0.624144
O O2 0.258502 0.968133 0.654469
O O3 0.183576 0.013900 0.532399
O O4 0.002770 0.992774 0.723727
O O5 0.572873 0.250000 0.396067
O O6 0.554633 0.010926 0.310303
O O7 0.500000 0.000000 0.500000
O O8 0.116397 0.750000 0.189737
O O9 0.256056 0.979396 0.181703
O O10 0.138450 0.982153 0.080674
O O11 0.874496 0.250000 0.013311
O O12 0.734745 0.016525 0.115738
O O13 0.000000 0.000000 0.000000
O O14 0.855627 0.750000 0.549251
O O15 0.755121 0.497954 0.653691
O O16 0.000000 0.500000 0.500000
O O17 0.336771 0.750000 0.235923
O O18 0.478610 0.000674 0.184700
O O19 0.581324 0.250000 0.204088
#
# Coordination Sequence:
#
# PCOD9166097 Si02
#       7
#     4   4   4   4   4   4   4
#     4  11  22  37  60  89 120 157 204 252 301 360
#     4  10  22  38  57  84 116 153 196 245 298 357
#     4  10  22  39  60  87 120 156 198 250 306 360
#     4  10  22  42  66  91 119 156 202 255 311 367
#     4  12  23  37  58  87 123 163 203 246 299 356
#     4  11  23  39  59  88 124 160 204 251 300 364
#     4  10  22  41  62  86 121 161 201 251 309 364
#
# _framework density 19.794687
#
# number of rings (size 3 to 8) (size 9 to 14) (size 15 to 20)
#    0.000    1.429    1.429    3.857    0.000    7.429 
#    0.000    0.000    0.000    0.000    0.000    0.000 
#    0.000    0.000    0.000    0.000    0.000    0.000 
#
# Total GULP energy -156562.572418 kJ/mol
# GULP energy per Si atom -5591.520443 kJ/mol
# Density = 1.974963 g / cm^3
# Si number density = 19.794687 Si / 1000 Ang^3
#
#
#
# Elastic Constant Matrix: (Units=GPa)
#
#
# Indices 1 2 3 4 5 6 
#
# 1 165.8062 40.3845 69.0396 0.0000 1.7791 0.0000
# 2 40.3845 31.5541 25.2561 0.0000 3.8865 0.0000
# 3 69.0396 25.2561 117.0926 0.0000 8.6108 0.0000
# 4 0.0000 0.0000 0.0000 21.9770 0.0000 -2.0531
# 5 1.7791 3.8865 8.6108 0.0000 36.9811 0.0000
# 6 0.0000 0.0000 0.0000 -2.0531 0.0000 34.1520
#
#
#
# Elastic Compliance Matrix: (Units=1/GPa)
#
#
# Indices 1 2 3 4 5 6 
#
# 1 0.010057 -0.009935 -0.003895 0.000000 0.001467 0.000000
# 2 -0.009935 0.048285 -0.004293 0.000000 -0.003597 0.000000
# 3 -0.003895 -0.004293 0.011920 0.000000 -0.002137 0.000000
# 4 0.000000 0.000000 0.000000 0.045759 0.000000 0.002751
# 5 0.001467 -0.003597 -0.002137 0.000000 0.027846 0.000000
# 6 0.000000 0.000000 0.000000 0.002751 0.000000 0.029446
#
#
# Mechanical properties :
#
#
# Convention : Reuss Voigt Hill
#
# Bulk Modulus (GPa) = 29.39635 64.86813 47.13224
# Shear Modulus (GPa) = 22.63504 30.60686 26.62095
#
# Velocity S-wave (km/s) = 3.38522 3.93646 3.67120
# Velocity P-wave (km/s) = 5.49204 7.31455 6.46781
#
# Compressibility (1/GPa) = 0.03401783
#
# Stress axis : x y z
#
# Youngs Moduli (GPa) = 99.43510 20.71023 83.89472
#
# Poissons Ratio (x) = 0.20575 0.32675
# Poissons Ratio (y) = 0.98784 0.36014
# Poissons Ratio (z) = 0.38727 0.08890
#
# Static dielectric constant tensor:
#      x y z
#    x 1.702010 0.000000 0.008240 
#    y 0.000000 1.669430 0.000000 
#    z 0.008240 0.000000 1.680670 
# 
# From -- ./inp_files/37316.got.cif
#   From: 2010.05.17/outbox.cif.g08.bks.cpg/sg11_19_cif.got.tgz:37316.got - 2010.06.03 12:22:45.
