data_PCOD9166980
_publ_section_title
;
Structure prediction by ZEFSAII (Michael W. Deem and Ramdas Pophale) SiO2 
 PCOD9166980
Probable space group: P 21/M
;
_chemical_formula_sum "Si O2"
_cell_formula_units_Z 30
_cell_length_a 7.676228
_cell_length_b 26.068962
_cell_length_c 10.168188
_cell_angle_alpha 90.000000
_cell_angle_beta 137.992324
_cell_angle_gamma 90.000000
_cell_volume 1361.728971
_symmetry_space_group_name_H-M "P 21/M"
_symmetry_group_IT_number 11
_symmetry_cell_setting 'monoclinic'
loop_
_space_group_symop_operation_xyz
x,y,z
-x,1/2+y,-z
-x,-y,-z
x,1/2-y,z
loop_
_atom_site_type_symbol
_atom_site_label
_atom_site_fract_x
_atom_site_fract_y
_atom_site_fract_z
Si Si1 0.223865 0.096146 0.535085
Si Si2 0.471421 0.023314 0.841271
Si Si3 0.921999 0.693795 0.399432
Si Si4 0.743434 0.656609 0.015245
Si Si5 0.945341 0.533476 0.800747
Si Si6 0.459571 0.750000 0.718529
Si Si7 0.470861 0.577318 0.702558
Si Si8 0.222872 0.586760 0.300839
O O1 0.276431 0.069108 0.704983
O O2 0.121316 0.152232 0.510548
O O3 0.055492 0.061759 0.340976
O O4 0.507087 0.094843 0.624575
O O5 0.375607 0.977959 0.694544
O O6 0.769833 0.037581 0.977429
O O7 0.500000 0.000000 0.000000
O O8 0.808438 0.750000 0.373743
O O9 0.780816 0.676196 0.185550
O O10 0.228659 0.706580 0.556221
O O11 0.010286 0.626856 0.132117
O O12 0.662735 0.704547 0.880229
O O13 0.531067 0.612624 0.861395
O O14 0.736571 0.563205 0.773010
O O15 0.866067 0.473296 0.747864
O O16 0.281678 0.599134 0.486694
#
# Coordination Sequence:
#
# PCOD9166980 Si02
#       8
#     4   4   4   4   4   2   4   4
#     4  11  23  43  66  95 135 181 221 267 331 398
#     4  12  23  35  59 100 138 176 222 257 315 403
#     4  10  25  48  69  88 128 175 220 287 340 381
#     4  12  22  42  74  96 123 173 223 276 335 391
#     4  11  22  42  63  97 149 183 205 263 332 395
#     4  10  24  48  68  88 126 170 222 280 344 386
#     4  11  21  38  66  96 138 179 210 262 328 396
#     4  11  22  40  70 101 138 180 215 266 331 397
#
# _framework density 22.030813999999999
#
# number of rings (size 3 to 8) (size 9 to 14) (size 15 to 20)
#    0.400    0.533    4.667    3.600    0.000    3.733 
#    1.200    0.000    4.400    0.000    0.000    0.000 
#    0.000    0.000    0.000    0.000    0.000    0.000 
#
# Total GULP energy -167035.792807 kJ/mol
# GULP energy per Si atom -5567.859760 kJ/mol
# Density = 2.198067 g / cm^3
# Si number density = 22.030814 Si / 1000 Ang^3
#
#
#
# Elastic Constant Matrix: (Units=GPa)
#
#
# Indices 1 2 3 4 5 6 
#
# 1 48.9632 24.2676 29.6690 0.0000 -0.0989 0.0000
# 2 24.2676 163.9025 64.6255 0.0000 0.6152 0.0000
# 3 29.6690 64.6255 124.4056 0.0000 -7.6808 0.0000
# 4 0.0000 0.0000 0.0000 43.4961 0.0000 9.0754
# 5 -0.0989 0.6152 -7.6808 0.0000 30.3929 0.0000
# 6 0.0000 0.0000 0.0000 9.0754 0.0000 26.0929
#
#
#
# Elastic Compliance Matrix: (Units=1/GPa)
#
#
# Indices 1 2 3 4 5 6 
#
# 1 0.024261 -0.001608 -0.005022 0.000000 -0.001158 0.000000
# 2 -0.001608 0.007821 -0.003748 0.000000 -0.001111 0.000000
# 3 -0.005022 -0.003748 0.011364 0.000000 0.002931 0.000000
# 4 0.000000 0.000000 0.000000 0.024790 0.000000 -0.008622
# 5 -0.001158 -0.001111 0.002931 0.000000 0.033662 0.000000
# 6 0.000000 0.000000 0.000000 -0.008622 0.000000 0.041323
#
#
# Mechanical properties :
#
#
# Convention : Reuss Voigt Hill
#
# Bulk Modulus (GPa) = 44.07150 63.82172 53.94661
# Shear Modulus (GPa) = 29.14755 34.57698 31.86227
#
# Velocity S-wave (km/s) = 3.64130 3.96597 3.80710
# Velocity P-wave (km/s) = 6.14220 7.07135 6.62309
#
# Compressibility (1/GPa) = 0.02269040
#
# Stress axis : x y z
#
# Youngs Moduli (GPa) = 41.21811 127.85711 87.99690
#
# Poissons Ratio (x) = 0.20553 0.44195
# Poissons Ratio (y) = 0.06626 0.32982
# Poissons Ratio (z) = 0.20701 0.47923
#
# Static dielectric constant tensor:
#      x y z
#    x 1.940850 0.000000 -0.023160 
#    y 0.000000 1.816340 0.000000 
#    z -0.023160 0.000000 1.827890 
# 
# From -- ./inp_files/33051.got.cif
#   From: 2010.05.17/outbox.cif.g08.bks.cpg/sg11_17_cif.got.tgz:33051.got - 2010.06.03 12:22:45.
