data_PCOD9166233
_publ_section_title
;
Structure prediction by ZEFSAII (Michael W. Deem and Ramdas Pophale) SiO2 
 PCOD9166233
Probable space group: P 21/M
;
_chemical_formula_sum "Si O2"
_cell_formula_units_Z 32
_cell_length_a 22.936966
_cell_length_b 11.141230
_cell_length_c 10.999578
_cell_angle_alpha 90.000000
_cell_angle_beta 33.210458
_cell_angle_gamma 90.000000
_cell_volume 1539.573827
_symmetry_space_group_name_H-M "P 21/M"
_symmetry_group_IT_number 11
_symmetry_cell_setting 'monoclinic'
loop_
_space_group_symop_operation_xyz
x,y,z
-x,1/2+y,-z
-x,-y,-z
x,1/2-y,z
loop_
_atom_site_type_symbol
_atom_site_label
_atom_site_fract_x
_atom_site_fract_y
_atom_site_fract_z
Si Si1 0.201125 0.893153 0.456239
Si Si2 0.062372 0.384645 0.338299
Si Si3 0.741456 0.010454 0.908101
Si Si4 0.688295 0.382389 0.239550
Si Si5 0.476742 0.381271 0.722004
Si Si6 0.740332 0.890729 0.317974
Si Si7 0.401750 0.977190 0.261291
Si Si8 0.971037 0.612575 0.894566
O O1 0.191483 0.750000 0.460341
O O2 0.218957 0.945741 0.290937
O O3 0.303219 0.920205 0.360846
O O4 0.087987 0.942623 0.703325
O O5 0.024705 0.250000 0.439023
O O6 0.182133 0.404792 0.176998
O O7 0.053936 0.390958 0.206899
O O8 0.000000 0.500000 0.500000
O O9 0.741297 0.108025 0.015617
O O10 0.618792 0.973098 0.111192
O O11 0.716303 0.250000 0.244341
O O12 0.559594 0.386480 0.466255
O O13 0.717195 0.505140 0.259566
O O14 0.427446 0.250000 0.810709
O O15 0.550200 0.398775 0.712771
O O16 0.740183 0.750000 0.278253
O O17 0.652011 0.909188 0.576531
O O18 0.860461 0.924887 0.148493
O O19 0.500000 0.000000 0.000000
O O20 0.983371 0.750000 0.912495
#
# Coordination Sequence:
#
# PCOD9166233 Si02
#       8
#     4   4   4   4   4   4   4   4
#     4  11  23  39  63  91 128 174 217 267 324 381
#     4  11  22  37  61  92 131 172 209 261 322 382
#     4  12  21  37  61  95 127 170 217 256 319 391
#     4  10  22  39  62  96 135 168 210 266 319 383
#     4  10  22  40  59  84 124 166 210 267 323 378
#     4  10  22  42  70  97 128 172 217 263 325 389
#     4  11  23  43  62  92 121 165 219 273 324 376
#     4   9  19  39  62  92 128 165 210 260 318 384
#
# _framework density 20.784973999999998
#
# number of rings (size 3 to 8) (size 9 to 14) (size 15 to 20)
#    0.000    1.500    3.750    1.500    0.000    3.000 
#    0.000    1.875    0.000    0.000    0.000    0.000 
#    0.000    0.000    0.000    0.000    0.000    0.000 
#
# Total GULP energy -178271.367695 kJ/mol
# GULP energy per Si atom -5570.980240 kJ/mol
# Density = 2.073767 g / cm^3
# Si number density = 20.784974 Si / 1000 Ang^3
#
#
#
# Elastic Constant Matrix: (Units=GPa)
#
#
# Indices 1 2 3 4 5 6 
#
# 1 74.5379 31.7196 19.6434 0.0000 -14.7926 0.0000
# 2 31.7196 118.9197 38.5671 0.0000 2.2003 0.0000
# 3 19.6434 38.5671 110.2746 0.0000 -19.4673 0.0000
# 4 0.0000 0.0000 0.0000 20.5001 0.0000 -3.4683
# 5 -14.7926 2.2003 -19.4673 0.0000 34.2052 0.0000
# 6 0.0000 0.0000 0.0000 -3.4683 0.0000 20.1006
#
#
#
# Elastic Compliance Matrix: (Units=1/GPa)
#
#
# Indices 1 2 3 4 5 6 
#
# 1 0.016905 -0.004632 -0.000053 0.000000 0.007579 0.000000
# 2 -0.004632 0.010997 -0.003890 0.000000 -0.004925 0.000000
# 3 -0.000053 -0.003890 0.011649 0.000000 0.006857 0.000000
# 4 0.000000 0.000000 0.000000 0.050247 0.000000 0.008670
# 5 0.007579 -0.004925 0.006857 0.000000 0.036732 0.000000
# 6 0.000000 0.000000 0.000000 0.008670 0.000000 0.051246
#
#
# Mechanical properties :
#
#
# Convention : Reuss Voigt Hill
#
# Bulk Modulus (GPa) = 44.64375 53.73249 49.18812
# Shear Modulus (GPa) = 24.70415 29.21464 26.95940
#
# Velocity S-wave (km/s) = 3.45129 3.75315 3.60538
# Velocity P-wave (km/s) = 6.11615 6.68500 6.40690
#
# Compressibility (1/GPa) = 0.02239955
#
# Stress axis : x y z
#
# Youngs Moduli (GPa) = 59.15315 90.93060 85.84479
#
# Poissons Ratio (x) = 0.42119 0.00459
# Poissons Ratio (y) = 0.27400 0.33398
# Poissons Ratio (z) = 0.00316 0.35376
#
# Static dielectric constant tensor:
#      x y z
#    x 1.754140 0.000000 0.002580 
#    y 0.000000 1.748360 0.000000 
#    z 0.002580 0.000000 1.798190 
# 
# From -- ./inp_files/44205.got.cif
#   From: 2010.05.17/outbox.cif.g08.bks.cpg/sg11_23_cif.got.tgz:44205.got - 2010.06.03 12:22:45.
