data_PCOD9166602
_publ_section_title
;
Structure prediction by ZEFSAII (Michael W. Deem and Ramdas Pophale) SiO2 
 PCOD9166602
Probable space group: P 21/M
;
_chemical_formula_sum "Si O2"
_cell_formula_units_Z 20
_cell_length_a 14.632422
_cell_length_b 9.992895
_cell_length_c 21.386856
_cell_angle_alpha 90.000000
_cell_angle_beta 160.739866
_cell_angle_gamma 90.000000
_cell_volume 1031.527978
_symmetry_space_group_name_H-M "P 21/M"
_symmetry_group_IT_number 11
_symmetry_cell_setting 'monoclinic'
loop_
_space_group_symop_operation_xyz
x,y,z
-x,1/2+y,-z
-x,-y,-z
x,1/2-y,z
loop_
_atom_site_type_symbol
_atom_site_label
_atom_site_fract_x
_atom_site_fract_y
_atom_site_fract_z
Si Si1 0.829167 0.490908 0.075142
Si Si2 0.764575 0.980883 0.548253
Si Si3 0.879686 0.085530 0.864126
Si Si4 0.553539 0.750000 0.955948
Si Si5 0.959943 0.750000 0.325733
Si Si6 0.395885 0.250000 0.782894
Si Si7 0.092778 0.250000 0.455565
O O1 0.067220 0.453988 0.279133
O O2 0.958156 0.534915 0.092472
O O3 0.680784 0.620252 0.006947
O O4 0.598336 0.376613 0.921433
O O5 0.439625 0.959391 0.349534
O O6 0.844522 0.876714 0.546588
O O7 0.863830 0.123182 0.584442
O O8 0.897169 0.250000 0.882362
O O9 0.000000 0.000000 0.000000
O O10 0.229669 0.750000 0.738506
O O11 0.664577 0.750000 0.098593
O O12 0.859729 0.750000 0.332757
O O13 0.271425 0.250000 0.633297
#
# Coordination Sequence:
#
# PCOD9166602 Si02
#       7
#     4   4   4   2   2   2   2
#     4  11  24  45  70  97 131 179 227 277 324 396
#     4  11  24  45  70  96 133 176 229 275 327 394
#     4  12  27  46  69 102 138 174 218 276 337 396
#     4  10  22  43  68  95 132 173 227 277 329 390
#     4  10  24  43  68 101 128 175 225 275 327 398
#     4  12  26  41  66 103 138 175 221 271 343 396
#     4  12  24  41  64  99 138 177 217 279 337 398
#
# _framework density 19.388712999999999
#
# number of rings (size 3 to 8) (size 9 to 14) (size 15 to 20)
#    0.000    0.800    2.000    4.800    2.800    8.000 
#    0.000    0.000    0.000    0.000    0.000    0.000 
#    0.000    0.000    0.000    0.000    0.000    0.000 
#
# Total GULP energy -111779.402690 kJ/mol
# GULP energy per Si atom -5588.970134 kJ/mol
# Density = 1.934458 g / cm^3
# Si number density = 19.388713 Si / 1000 Ang^3
#
#
#
# Elastic Constant Matrix: (Units=GPa)
#
#
# Indices 1 2 3 4 5 6 
#
# 1 -220.8618 -343.5307 -939.2029 0.0000 82.0874 0.0000
# 2 -343.5307 -292.0595-1043.6547 0.0000 93.1778 0.0000
# 3 -939.2029-1043.6547-2679.1064 0.0000 287.4276 0.0000
# 4 0.0000 0.0000 0.0000 25.7548 0.0000 -0.7045
# 5 82.0874 93.1778 287.4276 0.0000 6.5912 0.0000
# 6 0.0000 0.0000 0.0000 -0.7045 0.0000 32.3862
#
#
#
# Elastic Compliance Matrix: (Units=1/GPa)
#
#
# Indices 1 2 3 4 5 6 
#
# 1 0.010259 -0.001266 -0.002622 0.000000 0.004483 0.000000
# 2 -0.001266 0.009674 -0.002871 0.000000 0.004225 0.000000
# 3 -0.002622 -0.002871 0.001677 0.000000 0.000116 0.000000
# 4 0.000000 0.000000 0.000000 0.038851 0.000000 0.000845
# 5 0.004483 0.004225 0.000116 0.000000 0.031076 0.000000
# 6 0.000000 0.000000 0.000000 0.000845 0.000000 0.030896
#
#
# Mechanical properties :
#
#
# Convention : Reuss Voigt Hill
#
# Bulk Modulus (GPa) = 123.59492 -871.64492 -374.02500
# Shear Modulus (GPa) = 36.06208 -44.76285 -4.35038
#
# Velocity S-wave (km/s) = 4.31740 -4.81011 -1.49955
# Velocity P-wave (km/s) = 9.42005 21.94057 14.01162
#
# Compressibility (1/GPa) = 0.00809095
#
# Stress axis : x y z
#
# Youngs Moduli (GPa) = 97.47319 103.36967 596.24666
#
# Poissons Ratio (x) = 0.13085 1.56362
# Poissons Ratio (y) = 0.12338 1.71212
# Poissons Ratio (z) = 0.25562 0.29683
#
# Static dielectric constant tensor:
#      x y z
#    x 1.740880 0.000000 0.042600 
#    y 0.000000 1.714720 0.000000 
#    z 0.042600 0.000000 1.703400 
# 
# From -- ./inp_files/16041.got.cif
#   From: 2010.05.17/outbox.cif.g08.bks.cpg/sg11_9_cif.got.tgz:16041.got - 2010.06.03 12:22:45.
