data_PCOD9166816
_publ_section_title
;
Structure prediction by ZEFSAII (Michael W. Deem and Ramdas Pophale) SiO2 
 PCOD9166816
Probable space group: P 21/M
;
_chemical_formula_sum "Si O2"
_cell_formula_units_Z 28
_cell_length_a 15.214382
_cell_length_b 18.880161
_cell_length_c 5.397015
_cell_angle_alpha 90.000000
_cell_angle_beta 126.170850
_cell_angle_gamma 90.000000
_cell_volume 1251.490155
_symmetry_space_group_name_H-M "P 21/M"
_symmetry_group_IT_number 11
_symmetry_cell_setting 'monoclinic'
loop_
_space_group_symop_operation_xyz
x,y,z
-x,1/2+y,-z
-x,-y,-z
x,1/2-y,z
loop_
_atom_site_type_symbol
_atom_site_label
_atom_site_fract_x
_atom_site_fract_y
_atom_site_fract_z
Si Si1 0.937947 0.250000 0.875284
Si Si2 0.678571 0.499645 0.219750
Si Si3 0.917233 0.750000 0.377282
Si Si4 0.934017 0.465646 0.113740
Si Si5 0.236014 0.626897 0.369141
Si Si6 0.526170 0.578080 0.299450
Si Si7 0.483754 0.833607 0.720135
Si Si8 0.136027 0.403363 0.671186
O O1 0.855169 0.184199 0.728240
O O2 0.007052 0.250000 0.739112
O O3 0.013511 0.250000 0.248752
O O4 0.745341 0.427848 0.375563
O O5 0.625954 0.527015 0.391328
O O6 0.757620 0.562032 0.270159
O O7 0.578331 0.474535 0.882205
O O8 0.846971 0.821795 0.240199
O O9 0.901139 0.537433 0.196731
O O10 0.022868 0.406391 0.332853
O O11 0.821057 0.424284 0.920788
O O12 0.000000 0.500000 0.000000
O O13 0.351871 0.658712 0.487994
O O14 0.529420 0.623958 0.555686
O O15 0.514852 0.629030 0.034714
O O16 0.511880 0.750000 0.763825
#
# Coordination Sequence:
#
# PCOD9166816 Si02
#       8
#     2   4   2   4   4   4   4   4
#     4  12  26  44  64 102 140 178 214 280 338 397
#     4  10  23  43  70  98 125 181 229 282 330 397
#     4  12  28  44  62  92 146 182 218 274 334 395
#     4  11  21  38  65  96 129 172 224 274 319 399
#     4  11  22  41  71 100 134 174 222 280 334 402
#     4  10  24  44  69  98 134 170 228 285 332 397
#     4  11  23  43  67 102 134 173 213 279 350 406
#     4  11  24  40  64  95 132 180 227 268 332 401
#
# _framework density 22.373328000000001
#
# number of rings (size 3 to 8) (size 9 to 14) (size 15 to 20)
#    0.000    1.143    3.571    2.143    2.000    8.571 
#    2.571    0.000    0.000    0.000    0.000    0.000 
#    0.000    0.000    0.000    0.000    0.000    0.000 
#
# Total GULP energy -156122.677660 kJ/mol
# GULP energy per Si atom -5575.809916 kJ/mol
# Density = 2.232241 g / cm^3
# Si number density = 22.373328 Si / 1000 Ang^3
#
#
#
# Elastic Constant Matrix: (Units=GPa)
#
#
# Indices 1 2 3 4 5 6 
#
# 1 98.2247 43.7504 38.7632 0.0000 -10.5865 0.0000
# 2 43.7504 189.6452 34.9515 0.0000 -1.3951 0.0000
# 3 38.7632 34.9515 58.9659 0.0000 -9.4577 0.0000
# 4 0.0000 0.0000 0.0000 54.7260 0.0000 -1.9199
# 5 -10.5865 -1.3951 -9.4577 0.0000 29.6481 0.0000
# 6 0.0000 0.0000 0.0000 -1.9199 0.0000 55.4451
#
#
#
# Elastic Compliance Matrix: (Units=1/GPa)
#
#
# Indices 1 2 3 4 5 6 
#
# 1 0.014423 -0.001836 -0.007989 0.000000 0.002515 0.000000
# 2 -0.001836 0.006176 -0.002647 0.000000 -0.001210 0.000000
# 3 -0.007989 -0.002647 0.024559 0.000000 0.004857 0.000000
# 4 0.000000 0.000000 0.000000 0.018295 0.000000 0.000633
# 5 0.002515 -0.001210 0.004857 0.000000 0.036119 0.000000
# 6 0.000000 0.000000 0.000000 0.000633 0.000000 0.018058
#
#
# Mechanical properties :
#
#
# Convention : Reuss Voigt Hill
#
# Bulk Modulus (GPa) = 49.47706 64.64066 57.05886
# Shear Modulus (GPa) = 33.48669 43.25523 38.37096
#
# Velocity S-wave (km/s) = 3.87295 4.40175 4.14579
# Velocity P-wave (km/s) = 6.49322 7.40192 6.96241
#
# Compressibility (1/GPa) = 0.02021139
#
# Stress axis : x y z
#
# Youngs Moduli (GPa) = 69.33566 161.92629 40.71783
#
# Poissons Ratio (x) = 0.29735 0.32531
# Poissons Ratio (y) = 0.12732 0.10780
# Poissons Ratio (z) = 0.55395 0.42869
#
# Static dielectric constant tensor:
#      x y z
#    x 1.835900 0.000000 -0.211880 
#    y 0.000000 1.870250 0.000000 
#    z -0.211880 0.000000 2.313560 
# 
# From -- ./inp_files/6915.got.cif
#   From: 2010.05.17/outbox.cif.g08.bks.cpg/sg11_4_cif.got.tgz:6915.got - 2010.06.03 12:22:45.
