data_PCOD9166883
_publ_section_title
;
Structure prediction by ZEFSAII (Michael W. Deem and Ramdas Pophale) SiO2 
 PCOD9166883
Probable space group: P 21/M
;
_chemical_formula_sum "Si O2"
_cell_formula_units_Z 20
_cell_length_a 17.435424
_cell_length_b 8.423740
_cell_length_c 24.798780
_cell_angle_alpha 90.000000
_cell_angle_beta 16.083224
_cell_angle_gamma 90.000000
_cell_volume 1009.020066
_symmetry_space_group_name_H-M "P 21/M"
_symmetry_group_IT_number 11
_symmetry_cell_setting 'monoclinic'
loop_
_space_group_symop_operation_xyz
x,y,z
-x,1/2+y,-z
-x,-y,-z
x,1/2-y,z
loop_
_atom_site_type_symbol
_atom_site_label
_atom_site_fract_x
_atom_site_fract_y
_atom_site_fract_z
Si Si1 0.933519 0.750000 0.391662
Si Si2 0.924855 0.750000 0.270633
Si Si3 0.262116 0.063609 0.199263
Si Si4 0.278241 0.750000 0.848692
Si Si5 0.739477 0.250000 0.265998
Si Si6 0.305936 0.563942 0.279925
Si Si7 0.857531 0.012553 0.965872
O O1 0.009935 0.750000 0.276148
O O2 0.608578 0.750000 0.621447
O O3 0.038675 0.579955 0.344274
O O4 0.588943 0.750000 0.501317
O O5 0.039597 0.606471 0.156682
O O6 0.184846 0.250000 0.241421
O O7 0.381870 0.045476 0.178142
O O8 0.500000 0.000000 0.000000
O O9 0.191838 0.750000 0.844563
O O10 0.179458 0.606500 0.953140
O O11 0.895105 0.394686 0.188623
O O12 0.287534 0.750000 0.277939
O O13 0.000000 0.500000 0.500000
O O14 0.549516 0.549408 0.159143
#
# Coordination Sequence:
#
# PCOD9166883 Si02
#       7
#     2   2   4   2   2   4   4
#     4  11  22  45  62  95 136 171 222 269 330 388
#     4  10  24  40  71  91 130 169 213 274 329 393
#     4  12  24  40  64  93 132 176 224 272 324 390
#     4  10  24  40  68  89 130 169 206 272 334 395
#     4  11  22  45  65  97 124 165 221 271 331 394
#     4  12  25  41  64  98 133 174 222 272 324 400
#     4  11  23  42  66  96 127 170 215 269 331 390
#
# _framework density 19.821213
#
# number of rings (size 3 to 8) (size 9 to 14) (size 15 to 20)
#    0.000    0.800    3.000    4.200    5.600    0.000 
#    3.600    0.000    8.800    0.000    0.000    0.000 
#    0.000    0.000    0.000    0.000    0.000    0.000 
#
# Total GULP energy -111431.469887 kJ/mol
# GULP energy per Si atom -5571.573494 kJ/mol
# Density = 1.977610 g / cm^3
# Si number density = 19.821213 Si / 1000 Ang^3
#
#
#
# Elastic Constant Matrix: (Units=GPa)
#
#
# Indices 1 2 3 4 5 6 
#
# 1 106.4550 43.3022 30.4094 0.0000 0.3669 0.0000
# 2 43.3022 142.6424 27.5856 0.0000 -9.5001 0.0000
# 3 30.4094 27.5856 83.0817 0.0000 -1.4646 0.0000
# 4 0.0000 0.0000 0.0000 16.9091 0.0000 -21.1322
# 5 0.3669 -9.5001 -1.4646 0.0000 42.2244 0.0000
# 6 0.0000 0.0000 0.0000 -21.1322 0.0000 29.4641
#
#
#
# Elastic Compliance Matrix: (Units=1/GPa)
#
#
# Indices 1 2 3 4 5 6 
#
# 1 0.011517 -0.002924 -0.003260 0.000000 -0.000871 0.000000
# 2 -0.002924 0.008343 -0.001668 0.000000 0.001845 0.000000
# 3 -0.003260 -0.001668 0.013786 0.000000 0.000131 0.000000
# 4 0.000000 0.000000 0.000000 0.570546 0.000000 0.409207
# 5 -0.000871 0.001845 0.000131 0.000000 0.024110 0.000000
# 6 0.000000 0.000000 0.000000 0.409207 0.000000 0.327431
#
#
# Mechanical properties :
#
#
# Convention : Reuss Voigt Hill
#
# Bulk Modulus (GPa) = 55.73105 59.41927 57.57516
# Shear Modulus (GPa) = 5.11553 33.11166 19.11359
#
# Velocity S-wave (km/s) = 1.60824 4.09163 3.10869
# Velocity P-wave (km/s) = 5.62374 7.23634 6.48040
#
# Compressibility (1/GPa) = 0.01794332
#
# Stress axis : x y z
#
# Youngs Moduli (GPa) = 86.82653 119.85389 72.53950
#
# Poissons Ratio (x) = 0.35043 0.23648
# Poissons Ratio (y) = 0.25387 0.12097
# Poissons Ratio (z) = 0.28306 0.19987
#
# Static dielectric constant tensor:
#      x y z
#    x 1.700350 0.000000 -0.026850 
#    y 0.000000 1.648730 0.000000 
#    z -0.026850 0.000000 1.625630 
# 
# From -- ./inp_files/16102.got.cif
#   From: 2010.05.17/outbox.cif.g08.bks.cpg/sg11_9_cif.got.tgz:16102.got - 2010.06.03 12:22:45.
