data_PCOD9166599
_publ_section_title
;
Structure prediction by ZEFSAII (Michael W. Deem and Ramdas Pophale) SiO2 
 PCOD9166599
Probable space group: P 21/M
;
_chemical_formula_sum "Si O2"
_cell_formula_units_Z 32
_cell_length_a 9.063452
_cell_length_b 25.074608
_cell_length_c 13.629862
_cell_angle_alpha 90.000000
_cell_angle_beta 149.915427
_cell_angle_gamma 90.000000
_cell_volume 1552.736279
_symmetry_space_group_name_H-M "P 21/M"
_symmetry_group_IT_number 11
_symmetry_cell_setting 'monoclinic'
loop_
_space_group_symop_operation_xyz
x,y,z
-x,1/2+y,-z
-x,-y,-z
x,1/2-y,z
loop_
_atom_site_type_symbol
_atom_site_label
_atom_site_fract_x
_atom_site_fract_y
_atom_site_fract_z
Si Si1 0.747322 0.688430 0.464558
Si Si2 0.818878 0.609999 0.166557
Si Si3 0.398537 0.417569 0.165063
Si Si4 0.909612 0.907589 0.431075
Si Si5 0.976701 0.613475 0.887031
Si Si6 0.692923 0.311140 0.068437
Si Si7 0.434767 0.889391 0.430721
Si Si8 0.415095 0.964606 0.244587
O O1 0.674821 0.750000 0.403189
O O2 0.789984 0.650495 0.395225
O O3 0.515316 0.658058 0.401412
O O4 0.053775 0.686836 0.701867
O O5 0.824577 0.578279 0.271413
O O6 0.155024 0.625549 0.335567
O O7 0.706536 0.579184 0.006710
O O8 0.591085 0.657778 0.055179
O O9 0.201155 0.376107 0.113964
O O10 0.359964 0.473612 0.198440
O O11 0.741750 0.405268 0.361262
O O12 0.751297 0.949349 0.411532
O O13 0.721519 0.599420 0.661833
O O14 0.160406 0.660475 0.941628
O O15 0.211330 0.568188 0.051305
O O16 0.624557 0.250000 0.008169
O O17 0.360590 0.940599 0.320738
#
# Coordination Sequence:
#
# PCOD9166599 Si02
#       8
#     4   4   4   4   4   4   4   4
#     4   9  20  42  67  89 122 164 204 261 322 369
#     4  12  23  40  62  95 127 163 210 259 307 372
#     4  12  25  41  63  91 134 167 210 269 305 370
#     4  11  23  42  62  92 127 164 213 259 313 380
#     4  11  22  43  64  91 129 164 210 264 311 374
#     4  10  22  43  68  91 123 165 206 256 322 380
#     4  10  23  39  65  91 128 162 213 261 304 385
#     4  11  24  42  63  92 125 175 214 252 323 372
#
# _framework density 20.608778999999998
#
# number of rings (size 3 to 8) (size 9 to 14) (size 15 to 20)
#    0.000    1.250    5.000    0.750    0.000    3.000 
#    0.000    1.250    0.000    0.000    0.000    0.000 
#    0.000    0.000    0.000    0.000    0.000    0.000 
#
# Total GULP energy -178767.336971 kJ/mol
# GULP energy per Si atom -5586.479280 kJ/mol
# Density = 2.056187 g / cm^3
# Si number density = 20.608779 Si / 1000 Ang^3
#
#
#
# Elastic Constant Matrix: (Units=GPa)
#
#
# Indices 1 2 3 4 5 6 
#
# 1 104.1648 5.4325 21.7954 0.0000 17.3893 0.0000
# 2 5.4325 43.3957 -2.3964 0.0000 13.0822 0.0000
# 3 21.7954 -2.3964 74.0946 0.0000 15.0073 0.0000
# 4 0.0000 0.0000 0.0000 19.2887 0.0000 -5.0994
# 5 17.3893 13.0822 15.0073 0.0000 47.1417 0.0000
# 6 0.0000 0.0000 0.0000 -5.0994 0.0000 10.5454
#
#
#
# Elastic Compliance Matrix: (Units=1/GPa)
#
#
# Indices 1 2 3 4 5 6 
#
# 1 0.010659 -0.000584 -0.002556 0.000000 -0.002956 0.000000
# 2 -0.000584 0.025579 0.002558 0.000000 -0.007697 0.000000
# 3 -0.002556 0.002558 0.015268 0.000000 -0.004628 0.000000
# 4 0.000000 0.000000 0.000000 0.059443 0.000000 0.028745
# 5 -0.002956 -0.007697 -0.004628 0.000000 0.025912 0.000000
# 6 0.000000 0.000000 0.000000 0.028745 0.000000 0.108728
#
#
# Mechanical properties :
#
#
# Convention : Reuss Voigt Hill
#
# Bulk Modulus (GPa) = 19.86412 30.14646 25.00529
# Shear Modulus (GPa) = 18.97295 28.51675 23.74485
#
# Velocity S-wave (km/s) = 3.03747 3.72387 3.39805
# Velocity P-wave (km/s) = 4.68628 5.75755 5.24931
#
# Compressibility (1/GPa) = 0.05034202
#
# Stress axis : x y z
#
# Youngs Moduli (GPa) = 93.81877 39.09523 65.49636
#
# Poissons Ratio (x) = 0.02284 0.16738
# Poissons Ratio (y) = 0.05482 -0.16755
# Poissons Ratio (z) = 0.23976 -0.10001
#
# Static dielectric constant tensor:
#      x y z
#    x 1.730300 0.000000 -0.004080 
#    y 0.000000 1.705680 0.000000 
#    z -0.004080 0.000000 1.775140 
# 
# From -- ./inp_files/48485.got.cif
#   From: 2010.05.17/outbox.cif.g08.bks.cpg/sg11_25_cif.got.tgz:48485.got - 2010.06.03 12:22:45.
