data_PCOD9166061
_publ_section_title
;
Structure prediction by ZEFSAII (Michael W. Deem and Ramdas Pophale) SiO2 
 PCOD9166061
Probable space group: P 21/M
;
_chemical_formula_sum "Si O2"
_cell_formula_units_Z 16
_cell_length_a 8.236274
_cell_length_b 16.186391
_cell_length_c 4.920294
_cell_angle_alpha 90.000000
_cell_angle_beta 84.871814
_cell_angle_gamma 90.000000
_cell_volume 653.326073
_symmetry_space_group_name_H-M "P 21/M"
_symmetry_group_IT_number 11
_symmetry_cell_setting 'monoclinic'
loop_
_space_group_symop_operation_xyz
x,y,z
-x,1/2+y,-z
-x,-y,-z
x,1/2-y,z
loop_
_atom_site_type_symbol
_atom_site_label
_atom_site_fract_x
_atom_site_fract_y
_atom_site_fract_z
Si Si1 0.276628 0.478540 0.966414
Si Si2 0.620297 0.843043 0.679374
Si Si3 0.306361 0.906909 0.466500
Si Si4 0.037890 0.090428 0.366134
O O1 0.395491 0.410493 0.078564
O O2 0.282640 0.556462 0.170792
O O3 0.104603 0.431785 0.053479
O O4 0.317232 0.513066 0.667114
O O5 0.618942 0.750000 0.782730
O O6 0.468676 0.855909 0.500951
O O7 0.803680 0.862379 0.539690
O O8 0.135397 0.865242 0.583398
O O9 0.000000 0.000000 0.500000
#
# Coordination Sequence:
#
# PCOD9166061 Si02
#       4
#     4   4   4   4
#     4   9  21  37  64  84 118 152 206 238 288 357
#     4  10  22  37  59  91 124 153 197 255 304 343
#     4  11  19  41  62  87 113 162 200 240 287 366
#     4   8  19  35  63  86 114 152 206 236 294 349
#
# _framework density 24.490069999999999
#
# number of rings (size 3 to 8) (size 9 to 14) (size 15 to 20)
#    1.500    1.000    0.000    2.250    0.000    1.000 
#    0.000    5.000    0.000    1.500    0.000    0.000 
#    0.000    0.000    0.000    0.000    0.000    0.000 
#
# Total GULP energy -89146.072650 kJ/mol
# GULP energy per Si atom -5571.629541 kJ/mol
# Density = 2.443433 g / cm^3
# Si number density = 24.490070 Si / 1000 Ang^3
#
#
#
# Elastic Constant Matrix: (Units=GPa)
#
#
# Indices 1 2 3 4 5 6 
#
# 1 228.0551 24.0547 7.2486 0.0000 0.2098 0.0000
# 2 24.0547 30.5001 -20.1844 0.0000 7.3669 0.0000
# 3 7.2486 -20.1844 61.5306 0.0000 -10.2956 0.0000
# 4 0.0000 0.0000 0.0000 -1.0298 0.0000 3.0051
# 5 0.2098 7.3669 -10.2956 0.0000 38.8561 0.0000
# 6 0.0000 0.0000 0.0000 3.0051 0.0000 16.1559
#
#
#
# Elastic Compliance Matrix: (Units=1/GPa)
#
#
# Indices 1 2 3 4 5 6 
#
# 1 0.005058 -0.005669 -0.002386 0.000000 0.000415 0.000000
# 2 -0.005669 0.048996 0.015896 0.000000 -0.005047 0.000000
# 3 -0.002386 0.015896 0.022231 0.000000 0.002890 0.000000
# 4 0.000000 0.000000 0.000000 -0.629421 0.000000 0.117077
# 5 0.000415 -0.005047 0.002890 0.000000 0.027456 0.000000
# 6 0.000000 0.000000 0.000000 0.117077 0.000000 0.040120
#
#
# Mechanical properties :
#
#
# Convention : Reuss Voigt Hill
#
# Bulk Modulus (GPa) = 10.87333 38.03595 24.45464
# Shear Modulus (GPa) = -10.62505 31.39425 10.38460
#
# Velocity S-wave (km/s) = -2.08517 3.58427 2.06144
# Velocity P-wave (km/s) = 1.16091 5.71789 3.95895
#
# Compressibility (1/GPa) = 0.09196815
#
# Stress axis : x y z
#
# Youngs Moduli (GPa) = 197.69626 20.40983 44.98202
#
# Poissons Ratio (x) = 0.11569 0.10732
# Poissons Ratio (y) = 1.12066 -0.71503
# Poissons Ratio (z) = 0.47169 -0.32443
#
# Static dielectric constant tensor:
#      x y z
#    x 2.189700 0.000000 0.030760 
#    y 0.000000 1.917140 0.000000 
#    z 0.030760 0.000000 2.005060 
# 
# From -- ./inp_files/1613.got.cif
#   From: 2010.05.17/outbox.cif.g08.bks.cpg/sg11_1_cif.got.tgz:1613.got - 2010.06.03 12:22:45.
