data_PCOD9166087
_publ_section_title
;
Structure prediction by ZEFSAII (Michael W. Deem and Ramdas Pophale) SiO2 
 PCOD9166087
Probable space group: P 21/M
;
_chemical_formula_sum "Si O2"
_cell_formula_units_Z 30
_cell_length_a 12.251792
_cell_length_b 8.120351
_cell_length_c 16.857398
_cell_angle_alpha 90.000000
_cell_angle_beta 67.111329
_cell_angle_gamma 90.000000
_cell_volume 1545.070392
_symmetry_space_group_name_H-M "P 21/M"
_symmetry_group_IT_number 11
_symmetry_cell_setting 'monoclinic'
loop_
_space_group_symop_operation_xyz
x,y,z
-x,1/2+y,-z
-x,-y,-z
x,1/2-y,z
loop_
_atom_site_type_symbol
_atom_site_label
_atom_site_fract_x
_atom_site_fract_y
_atom_site_fract_z
Si Si1 0.557132 0.439899 0.177032
Si Si2 0.862209 0.062553 0.894752
Si Si3 0.187545 0.439465 0.919771
Si Si4 0.250103 0.441923 0.592799
Si Si5 0.462448 0.430047 0.646557
Si Si6 0.690399 0.250000 0.517244
Si Si7 0.098948 0.936631 0.774835
Si Si8 0.392417 0.446232 0.087046
O O1 0.584024 0.250000 0.149350
O O2 0.670086 0.543286 0.117375
O O3 0.540387 0.458460 0.275523
O O4 0.439746 0.487018 0.161793
O O5 0.896843 0.250000 0.870961
O O6 0.729404 0.030881 0.902491
O O7 0.958016 0.952389 0.822772
O O8 0.864196 0.027196 0.988198
O O9 0.152294 0.250000 0.932886
O O10 0.148669 0.514283 0.847126
O O11 0.257019 0.250000 0.561939
O O12 0.375498 0.485751 0.601287
O O13 0.228910 0.597015 0.540944
O O14 0.154265 0.451902 0.690660
O O15 0.412882 0.250000 0.686636
O O16 0.593062 0.390781 0.578285
O O17 0.135872 0.750000 0.748101
O O18 0.375443 0.250000 0.085038
O O19 0.500000 0.500000 0.000000
#
# Coordination Sequence:
#
# PCOD9166087 Si02
#       8
#     4   4   4   4   4   2   4   4
#     4  11  22  36  58  86 122 161 201 248 302 359
#     4  12  25  41  59  85 117 159 215 258 299 355
#     4  12  23  37  57  84 121 166 205 248 299 357
#     4  11  21  36  57  87 124 162 199 246 303 368
#     4   9  21  34  53  83 119 153 198 234 301 359
#     4  10  22  38  56  90 120 160 200 244 310 372
#     4  12  24  40  59  84 124 165 206 248 304 365
#     4  11  23  39  60  87 118 159 204 255 303 347
#
# _framework density 19.416591
#
# number of rings (size 3 to 8) (size 9 to 14) (size 15 to 20)
#    0.400    0.533    3.333    5.200    0.933    2.133 
#    0.000    0.000    0.000    0.000    0.000    0.933 
#    0.000    0.000    0.000    0.000    0.000    0.000 
#
# Total GULP energy -167001.499918 kJ/mol
# GULP energy per Si atom -5566.716664 kJ/mol
# Density = 1.937240 g / cm^3
# Si number density = 19.416591 Si / 1000 Ang^3
#
#
#
# Elastic Constant Matrix: (Units=GPa)
#
#
# Indices 1 2 3 4 5 6 
#
# 1 47.8791 2.6684 -0.9518 0.0000 -8.4294 0.0000
# 2 2.6684 83.7327 1.3537 0.0000 6.3095 0.0000
# 3 -0.9518 1.3537 53.2333 0.0000 -17.7608 0.0000
# 4 0.0000 0.0000 0.0000 32.1505 0.0000 -3.2309
# 5 -8.4294 6.3095 -17.7608 0.0000 19.3661 0.0000
# 6 0.0000 0.0000 0.0000 -3.2309 0.0000 21.5872
#
#
#
# Elastic Compliance Matrix: (Units=1/GPa)
#
#
# Indices 1 2 3 4 5 6 
#
# 1 0.024071 -0.002126 0.006068 0.000000 0.016735 0.000000
# 2 -0.002126 0.012642 -0.002943 0.000000 -0.007743 0.000000
# 3 0.006068 -0.002943 0.029062 0.000000 0.030253 0.000000
# 4 0.000000 0.000000 0.000000 0.031579 0.000000 0.004726
# 5 0.016735 -0.007743 0.030253 0.000000 0.089189 0.000000
# 6 0.000000 0.000000 0.000000 0.004726 0.000000 0.047031
#
#
# Mechanical properties :
#
#
# Convention : Reuss Voigt Hill
#
# Bulk Modulus (GPa) = 14.75515 21.22063 17.98789
# Shear Modulus (GPa) = 19.67209 26.73909 23.20559
#
# Velocity S-wave (km/s) = 3.18647 3.71499 3.46083
# Velocity P-wave (km/s) = 4.59933 5.41797 5.02535
#
# Compressibility (1/GPa) = 0.06777295
#
# Stress axis : x y z
#
# Youngs Moduli (GPa) = 41.54301 79.10415 34.40895
#
# Poissons Ratio (x) = 0.16820 -0.20879
# Poissons Ratio (y) = 0.08833 0.10126
# Poissons Ratio (z) = -0.25208 0.23279
#
# Static dielectric constant tensor:
#      x y z
#    x 1.700380 0.000000 0.002290 
#    y 0.000000 1.680610 0.000000 
#    z 0.002290 0.000000 1.694870 
# 
# From -- ./inp_files/58841.got.cif
#   From: 2010.05.17/outbox.cif.g08.bks.cpg/sg11_30_cif.got.tgz:58841.got - 2010.06.03 12:22:45.
