data_PCOD9166629
_publ_section_title
;
Structure prediction by ZEFSAII (Michael W. Deem and Ramdas Pophale) SiO2 
 PCOD9166629
Probable space group: P 21/M
;
_chemical_formula_sum "Si O2"
_cell_formula_units_Z 24
_cell_length_a 5.750966
_cell_length_b 15.868818
_cell_length_c 15.096466
_cell_angle_alpha 90.000000
_cell_angle_beta 52.458509
_cell_angle_gamma 90.000000
_cell_volume 1092.410396
_symmetry_space_group_name_H-M "P 21/M"
_symmetry_group_IT_number 11
_symmetry_cell_setting 'monoclinic'
loop_
_space_group_symop_operation_xyz
x,y,z
-x,1/2+y,-z
-x,-y,-z
x,1/2-y,z
loop_
_atom_site_type_symbol
_atom_site_label
_atom_site_fract_x
_atom_site_fract_y
_atom_site_fract_z
Si Si1 0.644063 0.092903 0.480336
Si Si2 0.093577 0.456545 0.852174
Si Si3 0.922133 0.005074 0.710054
Si Si4 0.630589 0.151370 0.685646
Si Si5 0.367094 0.917224 0.911122
Si Si6 0.346571 0.250000 0.229848
Si Si7 0.370101 0.750000 0.637417
O O1 0.619857 0.130642 0.583669
O O2 0.542640 0.164602 0.435214
O O3 0.500000 0.000000 0.500000
O O4 0.981754 0.068726 0.377921
O O5 0.336563 0.382954 0.802569
O O6 0.130088 0.543478 0.898255
O O7 0.139672 0.484679 0.740799
O O8 0.787537 0.419036 0.958047
O O9 0.881580 0.092174 0.668701
O O10 0.630588 0.981264 0.831118
O O11 0.674250 0.250000 0.689307
O O12 0.500164 0.829667 0.851655
O O13 0.465044 0.250000 0.305242
O O14 0.993918 0.250000 0.287805
#
# Coordination Sequence:
#
# PCOD9166629 Si02
#       7
#     4   4   4   4   4   2   2
#     4  12  24  46  70  98 137 186 236 294 354 421
#     4  10  22  44  67  94 135 179 230 283 359 419
#     4  11  22  42  70  92 130 183 230 285 350 423
#     4  11  25  42  61  99 136 173 230 284 353 424
#     4  10  23  41  68  98 134 178 230 294 345 425
#     4  12  26  46  71 107 142 182 240 293 357 421
#     4  12  28  48  75 107 146 186 244 301 351 429
#
# _framework density 21.969764000000001
#
# number of rings (size 3 to 8) (size 9 to 14) (size 15 to 20)
#    0.000    1.000    4.167    2.000    3.500    2.000 
#    1.500    0.000    0.000    0.000    0.000    0.000 
#    0.000    0.000    0.000    0.000    0.000    0.000 
#
# Total GULP energy -133770.184531 kJ/mol
# GULP energy per Si atom -5573.757689 kJ/mol
# Density = 2.191976 g / cm^3
# Si number density = 21.969764 Si / 1000 Ang^3
#
#
#
# Elastic Constant Matrix: (Units=GPa)
#
#
# Indices 1 2 3 4 5 6 
#
# 1 22.8444 4.4019 12.7381 0.0000 1.9717 0.0000
# 2 4.4019 135.9343 28.0429 0.0000 7.9471 0.0000
# 3 12.7381 28.0429 110.3189 0.0000 -5.0006 0.0000
# 4 0.0000 0.0000 0.0000 38.6731 0.0000 -2.2769
# 5 1.9717 7.9471 -5.0006 0.0000 27.1152 0.0000
# 6 0.0000 0.0000 0.0000 -2.2769 0.0000 28.0091
#
#
#
# Elastic Compliance Matrix: (Units=1/GPa)
#
#
# Indices 1 2 3 4 5 6 
#
# 1 0.047323 -0.000109 -0.005638 0.000000 -0.004449 0.000000
# 2 -0.000109 0.007959 -0.002134 0.000000 -0.002718 0.000000
# 3 -0.005638 -0.002134 0.010392 0.000000 0.002952 0.000000
# 4 0.000000 0.000000 0.000000 0.025982 0.000000 0.002112
# 5 -0.004449 -0.002718 0.002952 0.000000 0.038544 0.000000
# 6 0.000000 0.000000 0.000000 0.002112 0.000000 0.035874
#
#
# Mechanical properties :
#
#
# Convention : Reuss Voigt Hill
#
# Bulk Modulus (GPa) = 20.03524 39.94036 29.98780
# Shear Modulus (GPa) = 25.19212 33.68714 29.43963
#
# Velocity S-wave (km/s) = 3.38993 3.92004 3.66458
# Velocity P-wave (km/s) = 4.94585 6.22158 5.62003
#
# Compressibility (1/GPa) = 0.04991206
#
# Stress axis : x y z
#
# Youngs Moduli (GPa) = 21.13121 125.64158 96.22918
#
# Poissons Ratio (x) = 0.01372 0.54255
# Poissons Ratio (y) = 0.00231 0.20533
# Poissons Ratio (z) = 0.11914 0.26810
#
# Static dielectric constant tensor:
#      x y z
#    x 2.021330 0.000000 -0.083070 
#    y 0.000000 1.758760 0.000000 
#    z -0.083070 0.000000 1.886350 
# 
# From -- ./inp_files/36114.got.cif
#   From: 2010.05.17/outbox.cif.g08.bks.cpg/sg11_19_cif.got.tgz:36114.got - 2010.06.03 12:22:45.
