data_PCOD9166811
_publ_section_title
;
Structure prediction by ZEFSAII (Michael W. Deem and Ramdas Pophale) SiO2 
 PCOD9166811
Probable space group: P 21/M
;
_chemical_formula_sum "Si O2"
_cell_formula_units_Z 28
_cell_length_a 9.693828
_cell_length_b 14.534959
_cell_length_c 11.331323
_cell_angle_alpha 90.000000
_cell_angle_beta 59.448580
_cell_angle_gamma 90.000000
_cell_volume 1374.929115
_symmetry_space_group_name_H-M "P 21/M"
_symmetry_group_IT_number 11
_symmetry_cell_setting 'monoclinic'
loop_
_space_group_symop_operation_xyz
x,y,z
-x,1/2+y,-z
-x,-y,-z
x,1/2-y,z
loop_
_atom_site_type_symbol
_atom_site_label
_atom_site_fract_x
_atom_site_fract_y
_atom_site_fract_z
Si Si1 0.970669 0.638569 0.419901
Si Si2 0.457373 0.497482 0.654616
Si Si3 0.561267 0.897286 0.002960
Si Si4 0.914692 0.533513 0.199612
Si Si5 0.341664 0.146112 0.302104
Si Si6 0.667715 0.146891 0.700528
Si Si7 0.100287 0.139008 0.031005
O O1 0.971855 0.750000 0.399823
O O2 0.930873 0.585150 0.316861
O O3 0.835907 0.618019 0.576991
O O4 0.150557 0.612018 0.378306
O O5 0.500000 0.500000 0.500000
O O6 0.268562 0.491134 0.745484
O O7 0.527562 0.584612 0.691252
O O8 0.551136 0.413723 0.673233
O O9 0.626210 0.859174 0.850999
O O10 0.711615 0.881830 0.025569
O O11 0.407907 0.854059 0.135057
O O12 0.500000 0.000000 0.000000
O O13 0.012175 0.437353 0.151657
O O14 0.955430 0.604612 0.075074
O O15 0.361701 0.250000 0.333591
O O16 0.669180 0.250000 0.654080
O O17 0.073664 0.250000 0.058877
#
# Coordination Sequence:
#
# PCOD9166811 Si02
#       7
#     4   4   4   4   4   4   4
#     4  10  23  43  69 100 133 177 227 276 336 403
#     4  12  25  43  66 100 132 174 224 276 341 399
#     4  12  22  42  69 100 135 174 222 279 342 401
#     4  11  23  42  68  97 135 178 223 280 334 406
#     4  11  24  42  67  98 137 177 221 280 342 403
#     4  11  24  43  70 100 131 177 229 277 331 405
#     4  11  24  41  66 100 136 178 225 280 341 403
#
# _framework density 20.364688000000001
#
# number of rings (size 3 to 8) (size 9 to 14) (size 15 to 20)
#    0.000    0.857    4.286    2.571    0.000    4.571 
#    0.000    1.429    0.000    0.000    0.000    0.000 
#    0.000    0.000    0.000    0.000    0.000    0.000 
#
# Total GULP energy -156341.122596 kJ/mol
# GULP energy per Si atom -5583.611521 kJ/mol
# Density = 2.031834 g / cm^3
# Si number density = 20.364688 Si / 1000 Ang^3
#
#
#
# Elastic Constant Matrix: (Units=GPa)
#
#
# Indices 1 2 3 4 5 6 
#
# 1 88.5664 41.7357 19.5497 0.0000 -21.5225 0.0000
# 2 41.7357 126.0967 15.5456 0.0000 -8.7086 0.0000
# 3 19.5497 15.5456 86.3847 0.0000 2.9207 0.0000
# 4 0.0000 0.0000 0.0000 30.6882 0.0000 9.7258
# 5 -21.5225 -8.7086 2.9207 0.0000 36.8750 0.0000
# 6 0.0000 0.0000 0.0000 9.7258 0.0000 78.1953
#
#
#
# Elastic Compliance Matrix: (Units=1/GPa)
#
#
# Indices 1 2 3 4 5 6 
#
# 1 0.016142 -0.004356 -0.003161 0.000000 0.008643 0.000000
# 2 -0.004356 0.009441 -0.000705 0.000000 -0.000257 0.000000
# 3 -0.003161 -0.000705 0.012520 0.000000 -0.003003 0.000000
# 4 0.000000 0.000000 0.000000 0.033923 0.000000 -0.004219
# 5 0.008643 -0.000257 -0.003003 0.000000 0.032340 0.000000
# 6 0.000000 0.000000 0.000000 -0.004219 0.000000 0.013313
#
#
# Mechanical properties :
#
#
# Convention : Reuss Voigt Hill
#
# Bulk Modulus (GPa) = 46.16979 50.52331 48.34655
# Shear Modulus (GPa) = 35.37485 44.09948 39.73717
#
# Velocity S-wave (km/s) = 4.17234 4.65853 4.42212
# Velocity P-wave (km/s) = 6.77731 7.33478 7.06155
#
# Compressibility (1/GPa) = 0.02165919
#
# Stress axis : x y z
#
# Youngs Moduli (GPa) = 61.95083 105.91773 79.87281
#
# Poissons Ratio (x) = 0.46138 0.25251
# Poissons Ratio (y) = 0.26986 0.05627
# Poissons Ratio (z) = 0.19585 0.07462
#
# Static dielectric constant tensor:
#      x y z
#    x 1.682470 0.000000 0.004450 
#    y 0.000000 1.744450 0.000000 
#    z 0.004450 0.000000 1.759370 
# 
# From -- ./inp_files/31807.got.cif
#   From: 2010.05.17/outbox.cif.g08.bks.cpg/sg11_16_cif.got.tgz:31807.got - 2010.06.03 12:22:45.
