data_PCOD9166851
_publ_section_title
;
Structure prediction by ZEFSAII (Michael W. Deem and Ramdas Pophale) SiO2 
 PCOD9166851
Probable space group: P 21/M
;
_chemical_formula_sum "Si O2"
_cell_formula_units_Z 26
_cell_length_a 7.169164
_cell_length_b 16.912582
_cell_length_c 8.321955
_cell_angle_alpha 90.000000
_cell_angle_beta 105.925091
_cell_angle_gamma 90.000000
_cell_volume 970.304048
_symmetry_space_group_name_H-M "P 21/M"
_symmetry_group_IT_number 11
_symmetry_cell_setting 'monoclinic'
loop_
_space_group_symop_operation_xyz
x,y,z
-x,1/2+y,-z
-x,-y,-z
x,1/2-y,z
loop_
_atom_site_type_symbol
_atom_site_label
_atom_site_fract_x
_atom_site_fract_y
_atom_site_fract_z
Si Si1 0.913168 0.840544 0.484681
Si Si2 0.323665 0.166691 0.113157
Si Si3 0.647050 0.379824 0.449432
Si Si4 0.287578 0.023361 0.749778
Si Si5 0.932657 0.551437 0.802779
Si Si6 0.396042 0.750000 0.054411
Si Si7 0.672756 0.096449 0.807219
O O1 0.838570 0.750000 0.467227
O O2 0.825410 0.896972 0.326487
O O3 0.883545 0.890648 0.641711
O O4 0.146241 0.837388 0.519135
O O5 0.223782 0.250000 0.129558
O O6 0.487793 0.150478 0.286779
O O7 0.164395 0.099106 0.074470
O O8 0.451243 0.183825 0.986410
O O9 0.689716 0.469745 0.405874
O O10 0.578743 0.372485 0.615785
O O11 0.840810 0.032352 0.164716
O O12 0.505046 0.043624 0.846694
O O13 0.831958 0.466174 0.785891
O O14 0.264404 0.676832 0.091589
#
# Coordination Sequence:
#
# PCOD9166851 Si02
#       7
#     4   4   4   4   4   2   4
#     4  11  22  35  64 112 152 165 219 290 341 400
#     4  10  23  45  67  99 136 180 232 278 340 403
#     4  11  20  40  73 104 132 181 230 278 340 414
#     4  11  22  39  65 112 136 169 230 284 340 413
#     4  11  21  42  71  94 139 180 225 273 342 408
#     4  10  30  44  66 100 140 182 234 290 340 402
#     4  12  23  43  72 102 136 176 227 286 348 399
#
# _framework density 26.795724
#
# number of rings (size 3 to 8) (size 9 to 14) (size 15 to 20)
#    0.462    0.615    4.615    3.231    3.231    0.615 
#    0.000    0.769   10.154    0.000    0.000    0.000 
#    0.000    0.000    0.000    0.000    0.000    0.000 
#
# Total GULP energy -144981.749801 kJ/mol
# GULP energy per Si atom -5576.221146 kJ/mol
# Density = 2.673474 g / cm^3
# Si number density = 26.795724 Si / 1000 Ang^3
#
#
#
# Elastic Constant Matrix: (Units=GPa)
#
#
# Indices 1 2 3 4 5 6 
#
# 1 130.3246 50.1793 12.2163 0.0000 -0.1951 0.0000
# 2 50.1793 195.1868 39.4184 0.0000 -7.6900 0.0000
# 3 12.2163 39.4184 47.9744 0.0000 6.0527 0.0000
# 4 0.0000 0.0000 0.0000 101.0231 0.0000 -7.1995
# 5 -0.1951 -7.6900 6.0527 0.0000 32.3219 0.0000
# 6 0.0000 0.0000 0.0000 -7.1995 0.0000 32.5776
#
#
#
# Elastic Compliance Matrix: (Units=1/GPa)
#
#
# Indices 1 2 3 4 5 6 
#
# 1 0.008529 -0.002133 -0.000370 0.000000 -0.000387 0.000000
# 2 -0.002133 0.006874 -0.005438 0.000000 0.002641 0.000000
# 3 -0.000370 -0.005438 0.026189 0.000000 -0.006200 0.000000
# 4 0.000000 0.000000 0.000000 0.010057 0.000000 0.002223
# 5 -0.000387 0.002641 -0.006200 0.000000 0.032726 0.000000
# 6 0.000000 0.000000 0.000000 0.002223 0.000000 0.031187
#
#
# Mechanical properties :
#
#
# Convention : Reuss Voigt Hill
#
# Bulk Modulus (GPa) = 38.89703 64.12374 51.51038
# Shear Modulus (GPa) = 35.71067 51.29597 43.50332
#
# Velocity S-wave (km/s) = 3.65458 4.38006 4.03366
# Velocity P-wave (km/s) = 5.68819 7.04006 6.39992
#
# Compressibility (1/GPa) = 0.02570891
#
# Stress axis : x y z
#
# Youngs Moduli (GPa) = 117.25317 145.47743 38.18369
#
# Poissons Ratio (x) = 0.31030 0.01414
# Poissons Ratio (y) = 0.25010 0.20764
# Poissons Ratio (z) = 0.04343 0.79111
#
# Static dielectric constant tensor:
#      x y z
#    x 2.063140 0.000000 -0.003670 
#    y 0.000000 2.068860 0.000000 
#    z -0.003670 0.000000 2.192810 
# 
# From -- ./inp_files/13549.got.cif
#   From: 2010.05.17/outbox.cif.g08.bks.cpg/sg11_7_cif.got.tgz:13549.got - 2010.06.03 12:22:45.
