data_PCOD9166070
_publ_section_title
;
Structure prediction by ZEFSAII (Michael W. Deem and Ramdas Pophale) SiO2 
 PCOD9166070
Probable space group: P 21/M
;
_chemical_formula_sum "Si O2"
_cell_formula_units_Z 24
_cell_length_a 12.450461
_cell_length_b 10.882853
_cell_length_c 9.031487
_cell_angle_alpha 90.000000
_cell_angle_beta 99.088242
_cell_angle_gamma 90.000000
_cell_volume 1208.372736
_symmetry_space_group_name_H-M "P 21/M"
_symmetry_group_IT_number 11
_symmetry_cell_setting 'monoclinic'
loop_
_space_group_symop_operation_xyz
x,y,z
-x,1/2+y,-z
-x,-y,-z
x,1/2-y,z
loop_
_atom_site_type_symbol
_atom_site_label
_atom_site_fract_x
_atom_site_fract_y
_atom_site_fract_z
Si Si1 0.444488 0.003414 0.325397
Si Si2 0.231442 0.750000 0.599409
Si Si3 0.034445 0.524759 0.172065
Si Si4 0.536393 0.250000 0.191990
Si Si5 0.114760 0.005729 0.610680
Si Si6 0.801759 0.250000 0.754568
Si Si7 0.220664 0.111317 0.361359
Si Si8 0.427486 0.750000 0.153099
O O1 0.482478 0.123829 0.241949
O O2 0.315589 0.021964 0.325799
O O3 0.500000 0.000000 0.500000
O O4 0.466193 0.875710 0.243290
O O5 0.344092 0.750000 0.709581
O O6 0.164616 0.870769 0.627229
O O7 0.244513 0.750000 0.423709
O O8 0.118028 0.635703 0.208615
O O9 0.106552 0.412940 0.253405
O O10 0.924313 0.550463 0.239326
O O11 0.000000 0.500000 0.000000
O O12 0.542702 0.250000 0.014268
O O13 0.195301 0.085588 0.528406
O O14 0.000000 0.000000 0.500000
O O15 0.703145 0.250000 0.848599
O O16 0.257314 0.250000 0.347728
#
# Coordination Sequence:
#
# PCOD9166070 Si02
#       8
#     4   2   4   2   4   2   4   2
#     4  12  24  48  75 104 133 189 238 288 352 422
#     4  12  22  44  69  97 129 181 235 282 341 416
#     4  11  26  39  63  96 136 179 218 269 347 414
#     4  12  28  44  75 105 141 183 235 296 368 414
#     4  10  22  37  64  94 127 169 222 273 328 398
#     4  12  22  44  64  91 133 181 221 277 333 419
#     4  11  23  41  66  95 133 170 225 286 330 399
#     4  12  26  46  70 103 147 175 229 301 356 415
#
# _framework density 19.861422000000001
#
# number of rings (size 3 to 8) (size 9 to 14) (size 15 to 20)
#    0.000    0.667    5.833    3.000    9.333    0.000 
#    0.000    0.000    0.000    0.000    0.000    0.000 
#    0.000    0.000    0.000    0.000    0.000    0.000 
#
# Total GULP energy -134037.643482 kJ/mol
# GULP energy per Si atom -5584.901812 kJ/mol
# Density = 1.981622 g / cm^3
# Si number density = 19.861422 Si / 1000 Ang^3
#
#
#
# Elastic Constant Matrix: (Units=GPa)
#
#
# Indices 1 2 3 4 5 6 
#
# 1 90.0461 37.4734 48.5319 0.0000 -11.6869 0.0000
# 2 37.4734 141.8814 57.2874 0.0000 -6.0260 0.0000
# 3 48.5319 57.2874 177.2004 0.0000 -16.1659 0.0000
# 4 0.0000 0.0000 0.0000 14.0199 0.0000 -10.1034
# 5 -11.6869 -6.0260 -16.1659 0.0000 30.7814 0.0000
# 6 0.0000 0.0000 0.0000 -10.1034 0.0000 34.0401
#
#
#
# Elastic Compliance Matrix: (Units=1/GPa)
#
#
# Indices 1 2 3 4 5 6 
#
# 1 0.014049 -0.002459 -0.002742 0.000000 0.003413 0.000000
# 2 -0.002459 0.008538 -0.002121 0.000000 -0.000376 0.000000
# 3 -0.002742 -0.002121 0.007297 0.000000 0.002376 0.000000
# 4 0.000000 0.000000 0.000000 0.090735 0.000000 0.026931
# 5 0.003413 -0.000376 0.002376 0.000000 0.034957 0.000000
# 6 0.000000 0.000000 0.000000 0.026931 0.000000 0.037371
#
#
# Mechanical properties :
#
#
# Convention : Reuss Voigt Hill
#
# Bulk Modulus (GPa) = 65.61247 77.30146 71.45697
# Shear Modulus (GPa) = 23.51061 33.49062 28.50062
#
# Velocity S-wave (km/s) = 3.44427 4.11081 3.79221
# Velocity P-wave (km/s) = 6.99458 7.84452 7.43172
#
# Compressibility (1/GPa) = 0.01524100
#
# Stress axis : x y z
#
# Youngs Moduli (GPa) = 71.17831 117.12301 137.04811
#
# Poissons Ratio (x) = 0.28797 0.37573
# Poissons Ratio (y) = 0.17501 0.29070
# Poissons Ratio (z) = 0.19514 0.24844
#
# Static dielectric constant tensor:
#      x y z
#    x 1.681230 0.000000 -0.031770 
#    y 0.000000 1.654660 0.000000 
#    z -0.031770 0.000000 1.708620 
# 
# From -- ./inp_files/16999.got.cif
#   From: 2010.05.17/outbox.cif.g08.bks.cpg/sg11_9_cif.got.tgz:16999.got - 2010.06.03 12:22:45.
