data_PCOD9166859
_publ_section_title
;
Structure prediction by ZEFSAII (Michael W. Deem and Ramdas Pophale) SiO2 
 PCOD9166859
Probable space group: P 21/M
;
_chemical_formula_sum "Si O2"
_cell_formula_units_Z 20
_cell_length_a 16.472907
_cell_length_b 13.137094
_cell_length_c 5.573419
_cell_angle_alpha 90.000000
_cell_angle_beta 50.165694
_cell_angle_gamma 90.000000
_cell_volume 926.181245
_symmetry_space_group_name_H-M "P 21/M"
_symmetry_group_IT_number 11
_symmetry_cell_setting 'monoclinic'
loop_
_space_group_symop_operation_xyz
x,y,z
-x,1/2+y,-z
-x,-y,-z
x,1/2-y,z
loop_
_atom_site_type_symbol
_atom_site_label
_atom_site_fract_x
_atom_site_fract_y
_atom_site_fract_z
Si Si1 0.412618 0.040263 0.853556
Si Si2 0.251656 0.750000 0.782712
Si Si3 0.267643 0.368785 0.762935
Si Si4 0.872489 0.250000 0.482437
Si Si5 0.377257 0.566334 0.333658
Si Si6 0.975586 0.941543 0.794627
O O1 0.324741 0.113541 0.912619
O O2 0.497792 0.088652 0.874262
O O3 0.500000 0.000000 0.500000
O O4 0.359950 0.942269 0.080898
O O5 0.174199 0.750000 0.698202
O O6 0.319035 0.649153 0.601399
O O7 0.202759 0.750000 0.140156
O O8 0.278280 0.250000 0.673186
O O9 0.330499 0.455761 0.496970
O O10 0.145608 0.402504 0.984904
O O11 0.945807 0.347622 0.360083
O O12 0.000000 0.000000 0.500000
O O13 0.000000 0.000000 0.000000
#
# Coordination Sequence:
#
# PCOD9166859 Si02
#       6
#     4   2   4   2   4   4
#     4   9  22  44  68  99 145 182 246 294 363 432
#     4  12  28  44  83  99 153 191 250 294 380 434
#     4  11  24  44  72 106 142 193 239 304 368 436
#     4  12  26  50  65 117 133 195 246 300 358 440
#     4  10  23  46  68 108 142 194 238 303 364 449
#     4  12  27  48  76 102 149 191 245 306 363 429
#
# _framework density 21.594045999999999
#
# number of rings (size 3 to 8) (size 9 to 14) (size 15 to 20)
#    0.000    1.200    1.000    3.600   12.600    0.800 
#   14.400    0.000    0.000    0.000    0.000    0.000 
#    0.000    0.000    0.000    0.000    0.000    0.000 
#
# Total GULP energy -111409.806360 kJ/mol
# GULP energy per Si atom -5570.490318 kJ/mol
# Density = 2.154490 g / cm^3
# Si number density = 21.594046 Si / 1000 Ang^3
#
#
#
# Elastic Constant Matrix: (Units=GPa)
#
#
# Indices 1 2 3 4 5 6 
#
# 1 121.8541 48.8888 27.2097 0.0000 -12.2954 0.0000
# 2 48.8888 147.4944 65.5775 0.0000 -1.2738 0.0000
# 3 27.2097 65.5775 109.5255 0.0000 -4.6641 0.0000
# 4 0.0000 0.0000 0.0000 27.7873 0.0000 0.6110
# 5 -12.2954 -1.2738 -4.6641 0.0000 38.6526 0.0000
# 6 0.0000 0.0000 0.0000 0.6110 0.0000 30.4115
#
#
#
# Elastic Compliance Matrix: (Units=1/GPa)
#
#
# Indices 1 2 3 4 5 6 
#
# 1 0.009825 -0.003001 -0.000518 0.000000 0.002964 0.000000
# 2 -0.003001 0.010161 -0.005393 0.000000 -0.001270 0.000000
# 3 -0.000518 -0.005393 0.012538 0.000000 0.001170 0.000000
# 4 0.000000 0.000000 0.000000 0.036004 0.000000 -0.000723
# 5 0.002964 -0.001270 0.001170 0.000000 0.026914 0.000000
# 6 0.000000 0.000000 0.000000 -0.000723 0.000000 0.032897
#
#
# Mechanical properties :
#
#
# Convention : Reuss Voigt Hill
#
# Bulk Modulus (GPa) = 68.02100 73.58068 70.80084
# Shear Modulus (GPa) = 33.09919 35.18348 34.14134
#
# Velocity S-wave (km/s) = 3.91934 4.04085 3.98056
# Velocity P-wave (km/s) = 7.21456 7.47796 7.34744
#
# Compressibility (1/GPa) = 0.01470134
#
# Stress axis : x y z
#
# Youngs Moduli (GPa) = 101.77895 98.41389 79.76040
#
# Poissons Ratio (x) = 0.29532 0.04131
# Poissons Ratio (y) = 0.30542 0.43011
# Poissons Ratio (z) = 0.05272 0.53070
#
# Static dielectric constant tensor:
#      x y z
#    x 1.669100 0.000000 0.320010 
#    y 0.000000 2.384950 0.000000 
#    z 0.320010 0.000000 1.756850 
# 
# From -- ./inp_files/7647.got.cif
#   From: 2010.05.17/outbox.cif.g08.bks.cpg/sg11_4_cif.got.tgz:7647.got - 2010.06.03 12:22:45.
