data_PCOD9166024
_publ_section_title
;
Structure prediction by ZEFSAII (Michael W. Deem and Ramdas Pophale) SiO2 
 PCOD9166024
Probable space group: P 21/M
;
_chemical_formula_sum "Si O2"
_cell_formula_units_Z 20
_cell_length_a 9.756626
_cell_length_b 9.559282
_cell_length_c 9.984197
_cell_angle_alpha 90.000000
_cell_angle_beta 99.021654
_cell_angle_gamma 90.000000
_cell_volume 919.669898
_symmetry_space_group_name_H-M "P 21/M"
_symmetry_group_IT_number 11
_symmetry_cell_setting 'monoclinic'
loop_
_space_group_symop_operation_xyz
x,y,z
-x,1/2+y,-z
-x,-y,-z
x,1/2-y,z
loop_
_atom_site_type_symbol
_atom_site_label
_atom_site_fract_x
_atom_site_fract_y
_atom_site_fract_z
Si Si1 0.956271 0.250000 0.214948
Si Si2 0.613122 0.949263 0.867705
Si Si3 0.538839 0.250000 0.788043
Si Si4 0.722414 0.750000 0.108724
Si Si5 0.851656 0.498126 0.718274
Si Si6 0.365660 0.750000 0.764945
Si Si7 0.279077 0.750000 0.447653
Si Si8 0.028001 0.750000 0.098245
O O1 0.789903 0.250000 0.200706
O O2 0.028746 0.388544 0.287103
O O3 0.994880 0.250000 0.063251
O O4 0.463961 0.879533 0.820070
O O5 0.592325 0.113958 0.872307
O O6 0.715089 0.925580 0.756441
O O7 0.682809 0.880636 0.007533
O O8 0.373394 0.250000 0.775850
O O9 0.603332 0.250000 0.650501
O O10 0.884037 0.750000 0.156136
O O11 0.810159 0.390769 0.594047
O O12 0.895592 0.390465 0.843445
O O13 0.343522 0.750000 0.602538
#
# Coordination Sequence:
#
# PCOD9166024 Si02
#       8
#     2   4   2   2   4   2   2   2
#     4  12  23  39  64  99 120 167 200 250 308 369
#     4  10  22  42  60  94 125 160 204 254 303 366
#     4  10  22  35  65  89 122 160 200 246 313 353
#     4  11  21  36  62  92 133 158 194 253 307 370
#     4  10  22  42  66  88 129 163 201 246 315 363
#     4  11  26  41  65  88 125 158 218 257 299 354
#     4   9  23  47  63  86 120 167 209 261 297 359
#     4  11  23  38  65  94 132 160 197 245 308 383
#
# _framework density 21.746932000000001
#
# number of rings (size 3 to 8) (size 9 to 14) (size 15 to 20)
#    0.000    1.600    2.000    2.400    2.800   10.400 
#    0.000    1.000    8.800    0.000    0.000    0.000 
#    0.000    0.000    0.000    0.000    0.000    0.000 
#
# Total GULP energy -111813.089961 kJ/mol
# GULP energy per Si atom -5590.654498 kJ/mol
# Density = 2.169744 g / cm^3
# Si number density = 21.746932 Si / 1000 Ang^3
#
#
#
# Elastic Constant Matrix: (Units=GPa)
#
#
# Indices 1 2 3 4 5 6 
#
# 1 165.8765 45.6192 -5.3398 0.0000 6.3552 0.0000
# 2 45.6192 149.2046 12.5887 0.0000 5.0860 0.0000
# 3 -5.3398 12.5887 45.3265 0.0000 8.8011 0.0000
# 4 0.0000 0.0000 0.0000 -12.7691 0.0000 -20.9395
# 5 6.3552 5.0860 8.8011 0.0000 16.8857 0.0000
# 6 0.0000 0.0000 0.0000 -20.9395 0.0000 -12.6001
#
#
#
# Elastic Compliance Matrix: (Units=1/GPa)
#
#
# Indices 1 2 3 4 5 6 
#
# 1 0.006794 -0.002143 0.001966 0.000000 -0.002936 0.000000
# 2 -0.002143 0.007561 -0.002299 0.000000 -0.000272 0.000000
# 3 0.001966 -0.002299 0.025525 0.000000 -0.013351 0.000000
# 4 0.000000 0.000000 0.000000 0.045394 0.000000 -0.075439
# 5 -0.002936 -0.000272 -0.013351 0.000000 0.067368 0.000000
# 6 0.000000 0.000000 0.000000 -0.075439 0.000000 0.046003
#
#
# Mechanical properties :
#
#
# Convention : Reuss Voigt Hill
#
# Bulk Modulus (GPa) = 28.63233 51.79377 40.21305
# Shear Modulus (GPa) = 23.22992 18.80594 21.01793
#
# Velocity S-wave (km/s) = 3.27187 2.94388 3.11220
# Velocity P-wave (km/s) = 5.24101 5.95176 5.60766
#
# Compressibility (1/GPa) = 0.03492555
#
# Stress axis : x y z
#
# Youngs Moduli (GPa) = 147.19554 132.26304 39.17765
#
# Poissons Ratio (x) = 0.28343 -0.07701
# Poissons Ratio (y) = 0.31543 0.09009
# Poissons Ratio (z) = -0.28932 0.30413
#
# Static dielectric constant tensor:
#      x y z
#    x 1.834200 0.000000 -0.032330 
#    y 0.000000 1.837580 0.000000 
#    z -0.032330 0.000000 1.733800 
# 
# From -- ./inp_files/30667.got.cif
#   From: 2010.05.17/outbox.cif.g08.bks.cpg/sg11_16_cif.got.tgz:30667.got - 2010.06.03 12:22:45.
