data_PCOD9166693
_publ_section_title
;
Structure prediction by ZEFSAII (Michael W. Deem and Ramdas Pophale) SiO2 
 PCOD9166693
Probable space group: P 21/M
;
_chemical_formula_sum "Si O2"
_cell_formula_units_Z 28
_cell_length_a 8.297583
_cell_length_b 26.461175
_cell_length_c 8.904588
_cell_angle_alpha 90.000000
_cell_angle_beta 44.626038
_cell_angle_gamma 90.000000
_cell_volume 1373.429584
_symmetry_space_group_name_H-M "P 21/M"
_symmetry_group_IT_number 11
_symmetry_cell_setting 'monoclinic'
loop_
_space_group_symop_operation_xyz
x,y,z
-x,1/2+y,-z
-x,-y,-z
x,1/2-y,z
loop_
_atom_site_type_symbol
_atom_site_label
_atom_site_fract_x
_atom_site_fract_y
_atom_site_fract_z
Si Si1 0.159485 0.868516 0.803634
Si Si2 0.838557 0.545014 0.658669
Si Si3 0.147217 0.308560 0.801090
Si Si4 0.908074 0.123792 0.708758
Si Si5 0.234379 0.448447 0.938898
Si Si6 0.584962 0.137412 0.663830
Si Si7 0.660410 0.056756 0.124061
O O1 0.217752 0.862556 0.592687
O O2 0.373184 0.896524 0.739344
O O3 0.063797 0.818354 0.942899
O O4 0.964372 0.909727 0.978452
O O5 0.582967 0.537922 0.771172
O O6 0.000000 0.500000 0.500000
O O7 0.938410 0.595113 0.515378
O O8 0.818376 0.546648 0.850208
O O9 0.175006 0.250000 0.746843
O O10 0.378401 0.328335 0.732465
O O11 0.062463 0.339741 0.710546
O O12 0.701165 0.149166 0.748291
O O13 0.797398 0.081510 0.893350
O O14 0.470115 0.418122 0.755200
O O15 0.240246 0.504953 0.871323
#
# Coordination Sequence:
#
# PCOD9166693 Si02
#       7
#     4   4   4   4   4   4   4
#     4  10  23  40  61  87 123 160 205 257 310 365
#     4  12  21  34  58  90 129 170 210 246 295 363
#     4  10  25  46  65  91 118 149 207 269 316 376
#     4  11  22  40  66  90 126 168 207 250 311 371
#     4  11  21  35  57  90 129 168 212 244 291 364
#     4  11  22  41  65  90 124 164 199 256 313 365
#     4  11  22  36  56  90 128 174 209 245 295 360
#
# _framework density 20.386918999999999
#
# number of rings (size 3 to 8) (size 9 to 14) (size 15 to 20)
#    0.000    1.143    4.286    2.571    0.000    1.714 
#    0.000    0.000    0.000    0.000    0.000    0.000 
#    0.000    0.000    0.000    0.000    0.000    0.000 
#
# Total GULP energy -156145.434847 kJ/mol
# GULP energy per Si atom -5576.622673 kJ/mol
# Density = 2.034052 g / cm^3
# Si number density = 20.386919 Si / 1000 Ang^3
#
#
#
# Elastic Constant Matrix: (Units=GPa)
#
#
# Indices 1 2 3 4 5 6 
#
# 1 102.6507 34.9774 3.0578 0.0000 -1.5720 0.0000
# 2 34.9774 100.3679 11.1265 0.0000 -8.2357 0.0000
# 3 3.0578 11.1265 54.0374 0.0000 9.4472 0.0000
# 4 0.0000 0.0000 0.0000 16.3883 0.0000 -1.2092
# 5 -1.5720 -8.2357 9.4472 0.0000 28.4106 0.0000
# 6 0.0000 0.0000 0.0000 -1.2092 0.0000 24.3051
#
#
#
# Elastic Compliance Matrix: (Units=1/GPa)
#
#
# Indices 1 2 3 4 5 6 
#
# 1 0.011066 -0.003941 0.000295 0.000000 -0.000628 0.000000
# 2 -0.003941 0.012019 -0.002997 0.000000 0.004262 0.000000
# 3 0.000295 -0.002997 0.020444 0.000000 -0.007650 0.000000
# 4 0.000000 0.000000 0.000000 0.061244 0.000000 0.003047
# 5 -0.000628 0.004262 -0.007650 0.000000 0.038943 0.000000
# 6 0.000000 0.000000 0.000000 0.003047 0.000000 0.041295
#
#
# Mechanical properties :
#
#
# Convention : Reuss Voigt Hill
#
# Bulk Modulus (GPa) = 33.06530 39.48662 36.27596
# Shear Modulus (GPa) = 23.99499 27.68041 25.83770
#
# Velocity S-wave (km/s) = 3.43444 3.68877 3.56387
# Velocity P-wave (km/s) = 5.65519 6.12808 5.89638
#
# Compressibility (1/GPa) = 0.03024319
#
# Stress axis : x y z
#
# Youngs Moduli (GPa) = 90.36589 83.20415 48.91512
#
# Poissons Ratio (x) = 0.32788 -0.01443
# Poissons Ratio (y) = 0.35610 0.14659
# Poissons Ratio (z) = -0.02666 0.24935
#
# Static dielectric constant tensor:
#      x y z
#    x 1.969970 0.000000 -0.006100 
#    y 0.000000 1.785010 0.000000 
#    z -0.006100 0.000000 1.745070 
# 
# From -- ./inp_files/15261.got.cif
#   From: 2010.05.17/outbox.cif.g08.bks.cpg/sg11_8_cif.got.tgz:15261.got - 2010.06.03 12:22:45.
