data_PCOD9166945
_publ_section_title
;
Structure prediction by ZEFSAII (Michael W. Deem and Ramdas Pophale) SiO2 
 PCOD9166945
Probable space group: P 21/M
;
_chemical_formula_sum "Si O2"
_cell_formula_units_Z 14
_cell_length_a 15.082569
_cell_length_b 8.010225
_cell_length_c 13.620491
_cell_angle_alpha 90.000000
_cell_angle_beta 160.824740
_cell_angle_gamma 90.000000
_cell_volume 540.497580
_symmetry_space_group_name_H-M "P 21/M"
_symmetry_group_IT_number 11
_symmetry_cell_setting 'monoclinic'
loop_
_space_group_symop_operation_xyz
x,y,z
-x,1/2+y,-z
-x,-y,-z
x,1/2-y,z
loop_
_atom_site_type_symbol
_atom_site_label
_atom_site_fract_x
_atom_site_fract_y
_atom_site_fract_z
Si Si1 0.490366 0.067145 0.253331
Si Si2 0.354397 0.250000 0.927594
Si Si3 0.793399 0.250000 0.218410
Si Si4 0.765786 0.750000 0.489018
Si Si5 0.225341 0.552315 0.159128
O O1 0.615985 0.250000 0.402076
O O2 0.705067 0.919115 0.484872
O O3 0.258147 0.037867 0.088997
O O4 0.362649 0.090316 0.009779
O O5 0.086292 0.250000 0.583519
O O6 0.629459 0.250000 0.154431
O O7 0.961897 0.250000 0.288492
O O8 0.498603 0.250000 0.856876
O O9 0.500000 0.500000 0.500000
O O10 0.212457 0.750000 0.128293
O O11 0.000000 0.500000 0.000000
#
# Coordination Sequence:
#
# PCOD9166945 Si02
#       5
#     4   2   2   2   4
#     4  10  24  48  67 107 138 185 233 290 351 424
#     4   9  24  42  68 101 138 183 234 294 344 417
#     4  10  24  44  70 100 136 188 238 286 354 410
#     4  11  24  44  70  95 142 185 232 292 348 413
#     4  12  26  48  77 110 147 191 239 300 364 438
#
# _framework density 25.902058
#
# number of rings (size 3 to 8) (size 9 to 14) (size 15 to 20)
#    0.857    0.571    1.429    2.571    0.000   13.714 
#    0.000    0.000    0.000    0.000    0.000    0.000 
#    0.000    0.000    0.000    0.000    0.000    0.000 
#
# Total GULP energy -77955.290787 kJ/mol
# GULP energy per Si atom -5568.235056 kJ/mol
# Density = 2.584310 g / cm^3
# Si number density = 25.902058 Si / 1000 Ang^3
#
#
#
# Elastic Constant Matrix: (Units=GPa)
#
#
# Indices 1 2 3 4 5 6 
#
# 1 204.4490 36.4270 72.8729 0.0000 51.8383 0.0000
# 2 36.4270 136.8186 3.7038 0.0000 3.2444 0.0000
# 3 72.8729 3.7038 179.0565 0.0000 57.1820 0.0000
# 4 0.0000 0.0000 0.0000 81.9935 0.0000 -45.0517
# 5 51.8383 3.2444 57.1820 0.0000 51.0999 0.0000
# 6 0.0000 0.0000 0.0000 -45.0517 0.0000 100.4677
#
#
#
# Elastic Compliance Matrix: (Units=1/GPa)
#
#
# Indices 1 2 3 4 5 6 
#
# 1 0.007047 -0.001709 -0.000909 0.000000 -0.006023 0.000000
# 2 -0.001709 0.007734 0.000216 0.000000 0.001001 0.000000
# 3 -0.000909 0.000216 0.008808 0.000000 -0.008947 0.000000
# 4 0.000000 0.000000 0.000000 0.016183 0.000000 0.007257
# 5 -0.006023 0.001001 -0.008947 0.000000 0.035628 0.000000
# 6 0.000000 0.000000 0.000000 0.007257 0.000000 0.013208
#
#
# Mechanical properties :
#
#
# Convention : Reuss Voigt Hill
#
# Bulk Modulus (GPa) = 53.23504 82.92575 68.08039
# Shear Modulus (GPa) = 50.16356 73.86689 62.01522
#
# Velocity S-wave (km/s) = 4.40553 5.34600 4.89839
# Velocity P-wave (km/s) = 6.81728 8.37800 7.63761
#
# Compressibility (1/GPa) = 0.01878462
#
# Stress axis : x y z
#
# Youngs Moduli (GPa) = 141.90887 129.29400 113.53577
#
# Poissons Ratio (x) = 0.22093 0.10323
# Poissons Ratio (y) = 0.24248 -0.02450
# Poissons Ratio (z) = 0.12903 -0.02790
#
# Static dielectric constant tensor:
#      x y z
#    x 2.118940 0.000000 -0.165580 
#    y 0.000000 2.211420 0.000000 
#    z -0.165580 0.000000 2.003180 
# 
# From -- ./inp_files/51476.got.cif
#   From: 2010.05.17/outbox.cif.g08.bks.cpg/sg11_26_cif.got.tgz:51476.got - 2010.06.03 12:22:45.
