data_PCOD9166912
_publ_section_title
;
Structure prediction by ZEFSAII (Michael W. Deem and Ramdas Pophale) SiO2 
 PCOD9166912
Probable space group: P 21/M
;
_chemical_formula_sum "Si O2"
_cell_formula_units_Z 22
_cell_length_a 7.759165
_cell_length_b 9.656928
_cell_length_c 14.861822
_cell_angle_alpha 90.000000
_cell_angle_beta 119.194040
_cell_angle_gamma 90.000000
_cell_volume 972.135401
_symmetry_space_group_name_H-M "P 21/M"
_symmetry_group_IT_number 11
_symmetry_cell_setting 'monoclinic'
loop_
_space_group_symop_operation_xyz
x,y,z
-x,1/2+y,-z
-x,-y,-z
x,1/2-y,z
loop_
_atom_site_type_symbol
_atom_site_label
_atom_site_fract_x
_atom_site_fract_y
_atom_site_fract_z
Si Si1 0.803769 0.599049 0.723278
Si Si2 0.448343 0.411016 0.898185
Si Si3 0.550865 0.250000 0.545736
Si Si4 0.135388 0.592723 0.097517
Si Si5 0.829804 0.409116 0.299831
Si Si6 0.642428 0.470603 0.437726
O O1 0.848797 0.750000 0.777956
O O2 0.856155 0.475544 0.802779
O O3 0.571773 0.595317 0.645213
O O4 0.942749 0.592801 0.671850
O O5 0.397674 0.250000 0.905905
O O6 0.645018 0.408595 0.887253
O O7 0.283995 0.490850 0.798413
O O8 0.500000 0.500000 0.000000
O O9 0.688796 0.372282 0.533644
O O10 0.410378 0.372545 0.553134
O O11 0.064377 0.750000 0.083119
O O12 0.000000 0.500000 0.000000
O O13 0.756302 0.250000 0.270556
O O14 0.786304 0.454383 0.390183
#
# Coordination Sequence:
#
# PCOD9166912 Si02
#       6
#     4   4   2   4   4   4
#     4  11  23  40  65  94 128 172 215 258 320 383
#     4  11  24  40  61  92 130 171 217 264 314 374
#     4  10  24  42  74  94 128 168 216 262 338 394
#     4  11  24  40  61  92 130 171 217 264 314 374
#     4  11  23  40  65  94 128 172 215 258 320 383
#     4  11  22  46  66  98 130 170 208 274 326 381
#
# _framework density 22.630590999999999
#
# number of rings (size 3 to 8) (size 9 to 14) (size 15 to 20)
#    0.000    1.091    3.636    2.182    2.545    7.273 
#    0.000    5.455    0.000    0.000    0.000    0.000 
#    0.000    0.000    0.000    0.000    0.000    0.000 
#
# Total GULP energy -122565.440093 kJ/mol
# GULP energy per Si atom -5571.156368 kJ/mol
# Density = 2.257908 g / cm^3
# Si number density = 22.630591 Si / 1000 Ang^3
#
#
#
# Elastic Constant Matrix: (Units=GPa)
#
#
# Indices 1 2 3 4 5 6 
#
# 1 86.5783 28.5573 27.9675 0.0000 -21.8540 0.0000
# 2 28.5573 251.2770 41.2967 0.0000 -13.5483 0.0000
# 3 27.9675 41.2967 52.2706 0.0000 -18.6503 0.0000
# 4 0.0000 0.0000 0.0000 184.7771 0.0000 1.1006
# 5 -21.8540 -13.5483 -18.6503 0.0000 48.7066 0.0000
# 6 0.0000 0.0000 0.0000 1.1006 0.0000 32.7827
#
#
#
# Elastic Compliance Matrix: (Units=1/GPa)
#
#
# Indices 1 2 3 4 5 6 
#
# 1 0.014695 -0.000457 -0.006016 0.000000 0.004163 0.000000
# 2 -0.000457 0.004588 -0.003473 0.000000 -0.000258 0.000000
# 3 -0.006016 -0.003473 0.027550 0.000000 0.006884 0.000000
# 4 0.000000 0.000000 0.000000 0.005413 0.000000 -0.000182
# 5 0.004163 -0.000258 0.006884 0.000000 0.024963 0.000000
# 6 0.000000 0.000000 0.000000 -0.000182 0.000000 0.030510
#
#
# Mechanical properties :
#
#
# Convention : Reuss Voigt Hill
#
# Bulk Modulus (GPa) = 37.11759 65.08544 51.10152
# Shear Modulus (GPa) = 36.60521 72.74023 54.67272
#
# Velocity S-wave (km/s) = 4.02619 5.67558 4.92049
# Velocity P-wave (km/s) = 6.16853 8.47184 7.41022
#
# Compressibility (1/GPa) = 0.02694140
#
# Stress axis : x y z
#
# Youngs Moduli (GPa) = 68.04958 217.94004 36.29728
#
# Poissons Ratio (x) = 0.09957 0.21838
# Poissons Ratio (y) = 0.03109 0.12606
# Poissons Ratio (z) = 0.40942 0.75688
#
# Static dielectric constant tensor:
#      x y z
#    x 1.842760 0.000000 0.035320 
#    y 0.000000 1.917670 0.000000 
#    z 0.035320 0.000000 1.928930 
# 
# From -- ./inp_files/46594.got.cif
#   From: 2010.05.17/outbox.cif.g08.bks.cpg/sg11_24_cif.got.tgz:46594.got - 2010.06.03 12:22:45.
