data_PCOD9166575
_publ_section_title
;
Structure prediction by ZEFSAII (Michael W. Deem and Ramdas Pophale) SiO2 
 PCOD9166575
Probable space group: P 21/M
;
_chemical_formula_sum "Si O2"
_cell_formula_units_Z 18
_cell_length_a 6.828811
_cell_length_b 15.051304
_cell_length_c 7.005163
_cell_angle_alpha 90.000000
_cell_angle_beta 113.425088
_cell_angle_gamma 90.000000
_cell_volume 660.665620
_symmetry_space_group_name_H-M "P 21/M"
_symmetry_group_IT_number 11
_symmetry_cell_setting 'monoclinic'
loop_
_space_group_symop_operation_xyz
x,y,z
-x,1/2+y,-z
-x,-y,-z
x,1/2-y,z
loop_
_atom_site_type_symbol
_atom_site_label
_atom_site_fract_x
_atom_site_fract_y
_atom_site_fract_z
Si Si1 0.489210 0.606982 0.978787
Si Si2 0.827925 0.750000 0.177039
Si Si3 0.139910 0.911539 0.313098
Si Si4 0.965043 0.401372 0.279306
Si Si5 0.562951 0.650964 0.563683
O O1 0.552708 0.629191 0.784466
O O2 0.241448 0.633783 0.909754
O O3 0.500000 0.500000 0.000000
O O4 0.649543 0.670629 0.153719
O O5 0.003779 0.828256 0.194125
O O6 0.395720 0.909639 0.383089
O O7 0.116640 0.910276 0.535621
O O8 0.033583 0.004321 0.219858
O O9 0.186354 0.349759 0.381847
O O10 0.475689 0.750000 0.509386
#
# Coordination Sequence:
#
# PCOD9166575 Si02
#       5
#     4   2   4   4   4
#     4  11  24  44  64  91 133 170 206 263 319 378
#     4  12  22  42  64  92 130 170 212 258 322 376
#     4  10  22  43  64  90 129 165 212 266 313 374
#     4  10  23  42  67  91 123 172 212 259 320 374
#     4  11  23  40  66  95 125 166 216 261 312 378
#
# _framework density 27.245249000000001
#
# number of rings (size 3 to 8) (size 9 to 14) (size 15 to 20)
#    0.000    1.333    4.444    0.667    3.111    0.889 
#    0.000    2.222    0.000    0.000    0.000    0.000 
#    0.000    0.000    0.000    0.000    0.000    0.000 
#
# Total GULP energy -100339.044286 kJ/mol
# GULP energy per Si atom -5574.391349 kJ/mol
# Density = 2.718324 g / cm^3
# Si number density = 27.245249 Si / 1000 Ang^3
#
#
#
# Elastic Constant Matrix: (Units=GPa)
#
#
# Indices 1 2 3 4 5 6 
#
# 1 133.1329 30.9075 62.8414 0.0000 54.3917 0.0000
# 2 30.9075 153.1067 13.6927 0.0000 18.3900 0.0000
# 3 62.8414 13.6927 92.5456 0.0000 22.7554 0.0000
# 4 0.0000 0.0000 0.0000 -25.7242 0.0000 13.0589
# 5 54.3917 18.3900 22.7554 0.0000 60.0351 0.0000
# 6 0.0000 0.0000 0.0000 13.0589 0.0000 57.4799
#
#
#
# Elastic Compliance Matrix: (Units=1/GPa)
#
#
# Indices 1 2 3 4 5 6 
#
# 1 0.016180 -0.001196 -0.008045 0.000000 -0.011243 0.000000
# 2 -0.001196 0.006894 0.000050 0.000000 -0.001047 0.000000
# 3 -0.008045 0.000050 0.015960 0.000000 0.001224 0.000000
# 4 0.000000 0.000000 0.000000 -0.034854 0.000000 0.007919
# 5 -0.011243 -0.001047 0.001224 0.000000 0.026700 0.000000
# 6 0.000000 0.000000 0.000000 0.007919 0.000000 0.015598
#
#
# Mechanical properties :
#
#
# Convention : Reuss Voigt Hill
#
# Bulk Modulus (GPa) = 48.42490 65.96317 57.19404
# Shear Modulus (GPa) = 69.69109 36.44772 53.06941
#
# Velocity S-wave (km/s) = 5.06307 3.66151 4.41822
# Velocity P-wave (km/s) = 7.21054 6.49146 6.86043
#
# Compressibility (1/GPa) = 0.02065053
#
# Stress axis : x y z
#
# Youngs Moduli (GPa) = 61.80524 145.04990 62.65657
#
# Poissons Ratio (x) = 0.17352 0.50408
# Poissons Ratio (y) = 0.07394 -0.00311
# Poissons Ratio (z) = 0.49723 -0.00720
#
# Static dielectric constant tensor:
#      x y z
#    x 2.157910 0.000000 -0.084350 
#    y 0.000000 2.032370 0.000000 
#    z -0.084350 0.000000 2.239440 
# 
# From -- ./inp_files/1751.got.cif
#   From: 2010.05.17/outbox.cif.g08.bks.cpg/sg11_1_cif.got.tgz:1751.got - 2010.06.03 12:22:45.
