data_PCOD9166066
_publ_section_title
;
Structure prediction by ZEFSAII (Michael W. Deem and Ramdas Pophale) SiO2 
 PCOD9166066
Probable space group: P 21/M
;
_chemical_formula_sum "Si O2"
_cell_formula_units_Z 24
_cell_length_a 4.911666
_cell_length_b 21.786887
_cell_length_c 8.323485
_cell_angle_alpha 90.000000
_cell_angle_beta 90.938761
_cell_angle_gamma 90.000000
_cell_volume 890.575847
_symmetry_space_group_name_H-M "P 21/M"
_symmetry_group_IT_number 11
_symmetry_cell_setting 'monoclinic'
loop_
_space_group_symop_operation_xyz
x,y,z
-x,1/2+y,-z
-x,-y,-z
x,1/2-y,z
loop_
_atom_site_type_symbol
_atom_site_label
_atom_site_fract_x
_atom_site_fract_y
_atom_site_fract_z
Si Si1 0.457994 0.442998 0.676258
Si Si2 0.321470 0.063532 0.188379
Si Si3 0.764073 0.180845 0.681644
Si Si4 0.355526 0.684531 0.823901
Si Si5 0.935309 0.416554 0.476288
Si Si6 0.841315 0.841861 0.026400
O O1 0.539686 0.497660 0.795878
O O2 0.150433 0.437032 0.616130
O O3 0.558141 0.374388 0.728072
O O4 0.656950 0.449399 0.522041
O O5 0.526099 0.119916 0.240635
O O6 0.075862 0.067322 0.312416
O O7 0.207190 0.085722 0.014038
O O8 0.660070 0.250000 0.670484
O O9 0.882423 0.155563 0.512107
O O10 0.007998 0.176977 0.812049
O O11 0.392595 0.750000 0.738286
O O12 0.553450 0.687663 0.982342
O O13 0.051411 0.678155 0.886676
#
# Coordination Sequence:
#
# PCOD9166066 Si02
#       6
#     4   4   4   4   4   4
#     4  10  24  40  67  93 125 167 206 254 316 372
#     4  10  24  41  68  92 128 159 214 258 313 368
#     4  10  24  43  65  91 129 168 209 255 312 375
#     4  10  22  37  61  90 123 162 206 255 310 364
#     4  10  24  41  66  91 123 165 207 255 312 372
#     4  10  24  39  65  88 125 166 208 254 311 369
#
# _framework density 26.948855999999999
#
# number of rings (size 3 to 8) (size 9 to 14) (size 15 to 20)
#    2.000    0.000    0.000    2.500    7.000    2.000 
#    0.000    3.333    0.000    0.000    0.000    0.000 
#    0.000    0.000    0.000    0.000    0.000    0.000 
#
# Total GULP energy -134118.980231 kJ/mol
# GULP energy per Si atom -5588.290843 kJ/mol
# Density = 2.688752 g / cm^3
# Si number density = 26.948856 Si / 1000 Ang^3
#
#
#
# Elastic Constant Matrix: (Units=GPa)
#
#
# Indices 1 2 3 4 5 6 
#
# 1 110.8561 48.8781 10.2159 0.0000 0.9116 0.0000
# 2 48.8781 228.4439 36.7357 0.0000 -13.5672 0.0000
# 3 10.2159 36.7357 55.8577 0.0000 1.2093 0.0000
# 4 0.0000 0.0000 0.0000 32.8006 0.0000 4.0327
# 5 0.9116 -13.5672 1.2093 0.0000 38.1850 0.0000
# 6 0.0000 0.0000 0.0000 4.0327 0.0000 17.7581
#
#
#
# Elastic Compliance Matrix: (Units=1/GPa)
#
#
# Indices 1 2 3 4 5 6 
#
# 1 0.010007 -0.002134 -0.000405 0.000000 -0.000984 0.000000
# 2 -0.002134 0.005483 -0.003261 0.000000 0.002103 0.000000
# 3 -0.000405 -0.003261 0.020160 0.000000 -0.001788 0.000000
# 4 0.000000 0.000000 0.000000 0.031363 0.000000 -0.007122
# 5 -0.000984 0.002103 -0.001788 0.000000 0.027015 0.000000
# 6 0.000000 0.000000 0.000000 -0.007122 0.000000 0.057930
#
#
# Mechanical properties :
#
#
# Convention : Reuss Voigt Hill
#
# Bulk Modulus (GPa) = 41.58183 65.20190 53.39187
# Shear Modulus (GPa) = 29.14133 37.70394 33.42264
#
# Velocity S-wave (km/s) = 3.29197 3.74450 3.52550
# Velocity P-wave (km/s) = 5.46926 6.55304 6.03552
#
# Compressibility (1/GPa) = 0.02404897
#
# Stress axis : x y z
#
# Youngs Moduli (GPa) = 99.92750 182.36619 49.60226
#
# Poissons Ratio (x) = 0.38926 0.02010
# Poissons Ratio (y) = 0.21329 0.16177
# Poissons Ratio (z) = 0.04049 0.59478
#
# Static dielectric constant tensor:
#      x y z
#    x 2.049520 0.000000 -0.002360 
#    y 0.000000 2.228720 0.000000 
#    z -0.002360 0.000000 2.207720 
# 
# From -- ./inp_files/29839.got.cif
#   From: 2010.05.17/outbox.cif.g08.bks.cpg/sg11_15_cif.got.tgz:29839.got - 2010.06.03 12:22:45.
