data_PCOD9166568
_publ_section_title
;
Structure prediction by ZEFSAII (Michael W. Deem and Ramdas Pophale) SiO2 
 PCOD9166568
Probable space group: P 21/M
;
_chemical_formula_sum "Si O2"
_cell_formula_units_Z 22
_cell_length_a 9.560350
_cell_length_b 18.420798
_cell_length_c 7.107310
_cell_angle_alpha 90.000000
_cell_angle_beta 50.874251
_cell_angle_gamma 90.000000
_cell_volume 970.993889
_symmetry_space_group_name_H-M "P 21/M"
_symmetry_group_IT_number 11
_symmetry_cell_setting 'monoclinic'
loop_
_space_group_symop_operation_xyz
x,y,z
-x,1/2+y,-z
-x,-y,-z
x,1/2-y,z
loop_
_atom_site_type_symbol
_atom_site_label
_atom_site_fract_x
_atom_site_fract_y
_atom_site_fract_z
Si Si1 0.248910 0.047037 0.665265
Si Si2 0.464830 0.119665 0.796530
Si Si3 0.130603 0.890897 0.877020
Si Si4 0.826778 0.588471 0.684079
Si Si5 0.212111 0.577312 0.213662
Si Si6 0.706752 0.250000 0.431820
O O1 0.269648 0.076262 0.435839
O O2 0.596459 0.933684 0.318523
O O3 0.201614 0.961819 0.706399
O O4 0.073039 0.089029 0.894161
O O5 0.610005 0.085482 0.815834
O O6 0.561416 0.187428 0.622282
O O7 0.291022 0.135996 0.075237
O O8 0.156826 0.815267 0.753521
O O9 0.233724 0.888274 0.990255
O O10 0.832241 0.507956 0.771932
O O11 0.032824 0.610394 0.464797
#
# Coordination Sequence:
#
# PCOD9166568 Si02
#       6
#     4   4   4   4   4   2
#     4  10  23  45  80 102 136 186 244 288 349 411
#     4  12  26  44  68 106 134 194 227 292 342 428
#     4  10  23  47  72 106 142 187 230 297 354 424
#     4  10  22  43  70 109 136 173 236 295 336 420
#     4  10  22  42  74 104 138 178 234 290 348 401
#     4  12  30  42  66 104 152 184 234 286 376 414
#
# _framework density 22.657198000000001
#
# number of rings (size 3 to 8) (size 9 to 14) (size 15 to 20)
#    0.000    1.455    1.818    1.636    7.636    2.909 
#    0.000    3.636    0.000    0.000    0.000    0.000 
#    0.000    0.000    0.000    0.000    0.000    0.000 
#
# Total GULP energy -122606.209835 kJ/mol
# GULP energy per Si atom -5573.009538 kJ/mol
# Density = 2.260563 g / cm^3
# Si number density = 22.657198 Si / 1000 Ang^3
#
#
#
# Elastic Constant Matrix: (Units=GPa)
#
#
# Indices 1 2 3 4 5 6 
#
# 1 142.9780 10.2044 12.2057 0.0000 13.3888 0.0000
# 2 10.2044 130.3788 38.7591 0.0000 2.9718 0.0000
# 3 12.2057 38.7591 119.4217 0.0000 -1.9741 0.0000
# 4 0.0000 0.0000 0.0000 40.9221 0.0000 -15.4690
# 5 13.3888 2.9718 -1.9741 0.0000 27.4229 0.0000
# 6 0.0000 0.0000 0.0000 -15.4690 0.0000 -2.0089
#
#
#
# Elastic Compliance Matrix: (Units=1/GPa)
#
#
# Indices 1 2 3 4 5 6 
#
# 1 0.007417 -0.000281 -0.000727 0.000000 -0.003643 0.000000
# 2 -0.000281 0.008534 -0.002757 0.000000 -0.000986 0.000000
# 3 -0.000727 -0.002757 0.009365 0.000000 0.001328 0.000000
# 4 0.000000 0.000000 0.000000 0.006249 0.000000 -0.048115
# 5 -0.003643 -0.000986 0.001328 0.000000 0.038447 0.000000
# 6 0.000000 0.000000 0.000000 -0.048115 0.000000 -0.127285
#
#
# Mechanical properties :
#
#
# Convention : Reuss Voigt Hill
#
# Bulk Modulus (GPa) = 56.22734 57.23520 56.73127
# Shear Modulus (GPa) = -114.12047 35.37451 -39.37298
#
# Velocity S-wave (km/s) = -7.10476 3.95561 -4.17318
# Velocity P-wave (km/s) = 6.51407 6.79549 1.36849
#
# Compressibility (1/GPa) = 0.01778494
#
# Stress axis : x y z
#
# Youngs Moduli (GPa) = 134.81830 117.17607 106.78217
#
# Poissons Ratio (x) = 0.03297 0.07763
# Poissons Ratio (y) = 0.03793 0.29444
# Poissons Ratio (z) = 0.09801 0.32310
#
# Static dielectric constant tensor:
#      x y z
#    x 1.910290 0.000000 0.002860 
#    y 0.000000 1.782670 0.000000 
#    z 0.002860 0.000000 1.902530 
# 
# From -- ./inp_files/13270.got.cif
#   From: 2010.05.17/outbox.cif.g08.bks.cpg/sg11_7_cif.got.tgz:13270.got - 2010.06.03 12:22:45.
