data_PCOD9166891
_publ_section_title
;
Structure prediction by ZEFSAII (Michael W. Deem and Ramdas Pophale) SiO2 
 PCOD9166891
Probable space group: P 21/M
;
_chemical_formula_sum "Si O2"
_cell_formula_units_Z 24
_cell_length_a 10.032881
_cell_length_b 19.314573
_cell_length_c 5.237120
_cell_angle_alpha 90.000000
_cell_angle_beta 87.158460
_cell_angle_gamma 90.000000
_cell_volume 1013.605564
_symmetry_space_group_name_H-M "P 21/M"
_symmetry_group_IT_number 11
_symmetry_cell_setting 'monoclinic'
loop_
_space_group_symop_operation_xyz
x,y,z
-x,1/2+y,-z
-x,-y,-z
x,1/2-y,z
loop_
_atom_site_type_symbol
_atom_site_label
_atom_site_fract_x
_atom_site_fract_y
_atom_site_fract_z
Si Si1 0.348151 0.560473 0.410210
Si Si2 0.767312 0.329000 0.895661
Si Si3 0.732688 0.829000 0.104339
Si Si4 0.522493 0.100180 0.099434
Si Si5 0.848150 0.939527 0.410211
Si Si6 0.977507 0.899820 0.900567
O O1 0.263687 0.630680 0.365186
O O2 0.416633 0.550176 0.127548
O O3 0.250000 0.500000 0.500000
O O4 0.456186 0.572568 0.619635
O O5 0.807906 0.250000 0.857839
O O6 0.627157 0.336002 0.057723
O O7 0.878248 0.373694 0.032295
O O8 0.692094 0.750000 0.142161
O O9 0.621752 0.873693 0.967705
O O10 0.763687 0.869321 0.365186
O O11 0.872843 0.836002 0.942278
O O12 0.956186 0.927432 0.619636
O O13 0.916633 0.949824 0.127549
#
# Coordination Sequence:
#
# PCOD9166891 Si02
#       6
#     4   4   4   4   4   4
#     4  10  24  44  67  96 129 168 214 264 318 378
#     4  10  24  42  64  94 130 170 214 264 318 378
#     4  10  24  42  64  94 130 170 214 264 318 378
#     4  10  24  41  65  93 124 168 213 260 320 376
#     4  10  24  44  67  96 129 168 214 264 318 378
#     4  10  24  41  65  93 124 168 213 260 320 376
#
# _framework density 23.677848999999998
#
# number of rings (size 3 to 8) (size 9 to 14) (size 15 to 20)
#    2.000    0.000    0.000    2.000    4.667    5.333 
#    0.000    0.000    0.000    0.000    0.000    0.000 
#    0.000    0.000    0.000    0.000    0.000    0.000 
#
# Total GULP energy -134114.948800 kJ/mol
# GULP energy per Si atom -5588.122867 kJ/mol
# Density = 2.362396 g / cm^3
# Si number density = 23.677849 Si / 1000 Ang^3
#
#
#
# Elastic Constant Matrix: (Units=GPa)
#
#
# Indices 1 2 3 4 5 6 
#
# 1 94.0838 13.0261 36.3513 0.0000 25.9474 0.0000
# 2 13.0261 98.6092 44.8823 0.0000 4.1870 0.0000
# 3 36.3513 44.8823 158.6814 0.0000 25.8156 0.0000
# 4 0.0000 0.0000 0.0000 15.9401 0.0000 0.8745
# 5 25.9474 4.1870 25.8156 0.0000 48.7424 0.0000
# 6 0.0000 0.0000 0.0000 0.8745 0.0000 37.5092
#
#
#
# Elastic Compliance Matrix: (Units=1/GPa)
#
#
# Indices 1 2 3 4 5 6 
#
# 1 0.013064 -0.000632 -0.001851 0.000000 -0.005920 0.000000
# 2 -0.000632 0.011700 -0.003344 0.000000 0.001102 0.000000
# 3 -0.001851 -0.003344 0.008169 0.000000 -0.003054 0.000000
# 4 0.000000 0.000000 0.000000 0.062815 0.000000 -0.001465
# 5 -0.005920 0.001102 -0.003054 0.000000 0.025190 0.000000
# 6 0.000000 0.000000 0.000000 -0.001465 0.000000 0.026694
#
#
# Mechanical properties :
#
#
# Convention : Reuss Voigt Hill
#
# Bulk Modulus (GPa) = 46.99461 59.98821 53.49141
# Shear Modulus (GPa) = 30.05202 37.57930 33.81566
#
# Velocity S-wave (km/s) = 3.56645 3.98817 3.78319
# Velocity P-wave (km/s) = 6.07042 6.82624 6.45940
#
# Compressibility (1/GPa) = 0.02127904
#
# Stress axis : x y z
#
# Youngs Moduli (GPa) = 76.54545 85.47274 122.42091
#
# Poissons Ratio (x) = 0.05401 0.22659
# Poissons Ratio (y) = 0.04837 0.40935
# Poissons Ratio (z) = 0.14168 0.28580
#
# Static dielectric constant tensor:
#      x y z
#    x 1.878070 0.000000 -0.045010 
#    y 0.000000 1.958950 0.000000 
#    z -0.045010 0.000000 1.872040 
# 
# From -- ./inp_files/4796.got.cif
#   From: 2010.05.17/outbox.cif.g08.bks.cpg/sg11_3_cif.got.tgz:4796.got - 2010.06.03 12:22:45.
