data_PCOD9166750
_publ_section_title
;
Structure prediction by ZEFSAII (Michael W. Deem and Ramdas Pophale) SiO2 
 PCOD9166750
Probable space group: P 21/M
;
_chemical_formula_sum "Si O2"
_cell_formula_units_Z 24
_cell_length_a 13.931962
_cell_length_b 8.781517
_cell_length_c 17.262448
_cell_angle_alpha 90.000000
_cell_angle_beta 143.705595
_cell_angle_gamma 90.000000
_cell_volume 1250.137683
_symmetry_space_group_name_H-M "P 21/M"
_symmetry_group_IT_number 11
_symmetry_cell_setting 'monoclinic'
loop_
_space_group_symop_operation_xyz
x,y,z
-x,1/2+y,-z
-x,-y,-z
x,1/2-y,z
loop_
_atom_site_type_symbol
_atom_site_label
_atom_site_fract_x
_atom_site_fract_y
_atom_site_fract_z
Si Si1 0.718576 0.067280 0.504706
Si Si2 0.476632 0.932457 0.899868
Si Si3 0.893037 0.567374 0.759922
Si Si4 0.176848 0.566614 0.600837
Si Si5 0.634425 0.067529 0.711400
Si Si6 0.259255 0.567324 0.044029
O O1 0.714280 0.250000 0.507228
O O2 0.757225 0.023252 0.441301
O O3 0.852312 0.001084 0.649655
O O4 0.544484 0.000411 0.415309
O O5 0.476417 0.750000 0.904004
O O6 0.307333 0.982300 0.750155
O O7 0.619664 0.986526 0.936274
O O8 0.500000 0.000000 0.000000
O O9 0.880753 0.750000 0.749450
O O10 0.760457 0.501762 0.732786
O O11 0.073437 0.526175 0.905286
O O12 0.167517 0.750000 0.596664
O O13 0.000000 0.500000 0.500000
O O14 0.629323 0.250000 0.699427
O O15 0.693225 0.030164 0.836821
O O16 0.275403 0.750000 0.045156
#
# Coordination Sequence:
#
# PCOD9166750 Si02
#       6
#     4   4   4   4   4   4
#     4  11  23  42  63  90 125 163 208 253 304 363
#     4  11  24  43  66  94 125 161 203 252 308 365
#     4  11  24  40  61  92 127 164 205 254 305 361
#     4  10  24  43  65  92 123 160 203 252 306 363
#     4  11  22  40  65  92 122 163 208 253 308 364
#     4  10  23  42  64  92 125 162 206 253 307 364
#
# _framework density 19.197886
#
# number of rings (size 3 to 8) (size 9 to 14) (size 15 to 20)
#    0.000    1.333    1.667    3.000    2.333    4.667 
#    0.000    0.000    0.000    0.000    0.000    0.000 
#    0.000    0.000    0.000    0.000    0.000    0.000 
#
# Total GULP energy -134247.734373 kJ/mol
# GULP energy per Si atom -5593.655599 kJ/mol
# Density = 1.915419 g / cm^3
# Si number density = 19.197886 Si / 1000 Ang^3
#
#
#
# Elastic Constant Matrix: (Units=GPa)
#
#
# Indices 1 2 3 4 5 6 
#
# 1 87.2498 24.7022 22.0044 0.0000 -0.4902 0.0000
# 2 24.7022 36.2267 24.3846 0.0000 -3.4119 0.0000
# 3 22.0044 24.3846 78.8665 0.0000 0.4111 0.0000
# 4 0.0000 0.0000 0.0000 30.9346 0.0000 0.2955
# 5 -0.4902 -3.4119 0.4111 0.0000 40.7503 0.0000
# 6 0.0000 0.0000 0.0000 0.2955 0.0000 38.8802
#
#
#
# Elastic Compliance Matrix: (Units=1/GPa)
#
#
# Indices 1 2 3 4 5 6 
#
# 1 0.014310 -0.008999 -0.001207 0.000000 -0.000569 0.000000
# 2 -0.008999 0.040895 -0.010151 0.000000 0.003418 0.000000
# 3 -0.001207 -0.010151 0.016161 0.000000 -0.001027 0.000000
# 4 0.000000 0.000000 0.000000 0.032329 0.000000 -0.000246
# 5 -0.000569 0.003418 -0.001027 0.000000 0.024829 0.000000
# 6 0.000000 0.000000 0.000000 -0.000246 0.000000 0.025722
#
#
# Mechanical properties :
#
#
# Convention : Reuss Voigt Hill
#
# Bulk Modulus (GPa) = 32.62559 38.28061 35.45310
# Shear Modulus (GPa) = 24.36912 30.86315 27.61613
#
# Velocity S-wave (km/s) = 3.56668 4.01388 3.79687
# Velocity P-wave (km/s) = 5.83034 6.43933 6.14239
#
# Compressibility (1/GPa) = 0.03065079
#
# Stress axis : x y z
#
# Youngs Moduli (GPa) = 69.87924 24.45293 61.87913
#
# Poissons Ratio (x) = 0.22005 0.07471
# Poissons Ratio (y) = 0.62883 0.62815
# Poissons Ratio (z) = 0.08437 0.24823
#
# Static dielectric constant tensor:
#      x y z
#    x 1.628890 0.000000 -0.016240 
#    y 0.000000 1.643560 0.000000 
#    z -0.016240 0.000000 1.654480 
# 
# From -- ./inp_files/60197.got.cif
#   From: 2010.05.17/outbox.cif.g08.bks.cpg/sg11_31_cif.got.tgz:60197.got - 2010.06.03 12:22:45.
