data_PCOD9166243
_publ_section_title
;
Structure prediction by ZEFSAII (Michael W. Deem and Ramdas Pophale) SiO2 
 PCOD9166243
Probable space group: P 21/M
;
_chemical_formula_sum "Si O2"
_cell_formula_units_Z 24
_cell_length_a 14.722624
_cell_length_b 13.148145
_cell_length_c 15.508033
_cell_angle_alpha 90.000000
_cell_angle_beta 154.323335
_cell_angle_gamma 90.000000
_cell_volume 1300.730002
_symmetry_space_group_name_H-M "P 21/M"
_symmetry_group_IT_number 11
_symmetry_cell_setting 'monoclinic'
loop_
_space_group_symop_operation_xyz
x,y,z
-x,1/2+y,-z
-x,-y,-z
x,1/2-y,z
loop_
_atom_site_type_symbol
_atom_site_label
_atom_site_fract_x
_atom_site_fract_y
_atom_site_fract_z
Si Si1 0.188159 0.630806 0.608894
Si Si2 0.735391 0.536726 0.684336
Si Si3 0.296883 0.131654 0.529509
Si Si4 0.897818 0.039198 0.282266
Si Si5 0.591360 0.968985 0.869955
Si Si6 0.090318 0.369668 0.991457
O O1 0.150142 0.750000 0.568986
O O2 0.195247 0.596578 0.714682
O O3 0.403685 0.599033 0.747187
O O4 0.003563 0.565049 0.407032
O O5 0.500000 0.500000 0.500000
O O6 0.742340 0.601411 0.603004
O O7 0.819435 0.600704 0.837425
O O8 0.884215 0.438306 0.801499
O O9 0.346983 0.250000 0.580859
O O10 0.482275 0.060532 0.724120
O O11 0.087760 0.103998 0.404056
O O12 0.727650 0.014257 0.064494
O O13 0.740679 0.905227 0.934740
O O14 0.048597 0.250000 0.949754
#
# Coordination Sequence:
#
# PCOD9166243 Si02
#       6
#     4   4   4   4   4   4
#     4  10  22  39  64  91 121 164 205 250 311 368
#     4  11  23  45  61  91 128 160 213 256 295 374
#     4  11  23  40  64  90 126 169 205 255 312 358
#     4  10  22  42  61  90 128 158 206 259 301 372
#     4  11  22  42  61  95 128 155 208 258 300 375
#     4  11  24  41  66  93 126 166 202 254 313 360
#
# _framework density 18.451177999999999
#
# number of rings (size 3 to 8) (size 9 to 14) (size 15 to 20)
#    0.000    1.333    3.333    2.000    0.000    4.000 
#    0.000    0.000    0.000    0.000    0.000    0.000 
#    0.000    0.000    0.000    0.000    0.000    0.000 
#
# Total GULP energy -134179.244258 kJ/mol
# GULP energy per Si atom -5590.801844 kJ/mol
# Density = 1.840918 g / cm^3
# Si number density = 18.451178 Si / 1000 Ang^3
#
#
#
# Elastic Constant Matrix: (Units=GPa)
#
#
# Indices 1 2 3 4 5 6 
#
# 1 123.7700 49.0682 24.7813 0.0000 1.4794 0.0000
# 2 49.0682 124.1060 14.6704 0.0000 10.5885 0.0000
# 3 24.7813 14.6704 67.6676 0.0000 -3.6473 0.0000
# 4 0.0000 0.0000 0.0000 10.1963 0.0000 0.0954
# 5 1.4794 10.5885 -3.6473 0.0000 33.5816 0.0000
# 6 0.0000 0.0000 0.0000 0.0954 0.0000 12.5940
#
#
#
# Elastic Compliance Matrix: (Units=1/GPa)
#
#
# Indices 1 2 3 4 5 6 
#
# 1 0.010116 -0.003694 -0.002882 0.000000 0.000406 0.000000
# 2 -0.003694 0.009892 -0.000957 0.000000 -0.003060 0.000000
# 3 -0.002882 -0.000957 0.016159 0.000000 0.002184 0.000000
# 4 0.000000 0.000000 0.000000 0.098082 0.000000 -0.000743
# 5 0.000406 -0.003060 0.002184 0.000000 0.030962 0.000000
# 6 0.000000 0.000000 0.000000 -0.000743 0.000000 0.079408
#
#
# Mechanical properties :
#
#
# Convention : Reuss Voigt Hill
#
# Bulk Modulus (GPa) = 47.38914 54.73149 51.06032
# Shear Modulus (GPa) = 18.74634 26.40929 22.57781
#
# Velocity S-wave (km/s) = 3.19093 3.78737 3.50187
# Velocity P-wave (km/s) = 6.27019 6.98948 6.63958
#
# Compressibility (1/GPa) = 0.02110188
#
# Stress axis : x y z
#
# Youngs Moduli (GPa) = 98.85344 101.09004 61.88594
#
# Poissons Ratio (x) = 0.37338 0.17836
# Poissons Ratio (y) = 0.36512 0.05922
# Poissons Ratio (z) = 0.28490 0.09674
#
# Static dielectric constant tensor:
#      x y z
#    x 1.627430 0.000000 -0.003360 
#    y 0.000000 1.590970 0.000000 
#    z -0.003360 0.000000 1.606940 
# 
# From -- ./inp_files/52348.got.cif
#   From: 2010.05.17/outbox.cif.g08.bks.cpg/sg11_27_cif.got.tgz:52348.got - 2010.06.03 12:22:45.
