data_PCOD9166653
_publ_section_title
;
Structure prediction by ZEFSAII (Michael W. Deem and Ramdas Pophale) SiO2 
 PCOD9166653
Probable space group: P 21/M
;
_chemical_formula_sum "Si O2"
_cell_formula_units_Z 14
_cell_length_a 9.332649
_cell_length_b 9.424189
_cell_length_c 6.493337
_cell_angle_alpha 90.000000
_cell_angle_beta 78.401353
_cell_angle_gamma 90.000000
_cell_volume 559.444194
_symmetry_space_group_name_H-M "P 21/M"
_symmetry_group_IT_number 11
_symmetry_cell_setting 'monoclinic'
loop_
_space_group_symop_operation_xyz
x,y,z
-x,1/2+y,-z
-x,-y,-z
x,1/2-y,z
loop_
_atom_site_type_symbol
_atom_site_label
_atom_site_fract_x
_atom_site_fract_y
_atom_site_fract_z
Si Si1 0.903586 0.750000 0.930260
Si Si2 0.771394 0.513654 0.251456
Si Si3 0.000000 0.500000 0.500000
Si Si4 0.150248 0.750000 0.206728
Si Si5 0.714313 0.750000 0.606581
Si Si6 0.597528 0.250000 0.141054
O O1 0.812684 0.614136 0.049176
O O2 0.053010 0.750000 0.024040
O O3 0.863574 0.750000 0.696466
O O4 0.920628 0.454260 0.302795
O O5 0.720457 0.615690 0.454035
O O6 0.657991 0.391747 0.232234
O O7 0.897231 0.386625 0.653891
O O8 0.320958 0.750000 0.101504
O O9 0.575715 0.750000 0.792729
#
# Coordination Sequence:
#
# PCOD9166653 Si02
#       6
#     2   4   2   2   2   2
#     4   9  23  45  69  97 132 185 229 278 350 403
#     4  10  24  44  70 100 137 183 227 288 335 410
#     4  10  22  46  70 102 132 178 226 290 346 384
#     4  10  24  43  73 102 135 176 230 292 337 410
#     4  11  25  47  68  92 151 191 212 281 356 403
#     4  12  26  43  66 109 136 178 239 279 333 422
#
# _framework density 25.024836000000001
#
# number of rings (size 3 to 8) (size 9 to 14) (size 15 to 20)
#    0.000    1.714    0.000    2.571    8.000    3.429 
#   10.286    0.000    0.000    0.000    0.000    0.000 
#    0.000    0.000    0.000    0.000    0.000    0.000 
#
# Total GULP energy -77957.254772 kJ/mol
# GULP energy per Si atom -5568.375341 kJ/mol
# Density = 2.496788 g / cm^3
# Si number density = 25.024836 Si / 1000 Ang^3
#
#
#
# Elastic Constant Matrix: (Units=GPa)
#
#
# Indices 1 2 3 4 5 6 
#
# 1 92.2280 18.1565 15.7614 0.0000 -33.3474 0.0000
# 2 18.1565 79.8794 33.3810 0.0000 -4.1906 0.0000
# 3 15.7614 33.3810 128.1330 0.0000 -21.6284 0.0000
# 4 0.0000 0.0000 0.0000 121.3972 0.0000 44.6792
# 5 -33.3474 -4.1906 -21.6284 0.0000 48.1985 0.0000
# 6 0.0000 0.0000 0.0000 44.6792 0.0000 46.6542
#
#
#
# Elastic Compliance Matrix: (Units=1/GPa)
#
#
# Indices 1 2 3 4 5 6 
#
# 1 0.015159 -0.003206 0.000751 0.000000 0.010546 0.000000
# 2 -0.003206 0.014736 -0.003898 0.000000 -0.002686 0.000000
# 3 0.000751 -0.003898 0.009476 0.000000 0.004433 0.000000
# 4 0.000000 0.000000 0.000000 0.012721 0.000000 -0.012183
# 5 0.010546 -0.002686 0.004433 0.000000 0.029800 0.000000
# 6 0.000000 0.000000 0.000000 -0.012183 0.000000 0.033101
#
#
# Mechanical properties :
#
#
# Convention : Reuss Voigt Hill
#
# Bulk Modulus (GPa) = 37.50425 48.31535 42.90980
# Shear Modulus (GPa) = 36.60686 58.77941 47.69313
#
# Velocity S-wave (km/s) = 3.82883 4.85174 4.37032
# Velocity P-wave (km/s) = 5.87928 7.12283 6.53072
#
# Compressibility (1/GPa) = 0.02666364
#
# Stress axis : x y z
#
# Youngs Moduli (GPa) = 65.96833 67.86288 105.53261
#
# Poissons Ratio (x) = 0.21757 -0.07923
# Poissons Ratio (y) = 0.21150 0.41136
# Poissons Ratio (z) = -0.04952 0.26453
#
# Static dielectric constant tensor:
#      x y z
#    x 1.185560 0.000000 1.582300 
#    y 0.000000 2.021590 0.000000 
#    z 1.582300 0.000000 -1.280010 
# 
# From -- ./inp_files/3603.got.cif
#   From: 2010.05.17/outbox.cif.g08.bks.cpg/sg11_2_cif.got.tgz:3603.got - 2010.06.03 12:22:45.
