data_PCOD9166180
_publ_section_title
;
Structure prediction by ZEFSAII (Michael W. Deem and Ramdas Pophale) SiO2 
 PCOD9166180
Probable space group: P 21/M
;
_chemical_formula_sum "Si O2"
_cell_formula_units_Z 32
_cell_length_a 12.325266
_cell_length_b 13.944541
_cell_length_c 18.348132
_cell_angle_alpha 90.000000
_cell_angle_beta 149.619050
_cell_angle_gamma 90.000000
_cell_volume 1594.871377
_symmetry_space_group_name_H-M "P 21/M"
_symmetry_group_IT_number 11
_symmetry_cell_setting 'monoclinic'
loop_
_space_group_symop_operation_xyz
x,y,z
-x,1/2+y,-z
-x,-y,-z
x,1/2-y,z
loop_
_atom_site_type_symbol
_atom_site_label
_atom_site_fract_x
_atom_site_fract_y
_atom_site_fract_z
Si Si1 0.536253 0.487338 0.903812
Si Si2 0.394043 0.135656 0.421946
Si Si3 0.433675 0.141441 0.616838
Si Si4 0.775057 0.018039 0.408856
Si Si5 0.993944 0.454667 0.115214
Si Si6 0.934892 0.360278 0.928747
Si Si7 0.803854 0.135965 0.565862
Si Si8 0.288122 0.133906 0.877874
O O1 0.408728 0.521936 0.758735
O O2 0.392598 0.411673 0.865642
O O3 0.594167 0.578022 0.988468
O O4 0.759312 0.436787 0.011362
O O5 0.359854 0.250000 0.388111
O O6 0.437777 0.125635 0.532779
O O7 0.184484 0.077519 0.277549
O O8 0.599274 0.102404 0.493938
O O9 0.362842 0.250000 0.589151
O O10 0.677519 0.131426 0.785468
O O11 0.282270 0.069750 0.571239
O O12 0.783539 0.105842 0.469974
O O13 0.000000 0.000000 0.500000
O O14 0.998367 0.566549 0.095607
O O15 0.028080 0.397128 0.059206
O O16 0.990174 0.250000 0.945781
O O17 0.802717 0.250000 0.571027
O O18 0.036150 0.105276 0.730749
O O19 0.307224 0.250000 0.891788
#
# Coordination Sequence:
#
# PCOD9166180 Si02
#       8
#     4   4   4   4   4   4   4   4
#     4  11  25  43  64  99 127 169 223 260 331 395
#     4  10  23  41  65  98 131 168 221 273 326 388
#     4  10  23  42  65  95 127 168 217 267 324 388
#     4  12  24  42  66  94 133 170 215 275 319 385
#     4  11  23  39  62  93 129 168 206 266 323 381
#     4  10  22  39  59  90 127 165 208 255 323 394
#     4  10  23  43  68  95 128 175 222 268 328 385
#     4  10  24  46  68  91 127 173 219 273 323 387
#
# _framework density 20.064312999999999
#
# number of rings (size 3 to 8) (size 9 to 14) (size 15 to 20)
#    0.000    1.500    2.500    1.125    5.250    4.000 
#    0.000    1.250    0.000    0.000    0.000    0.000 
#    0.000    0.000    0.000    0.000    0.000    0.000 
#
# Total GULP energy -178915.650747 kJ/mol
# GULP energy per Si atom -5591.114086 kJ/mol
# Density = 2.001865 g / cm^3
# Si number density = 20.064313 Si / 1000 Ang^3
#
#
#
# Elastic Constant Matrix: (Units=GPa)
#
#
# Indices 1 2 3 4 5 6 
#
# 1 75.3847 6.0793 26.6076 0.0000 12.5034 0.0000
# 2 6.0793 56.9908 23.6929 0.0000 3.2760 0.0000
# 3 26.6076 23.6929 95.7648 0.0000 5.4569 0.0000
# 4 0.0000 0.0000 0.0000 18.3430 0.0000 -19.6151
# 5 12.5034 3.2760 5.4569 0.0000 34.1420 0.0000
# 6 0.0000 0.0000 0.0000 -19.6151 0.0000 -26.3009
#
#
#
# Elastic Compliance Matrix: (Units=1/GPa)
#
#
# Indices 1 2 3 4 5 6 
#
# 1 0.015528 0.000344 -0.004111 0.000000 -0.005063 0.000000
# 2 0.000344 0.019608 -0.004877 0.000000 -0.001228 0.000000
# 3 -0.004111 -0.004877 0.012795 0.000000 -0.000072 0.000000
# 4 0.000000 0.000000 0.000000 0.030329 0.000000 -0.022619
# 5 -0.005063 -0.001228 -0.000072 0.000000 0.031273 0.000000
# 6 0.000000 0.000000 0.000000 -0.022619 0.000000 -0.021152
#
#
# Mechanical properties :
#
#
# Convention : Reuss Voigt Hill
#
# Bulk Modulus (GPa) = 32.63353 37.87776 35.25565
# Shear Modulus (GPa) = 43.14695 16.68754 29.91725
#
# Velocity S-wave (km/s) = 4.64231 2.88705 3.86562
# Velocity P-wave (km/s) = 6.71077 5.48020 6.12646
#
# Compressibility (1/GPa) = 0.03064333
#
# Stress axis : x y z
#
# Youngs Moduli (GPa) = 64.39870 50.99963 78.15524
#
# Poissons Ratio (x) = -0.01753 0.32129
# Poissons Ratio (y) = -0.02213 0.38114
# Poissons Ratio (z) = 0.26474 0.24871
#
# Static dielectric constant tensor:
#      x y z
#    x 1.690280 0.000000 0.000410 
#    y 0.000000 1.721910 0.000000 
#    z 0.000410 0.000000 1.688750 
# 
# From -- ./inp_files/59439.got.cif
#   From: 2010.05.17/outbox.cif.g08.bks.cpg/sg11_30_cif.got.tgz:59439.got - 2010.06.03 12:22:45.
