data_PCOD9166725
_publ_section_title
;
Structure prediction by ZEFSAII (Michael W. Deem and Ramdas Pophale) SiO2 
 PCOD9166725
Probable space group: P 21/M
;
_chemical_formula_sum "Si O2"
_cell_formula_units_Z 28
_cell_length_a 28.259751
_cell_length_b 8.663317
_cell_length_c 10.412693
_cell_angle_alpha 90.000000
_cell_angle_beta 34.817451
_cell_angle_gamma 90.000000
_cell_volume 1455.539706
_symmetry_space_group_name_H-M "P 21/M"
_symmetry_group_IT_number 11
_symmetry_cell_setting 'monoclinic'
loop_
_space_group_symop_operation_xyz
x,y,z
-x,1/2+y,-z
-x,-y,-z
x,1/2-y,z
loop_
_atom_site_type_symbol
_atom_site_label
_atom_site_fract_x
_atom_site_fract_y
_atom_site_fract_z
Si Si1 0.334285 0.565258 0.626651
Si Si2 0.220159 0.065285 0.652813
Si Si3 0.311145 0.565597 0.199255
Si Si4 0.940905 0.935631 0.521665
Si Si5 0.512943 0.934991 0.114247
Si Si6 0.249402 0.064171 0.066048
Si Si7 0.964187 0.064385 0.947148
O O1 0.323897 0.750000 0.650660
O O2 0.276895 0.495455 0.642513
O O3 0.429747 0.531509 0.379535
O O4 0.306452 0.496160 0.824010
O O5 0.219220 0.250000 0.655456
O O6 0.258873 0.005201 0.433328
O O7 0.127333 0.001382 0.872539
O O8 0.306008 0.750000 0.216289
O O9 0.277272 0.503799 0.139914
O O10 0.405686 0.511461 0.007718
O O11 0.942905 0.750000 0.523789
O O12 0.845646 0.984166 0.749343
O O13 0.000000 0.000000 0.500000
O O14 0.976555 0.980989 0.303198
O O15 0.524027 0.750000 0.083399
O O16 0.500000 0.000000 0.000000
O O17 0.252476 0.250000 0.064843
O O18 0.960643 0.250000 0.960962
O O19 0.000000 0.000000 0.000000
#
# Coordination Sequence:
#
# PCOD9166725 Si02
#       7
#     4   4   4   4   4   4   4
#     4  11  24  42  65  95 128 165 211 261 316 381
#     4  12  24  40  64  93 126 166 214 265 320 381
#     4  12  25  42  66  95 129 169 213 265 325 384
#     4  10  23  41  63  90 123 164 209 258 311 374
#     4  11  23  41  67  96 129 166 212 263 318 381
#     4  11  24  43  65  94 130 169 214 262 320 384
#     4  11  23  40  62  91 126 163 210 265 321 381
#
# _framework density 19.236851000000001
#
# number of rings (size 3 to 8) (size 9 to 14) (size 15 to 20)
#    0.000    0.857    1.429    6.000    0.000    8.000 
#    0.000    0.000    0.000    0.000    0.000    0.000 
#    0.000    0.000    0.000    0.000    0.000    0.000 
#
# Total GULP energy -156731.096954 kJ/mol
# GULP energy per Si atom -5597.539177 kJ/mol
# Density = 1.919307 g / cm^3
# Si number density = 19.236851 Si / 1000 Ang^3
#
#
#
# Elastic Constant Matrix: (Units=GPa)
#
#
# Indices 1 2 3 4 5 6 
#
# 1 62.6086 7.4225 0.5731 0.0000 2.5697 0.0000
# 2 7.4225 76.4055 24.4920 0.0000 -7.4076 0.0000
# 3 0.5731 24.4920 78.7160 0.0000 -4.0889 0.0000
# 4 0.0000 0.0000 0.0000 19.6732 0.0000 -2.0360
# 5 2.5697 -7.4076 -4.0889 0.0000 39.7578 0.0000
# 6 0.0000 0.0000 0.0000 -2.0360 0.0000 41.7285
#
#
#
# Elastic Compliance Matrix: (Units=1/GPa)
#
#
# Indices 1 2 3 4 5 6 
#
# 1 0.016241 -0.001831 0.000381 0.000000 -0.001352 0.000000
# 2 -0.001831 0.014948 -0.004511 0.000000 0.002440 0.000000
# 3 0.000381 -0.004511 0.014135 0.000000 0.000589 0.000000
# 4 0.000000 0.000000 0.000000 0.051089 0.000000 0.002493
# 5 -0.001352 0.002440 0.000589 0.000000 0.025755 0.000000
# 6 0.000000 0.000000 0.000000 0.002493 0.000000 0.024086
#
#
# Mechanical properties :
#
#
# Convention : Reuss Voigt Hill
#
# Bulk Modulus (GPa) = 29.93709 31.41169 30.67439
# Shear Modulus (GPa) = 29.53151 32.58140 31.05646
#
# Velocity S-wave (km/s) = 3.92235 4.11992 4.02235
# Velocity P-wave (km/s) = 6.00910 6.24468 6.12802
#
# Compressibility (1/GPa) = 0.03340338
#
# Stress axis : x y z
#
# Youngs Moduli (GPa) = 61.57135 66.89641 70.74493
#
# Poissons Ratio (x) = 0.12249 -0.02697
# Poissons Ratio (y) = 0.11274 0.31914
# Poissons Ratio (z) = -0.02347 0.30177
#
# Static dielectric constant tensor:
#      x y z
#    x 1.626900 0.000000 -0.008970 
#    y 0.000000 1.646250 0.000000 
#    z -0.008970 0.000000 1.650410 
# 
# From -- ./inp_files/28452.got.cif
#   From: 2010.05.17/outbox.cif.g08.bks.cpg/sg11_15_cif.got.tgz:28452.got - 2010.06.03 12:22:45.
