data_PCOD9166527
_publ_section_title
;
Structure prediction by ZEFSAII (Michael W. Deem and Ramdas Pophale) SiO2 
 PCOD9166527
Probable space group: P 21/M
;
_chemical_formula_sum "Si O2"
_cell_formula_units_Z 20
_cell_length_a 5.022651
_cell_length_b 20.887376
_cell_length_c 9.606445
_cell_angle_alpha 90.000000
_cell_angle_beta 121.635384
_cell_angle_gamma 90.000000
_cell_volume 858.054460
_symmetry_space_group_name_H-M "P 21/M"
_symmetry_group_IT_number 11
_symmetry_cell_setting 'monoclinic'
loop_
_space_group_symop_operation_xyz
x,y,z
-x,1/2+y,-z
-x,-y,-z
x,1/2-y,z
loop_
_atom_site_type_symbol
_atom_site_label
_atom_site_fract_x
_atom_site_fract_y
_atom_site_fract_z
Si Si1 0.844601 0.180763 0.669314
Si Si2 0.909326 0.135256 0.987717
Si Si3 0.271018 0.427725 0.864002
Si Si4 0.774508 0.043318 0.344782
Si Si5 0.274027 0.129265 0.345111
O O1 0.970957 0.250000 0.660220
O O2 0.824770 0.179053 0.832522
O O3 0.514124 0.168654 0.504915
O O4 0.066868 0.119313 0.706105
O O5 0.594946 0.109255 0.968676
O O6 0.082516 0.076495 0.955930
O O7 0.138213 0.161931 0.168377
O O8 0.308475 0.496372 0.805887
O O9 0.474193 0.067956 0.346046
O O10 0.977389 0.103361 0.348263
O O11 0.000000 0.000000 0.500000
#
# Coordination Sequence:
#
# PCOD9166527 Si02
#       5
#     4   4   4   4   4
#     4  10  25  46  66  90 128 173 220 269 319 379
#     4  10  23  43  62  99 126 163 219 259 319 386
#     4  10  22  42  65  93 131 170 205 261 331 374
#     4  12  22  40  67 100 138 164 210 266 320 397
#     4  12  25  40  70  98 129 172 212 265 325 383
#
# _framework density 23.308541000000002
#
# number of rings (size 3 to 8) (size 9 to 14) (size 15 to 20)
#    1.200    0.000    2.000    4.200    0.000    6.400 
#    0.000    0.000    0.000    0.000    0.000    0.000 
#    0.000    0.000    0.000    0.000    0.000    0.000 
#
# Total GULP energy -111711.300338 kJ/mol
# GULP energy per Si atom -5585.565017 kJ/mol
# Density = 2.325549 g / cm^3
# Si number density = 23.308541 Si / 1000 Ang^3
#
#
#
# Elastic Constant Matrix: (Units=GPa)
#
#
# Indices 1 2 3 4 5 6 
#
# 1 49.7378 -12.1796 -0.0980 0.0000 9.4754 0.0000
# 2 -12.1796 75.7766 17.6830 0.0000 -3.6218 0.0000
# 3 -0.0980 17.6830 186.8105 0.0000 -9.8649 0.0000
# 4 0.0000 0.0000 0.0000 -36.3291 0.0000 2.9479
# 5 9.4754 -3.6218 -9.8649 0.0000 33.9377 0.0000
# 6 0.0000 0.0000 0.0000 2.9479 0.0000 10.5420
#
#
#
# Elastic Compliance Matrix: (Units=1/GPa)
#
#
# Indices 1 2 3 4 5 6 
#
# 1 0.022079 0.003409 -0.000627 0.000000 -0.005983 0.000000
# 2 0.003409 0.014061 -0.001320 0.000000 0.000165 0.000000
# 3 -0.000627 -0.001320 0.005565 0.000000 0.001652 0.000000
# 4 0.000000 0.000000 0.000000 -0.026915 0.000000 0.007527
# 5 -0.005983 0.000165 0.001652 0.000000 0.031634 0.000000
# 6 0.000000 0.000000 0.000000 0.007527 0.000000 0.092754
#
#
# Mechanical properties :
#
#
# Convention : Reuss Voigt Hill
#
# Bulk Modulus (GPa) = 22.40767 35.90395 29.15581
# Shear Modulus (GPa) = 33.08417 22.09142 27.58779
#
# Velocity S-wave (km/s) = 3.77158 3.08195 3.44407
# Velocity P-wave (km/s) = 5.34797 5.30111 5.32459
#
# Compressibility (1/GPa) = 0.04462758
#
# Stress axis : x y z
#
# Youngs Moduli (GPa) = 45.29233 71.12045 179.69771
#
# Poissons Ratio (x) = -0.24246 0.11268
# Poissons Ratio (y) = -0.15441 0.23728
# Poissons Ratio (z) = 0.02840 0.09391
#
# Static dielectric constant tensor:
#      x y z
#    x 1.829780 0.000000 -0.045600 
#    y 0.000000 1.857430 0.000000 
#    z -0.045600 0.000000 1.964780 
# 
# From -- ./inp_files/14888.got.cif
#   From: 2010.05.17/outbox.cif.g08.bks.cpg/sg11_8_cif.got.tgz:14888.got - 2010.06.03 12:22:45.
