data_PCOD9166749
_publ_section_title
;
Structure prediction by ZEFSAII (Michael W. Deem and Ramdas Pophale) SiO2 
 PCOD9166749
Probable space group: P 21/M
;
_chemical_formula_sum "Si O2"
_cell_formula_units_Z 32
_cell_length_a 12.651726
_cell_length_b 12.953039
_cell_length_c 16.102061
_cell_angle_alpha 90.000000
_cell_angle_beta 149.099291
_cell_angle_gamma 90.000000
_cell_volume 1355.149576
_symmetry_space_group_name_H-M "P 21/M"
_symmetry_group_IT_number 11
_symmetry_cell_setting 'monoclinic'
loop_
_space_group_symop_operation_xyz
x,y,z
-x,1/2+y,-z
-x,-y,-z
x,1/2-y,z
loop_
_atom_site_type_symbol
_atom_site_label
_atom_site_fract_x
_atom_site_fract_y
_atom_site_fract_z
Si Si1 0.259449 0.498009 0.525120
Si Si2 0.224426 0.373230 0.029443
Si Si3 0.629916 0.367029 0.736518
Si Si4 0.785847 0.373521 0.663255
Si Si5 0.594685 0.121212 0.050972
Si Si6 0.094260 0.366074 0.116269
Si Si7 0.305111 0.866848 0.700173
Si Si8 0.018133 0.872117 0.780464
O O1 0.464178 0.431817 0.674066
O O2 0.299468 0.582063 0.479631
O O3 0.194401 0.553659 0.565306
O O4 0.092966 0.426089 0.370296
O O5 0.202320 0.250000 0.025305
O O6 0.196284 0.416950 0.104025
O O7 0.030490 0.398754 0.840325
O O8 0.449638 0.388904 0.145510
O O9 0.550754 0.250000 0.677046
O O10 0.665836 0.405123 0.666183
O O11 0.854302 0.360413 0.928892
O O12 0.772490 0.250000 0.651725
O O13 0.509166 0.250000 0.990362
O O14 0.728135 0.128302 0.224737
O O15 0.737420 0.111651 0.065987
O O16 0.500000 0.000000 0.000000
O O17 0.180251 0.250000 0.180979
O O18 0.089452 0.406482 0.206243
O O19 0.266130 0.750000 0.644713
O O20 0.989021 0.750000 0.756926
#
# Coordination Sequence:
#
# PCOD9166749 Si02
#       8
#     4   4   4   4   4   4   4   4
#     4  12  23  33  56  86 122 164 207 249 314 388
#     4   8  16  34  60  86 117 161 209 260 316 374
#     4   9  19  35  53  80 121 165 211 259 307 370
#     4   9  19  35  53  80 121 165 211 259 307 370
#     4  10  24  47  74 100 128 164 216 274 327 379
#     4   8  16  34  60  86 117 161 209 260 316 374
#     4  10  23  42  63  90 127 165 208 265 322 381
#     4  10  23  42  63  90 127 165 208 265 322 381
#
# _framework density 23.613630000000001
#
# number of rings (size 3 to 8) (size 9 to 14) (size 15 to 20)
#    0.000    2.500    0.000    2.625    3.500    2.500 
#    0.000    6.250    0.000    0.000    0.000    0.000 
#    0.000    0.000    0.000    0.000    0.000    0.000 
#
# Total GULP energy -178325.042537 kJ/mol
# GULP energy per Si atom -5572.657579 kJ/mol
# Density = 2.355988 g / cm^3
# Si number density = 23.613630 Si / 1000 Ang^3
#
#
#
# Elastic Constant Matrix: (Units=GPa)
#
#
# Indices 1 2 3 4 5 6 
#
# 1 72.2129 10.3428 4.8705 0.0000 -6.8420 0.0000
# 2 10.3428 126.1219 7.3303 0.0000 0.6842 0.0000
# 3 4.8705 7.3303 31.5424 0.0000 -7.2248 0.0000
# 4 0.0000 0.0000 0.0000 -9.4889 0.0000 -174.4487
# 5 -6.8420 0.6842 -7.2248 0.0000 24.9436 0.0000
# 6 0.0000 0.0000 0.0000 -174.4487 0.0000 -558.2261
#
#
#
# Elastic Compliance Matrix: (Units=1/GPa)
#
#
# Indices 1 2 3 4 5 6 
#
# 1 0.014434 -0.001138 -0.001125 0.000000 0.003665 0.000000
# 2 -0.001138 0.008143 -0.001970 0.000000 -0.001106 0.000000
# 3 -0.001125 -0.001970 0.034570 0.000000 0.009759 0.000000
# 4 0.000000 0.000000 0.000000 0.022209 0.000000 -0.006940
# 5 0.003665 -0.001106 0.009759 0.000000 0.043952 0.000000
# 6 0.000000 0.000000 0.000000 -0.006940 0.000000 0.000378
#
#
# Mechanical properties :
#
#
# Convention : Reuss Voigt Hill
#
# Bulk Modulus (GPa) = 20.54194 30.55157 25.54676
# Shear Modulus (GPa) = 33.69760 -94.73203 -30.51722
#
# Velocity S-wave (km/s) = 3.78172 -6.34071 -3.59884
# Velocity P-wave (km/s) = 5.27130 6.37495 2.53509
#
# Compressibility (1/GPa) = 0.04868089
#
# Stress axis : x y z
#
# Youngs Moduli (GPa) = 69.28063 122.80987 28.92671
#
# Poissons Ratio (x) = 0.13978 0.03254
# Poissons Ratio (y) = 0.07885 0.05698
# Poissons Ratio (z) = 0.07793 0.24193
#
# Static dielectric constant tensor:
#      x y z
#    x 1.910830 0.000000 -0.001730 
#    y 0.000000 2.023520 0.000000 
#    z -0.001730 0.000000 1.879640 
# 
# From -- ./inp_files/60414.got.cif
#   From: 2010.05.17/outbox.cif.g08.bks.cpg/sg11_31_cif.got.tgz:60414.got - 2010.06.03 12:22:45.
