data_PCOD9166831
_publ_section_title
;
Structure prediction by ZEFSAII (Michael W. Deem and Ramdas Pophale) SiO2 
 PCOD9166831
Probable space group: P 21/M
;
_chemical_formula_sum "Si O2"
_cell_formula_units_Z 32
_cell_length_a 8.517615
_cell_length_b 14.773898
_cell_length_c 23.058461
_cell_angle_alpha 90.000000
_cell_angle_beta 32.385167
_cell_angle_gamma 90.000000
_cell_volume 1554.141766
_symmetry_space_group_name_H-M "P 21/M"
_symmetry_group_IT_number 11
_symmetry_cell_setting 'monoclinic'
loop_
_space_group_symop_operation_xyz
x,y,z
-x,1/2+y,-z
-x,-y,-z
x,1/2-y,z
loop_
_atom_site_type_symbol
_atom_site_label
_atom_site_fract_x
_atom_site_fract_y
_atom_site_fract_z
Si Si1 0.222096 0.961339 0.157792
Si Si2 0.421525 0.387243 0.403877
Si Si3 0.327650 0.355541 0.058021
Si Si4 0.338095 0.008654 0.244625
Si Si5 0.722281 0.149568 0.186028
Si Si6 0.546591 0.591969 0.379452
Si Si7 0.239149 0.654069 0.363635
Si Si8 0.798598 0.351554 0.400742
O O1 0.235425 0.066378 0.132562
O O2 0.382734 0.961433 0.169166
O O3 0.891121 0.928244 0.270369
O O4 0.381494 0.895972 0.062330
O O5 0.561099 0.362145 0.298676
O O6 0.394233 0.494946 0.417866
O O7 0.630831 0.358526 0.391758
O O8 0.098013 0.348615 0.511169
O O9 0.354180 0.250000 0.069517
O O10 0.064852 0.357262 0.093371
O O11 0.601267 0.072912 0.182064
O O12 0.049898 0.072804 0.328707
O O13 0.292304 0.931892 0.306770
O O14 0.657116 0.250000 0.184016
O O15 0.441407 0.648541 0.357282
O O16 0.435656 0.631791 0.474742
O O17 0.292037 0.750000 0.316390
O O18 0.920074 0.250000 0.368854
#
# Coordination Sequence:
#
# PCOD9166831 Si02
#       8
#     4   4   4   4   4   4   4   4
#     4  11  24  42  70  92 123 166 205 262 325 367
#     4  12  21  41  61  89 127 168 213 258 308 368
#     4  10  23  44  67  94 121 157 212 265 318 379
#     4  12  23  41  63  93 133 163 210 253 313 385
#     4  11  22  39  64  92 124 164 207 263 320 373
#     4  12  22  43  62  88 130 171 212 257 314 371
#     4  12  25  39  60  90 129 175 215 255 306 376
#     4  12  24  37  62  97 131 169 213 259 306 372
#
# _framework density 20.590142
#
# number of rings (size 3 to 8) (size 9 to 14) (size 15 to 20)
#    0.000    0.500    5.000    4.125    0.000    4.000 
#    0.000    0.000    0.000    0.000    0.000    0.000 
#    0.000    0.000    0.000    0.000    0.000    0.000 
#
# Total GULP energy -178953.395684 kJ/mol
# GULP energy per Si atom -5592.293615 kJ/mol
# Density = 2.054328 g / cm^3
# Si number density = 20.590142 Si / 1000 Ang^3
#
#
#
# Elastic Constant Matrix: (Units=GPa)
#
#
# Indices 1 2 3 4 5 6 
#
# 1 62.7839 5.8233 -4.3093 0.0000 -1.1761 0.0000
# 2 5.8233 108.8935 -2.2778 0.0000 -11.0191 0.0000
# 3 -4.3093 -2.2778 20.7004 0.0000 0.5136 0.0000
# 4 0.0000 0.0000 0.0000 -389.2410 0.0000 594.8001
# 5 -1.1761 -11.0191 0.5136 0.0000 13.6750 0.0000
# 6 0.0000 0.0000 0.0000 594.8001 0.0000 -939.5884
#
#
#
# Elastic Compliance Matrix: (Units=1/GPa)
#
#
# Indices 1 2 3 4 5 6 
#
# 1 0.016233 -0.000730 0.003282 0.000000 0.000684 0.000000
# 2 -0.000730 0.010048 0.000755 0.000000 0.008006 0.000000
# 3 0.003282 0.000755 0.049098 0.000000 -0.000953 0.000000
# 4 0.000000 0.000000 0.000000 -0.078698 0.000000 -0.049819
# 5 0.000684 0.008006 -0.000953 0.000000 0.079672 0.000000
# 6 0.000000 0.000000 0.000000 -0.049819 0.000000 -0.032602
#
#
# Mechanical properties :
#
#
# Convention : Reuss Voigt Hill
#
# Bulk Modulus (GPa) = 12.19604 21.20558 16.70081
# Shear Modulus (GPa) = 77.55664 -250.15478 -86.29907
#
# Velocity S-wave (km/s) = 6.14399 -11.03432 -6.48103
# Velocity P-wave (km/s) = 7.50118 12.32966 6.91928
#
# Compressibility (1/GPa) = 0.08199383
#
# Stress axis : x y z
#
# Youngs Moduli (GPa) = 61.60114 99.52012 20.36729
#
# Poissons Ratio (x) = 0.07267 -0.06685
# Poissons Ratio (y) = 0.04498 -0.01538
# Poissons Ratio (z) = -0.20218 -0.07514
#
# Static dielectric constant tensor:
#      x y z
#    x 1.711900 0.000000 0.006040 
#    y 0.000000 1.760350 0.000000 
#    z 0.006040 0.000000 1.716990 
# 
# From -- ./inp_files/68130.got.cif
#   From: 2010.05.17/outbox.cif.g08.bks.cpg/sg11_35_cif.got.tgz:68130.got - 2010.06.03 12:22:45.
