data_PCOD9166879
_publ_section_title
;
Structure prediction by ZEFSAII (Michael W. Deem and Ramdas Pophale) SiO2 
 PCOD9166879
Probable space group: P 21/M
;
_chemical_formula_sum "Si O2"
_cell_formula_units_Z 26
_cell_length_a 5.280230
_cell_length_b 26.965971
_cell_length_c 8.092779
_cell_angle_alpha 90.000000
_cell_angle_beta 60.476677
_cell_angle_gamma 90.000000
_cell_volume 1002.682170
_symmetry_space_group_name_H-M "P 21/M"
_symmetry_group_IT_number 11
_symmetry_cell_setting 'monoclinic'
loop_
_space_group_symop_operation_xyz
x,y,z
-x,1/2+y,-z
-x,-y,-z
x,1/2-y,z
loop_
_atom_site_type_symbol
_atom_site_label
_atom_site_fract_x
_atom_site_fract_y
_atom_site_fract_z
Si Si1 0.302087 0.830148 0.098806
Si Si2 0.422686 0.828096 0.419968
Si Si3 0.361450 0.461887 0.296349
Si Si4 0.496077 0.443601 0.628911
Si Si5 0.117751 0.250000 0.756425
Si Si6 0.908991 0.870087 0.782905
Si Si7 0.905784 0.427269 0.942669
O O1 0.347746 0.805440 0.263872
O O2 0.076205 0.793500 0.087201
O O3 0.161502 0.884090 0.165579
O O4 0.606190 0.841263 0.910739
O O5 0.502399 0.884744 0.351197
O O6 0.684467 0.794120 0.396211
O O7 0.152577 0.834313 0.629042
O O8 0.499563 0.450976 0.431548
O O9 0.284974 0.519989 0.343476
O O10 0.143609 0.417108 0.323319
O O11 0.609452 0.455280 0.078287
O O12 0.177216 0.459239 0.799230
O O13 0.008684 0.896225 0.920136
#
# Coordination Sequence:
#
# PCOD9166879 Si02
#       7
#     4   4   4   4   2   4   4
#     4  11  24  45  70  94 133 175 218 281 340 395
#     4  12  25  46  69 100 135 173 228 278 343 400
#     4  10  24  40  65 105 138 181 228 268 337 400
#     4  11  21  43  67  96 143 183 219 280 329 405
#     4  12  26  46  74  98 124 176 230 282 344 406
#     4  11  24  42  69 101 137 176 225 278 333 407
#     4  11  21  43  67  98 137 180 222 270 328 401
#
# _framework density 25.930447999999998
#
# number of rings (size 3 to 8) (size 9 to 14) (size 15 to 20)
#    0.000    0.923    4.615    1.846    0.000    1.846 
#    2.769    3.846    0.000    0.000    0.000    0.000 
#    0.000    0.000    0.000    0.000    0.000    0.000 
#
# Total GULP energy -145010.381083 kJ/mol
# GULP energy per Si atom -5577.322349 kJ/mol
# Density = 2.587143 g / cm^3
# Si number density = 25.930448 Si / 1000 Ang^3
#
#
#
# Elastic Constant Matrix: (Units=GPa)
#
#
# Indices 1 2 3 4 5 6 
#
# 1 58.2840 30.9884 32.8217 0.0000 -21.5708 0.0000
# 2 30.9884 177.2451 38.0043 0.0000 -12.5337 0.0000
# 3 32.8217 38.0043 119.3231 0.0000 -27.0952 0.0000
# 4 0.0000 0.0000 0.0000 24.9476 0.0000 -9.4536
# 5 -21.5708 -12.5337 -27.0952 0.0000 52.3950 0.0000
# 6 0.0000 0.0000 0.0000 -9.4536 0.0000 356.4863
#
#
#
# Elastic Compliance Matrix: (Units=1/GPa)
#
#
# Indices 1 2 3 4 5 6 
#
# 1 0.023433 -0.002750 -0.003998 0.000000 0.006922 0.000000
# 2 -0.002750 0.006390 -0.001347 0.000000 -0.000300 0.000000
# 3 -0.003998 -0.001347 0.010721 0.000000 0.003576 0.000000
# 4 0.000000 0.000000 0.000000 0.040491 0.000000 0.001074
# 5 0.006922 -0.000300 0.003576 0.000000 0.023713 0.000000
# 6 0.000000 0.000000 0.000000 0.001074 0.000000 0.002834
#
#
# Mechanical properties :
#
#
# Convention : Reuss Voigt Hill
#
# Bulk Modulus (GPa) = 41.06037 62.05345 51.55691
# Shear Modulus (GPa) = 37.91039 103.63497 70.77268
#
# Velocity S-wave (km/s) = 3.82776 6.32877 5.22996
# Velocity P-wave (km/s) = 5.95020 8.79699 7.50972
#
# Compressibility (1/GPa) = 0.02435438
#
# Stress axis : x y z
#
# Youngs Moduli (GPa) = 42.67553 156.48674 93.27168
#
# Poissons Ratio (x) = 0.43036 0.37288
# Poissons Ratio (y) = 0.11736 0.12564
# Poissons Ratio (z) = 0.17061 0.21079
#
# Static dielectric constant tensor:
#      x y z
#    x 2.275720 0.000000 0.018180 
#    y 0.000000 2.076050 0.000000 
#    z 0.018180 0.000000 2.005570 
# 
# From -- ./inp_files/10688.got.cif
#   From: 2010.05.17/outbox.cif.g08.bks.cpg/sg11_6_cif.got.tgz:10688.got - 2010.06.03 12:22:45.
