data_PCOD9166806
_publ_section_title
;
Structure prediction by ZEFSAII (Michael W. Deem and Ramdas Pophale) SiO2 
 PCOD9166806
Probable space group: P 21/M
;
_chemical_formula_sum "Si O2"
_cell_formula_units_Z 24
_cell_length_a 7.114224
_cell_length_b 22.533350
_cell_length_c 7.102053
_cell_angle_alpha 90.000000
_cell_angle_beta 63.459371
_cell_angle_gamma 90.000000
_cell_volume 1018.532073
_symmetry_space_group_name_H-M "P 21/M"
_symmetry_group_IT_number 11
_symmetry_cell_setting 'monoclinic'
loop_
_space_group_symop_operation_xyz
x,y,z
-x,1/2+y,-z
-x,-y,-z
x,1/2-y,z
loop_
_atom_site_type_symbol
_atom_site_label
_atom_site_fract_x
_atom_site_fract_y
_atom_site_fract_z
Si Si1 0.029783 0.582149 0.924963
Si Si2 0.457779 0.441771 0.897675
Si Si3 0.475362 0.317169 0.784419
Si Si4 0.784409 0.495272 0.473491
Si Si5 0.152620 0.377522 0.643550
Si Si6 0.068280 0.683055 0.608042
O O1 0.049989 0.642496 0.798746
O O2 0.170054 0.536073 0.746355
O O3 0.792717 0.558621 0.012016
O O4 0.040673 0.596623 0.141664
O O5 0.492029 0.371443 0.926465
O O6 0.612663 0.455790 0.654836
O O7 0.500000 0.500000 0.000000
O O8 0.440096 0.250000 0.871344
O O9 0.293522 0.337171 0.718291
O O10 0.693476 0.316630 0.573308
O O11 0.722361 0.563856 0.477655
O O12 0.000000 0.500000 0.500000
O O13 0.069255 0.344068 0.499382
O O14 0.003246 0.750000 0.677140
#
# Coordination Sequence:
#
# PCOD9166806 Si02
#       6
#     4   4   4   4   4   4
#     4  11  24  41  68 103 137 185 232 295 356 431
#     4  11  21  38  69 102 137 185 232 292 358 419
#     4  10  23  43  67  98 139 184 235 295 357 429
#     4  12  21  43  67 100 150 180 234 300 357 426
#     4  11  24  43  71 103 137 186 236 292 356 434
#     4  11  23  46  72  98 142 188 234 302 359 428
#
# _framework density 23.563321999999999
#
# number of rings (size 3 to 8) (size 9 to 14) (size 15 to 20)
#    0.000    1.000    5.000    1.000    0.000    6.000 
#    3.000    3.333    0.000    6.000    0.000    0.000 
#    0.000    0.000    0.000    0.000    0.000    0.000 
#
# Total GULP energy -134152.968327 kJ/mol
# GULP energy per Si atom -5589.707014 kJ/mol
# Density = 2.350969 g / cm^3
# Si number density = 23.563322 Si / 1000 Ang^3
#
#
#
# Elastic Constant Matrix: (Units=GPa)
#
#
# Indices 1 2 3 4 5 6 
#
# 1 47.5235 16.3941 -3.4557 0.0000 -6.0220 0.0000
# 2 16.3941 237.3045 40.4111 0.0000 12.9919 0.0000
# 3 -3.4557 40.4111 54.1514 0.0000 -20.3308 0.0000
# 4 0.0000 0.0000 0.0000 44.3975 0.0000 3.5132
# 5 -6.0220 12.9919 -20.3308 0.0000 33.2335 0.0000
# 6 0.0000 0.0000 0.0000 3.5132 0.0000 34.1082
#
#
#
# Elastic Compliance Matrix: (Units=1/GPa)
#
#
# Indices 1 2 3 4 5 6 
#
# 1 0.024352 -0.003736 0.008499 0.000000 0.011072 0.000000
# 2 -0.003736 0.006250 -0.007885 0.000000 -0.007944 0.000000
# 3 0.008499 -0.007885 0.034568 0.000000 0.025770 0.000000
# 4 0.000000 0.000000 0.000000 0.022709 0.000000 -0.002339
# 5 0.011072 -0.007944 0.025770 0.000000 0.050966 0.000000
# 6 0.000000 0.000000 0.000000 -0.002339 0.000000 0.029559
#
#
# Mechanical properties :
#
#
# Convention : Reuss Voigt Hill
#
# Bulk Modulus (GPa) = 16.97020 49.51983 33.24501
# Shear Modulus (GPa) = 25.73475 41.38984 33.56230
#
# Velocity S-wave (km/s) = 3.30836 4.19565 3.77814
# Velocity P-wave (km/s) = 4.67025 6.67327 5.75951
#
# Compressibility (1/GPa) = 0.05892683
#
# Stress axis : x y z
#
# Youngs Moduli (GPa) = 41.06432 160.00826 28.92840
#
# Poissons Ratio (x) = 0.59777 -0.24586
# Poissons Ratio (y) = 0.15341 0.22809
# Poissons Ratio (z) = -0.34901 1.26161
#
# Static dielectric constant tensor:
#      x y z
#    x 1.943030 0.000000 0.026320 
#    y 0.000000 1.929020 0.000000 
#    z 0.026320 0.000000 1.902970 
# 
# From -- ./inp_files/14228.got.cif
#   From: 2010.05.17/outbox.cif.g08.bks.cpg/sg11_8_cif.got.tgz:14228.got - 2010.06.03 12:22:45.
