data_PCOD9166884
_publ_section_title
;
Structure prediction by ZEFSAII (Michael W. Deem and Ramdas Pophale) SiO2 
 PCOD9166884
Probable space group: P 21/M
;
_chemical_formula_sum "Si O2"
_cell_formula_units_Z 26
_cell_length_a 20.724010
_cell_length_b 9.439813
_cell_length_c 9.718645
_cell_angle_alpha 90.000000
_cell_angle_beta 138.999978
_cell_angle_gamma 90.000000
_cell_volume 1247.343337
_symmetry_space_group_name_H-M "P 21/M"
_symmetry_group_IT_number 11
_symmetry_cell_setting 'monoclinic'
loop_
_space_group_symop_operation_xyz
x,y,z
-x,1/2+y,-z
-x,-y,-z
x,1/2-y,z
loop_
_atom_site_type_symbol
_atom_site_label
_atom_site_fract_x
_atom_site_fract_y
_atom_site_fract_z
Si Si1 0.801738 0.909812 0.967814
Si Si2 0.907873 0.917408 0.416363
Si Si3 0.790290 0.084874 0.448605
Si Si4 0.463123 0.750000 0.468370
Si Si5 0.409145 0.040085 0.499992
Si Si6 0.909384 0.087259 0.915377
Si Si7 0.401628 0.086157 0.809029
O O1 0.833141 0.750000 0.980148
O O2 0.687911 0.926746 0.746692
O O3 0.866018 0.018234 0.982844
O O4 0.823195 0.926820 0.163345
O O5 0.927615 0.750000 0.472678
O O6 0.871446 0.001284 0.490841
O O7 0.000000 0.000000 0.500000
O O8 0.782513 0.250000 0.393350
O O9 0.825127 0.083256 0.662998
O O10 0.689502 0.998893 0.272961
O O11 0.430234 0.874889 0.522438
O O12 0.501380 0.628303 0.419813
O O13 0.389164 0.084145 0.624043
O O14 0.937918 0.250000 0.984288
O O15 0.000000 0.000000 0.000000
O O16 0.404952 0.250000 0.861023
O O17 0.500000 0.000000 0.000000
#
# Coordination Sequence:
#
# PCOD9166884 Si02
#       7
#     4   4   4   2   4   4   4
#     4  11  23  42  69  95 132 171 218 276 328 391
#     4  11  25  45  68  99 137 177 224 281 341 402
#     4  11  25  45  68  98 138 179 226 278 337 407
#     4  10  24  40  70  98 136 174 222 282 330 396
#     4  11  23  46  68 100 135 175 225 277 334 396
#     4  11  24  40  67 100 131 173 219 273 335 398
#     4  12  26  45  70  98 137 182 226 277 339 405
#
# _framework density 20.844301000000002
#
# number of rings (size 3 to 8) (size 9 to 14) (size 15 to 20)
#    0.000    0.923    3.077    2.769    3.231    9.231 
#    2.769    0.000    0.000    0.000    0.000    0.000 
#    0.000    0.000    0.000    0.000    0.000    0.000 
#
# Total GULP energy -144894.745251 kJ/mol
# GULP energy per Si atom -5572.874817 kJ/mol
# Density = 2.079686 g / cm^3
# Si number density = 20.844301 Si / 1000 Ang^3
#
#
#
# Elastic Constant Matrix: (Units=GPa)
#
#
# Indices 1 2 3 4 5 6 
#
# 1 61.1785 29.2738 -13.4240 0.0000 -2.6737 0.0000
# 2 29.2738 210.2698 11.8957 0.0000 -1.9336 0.0000
# 3 -13.4240 11.8957 58.4879 0.0000 4.2667 0.0000
# 4 0.0000 0.0000 0.0000 29.4738 0.0000 -6.5144
# 5 -2.6737 -1.9336 4.2667 0.0000 29.3572 0.0000
# 6 0.0000 0.0000 0.0000 -6.5144 0.0000 15.4893
#
#
#
# Elastic Compliance Matrix: (Units=1/GPa)
#
#
# Indices 1 2 3 4 5 6 
#
# 1 0.018827 -0.002888 0.004849 0.000000 0.000820 0.000000
# 2 -0.002888 0.005260 -0.001757 0.000000 0.000339 0.000000
# 3 0.004849 -0.001757 0.018743 0.000000 -0.002398 0.000000
# 4 0.000000 0.000000 0.000000 0.037406 0.000000 0.015732
# 5 0.000820 0.000339 -0.002398 0.000000 0.034509 0.000000
# 6 0.000000 0.000000 0.000000 0.015732 0.000000 0.071177
#
#
# Mechanical properties :
#
#
# Convention : Reuss Voigt Hill
#
# Bulk Modulus (GPa) = 23.12824 42.82523 32.97674
# Shear Modulus (GPa) = 25.00905 35.01010 30.00958
#
# Velocity S-wave (km/s) = 3.46757 4.10274 3.79846
# Velocity P-wave (km/s) = 5.21075 6.55997 5.92390
#
# Compressibility (1/GPa) = 0.04323718
#
# Stress axis : x y z
#
# Youngs Moduli (GPa) = 53.11465 190.10002 53.35378
#
# Poissons Ratio (x) = 0.54899 -0.25870
# Poissons Ratio (y) = 0.15339 0.09377
# Poissons Ratio (z) = -0.25754 0.33409
#
# Static dielectric constant tensor:
#      x y z
#    x 1.738530 0.000000 0.015590 
#    y 0.000000 1.734170 0.000000 
#    z 0.015590 0.000000 1.768710 
# 
# From -- ./inp_files/26184.got.cif
#   From: 2010.05.17/outbox.cif.g08.bks.cpg/sg11_14_cif.got.tgz:26184.got - 2010.06.03 12:22:45.
