data_PCOD9166846
_publ_section_title
;
Structure prediction by ZEFSAII (Michael W. Deem and Ramdas Pophale) SiO2 
 PCOD9166846
Probable space group: P 21/M
;
_chemical_formula_sum "Si O2"
_cell_formula_units_Z 22
_cell_length_a 7.470935
_cell_length_b 23.471359
_cell_length_c 5.264321
_cell_angle_alpha 90.000000
_cell_angle_beta 71.116221
_cell_angle_gamma 90.000000
_cell_volume 873.429700
_symmetry_space_group_name_H-M "P 21/M"
_symmetry_group_IT_number 11
_symmetry_cell_setting 'monoclinic'
loop_
_space_group_symop_operation_xyz
x,y,z
-x,1/2+y,-z
-x,-y,-z
x,1/2-y,z
loop_
_atom_site_type_symbol
_atom_site_label
_atom_site_fract_x
_atom_site_fract_y
_atom_site_fract_z
Si Si1 0.521812 0.039317 0.240753
Si Si2 0.529477 0.349136 0.464628
Si Si3 0.951526 0.435231 0.960926
Si Si4 0.964462 0.250000 0.634917
Si Si5 0.409731 0.750000 0.923879
Si Si6 0.058212 0.872322 0.546256
Si Si7 0.708669 0.750000 0.157623
O O1 0.422613 0.098780 0.371753
O O2 0.728068 0.064770 0.100487
O O3 0.500000 0.000000 0.500000
O O4 0.500000 0.000000 0.000000
O O5 0.624847 0.306613 0.218562
O O6 0.708941 0.371206 0.547936
O O7 0.388370 0.307185 0.679696
O O8 0.025802 0.395264 0.151656
O O9 0.994805 0.413602 0.661469
O O10 0.000000 0.500000 0.000000
O O11 0.007964 0.308556 0.475861
O O12 0.075674 0.250000 0.852100
O O13 0.739065 0.250000 0.781484
O O14 0.627185 0.750000 0.911757
#
# Coordination Sequence:
#
# PCOD9166846 Si02
#       7
#     4   4   4   2   2   4   2
#     4  11  24  40  68  97 132 180 226 280 341 408
#     4  10  23  45  66  94 141 187 225 280 363 407
#     4  11  25  45  70  98 140 185 238 285 348 408
#     4  12  23  42  72 105 134 178 238 280 360 402
#     4  11  22  47  70  95 146 185 222 292 346 425
#     4  11  23  44  72  98 137 194 225 286 357 425
#     4  11  25  41  70 104 134 179 232 290 336 427
#
# _framework density 25.188061999999999
#
# number of rings (size 3 to 8) (size 9 to 14) (size 15 to 20)
#    0.000    1.091    1.818    5.455    2.545    3.636 
#   13.091    0.000    0.000    0.000    0.000    0.000 
#    0.000    0.000    0.000    0.000    0.000    0.000 
#
# Total GULP energy -123038.241486 kJ/mol
# GULP energy per Si atom -5592.647340 kJ/mol
# Density = 2.513073 g / cm^3
# Si number density = 25.188062 Si / 1000 Ang^3
#
#
#
# Elastic Constant Matrix: (Units=GPa)
#
#
# Indices 1 2 3 4 5 6 
#
# 1 87.3885 18.3833 22.5784 0.0000 13.0038 0.0000
# 2 18.3833 194.5324 55.9100 0.0000 32.4912 0.0000
# 3 22.5784 55.9100 111.5152 0.0000 40.4648 0.0000
# 4 0.0000 0.0000 0.0000 40.5909 0.0000 17.5494
# 5 13.0038 32.4912 40.4648 0.0000 38.7090 0.0000
# 6 0.0000 0.0000 0.0000 17.5494 0.0000 37.2363
#
#
#
# Elastic Compliance Matrix: (Units=1/GPa)
#
#
# Indices 1 2 3 4 5 6 
#
# 1 0.012237 -0.000353 -0.001477 0.000000 -0.002271 0.000000
# 2 -0.000353 0.006248 -0.001935 0.000000 -0.003103 0.000000
# 3 -0.001477 -0.001935 0.015253 0.000000 -0.013824 0.000000
# 4 0.000000 0.000000 0.000000 0.030941 0.000000 -0.014582
# 5 -0.002271 -0.003103 -0.013824 0.000000 0.043653 0.000000
# 6 0.000000 0.000000 0.000000 -0.014582 0.000000 0.033728
#
#
# Mechanical properties :
#
#
# Convention : Reuss Voigt Hill
#
# Bulk Modulus (GPa) = 38.15476 65.24215 51.69846
# Shear Modulus (GPa) = 31.58048 43.07819 37.32934
#
# Velocity S-wave (km/s) = 3.54473 4.14002 3.85388
# Velocity P-wave (km/s) = 5.65104 6.98650 6.35396
#
# Compressibility (1/GPa) = 0.02620905
#
# Stress axis : x y z
#
# Youngs Moduli (GPa) = 81.72059 160.04178 65.56065
#
# Poissons Ratio (x) = 0.05644 0.09681
# Poissons Ratio (y) = 0.02882 0.12688
# Poissons Ratio (z) = 0.12067 0.30973
#
# Static dielectric constant tensor:
#      x y z
#    x 1.863010 0.000000 0.113330 
#    y 0.000000 1.946400 0.000000 
#    z 0.113330 0.000000 2.022330 
# 
# From -- ./inp_files/2379.got.cif
#   From: 2010.05.17/outbox.cif.g08.bks.cpg/sg11_2_cif.got.tgz:2379.got - 2010.06.03 12:22:45.
