data_PCOD9166273
_publ_section_title
;
Structure prediction by ZEFSAII (Michael W. Deem and Ramdas Pophale) SiO2 
 PCOD9166273
Probable space group: P 21/M
;
_chemical_formula_sum "Si O2"
_cell_formula_units_Z 20
_cell_length_a 11.198100
_cell_length_b 14.168779
_cell_length_c 4.960798
_cell_angle_alpha 90.000000
_cell_angle_beta 88.176273
_cell_angle_gamma 90.000000
_cell_volume 786.698407
_symmetry_space_group_name_H-M "P 21/M"
_symmetry_group_IT_number 11
_symmetry_cell_setting 'monoclinic'
loop_
_space_group_symop_operation_xyz
x,y,z
-x,1/2+y,-z
-x,-y,-z
x,1/2-y,z
loop_
_atom_site_type_symbol
_atom_site_label
_atom_site_fract_x
_atom_site_fract_y
_atom_site_fract_z
Si Si1 0.930492 0.641456 0.568777
Si Si2 0.909041 0.358774 0.942933
Si Si3 0.245439 0.010197 0.737328
Si Si4 0.415098 0.849405 0.506781
Si Si5 0.446343 0.104054 0.011038
O O1 0.888218 0.750000 0.539894
O O2 0.839162 0.565176 0.462801
O O3 0.975440 0.628852 0.870229
O O4 0.046974 0.631283 0.366262
O O5 0.867579 0.250000 0.981116
O O6 0.818757 0.437612 0.053599
O O7 0.335898 0.941393 0.567957
O O8 0.314988 0.090010 0.904735
O O9 0.350924 0.750000 0.567586
O O10 0.466784 0.846484 0.205923
O O11 0.529709 0.856865 0.696297
O O12 0.500000 0.000000 0.000000
#
# Coordination Sequence:
#
# PCOD9166273 Si02
#       5
#     4   4   4   4   4
#     4  10  23  39  58  88 124 159 200 250 305 361
#     4  10  22  40  60  88 122 156 199 252 305 364
#     4  11  22  40  65  90 117 163 207 251 306 370
#     4  11  24  42  63  92 127 163 206 258 310 367
#     4  10  23  41  61  90 125 159 204 257 309 366
#
# _framework density 25.422705000000001
#
# number of rings (size 3 to 8) (size 9 to 14) (size 15 to 20)
#    0.000    1.600    0.000    4.800    0.000   11.200 
#    0.000    8.000    0.000    0.000    0.000    0.000 
#    0.000    0.000    0.000    0.000    0.000    0.000 
#
# Total GULP energy -112056.392675 kJ/mol
# GULP energy per Si atom -5602.819634 kJ/mol
# Density = 2.536484 g / cm^3
# Si number density = 25.422705 Si / 1000 Ang^3
#
#
#
# Elastic Constant Matrix: (Units=GPa)
#
#
# Indices 1 2 3 4 5 6 
#
# 1 64.1450 33.7908 -3.3260 0.0000 -2.2056 0.0000
# 2 33.7908 132.0452 13.6738 0.0000 -6.9986 0.0000
# 3 -3.3260 13.6738 74.3492 0.0000 1.7403 0.0000
# 4 0.0000 0.0000 0.0000 17.4025 0.0000 -21.7099
# 5 -2.2056 -6.9986 1.7403 0.0000 16.0108 0.0000
# 6 0.0000 0.0000 0.0000 -21.7099 0.0000 -9.8744
#
#
#
# Elastic Compliance Matrix: (Units=1/GPa)
#
#
# Indices 1 2 3 4 5 6 
#
# 1 0.018229 -0.004829 0.001699 0.000000 0.000216 0.000000
# 2 -0.004829 0.009205 -0.001993 0.000000 0.003575 0.000000
# 3 0.001699 -0.001993 0.013943 0.000000 -0.002152 0.000000
# 4 0.000000 0.000000 0.000000 0.015353 0.000000 -0.033755
# 5 0.000216 0.003575 -0.002152 0.000000 0.064284 0.000000
# 6 0.000000 0.000000 0.000000 -0.033755 0.000000 -0.027058
#
#
# Mechanical properties :
#
#
# Convention : Reuss Voigt Hill
#
# Bulk Modulus (GPa) = 32.12315 39.86853 35.99584
# Shear Modulus (GPa) = 43.63782 19.80118 31.71950
#
# Velocity S-wave (km/s) = 4.14755 2.79387 3.53609
# Velocity P-wave (km/s) = 5.96651 5.11115 5.55532
#
# Compressibility (1/GPa) = 0.03113020
#
# Stress axis : x y z
#
# Youngs Moduli (GPa) = 54.85689 108.63848 71.72119
#
# Poissons Ratio (x) = 0.52466 -0.12183
# Poissons Ratio (y) = 0.26493 0.14291
# Poissons Ratio (z) = -0.09318 0.21647
#
# Static dielectric constant tensor:
#      x y z
#    x 2.060680 0.000000 0.032490 
#    y 0.000000 1.587370 0.000000 
#    z 0.032490 0.000000 1.960680 
# 
# From -- ./inp_files/4299.got.cif
#   From: 2010.05.17/outbox.cif.g08.bks.cpg/sg11_3_cif.got.tgz:4299.got - 2010.06.03 12:22:45.
