data_PCOD9166153
_publ_section_title
;
Structure prediction by ZEFSAII (Michael W. Deem and Ramdas Pophale) SiO2 
 PCOD9166153
Probable space group: P 21/M
;
_chemical_formula_sum "Si O2"
_cell_formula_units_Z 18
_cell_length_a 8.964279
_cell_length_b 13.820676
_cell_length_c 8.964279
_cell_angle_alpha 90.000000
_cell_angle_beta 119.513314
_cell_angle_gamma 90.000000
_cell_volume 966.495150
_symmetry_space_group_name_H-M "P 21/M"
_symmetry_group_IT_number 11
_symmetry_cell_setting 'monoclinic'
loop_
_space_group_symop_operation_xyz
x,y,z
-x,1/2+y,-z
-x,-y,-z
x,1/2-y,z
loop_
_atom_site_type_symbol
_atom_site_label
_atom_site_fract_x
_atom_site_fract_y
_atom_site_fract_z
Si Si1 0.332393 0.536750 0.503309
Si Si2 0.996691 0.036750 0.167607
Si Si3 0.662395 0.546313 0.162395
Si Si4 0.673366 0.250000 0.372622
Si Si5 0.478132 0.250000 0.978132
Si Si6 0.127378 0.750000 0.826634
O O1 0.500000 0.500000 0.500000
O O2 0.332379 0.488969 0.666270
O O3 0.329201 0.652416 0.531978
O O4 0.167319 0.500000 0.332681
O O5 0.968022 0.152416 0.170799
O O6 0.833730 0.988969 0.167621
O O7 0.000000 0.000000 0.000000
O O8 0.627084 0.658612 0.127084
O O9 0.500000 0.500000 0.000000
O O10 0.834163 0.250000 0.334163
O O11 0.514482 0.250000 0.175276
O O12 0.675276 0.250000 0.014482
#
# Coordination Sequence:
#
# PCOD9166153 Si02
#       6
#     4   4   4   2   2   2
#     4  12  27  44  72 103 141 180 234 286 341 409
#     4  12  27  44  72 103 141 180 234 286 341 409
#     4  12  21  44  69 101 135 181 221 281 341 405
#     4  10  22  44  74  96 140 182 228 280 348 408
#     4  10  22  38  80  94 136 184 228 270 358 406
#     4  10  22  44  74  96 140 182 228 280 348 408
#
# _framework density 18.623994
#
# number of rings (size 3 to 8) (size 9 to 14) (size 15 to 20)
#    0.667    0.000    6.667    2.000    0.000    5.333 
#    0.000    0.000    0.000    0.000    0.000    0.000 
#    0.000    0.000    0.000    0.000    0.000    0.000 
#
# Total GULP energy -100536.186306 kJ/mol
# GULP energy per Si atom -5585.343684 kJ/mol
# Density = 1.858160 g / cm^3
# Si number density = 18.623994 Si / 1000 Ang^3
#
#
#
# Elastic Constant Matrix: (Units=GPa)
#
#
# Indices 1 2 3 4 5 6 
#
# 1 174.9715 86.5450 98.3333 0.0000 -4.1825 0.0000
# 2 86.5450 252.7685 86.2943 0.0000 -0.2172 0.0000
# 3 98.3333 86.2943 172.6439 0.0000 2.1667 0.0000
# 4 0.0000 0.0000 0.0000 26.9373 0.0000 4.3714
# 5 -4.1825 -0.2172 2.1667 0.0000 41.4029 0.0000
# 6 0.0000 0.0000 0.0000 4.3714 0.0000 21.8896
#
#
#
# Elastic Compliance Matrix: (Units=1/GPa)
#
#
# Indices 1 2 3 4 5 6 
#
# 1 0.008957 -0.001591 -0.004321 0.000000 0.001123 0.000000
# 2 -0.001591 0.005054 -0.001619 0.000000 -0.000049 0.000000
# 3 -0.004321 -0.001619 0.009074 0.000000 -0.000920 0.000000
# 4 0.000000 0.000000 0.000000 0.038367 0.000000 -0.007662
# 5 0.001123 -0.000049 -0.000920 0.000000 0.024314 0.000000
# 6 0.000000 0.000000 0.000000 -0.007662 0.000000 0.047214
#
#
# Mechanical properties :
#
#
# Convention : Reuss Voigt Hill
#
# Bulk Modulus (GPa) = 124.63645 126.96991 125.80318
# Shear Modulus (GPa) = 33.17503 39.99336 36.58419
#
# Velocity S-wave (km/s) = 4.22513 4.63904 4.43692
# Velocity P-wave (km/s) = 9.53258 9.84976 9.69247
#
# Compressibility (1/GPa) = 0.00802333
#
# Stress axis : x y z
#
# Youngs Moduli (GPa) = 111.64341 197.87708 110.20304
#
# Poissons Ratio (x) = 0.31478 0.47615
# Poissons Ratio (y) = 0.17760 0.17845
# Poissons Ratio (z) = 0.48237 0.32043
#
# Static dielectric constant tensor:
#      x y z
#    x 1.620560 0.000000 -0.006700 
#    y 0.000000 1.694650 0.000000 
#    z -0.006700 0.000000 1.612820 
# 
# From -- ./inp_files/11932.got.cif
#   From: 2010.05.17/outbox.cif.g08.bks.cpg/sg11_6_cif.got.tgz:11932.got - 2010.06.03 12:22:45.
