data_PCOD9166418
_publ_section_title
;
Structure prediction by ZEFSAII (Michael W. Deem and Ramdas Pophale) SiO2 
 PCOD9166418
Probable space group: P 21/M
;
_chemical_formula_sum "Si O2"
_cell_formula_units_Z 32
_cell_length_a 9.057883
_cell_length_b 22.141283
_cell_length_c 13.974975
_cell_angle_alpha 90.000000
_cell_angle_beta 151.901103
_cell_angle_gamma 90.000000
_cell_volume 1320.069306
_symmetry_space_group_name_H-M "P 21/M"
_symmetry_group_IT_number 11
_symmetry_cell_setting 'monoclinic'
loop_
_space_group_symop_operation_xyz
x,y,z
-x,1/2+y,-z
-x,-y,-z
x,1/2-y,z
loop_
_atom_site_type_symbol
_atom_site_label
_atom_site_fract_x
_atom_site_fract_y
_atom_site_fract_z
Si Si1 0.367047 0.500449 0.690099
Si Si2 0.045678 0.183639 0.575847
Si Si3 0.104710 0.930354 0.071832
Si Si4 0.720309 0.319964 0.182323
Si Si5 0.262201 0.069275 0.949494
Si Si6 0.720834 0.184298 0.877696
Si Si7 0.276379 0.910535 0.475910
Si Si8 0.396672 0.180993 0.480534
O O1 0.519955 0.440861 0.731517
O O2 0.525345 0.517444 0.881938
O O3 0.442141 0.551714 0.653522
O O4 0.000000 0.500000 0.500000
O O5 0.964731 0.250000 0.564174
O O6 0.416313 0.181379 0.770237
O O7 0.864998 0.174587 0.372264
O O8 0.929613 0.136843 0.584800
O O9 0.053212 0.872189 0.976182
O O10 0.949436 0.909965 0.081481
O O11 0.000000 0.000000 0.000000
O O12 0.601620 0.250000 0.103989
O O13 0.471235 0.374587 0.032456
O O14 0.026020 0.326406 0.290228
O O15 0.987691 0.046683 0.723063
O O16 0.871844 0.250000 0.974891
O O17 0.577839 0.180819 0.687425
O O18 0.474070 0.872865 0.511975
O O19 0.444535 0.250000 0.470564
#
# Coordination Sequence:
#
# PCOD9166418 Si02
#       8
#     4   4   4   4   4   4   4   4
#     4  11  26  46  68  90 134 185 224 284 352 412
#     4   9  18  34  63  97 131 175 228 273 335 411
#     4  10  22  41  63  96 140 171 227 289 339 406
#     4   9  19  39  66  96 138 183 222 275 346 418
#     4  11  24  41  64  99 129 172 228 280 342 405
#     4   9  17  36  65  95 127 177 225 272 344 414
#     4  12  22  39  70  99 130 173 228 283 344 403
#     4   9  19  36  65 100 135 175 221 280 347 414
#
# _framework density 24.241153000000001
#
# number of rings (size 3 to 8) (size 9 to 14) (size 15 to 20)
#    0.000    2.000    2.500    2.625    1.750    2.500 
#    0.000    6.250    0.000    3.000    0.000    0.000 
#    0.000    0.000    0.000    0.000    0.000    0.000 
#
# Total GULP energy -178602.553830 kJ/mol
# GULP energy per Si atom -5581.329807 kJ/mol
# Density = 2.418598 g / cm^3
# Si number density = 24.241153 Si / 1000 Ang^3
#
#
#
# Elastic Constant Matrix: (Units=GPa)
#
#
# Indices 1 2 3 4 5 6 
#
# 1 87.9556 24.1482 18.0380 0.0000 14.1424 0.0000
# 2 24.1482 97.7918 20.8967 0.0000 20.5537 0.0000
# 3 18.0380 20.8967 79.5773 0.0000 -2.2765 0.0000
# 4 0.0000 0.0000 0.0000 9.8901 0.0000 16.1541
# 5 14.1424 20.5537 -2.2765 0.0000 31.4048 0.0000
# 6 0.0000 0.0000 0.0000 16.1541 0.0000 37.4062
#
#
#
# Elastic Compliance Matrix: (Units=1/GPa)
#
#
# Indices 1 2 3 4 5 6 
#
# 1 0.013184 -0.001608 -0.002711 0.000000 -0.005081 0.000000
# 2 -0.001608 0.013012 -0.003282 0.000000 -0.008030 0.000000
# 3 -0.002711 -0.003282 0.014169 0.000000 0.004396 0.000000
# 4 0.000000 0.000000 0.000000 0.343190 0.000000 -0.148209
# 5 -0.005081 -0.008030 0.004396 0.000000 0.039704 0.000000
# 6 0.000000 0.000000 0.000000 -0.148209 0.000000 0.090738
#
#
# Mechanical properties :
#
#
# Convention : Reuss Voigt Hill
#
# Bulk Modulus (GPa) = 39.74407 43.49894 41.62150
# Shear Modulus (GPa) = 9.30081 29.22301 19.26191
#
# Velocity S-wave (km/s) = 1.96090 3.47582 2.82192
# Velocity P-wave (km/s) = 4.64303 5.83880 5.27491
#
# Compressibility (1/GPa) = 0.02516099
#
# Stress axis : x y z
#
# Youngs Moduli (GPa) = 75.84962 76.85251 70.57842
#
# Poissons Ratio (x) = 0.12360 0.19137
# Poissons Ratio (y) = 0.12198 0.23164
# Poissons Ratio (z) = 0.20567 0.25223
#
# Static dielectric constant tensor:
#      x y z
#    x 1.911370 0.000000 -0.025830 
#    y 0.000000 1.976730 0.000000 
#    z -0.025830 0.000000 2.070050 
# 
# From -- ./inp_files/48466.got.cif
#   From: 2010.05.17/outbox.cif.g08.bks.cpg/sg11_25_cif.got.tgz:48466.got - 2010.06.03 12:22:45.
