data_PCOD9166798
_publ_section_title
;
Structure prediction by ZEFSAII (Michael W. Deem and Ramdas Pophale) SiO2 
 PCOD9166798
Probable space group: P 21/M
;
_chemical_formula_sum "Si O2"
_cell_formula_units_Z 24
_cell_length_a 9.220801
_cell_length_b 26.136091
_cell_length_c 5.031501
_cell_angle_alpha 90.000000
_cell_angle_beta 79.999594
_cell_angle_gamma 90.000000
_cell_volume 1194.146919
_symmetry_space_group_name_H-M "P 21/M"
_symmetry_group_IT_number 11
_symmetry_cell_setting 'monoclinic'
loop_
_space_group_symop_operation_xyz
x,y,z
-x,1/2+y,-z
-x,-y,-z
x,1/2-y,z
loop_
_atom_site_type_symbol
_atom_site_label
_atom_site_fract_x
_atom_site_fract_y
_atom_site_fract_z
Si Si1 0.870538 0.531361 0.899344
Si Si2 0.460729 0.891324 0.572807
Si Si3 0.020898 0.810142 0.216861
Si Si4 0.381246 0.956216 0.087350
Si Si5 0.194859 0.099117 0.570215
Si Si6 0.223185 0.690967 0.668802
O O1 0.801727 0.563782 0.166232
O O2 0.766647 0.487089 0.813265
O O3 0.889775 0.570123 0.644614
O O4 0.000000 0.500000 0.000000
O O5 0.430232 0.919352 0.305892
O O6 0.635648 0.891027 0.569073
O O7 0.377647 0.837645 0.603901
O O8 0.376890 0.924147 0.821079
O O9 0.976208 0.750000 0.199098
O O10 0.138261 0.812470 0.417874
O O11 0.888532 0.848485 0.327735
O O12 0.108735 0.828518 0.927992
O O13 0.500000 0.000000 0.000000
O O14 0.249011 0.750000 0.728308
#
# Coordination Sequence:
#
# PCOD9166798 Si02
#       6
#     4   4   4   4   4   4
#     4  12  27  41  61  94 128 169 211 261 303 374
#     4  12  24  40  68  93 124 170 208 259 312 374
#     4  10  23  43  66  92 127 164 204 262 320 372
#     4  12  23  43  62  89 131 169 205 253 315 367
#     4  12  24  43  63  95 128 164 214 257 312 373
#     4  10  23  43  66  95 124 161 211 259 316 380
#
# _framework density 20.098030999999999
#
# number of rings (size 3 to 8) (size 9 to 14) (size 15 to 20)
#    0.000    0.667    3.333    4.000    7.000    0.667 
#    0.000    0.000    0.000   10.000    0.000    0.000 
#    0.000    0.000    0.000    0.000    0.000    0.000 
#
# Total GULP energy -134117.313134 kJ/mol
# GULP energy per Si atom -5588.221381 kJ/mol
# Density = 2.005229 g / cm^3
# Si number density = 20.098031 Si / 1000 Ang^3
#
#
#
# Elastic Constant Matrix: (Units=GPa)
#
#
# Indices 1 2 3 4 5 6 
#
# 1 68.8187 49.3332 -11.8987 0.0000 2.7378 0.0000
# 2 49.3332 87.2486 12.0231 0.0000 -2.8458 0.0000
# 3 -11.8987 12.0231 91.0668 0.0000 8.1644 0.0000
# 4 0.0000 0.0000 0.0000 26.7939 0.0000 -15.3565
# 5 2.7378 -2.8458 8.1644 0.0000 29.0366 0.0000
# 6 0.0000 0.0000 0.0000 -15.3565 0.0000 36.3803
#
#
#
# Elastic Compliance Matrix: (Units=1/GPa)
#
#
# Indices 1 2 3 4 5 6 
#
# 1 0.028030 -0.016937 0.006447 0.000000 -0.006116 0.000000
# 2 -0.016937 0.021983 -0.005593 0.000000 0.005324 0.000000
# 3 0.006447 -0.005593 0.012993 0.000000 -0.004809 0.000000
# 4 0.000000 0.000000 0.000000 0.049233 0.000000 0.020782
# 5 -0.006116 0.005324 -0.004809 0.000000 0.036890 0.000000
# 6 0.000000 0.000000 0.000000 0.020782 0.000000 0.036260
#
#
# Mechanical properties :
#
#
# Convention : Reuss Voigt Hill
#
# Bulk Modulus (GPa) = 32.42531 38.44993 35.43762
# Shear Modulus (GPa) = 21.94580 31.62060 26.78320
#
# Velocity S-wave (km/s) = 3.30803 3.97081 3.65448
# Velocity P-wave (km/s) = 5.54611 6.34002 5.95631
#
# Compressibility (1/GPa) = 0.03084010
#
# Stress axis : x y z
#
# Youngs Moduli (GPa) = 35.67545 45.49031 76.96559
#
# Poissons Ratio (x) = 0.77048 -0.49619
# Poissons Ratio (y) = 0.60424 0.43044
# Poissons Ratio (z) = -0.22999 0.25441
#
# Static dielectric constant tensor:
#      x y z
#    x 1.692010 0.000000 -0.014160 
#    y 0.000000 1.706130 0.000000 
#    z -0.014160 0.000000 1.701790 
# 
# From -- ./inp_files/2742.got.cif
#   From: 2010.05.17/outbox.cif.g08.bks.cpg/sg11_2_cif.got.tgz:2742.got - 2010.06.03 12:22:45.
