data_PCOD9166140
_publ_section_title
;
Structure prediction by ZEFSAII (Michael W. Deem and Ramdas Pophale) SiO2 
 PCOD9166140
Probable space group: P 21/M
;
_chemical_formula_sum "Si O2"
_cell_formula_units_Z 28
_cell_length_a 12.292517
_cell_length_b 18.613942
_cell_length_c 6.378603
_cell_angle_alpha 90.000000
_cell_angle_beta 114.668308
_cell_angle_gamma 90.000000
_cell_volume 1326.306800
_symmetry_space_group_name_H-M "P 21/M"
_symmetry_group_IT_number 11
_symmetry_cell_setting 'monoclinic'
loop_
_space_group_symop_operation_xyz
x,y,z
-x,1/2+y,-z
-x,-y,-z
x,1/2-y,z
loop_
_atom_site_type_symbol
_atom_site_label
_atom_site_fract_x
_atom_site_fract_y
_atom_site_fract_z
Si Si1 0.842480 0.571678 0.700401
Si Si2 0.098968 0.171569 0.875170
Si Si3 0.453005 0.581536 0.948026
Si Si4 0.315976 0.331287 0.731993
Si Si5 0.740690 0.332817 0.935681
Si Si6 0.937306 0.111171 0.386042
Si Si7 0.739927 0.425124 0.543318
O O1 0.892054 0.609471 0.947660
O O2 0.749151 0.623053 0.502347
O O3 0.771180 0.498531 0.689301
O O4 0.960238 0.565586 0.647391
O O5 0.079818 0.250000 0.958794
O O6 0.222765 0.171639 0.847951
O O7 0.001766 0.157245 0.617520
O O8 0.354787 0.612371 0.034640
O O9 0.388259 0.584252 0.669562
O O10 0.500000 0.500000 0.000000
O O11 0.566426 0.631270 0.084504
O O12 0.339455 0.250000 0.678003
O O13 0.701015 0.250000 0.917993
O O14 0.865522 0.342126 0.158999
O O15 0.759415 0.358966 0.713779
O O16 0.833580 0.070098 0.426982
#
# Coordination Sequence:
#
# PCOD9166140 Si02
#       7
#     4   4   4   4   4   4   4
#     4  11  22  39  64  95 131 167 213 265 323 382
#     4  10  22  38  63  94 126 167 212 260 320 385
#     4  11  24  45  69  92 127 171 218 269 323 382
#     4  10  22  41  64  92 128 166 212 266 321 380
#     4  11  26  44  66  97 132 171 219 269 327 389
#     4  10  23  41  65  92 131 172 216 259 321 381
#     4  11  25  41  66  95 128 170 216 266 323 386
#
# _framework density 21.111253999999999
#
# number of rings (size 3 to 8) (size 9 to 14) (size 15 to 20)
#    0.000    1.429    1.429    2.571    2.000   11.429 
#    0.000    1.429    0.000    0.000    0.000    0.000 
#    0.000    0.000    0.000    0.000    0.000    0.000 
#
# Total GULP energy -156350.392109 kJ/mol
# GULP energy per Si atom -5583.942575 kJ/mol
# Density = 2.106320 g / cm^3
# Si number density = 21.111254 Si / 1000 Ang^3
#
#
#
# Elastic Constant Matrix: (Units=GPa)
#
#
# Indices 1 2 3 4 5 6 
#
# 1 71.6678 25.4479 35.6861 0.0000 29.9128 0.0000
# 2 25.4479 78.8204 23.5608 0.0000 5.8486 0.0000
# 3 35.6861 23.5608 123.1252 0.0000 21.6509 0.0000
# 4 0.0000 0.0000 0.0000 19.4981 0.0000 -6.2032
# 5 29.9128 5.8486 21.6509 0.0000 31.1340 0.0000
# 6 0.0000 0.0000 0.0000 -6.2032 0.0000 18.4912
#
#
#
# Elastic Compliance Matrix: (Units=1/GPa)
#
#
# Indices 1 2 3 4 5 6 
#
# 1 0.027087 -0.006258 -0.002602 0.000000 -0.023040 0.000000
# 2 -0.006258 0.014922 -0.001830 0.000000 0.004482 0.000000
# 3 -0.002602 -0.001830 0.009942 0.000000 -0.004070 0.000000
# 4 0.000000 0.000000 0.000000 0.057415 0.000000 0.019261
# 5 -0.023040 0.004482 -0.004070 0.000000 0.056244 0.000000
# 6 0.000000 0.000000 0.000000 0.019261 0.000000 0.060541
#
#
# Mechanical properties :
#
#
# Convention : Reuss Voigt Hill
#
# Bulk Modulus (GPa) = 32.70998 49.22254 40.96626
# Shear Modulus (GPa) = 19.40085 26.41925 22.91005
#
# Velocity S-wave (km/s) = 3.03476 3.54139 3.29782
# Velocity P-wave (km/s) = 5.27327 6.33154 5.82648
#
# Compressibility (1/GPa) = 0.03057171
#
# Stress axis : x y z
#
# Youngs Moduli (GPa) = 36.91746 67.01554 100.58577
#
# Poissons Ratio (x) = 0.41939 0.26172
# Poissons Ratio (y) = 0.23103 0.18404
# Poissons Ratio (z) = 0.09606 0.12262
#
# Static dielectric constant tensor:
#      x y z
#    x 1.790100 0.000000 -0.015660 
#    y 0.000000 1.786370 0.000000 
#    z -0.015660 0.000000 1.737930 
# 
# From -- ./inp_files/5076.got.cif
#   From: 2010.05.17/outbox.cif.g08.bks.cpg/sg11_3_cif.got.tgz:5076.got - 2010.06.03 12:22:45.
