data_PCOD9166307
_publ_section_title
;
Structure prediction by ZEFSAII (Michael W. Deem and Ramdas Pophale) SiO2 
 PCOD9166307
Probable space group: P 21/M
;
_chemical_formula_sum "Si O2"
_cell_formula_units_Z 24
_cell_length_a 13.587756
_cell_length_b 17.746130
_cell_length_c 10.012453
_cell_angle_alpha 90.000000
_cell_angle_beta 153.640117
_cell_angle_gamma 90.000000
_cell_volume 1071.969927
_symmetry_space_group_name_H-M "P 21/M"
_symmetry_group_IT_number 11
_symmetry_cell_setting 'monoclinic'
loop_
_space_group_symop_operation_xyz
x,y,z
-x,1/2+y,-z
-x,-y,-z
x,1/2-y,z
loop_
_atom_site_type_symbol
_atom_site_label
_atom_site_fract_x
_atom_site_fract_y
_atom_site_fract_z
Si Si1 0.317105 0.338738 0.465619
Si Si2 0.323119 0.162683 0.155406
Si Si3 0.024310 0.467733 0.178030
Si Si4 0.874720 0.162005 0.442172
Si Si5 0.273635 0.559692 0.946011
Si Si6 0.432975 0.568535 0.761240
O O1 0.321515 0.250000 0.498458
O O2 0.315396 0.350885 0.303592
O O3 0.102841 0.381287 0.262240
O O4 0.528768 0.382344 0.781108
O O5 0.386565 0.250000 0.212161
O O6 0.496420 0.111241 0.288021
O O7 0.079784 0.153376 0.793476
O O8 0.220784 0.516373 0.480296
O O9 0.000000 0.500000 0.000000
O O10 0.817327 0.471583 0.024883
O O11 0.858302 0.250000 0.387404
O O12 0.646787 0.131313 0.231321
O O13 0.906574 0.107476 0.354481
O O14 0.367413 0.490272 0.972601
#
# Coordination Sequence:
#
# PCOD9166307 Si02
#       6
#     4   4   4   4   4   4
#     4  10  22  40  62  90 122 161 207 253 306 364
#     4  10  22  40  63  90 122 161 206 253 303 362
#     4  11  23  40  64  93 126 162 204 253 305 362
#     4  11  24  41  61  89 123 160 203 251 306 364
#     4  11  24  40  62  91 124 159 202 254 306 360
#     4  11  22  39  63  88 120 161 205 249 303 364
#
# _framework density 22.388688999999999
#
# number of rings (size 3 to 8) (size 9 to 14) (size 15 to 20)
#    0.000    1.333    0.000    5.500    0.000    9.333 
#    0.000    5.833    0.000    0.000    0.000    0.000 
#    0.000    0.000    0.000    0.000    0.000    0.000 
#
# Total GULP energy -134266.508822 kJ/mol
# GULP energy per Si atom -5594.437868 kJ/mol
# Density = 2.233773 g / cm^3
# Si number density = 22.388689 Si / 1000 Ang^3
#
#
#
# Elastic Constant Matrix: (Units=GPa)
#
#
# Indices 1 2 3 4 5 6 
#
# 1 80.5405 17.6012 9.8106 0.0000 6.2475 0.0000
# 2 17.6012 89.1398 10.2101 0.0000 5.8827 0.0000
# 3 9.8106 10.2101 40.7289 0.0000 -9.5267 0.0000
# 4 0.0000 0.0000 0.0000 29.8393 0.0000 -2.7559
# 5 6.2475 5.8827 -9.5267 0.0000 38.8925 0.0000
# 6 0.0000 0.0000 0.0000 -2.7559 0.0000 35.0434
#
#
#
# Elastic Compliance Matrix: (Units=1/GPa)
#
#
# Indices 1 2 3 4 5 6 
#
# 1 0.013491 -0.002104 -0.003346 0.000000 -0.002668 0.000000
# 2 -0.002104 0.012133 -0.003060 0.000000 -0.002247 0.000000
# 3 -0.003346 -0.003060 0.027962 0.000000 0.007850 0.000000
# 4 0.000000 0.000000 0.000000 0.033758 0.000000 0.002655
# 5 -0.002668 -0.002247 0.007850 0.000000 0.028403 0.000000
# 6 0.000000 0.000000 0.000000 0.002655 0.000000 0.028745
#
#
# Mechanical properties :
#
#
# Convention : Reuss Voigt Hill
#
# Bulk Modulus (GPa) = 27.34954 31.73923 29.54438
# Shear Modulus (GPa) = 28.78524 32.27420 30.52972
#
# Velocity S-wave (km/s) = 3.58956 3.80088 3.69673
# Velocity P-wave (km/s) = 5.42423 5.78528 5.60766
#
# Compressibility (1/GPa) = 0.03656369
#
# Stress axis : x y z
#
# Youngs Moduli (GPa) = 74.12578 82.42232 35.76314
#
# Poissons Ratio (x) = 0.17345 0.11967
# Poissons Ratio (y) = 0.15599 0.10944
# Poissons Ratio (z) = 0.24804 0.25222
#
# Static dielectric constant tensor:
#      x y z
#    x 1.822330 0.000000 -0.013430 
#    y 0.000000 1.824900 0.000000 
#    z -0.013430 0.000000 1.813380 
# 
# From -- ./inp_files/53766.got.cif
#   From: 2010.05.17/outbox.cif.g08.bks.cpg/sg11_27_cif.got.tgz:53766.got - 2010.06.03 12:22:45.
