data_PCOD9166574
_publ_section_title
;
Structure prediction by ZEFSAII (Michael W. Deem and Ramdas Pophale) SiO2 
 PCOD9166574
Probable space group: P 21/M
;
_chemical_formula_sum "Si O2"
_cell_formula_units_Z 18
_cell_length_a 7.222567
_cell_length_b 9.956480
_cell_length_c 11.343508
_cell_angle_alpha 90.000000
_cell_angle_beta 71.669806
_cell_angle_gamma 90.000000
_cell_volume 774.336821
_symmetry_space_group_name_H-M "P 21/M"
_symmetry_group_IT_number 11
_symmetry_cell_setting 'monoclinic'
loop_
_space_group_symop_operation_xyz
x,y,z
-x,1/2+y,-z
-x,-y,-z
x,1/2-y,z
loop_
_atom_site_type_symbol
_atom_site_label
_atom_site_fract_x
_atom_site_fract_y
_atom_site_fract_z
Si Si1 0.787801 0.402013 0.422627
Si Si2 0.356502 0.250000 0.854473
Si Si3 0.135675 0.480888 0.215872
Si Si4 0.011430 0.750000 0.925032
Si Si5 0.528634 0.992158 0.689304
Si Si6 0.288036 0.750000 0.061554
O O1 0.861397 0.250000 0.422206
O O2 0.628232 0.406089 0.349765
O O3 0.675471 0.449319 0.560916
O O4 0.966234 0.495722 0.347461
O O5 0.417091 0.117931 0.770616
O O6 0.485021 0.250000 0.948729
O O7 0.133071 0.250000 0.934300
O O8 0.043609 0.379104 0.140531
O O9 0.331215 0.427865 0.240757
O O10 0.198346 0.618012 0.141001
O O11 0.225902 0.750000 0.937926
#
# Coordination Sequence:
#
# PCOD9166574 Si02
#       6
#     4   2   4   2   4   2
#     4  11  22  40  66  94 127 162 208 261 308 378
#     4  10  22  43  64  88 130 165 209 254 315 372
#     4  11  24  43  64  96 127 164 211 258 314 370
#     4  12  24  39  66  94 124 165 219 260 303 366
#     4  10  23  41  64  93 125 167 204 255 321 374
#     4  10  24  42  64  88 130 172 204 256 318 370
#
# _framework density 23.245698000000001
#
# number of rings (size 3 to 8) (size 9 to 14) (size 15 to 20)
#    0.000    1.333    2.222    2.667    1.556    5.333 
#    2.000    0.000    0.000    0.000    0.000    0.000 
#    0.000    0.000    0.000    0.000    0.000    0.000 
#
# Total GULP energy -100759.101879 kJ/mol
# GULP energy per Si atom -5597.727882 kJ/mol
# Density = 2.319279 g / cm^3
# Si number density = 23.245698 Si / 1000 Ang^3
#
#
#
# Elastic Constant Matrix: (Units=GPa)
#
#
# Indices 1 2 3 4 5 6 
#
# 1 88.4618 -0.7909 15.0971 0.0000 23.9672 0.0000
# 2 -0.7909 54.0546 -1.2211 0.0000 18.8710 0.0000
# 3 15.0971 -1.2211 73.3373 0.0000 6.8350 0.0000
# 4 0.0000 0.0000 0.0000 11.7802 0.0000 -15.8074
# 5 23.9672 18.8710 6.8350 0.0000 47.2072 0.0000
# 6 0.0000 0.0000 0.0000 -15.8074 0.0000 74.8650
#
#
#
# Elastic Compliance Matrix: (Units=1/GPa)
#
#
# Indices 1 2 3 4 5 6 
#
# 1 0.013816 0.002906 -0.002062 0.000000 -0.007878 0.000000
# 2 0.002906 0.022212 0.000747 0.000000 -0.010463 0.000000
# 3 -0.002062 0.000747 0.014194 0.000000 -0.001307 0.000000
# 4 0.000000 0.000000 0.000000 0.118448 0.000000 0.025010
# 5 -0.007878 -0.010463 -0.001307 0.000000 0.029554 0.000000
# 6 0.000000 0.000000 0.000000 0.025010 0.000000 0.018638
#
#
# Mechanical properties :
#
#
# Convention : Reuss Voigt Hill
#
# Bulk Modulus (GPa) = 18.72506 26.89152 22.80829
# Shear Modulus (GPa) = 21.59991 40.28837 30.94414
#
# Velocity S-wave (km/s) = 3.05159 4.16763 3.65249
# Velocity P-wave (km/s) = 4.52648 5.89512 5.25554
#
# Compressibility (1/GPa) = 0.05340438
#
# Stress axis : x y z
#
# Youngs Moduli (GPa) = 72.37737 45.02111 70.45094
#
# Poissons Ratio (x) = -0.13082 0.14524
# Poissons Ratio (y) = -0.21031 -0.05261
# Poissons Ratio (z) = 0.14922 -0.03362
#
# Static dielectric constant tensor:
#      x y z
#    x 1.856250 0.000000 0.024040 
#    y 0.000000 1.795290 0.000000 
#    z 0.024040 0.000000 1.890990 
# 
# From -- ./inp_files/11888.got.cif
#   From: 2010.05.17/outbox.cif.g08.bks.cpg/sg11_6_cif.got.tgz:11888.got - 2010.06.03 12:22:45.
