data_PCOD9166471
_publ_section_title
;
Structure prediction by ZEFSAII (Michael W. Deem and Ramdas Pophale) SiO2 
 PCOD9166471
Probable space group: P 21/M
;
_chemical_formula_sum "Si O2"
_cell_formula_units_Z 24
_cell_length_a 5.553795
_cell_length_b 11.056612
_cell_length_c 20.051706
_cell_angle_alpha 90.000000
_cell_angle_beta 117.514802
_cell_angle_gamma 90.000000
_cell_volume 1092.027921
_symmetry_space_group_name_H-M "P 21/M"
_symmetry_group_IT_number 11
_symmetry_cell_setting 'monoclinic'
loop_
_space_group_symop_operation_xyz
x,y,z
-x,1/2+y,-z
-x,-y,-z
x,1/2-y,z
loop_
_atom_site_type_symbol
_atom_site_label
_atom_site_fract_x
_atom_site_fract_y
_atom_site_fract_z
Si Si1 0.704703 0.458189 0.940663
Si Si2 0.408727 0.974268 0.326004
Si Si3 0.909830 0.120332 0.836249
Si Si4 0.353113 0.384068 0.512234
Si Si5 0.065821 0.889034 0.649411
Si Si6 0.727346 0.383300 0.088518
O O1 0.715656 0.381760 0.875793
O O2 0.540446 0.580734 0.905383
O O3 0.623117 0.390105 0.998168
O O4 0.000000 0.500000 0.000000
O O5 0.633288 0.055705 0.316491
O O6 0.164458 0.044406 0.334638
O O7 0.257737 0.893852 0.252375
O O8 0.586893 0.899170 0.402218
O O9 0.058572 0.250000 0.855281
O O10 0.083986 0.997705 0.868868
O O11 0.500000 0.500000 0.500000
O O12 0.456955 0.250000 0.504662
O O13 0.053523 0.390689 0.442010
O O14 0.078815 0.750000 0.672963
O O15 0.836101 0.250000 0.115865
#
# Coordination Sequence:
#
# PCOD9166471 Si02
#       6
#     4   4   4   4   4   4
#     4   9  21  40  64  93 126 165 209 264 323 393
#     4  11  23  41  63  98 132 179 220 277 335 407
#     4  11  25  42  62  93 131 174 215 269 338 404
#     4   9  19  39  66  96 130 174 226 280 333 397
#     4  10  22  41  66  95 131 174 226 281 337 395
#     4  10  22  41  67  96 125 166 219 272 325 393
#
# _framework density 21.977457000000001
#
# number of rings (size 3 to 8) (size 9 to 14) (size 15 to 20)
#    0.000    2.000    0.000    2.000    2.333   11.333 
#    0.000   10.833    0.000    0.000    0.000    0.000 
#    0.000    0.000    0.000    0.000    0.000    0.000 
#
# Total GULP energy -133625.125312 kJ/mol
# GULP energy per Si atom -5567.713555 kJ/mol
# Density = 2.192744 g / cm^3
# Si number density = 21.977457 Si / 1000 Ang^3
#
#
#
# Elastic Constant Matrix: (Units=GPa)
#
#
# Indices 1 2 3 4 5 6 
#
# 1 85.4406 43.0152 13.7293 0.0000 3.1149 0.0000
# 2 43.0152 184.3862 36.5806 0.0000 5.5152 0.0000
# 3 13.7293 36.5806 93.8469 0.0000 -10.3010 0.0000
# 4 0.0000 0.0000 0.0000 20.9200 0.0000 10.3294
# 5 3.1149 5.5152 -10.3010 0.0000 15.6119 0.0000
# 6 0.0000 0.0000 0.0000 10.3294 0.0000 19.7105
#
#
#
# Elastic Compliance Matrix: (Units=1/GPa)
#
#
# Indices 1 2 3 4 5 6 
#
# 1 0.013397 -0.002831 -0.001121 0.000000 -0.002413 0.000000
# 2 -0.002831 0.006701 -0.002583 0.000000 -0.003507 0.000000
# 3 -0.001121 -0.002583 0.012884 0.000000 0.009637 0.000000
# 4 0.000000 0.000000 0.000000 0.064488 0.000000 -0.033795
# 5 -0.002413 -0.003507 0.009637 0.000000 0.072133 0.000000
# 6 0.000000 0.000000 0.000000 -0.033795 0.000000 0.068445
#
#
# Mechanical properties :
#
#
# Convention : Reuss Voigt Hill
#
# Bulk Modulus (GPa) = 50.21902 61.14709 55.68306
# Shear Modulus (GPa) = 19.39821 29.27172 24.33497
#
# Velocity S-wave (km/s) = 2.97415 3.65348 3.33118
# Velocity P-wave (km/s) = 5.89016 6.75872 6.33933
#
# Compressibility (1/GPa) = 0.01991278
#
# Stress axis : x y z
#
# Youngs Moduli (GPa) = 74.64147 149.22955 77.61391
#
# Poissons Ratio (x) = 0.42244 0.08704
# Poissons Ratio (y) = 0.21130 0.20046
# Poissons Ratio (z) = 0.08370 0.38543
#
# Static dielectric constant tensor:
#      x y z
#    x 1.904040 0.000000 -0.028300 
#    y 0.000000 1.641820 0.000000 
#    z -0.028300 0.000000 1.827740 
# 
# From -- ./inp_files/62601.got.cif
#   From: 2010.05.17/outbox.cif.g08.bks.cpg/sg11_32_cif.got.tgz:62601.got - 2010.06.03 12:22:45.
