data_PCOD9166047
_publ_section_title
;
Structure prediction by ZEFSAII (Michael W. Deem and Ramdas Pophale) SiO2 
 PCOD9166047
Probable space group: P 21/M
;
_chemical_formula_sum "Si O2"
_cell_formula_units_Z 24
_cell_length_a 21.843062
_cell_length_b 7.393826
_cell_length_c 11.104488
_cell_angle_alpha 90.000000
_cell_angle_beta 32.691709
_cell_angle_gamma 90.000000
_cell_volume 968.657782
_symmetry_space_group_name_H-M "P 21/M"
_symmetry_group_IT_number 11
_symmetry_cell_setting 'monoclinic'
loop_
_space_group_symop_operation_xyz
x,y,z
-x,1/2+y,-z
-x,-y,-z
x,1/2-y,z
loop_
_atom_site_type_symbol
_atom_site_label
_atom_site_fract_x
_atom_site_fract_y
_atom_site_fract_z
Si Si1 0.147323 0.532726 0.505235
Si Si2 0.285716 0.033266 0.516893
Si Si3 0.668191 0.029632 0.204060
Si Si4 0.069995 0.465280 0.006956
Si Si5 0.512489 0.952686 0.684244
Si Si6 0.867271 0.465218 0.730067
O O1 0.138080 0.750000 0.515423
O O2 0.232805 0.494914 0.472774
O O3 0.181997 0.467963 0.316138
O O4 0.019912 0.463153 0.746879
O O5 0.291528 0.250000 0.522941
O O6 0.412132 0.962919 0.334281
O O7 0.193822 0.961220 0.767101
O O8 0.659480 0.250000 0.229951
O O9 0.595860 0.971859 0.205652
O O10 0.605274 0.948470 0.422336
O O11 0.796295 0.970088 0.962930
O O12 0.081075 0.250000 0.005554
O O13 0.000000 0.500000 0.000000
O O14 0.478655 0.750000 0.777443
O O15 0.851732 0.250000 0.759486
O O16 0.000000 0.500000 0.500000
#
# Coordination Sequence:
#
# PCOD9166047 Si02
#       6
#     4   4   4   4   4   4
#     4   9  18  32  48  69 100 135 167 205 253 305
#     4   9  17  29  49  75  99 128 167 210 254 300
#     4   9  19  36  53  76 106 136 173 215 258 304
#     4   8  14  25  41  63  91 121 156 195 237 285
#     4   9  18  33  56  79 103 135 171 215 261 304
#     4  10  22  37  54  75 104 140 175 212 256 309
#
# _framework density 24.77655
#
# number of rings (size 3 to 8) (size 9 to 14) (size 15 to 20)
#    0.000    3.000    0.000    0.000    2.333    2.000 
#    0.000    0.833    0.000    0.000    0.000    0.000 
#    0.000    0.000    0.000    0.000    0.000    0.000 
#
# Total GULP energy -133872.406781 kJ/mol
# GULP energy per Si atom -5578.016949 kJ/mol
# Density = 2.472016 g / cm^3
# Si number density = 24.776550 Si / 1000 Ang^3
#
#
#
# Elastic Constant Matrix: (Units=GPa)
#
#
# Indices 1 2 3 4 5 6 
#
# 1 91.7492 -7.4490 3.0462 0.0000 -14.3730 0.0000
# 2 -7.4490 102.1666 -5.4955 0.0000 3.4248 0.0000
# 3 3.0462 -5.4955 64.7733 0.0000 6.4858 0.0000
# 4 0.0000 0.0000 0.0000 6.2665 0.0000 0.8563
# 5 -14.3730 3.4248 6.4858 0.0000 41.1130 0.0000
# 6 0.0000 0.0000 0.0000 0.8563 0.0000 18.7162
#
#
#
# Elastic Compliance Matrix: (Units=1/GPa)
#
#
# Indices 1 2 3 4 5 6 
#
# 1 0.011634 0.000660 -0.000907 0.000000 0.004155 0.000000
# 2 0.000660 0.009908 0.000883 0.000000 -0.000734 0.000000
# 3 -0.000907 0.000883 0.015845 0.000000 -0.002890 0.000000
# 4 0.000000 0.000000 0.000000 0.160582 0.000000 -0.007347
# 5 0.004155 -0.000734 -0.002890 0.000000 0.026293 0.000000
# 6 0.000000 0.000000 0.000000 -0.007347 0.000000 0.053766
#
#
# Mechanical properties :
#
#
# Convention : Reuss Voigt Hill
#
# Bulk Modulus (GPa) = 25.86680 26.54362 26.20521
# Shear Modulus (GPa) = 17.26262 31.12496 24.19379
#
# Velocity S-wave (km/s) = 2.64243 3.54817 3.12826
# Velocity P-wave (km/s) = 4.44664 5.24619 4.86288
#
# Compressibility (1/GPa) = 0.03865960
#
# Stress axis : x y z
#
# Youngs Moduli (GPa) = 85.95531 100.92680 63.10955
#
# Poissons Ratio (x) = -0.06663 0.05725
# Poissons Ratio (y) = -0.05674 -0.05573
# Poissons Ratio (z) = 0.07798 -0.08913
#
# Static dielectric constant tensor:
#      x y z
#    x 1.923910 0.000000 -0.002400 
#    y 0.000000 1.967880 0.000000 
#    z -0.002400 0.000000 2.073500 
# 
# From -- ./inp_files/43871.got.cif
#   From: 2010.05.17/outbox.cif.g08.bks.cpg/sg11_22_cif.got.tgz:43871.got - 2010.06.03 12:22:45.
