data_PCOD9166240
_publ_section_title
;
Structure prediction by ZEFSAII (Michael W. Deem and Ramdas Pophale) SiO2 
 PCOD9166240
Probable space group: P 21/M
;
_chemical_formula_sum "Si O2"
_cell_formula_units_Z 20
_cell_length_a 9.738005
_cell_length_b 12.047425
_cell_length_c 7.707275
_cell_angle_alpha 90.000000
_cell_angle_beta 85.919221
_cell_angle_gamma 90.000000
_cell_volume 901.908791
_symmetry_space_group_name_H-M "P 21/M"
_symmetry_group_IT_number 11
_symmetry_cell_setting 'monoclinic'
loop_
_space_group_symop_operation_xyz
x,y,z
-x,1/2+y,-z
-x,-y,-z
x,1/2-y,z
loop_
_atom_site_type_symbol
_atom_site_label
_atom_site_fract_x
_atom_site_fract_y
_atom_site_fract_z
Si Si1 0.820206 0.982464 0.850774
Si Si2 0.389633 0.634217 0.576933
Si Si3 0.916457 0.625239 0.197392
Si Si4 0.708326 0.907444 0.523929
Si Si5 0.416915 0.619566 0.987058
O O1 0.760708 0.896160 0.715017
O O2 0.841246 0.919259 0.031010
O O3 0.963983 0.035907 0.778166
O O4 0.718477 0.086023 0.894847
O O5 0.328293 0.750000 0.529323
O O6 0.305715 0.538419 0.498011
O O7 0.551246 0.630965 0.513110
O O8 0.387307 0.622995 0.784520
O O9 0.969680 0.750000 0.160999
O O10 0.810969 0.630728 0.366824
O O11 0.463283 0.750000 0.025854
O O12 0.500000 0.500000 0.000000
#
# Coordination Sequence:
#
# PCOD9166240 Si02
#       5
#     4   4   4   4   4
#     4  11  24  44  65  95 128 172 220 272 326 394
#     4  10  22  39  63  95 133 169 212 269 327 388
#     4  11  25  43  65  93 128 172 222 273 329 391
#     4  11  22  43  65  94 130 166 220 267 328 391
#     4  11  22  42  67  97 134 175 221 275 335 395
#
# _framework density 22.175194000000001
#
# number of rings (size 3 to 8) (size 9 to 14) (size 15 to 20)
#    0.000    1.200    4.000    1.800    0.000    4.000 
#    0.000    0.000    0.000    0.000    0.000    0.000 
#    0.000    0.000    0.000    0.000    0.000    0.000 
#
# Total GULP energy -111557.083049 kJ/mol
# GULP energy per Si atom -5577.854152 kJ/mol
# Density = 2.212472 g / cm^3
# Si number density = 22.175194 Si / 1000 Ang^3
#
#
#
# Elastic Constant Matrix: (Units=GPa)
#
#
# Indices 1 2 3 4 5 6 
#
# 1 48.9719 6.6782 24.4759 0.0000 -8.8141 0.0000
# 2 6.6782 108.4911 3.2800 0.0000 1.8150 0.0000
# 3 24.4759 3.2800 78.7209 0.0000 -25.4797 0.0000
# 4 0.0000 0.0000 0.0000 6.2069 0.0000 1.6638
# 5 -8.8141 1.8150 -25.4797 0.0000 29.5553 0.0000
# 6 0.0000 0.0000 0.0000 1.6638 0.0000 -32.1553
#
#
#
# Elastic Compliance Matrix: (Units=1/GPa)
#
#
# Indices 1 2 3 4 5 6 
#
# 1 0.024381 -0.001305 -0.007139 0.000000 0.001197 0.000000
# 2 -0.001305 0.009332 -0.000409 0.000000 -0.001314 0.000000
# 3 -0.007139 -0.000409 0.019777 0.000000 0.014946 0.000000
# 4 0.000000 0.000000 0.000000 0.158906 0.000000 0.008222
# 5 0.001197 -0.001314 0.014946 0.000000 0.047158 0.000000
# 6 0.000000 0.000000 0.000000 0.008222 0.000000 -0.030674
#
#
# Mechanical properties :
#
#
# Convention : Reuss Voigt Hill
#
# Bulk Modulus (GPa) = 27.94402 33.89467 30.91934
# Shear Modulus (GPa) = 19.34130 14.17137 16.75633
#
# Velocity S-wave (km/s) = 2.95651 2.53071 2.75186
# Velocity P-wave (km/s) = 4.92783 4.88441 4.90617
#
# Compressibility (1/GPa) = 0.03578583
#
# Stress axis : x y z
#
# Youngs Moduli (GPa) = 41.01519 107.15793 50.56270
#
# Poissons Ratio (x) = 0.13984 0.36096
# Poissons Ratio (y) = 0.05352 0.02066
# Poissons Ratio (z) = 0.29280 0.04378
#
# Static dielectric constant tensor:
#      x y z
#    x 1.830130 0.000000 -0.002250 
#    y 0.000000 1.858980 0.000000 
#    z -0.002250 0.000000 1.817220 
# 
# From -- ./inp_files/11744.got.cif
#   From: 2010.05.17/outbox.cif.g08.bks.cpg/sg11_6_cif.got.tgz:11744.got - 2010.06.03 12:22:45.
