data_PCOD9166778
_publ_section_title
;
Structure prediction by ZEFSAII (Michael W. Deem and Ramdas Pophale) SiO2 
 PCOD9166778
Probable space group: P 21/M
;
_chemical_formula_sum "Si O2"
_cell_formula_units_Z 24
_cell_length_a 18.717112
_cell_length_b 12.346810
_cell_length_c 14.167028
_cell_angle_alpha 90.000000
_cell_angle_beta 20.601059
_cell_angle_gamma 90.000000
_cell_volume 1151.969440
_symmetry_space_group_name_H-M "P 21/M"
_symmetry_group_IT_number 11
_symmetry_cell_setting 'monoclinic'
loop_
_space_group_symop_operation_xyz
x,y,z
-x,1/2+y,-z
-x,-y,-z
x,1/2-y,z
loop_
_atom_site_type_symbol
_atom_site_label
_atom_site_fract_x
_atom_site_fract_y
_atom_site_fract_z
Si Si1 0.406279 0.919554 0.690736
Si Si2 0.409357 0.055823 0.969596
Si Si3 0.306605 0.122542 0.304699
Si Si4 0.183270 0.750000 0.842467
Si Si5 0.043417 0.250000 0.177588
Si Si6 0.388823 0.750000 0.388980
Si Si7 0.903000 0.978063 0.784990
Si Si8 0.254164 0.250000 0.715121
O O1 0.240857 0.850186 0.837193
O O2 0.597921 0.850042 0.488514
O O3 0.500000 0.000000 0.500000
O O4 0.285633 0.974914 0.923102
O O5 0.496689 0.143135 0.787910
O O6 0.545718 0.948028 0.810857
O O7 0.401560 0.111280 0.082126
O O8 0.184227 0.028977 0.212421
O O9 0.285660 0.250000 0.354786
O O10 0.094400 0.056867 0.562741
O O11 0.338205 0.750000 0.562169
O O12 0.955520 0.750000 0.083374
O O13 0.825573 0.250000 0.398220
O O14 0.057591 0.358190 0.222445
O O15 0.199295 0.250000 0.895609
#
# Coordination Sequence:
#
# PCOD9166778 Si02
#       8
#     4   4   4   2   2   2   4   2
#     4  11  23  41  65  98 133 171 222 278 329 394
#     4  11  24  45  72  99 132 183 220 276 336 402
#     4  11  26  46  66 102 141 170 225 279 336 401
#     4  10  25  41  67  96 136 177 222 280 330 392
#     4  11  22  42  70  99 129 171 228 279 319 405
#     4  11  20  44  72 102 127 179 231 268 333 396
#     4  12  25  43  70  99 135 176 223 275 341 395
#     4  10  23  43  59  93 132 173 221 267 330 387
#
# _framework density 20.833886
#
# number of rings (size 3 to 8) (size 9 to 14) (size 15 to 20)
#    0.000    1.000    4.167    2.000    4.667    2.667 
#    0.000    0.000    0.000    0.000    0.000    0.000 
#    0.000    0.000    0.000    0.000    0.000    0.000 
#
# Total GULP energy -134150.447393 kJ/mol
# GULP energy per Si atom -5589.601975 kJ/mol
# Density = 2.078647 g / cm^3
# Si number density = 20.833886 Si / 1000 Ang^3
#
#
#
# Elastic Constant Matrix: (Units=GPa)
#
#
# Indices 1 2 3 4 5 6 
#
# 1 94.9417 41.2194 15.0082 0.0000 -23.4018 0.0000
# 2 41.2194 162.5384 41.8001 0.0000 -14.8929 0.0000
# 3 15.0082 41.8001 85.5708 0.0000 -12.0617 0.0000
# 4 0.0000 0.0000 0.0000 34.7430 0.0000 2.8326
# 5 -23.4018 -14.8929 -12.0617 0.0000 35.3882 0.0000
# 6 0.0000 0.0000 0.0000 2.8326 0.0000 10.3029
#
#
#
# Elastic Compliance Matrix: (Units=1/GPa)
#
#
# Indices 1 2 3 4 5 6 
#
# 1 0.013667 -0.002759 0.000064 0.000000 0.007899 0.000000
# 2 -0.002759 0.007714 -0.003240 0.000000 0.000318 0.000000
# 3 0.000064 -0.003240 0.013731 0.000000 0.003359 0.000000
# 4 0.000000 0.000000 0.000000 0.029443 0.000000 -0.008095
# 5 0.007899 0.000318 0.003359 0.000000 0.034760 0.000000
# 6 0.000000 0.000000 0.000000 -0.008095 0.000000 0.099286
#
#
# Mechanical properties :
#
#
# Convention : Reuss Voigt Hill
#
# Bulk Modulus (GPa) = 43.02248 59.90069 51.46158
# Shear Modulus (GPa) = 22.91287 32.42169 27.66728
#
# Velocity S-wave (km/s) = 3.31990 3.94915 3.64812
# Velocity P-wave (km/s) = 5.94901 7.04332 6.51917
#
# Compressibility (1/GPa) = 0.02324367
#
# Stress axis : x y z
#
# Youngs Moduli (GPa) = 73.16725 129.62996 72.82790
#
# Poissons Ratio (x) = 0.35761 -0.00465
# Poissons Ratio (y) = 0.20184 0.23594
# Poissons Ratio (z) = -0.00467 0.41995
#
# Static dielectric constant tensor:
#      x y z
#    x 1.669240 0.000000 0.020600 
#    y 0.000000 1.733300 0.000000 
#    z 0.020600 0.000000 1.736180 
# 
# From -- ./inp_files/54799.got.cif
#   From: 2010.05.17/outbox.cif.g08.bks.cpg/sg11_28_cif.got.tgz:54799.got - 2010.06.03 12:22:45.
