data_PCOD9166928
_publ_section_title
;
Structure prediction by ZEFSAII (Michael W. Deem and Ramdas Pophale) SiO2 
 PCOD9166928
Probable space group: P 21/M
;
_chemical_formula_sum "Si O2"
_cell_formula_units_Z 20
_cell_length_a 4.892121
_cell_length_b 18.391220
_cell_length_c 9.356514
_cell_angle_alpha 90.000000
_cell_angle_beta 108.261174
_cell_angle_gamma 90.000000
_cell_volume 799.429006
_symmetry_space_group_name_H-M "P 21/M"
_symmetry_group_IT_number 11
_symmetry_cell_setting 'monoclinic'
loop_
_space_group_symop_operation_xyz
x,y,z
-x,1/2+y,-z
-x,-y,-z
x,1/2-y,z
loop_
_atom_site_type_symbol
_atom_site_label
_atom_site_fract_x
_atom_site_fract_y
_atom_site_fract_z
Si Si1 0.634605 0.872447 0.338110
Si Si2 0.030097 0.833307 0.147896
Si Si3 0.822092 0.170728 0.391612
Si Si4 0.134090 0.588976 0.871873
Si Si5 0.471881 0.034419 0.281757
O O1 0.763499 0.857760 0.200712
O O2 0.876008 0.840058 0.480258
O O3 0.386771 0.897569 0.611388
O O4 0.595698 0.958487 0.353176
O O5 0.985245 0.750000 0.093799
O O6 0.319853 0.837284 0.290354
O O7 0.090215 0.886863 0.025640
O O8 0.700032 0.250000 0.401175
O O9 0.875264 0.160317 0.230575
O O10 0.869491 0.539347 0.775022
O O11 0.420443 0.549926 0.862837
#
# Coordination Sequence:
#
# PCOD9166928 Si02
#       5
#     4   4   4   4   4
#     4  12  26  43  70  97 138 171 218 274 335 386
#     4  12  26  44  66 100 135 175 220 273 328 390
#     4  10  24  44  68  97 131 177 223 270 324 392
#     4  10  24  43  70  91 133 171 223 268 323 387
#     4  10  24  43  70  99 130 172 225 269 326 388
#
# _framework density 25.017855000000001
#
# number of rings (size 3 to 8) (size 9 to 14) (size 15 to 20)
#    1.200    0.000    0.000    5.400    2.800    7.200 
#    0.000    0.000    0.000    0.000    0.000    0.000 
#    0.000    0.000    0.000    0.000    0.000    0.000 
#
# Total GULP energy -111995.765799 kJ/mol
# GULP energy per Si atom -5599.788290 kJ/mol
# Density = 2.496091 g / cm^3
# Si number density = 25.017855 Si / 1000 Ang^3
#
#
#
# Elastic Constant Matrix: (Units=GPa)
#
#
# Indices 1 2 3 4 5 6 
#
# 1 76.9675 -7.4642 -6.8241 0.0000 -21.3893 0.0000
# 2 -7.4642 141.6141 12.3901 0.0000 -9.3882 0.0000
# 3 -6.8241 12.3901 69.6976 0.0000 -2.3356 0.0000
# 4 0.0000 0.0000 0.0000 74.3751 0.0000 123.1993
# 5 -21.3893 -9.3882 -2.3356 0.0000 34.1220 0.0000
# 6 0.0000 0.0000 0.0000 123.1993 0.0000 298.7182
#
#
#
# Elastic Compliance Matrix: (Units=1/GPa)
#
#
# Indices 1 2 3 4 5 6 
#
# 1 0.016252 0.001417 0.001698 0.000000 0.010694 0.000000
# 2 0.001417 0.007420 -0.001085 0.000000 0.002856 0.000000
# 3 0.001698 -0.001085 0.014766 0.000000 0.001777 0.000000
# 4 0.000000 0.000000 0.000000 0.042437 0.000000 -0.017502
# 5 0.010694 0.002856 0.001777 0.000000 0.036917 0.000000
# 6 0.000000 0.000000 0.000000 -0.017502 0.000000 0.010566
#
#
# Mechanical properties :
#
#
# Convention : Reuss Voigt Hill
#
# Bulk Modulus (GPa) = 23.52996 31.60919 27.56958
# Shear Modulus (GPa) = 36.11023 100.78824 68.44924
#
# Velocity S-wave (km/s) = 3.80330 6.35405 5.23637
# Velocity P-wave (km/s) = 5.35841 8.15439 6.89951
#
# Compressibility (1/GPa) = 0.04249901
#
# Stress axis : x y z
#
# Youngs Moduli (GPa) = 61.52996 134.76458 67.72188
#
# Poissons Ratio (x) = -0.19097 -0.11497
# Poissons Ratio (y) = -0.08719 0.07346
# Poissons Ratio (z) = -0.10446 0.14618
#
# Static dielectric constant tensor:
#      x y z
#    x 1.883060 0.000000 -0.022530 
#    y 0.000000 1.937220 0.000000 
#    z -0.022530 0.000000 2.046620 
# 
# From -- ./inp_files/10170.got.cif
#   From: 2010.05.17/outbox.cif.g08.bks.cpg/sg11_6_cif.got.tgz:10170.got - 2010.06.03 12:22:45.
