data_PCOD9166098
_publ_section_title
;
Structure prediction by ZEFSAII (Michael W. Deem and Ramdas Pophale) SiO2 
 PCOD9166098
Probable space group: P 21/M
;
_chemical_formula_sum "Si O2"
_cell_formula_units_Z 28
_cell_length_a 9.525903
_cell_length_b 8.776398
_cell_length_c 29.904923
_cell_angle_alpha 90.000000
_cell_angle_beta 142.341861
_cell_angle_gamma 90.000000
_cell_volume 1527.460432
_symmetry_space_group_name_H-M "P 21/M"
_symmetry_group_IT_number 11
_symmetry_cell_setting 'monoclinic'
loop_
_space_group_symop_operation_xyz
x,y,z
-x,1/2+y,-z
-x,-y,-z
x,1/2-y,z
loop_
_atom_site_type_symbol
_atom_site_label
_atom_site_fract_x
_atom_site_fract_y
_atom_site_fract_z
Si Si1 0.813074 0.433230 0.359954
Si Si2 0.744581 0.566555 0.931653
Si Si3 0.422382 0.566430 0.933110
Si Si4 0.656907 0.932004 0.500885
Si Si5 0.488039 0.568066 0.629573
Si Si6 0.892709 0.933860 0.796784
Si Si7 0.588159 0.068435 0.798647
O O1 0.796262 0.250000 0.349225
O O2 0.702427 0.466303 0.380576
O O3 0.653109 0.513913 0.283201
O O4 0.077692 0.480122 0.425811
O O5 0.754775 0.750000 0.933259
O O6 0.590911 0.519026 0.935523
O O7 0.633471 0.506148 0.857966
O O8 0.000000 0.500000 0.000000
O O9 0.430838 0.750000 0.937745
O O10 0.157385 0.523369 0.857366
O O11 0.500000 0.500000 0.000000
O O12 0.651581 0.750000 0.501745
O O13 0.500000 0.000000 0.500000
O O14 0.566811 0.985402 0.430062
O O15 0.487398 0.750000 0.621708
O O16 0.730732 0.526656 0.713845
O O17 0.877023 0.750000 0.798497
O O18 0.781447 0.010265 0.812394
O O19 0.597224 0.250000 0.804164
#
# Coordination Sequence:
#
# PCOD9166098 Si02
#       7
#     4   4   4   4   4   4   4
#     4   9  20  39  60  81 109 149 188 225 275 335
#     4  11  23  39  58  83 115 151 189 229 276 331
#     4  10  22  38  58  82 109 144 186 228 272 324
#     4  11  23  37  55  81 114 149 186 230 281 331
#     4   9  18  35  59  83 108 141 184 229 277 333
#     4   9  19  38  60  82 111 147 182 224 279 336
#     4  11  22  36  58  88 115 143 183 231 278 328
#
# _framework density 18.331081000000001
#
# number of rings (size 3 to 8) (size 9 to 14) (size 15 to 20)
#    0.000    2.000    0.000    4.286    0.000    8.571 
#    0.000    2.857    0.000    0.000    0.000    0.000 
#    0.000    0.000    0.000    0.000    0.000    0.000 
#
# Total GULP energy -156425.806411 kJ/mol
# GULP energy per Si atom -5586.635943 kJ/mol
# Density = 1.828936 g / cm^3
# Si number density = 18.331081 Si / 1000 Ang^3
#
#
#
# Elastic Constant Matrix: (Units=GPa)
#
#
# Indices 1 2 3 4 5 6 
#
# 1 160.8595 58.4778 134.0500 0.0000 8.7678 0.0000
# 2 58.4778 49.6176 57.8134 0.0000 -2.4594 0.0000
# 3 134.0500 57.8134 164.2443 0.0000 3.0644 0.0000
# 4 0.0000 0.0000 0.0000 36.9770 0.0000 -4.5873
# 5 8.7678 -2.4594 3.0644 0.0000 37.1578 0.0000
# 6 0.0000 0.0000 0.0000 -4.5873 0.0000 29.1378
#
#
#
# Elastic Compliance Matrix: (Units=1/GPa)
#
#
# Indices 1 2 3 4 5 6 
#
# 1 0.021974 -0.009031 -0.014670 0.000000 -0.004573 0.000000
# 2 -0.009031 0.038278 -0.006199 0.000000 0.005176 0.000000
# 3 -0.014670 -0.006199 0.020218 0.000000 0.001384 0.000000
# 4 0.000000 0.000000 0.000000 0.027583 0.000000 0.004342
# 5 -0.004573 0.005176 0.001384 0.000000 0.028220 0.000000
# 6 0.000000 0.000000 0.000000 0.004342 0.000000 0.035003
#
#
# Mechanical properties :
#
#
# Convention : Reuss Voigt Hill
#
# Bulk Modulus (GPa) = 48.38246 97.26710 72.82478
# Shear Modulus (GPa) = 21.01127 28.94654 24.97891
#
# Velocity S-wave (km/s) = 3.38925 3.97810 3.69542
# Velocity P-wave (km/s) = 6.46274 8.61840 7.61721
#
# Compressibility (1/GPa) = 0.02066865
#
# Stress axis : x y z
#
# Youngs Moduli (GPa) = 45.50746 26.12467 49.46060
#
# Poissons Ratio (x) = 0.23594 0.72560
# Poissons Ratio (y) = 0.41100 0.30661
# Poissons Ratio (z) = 0.66761 0.16195
#
# Static dielectric constant tensor:
#      x y z
#    x 1.606660 0.000000 0.018280 
#    y 0.000000 1.617180 0.000000 
#    z 0.018280 0.000000 1.611640 
# 
# From -- ./inp_files/70804.got.cif
#   From: 2010.05.17/outbox.cif.g08.bks.cpg/sg11_36_cif.got.tgz:70804.got - 2010.06.03 12:22:45.
