data_PCOD9166439
_publ_section_title
;
Structure prediction by ZEFSAII (Michael W. Deem and Ramdas Pophale) SiO2 
 PCOD9166439
Probable space group: P 21/M
;
_chemical_formula_sum "Si O2"
_cell_formula_units_Z 32
_cell_length_a 13.869345
_cell_length_b 18.263503
_cell_length_c 7.965115
_cell_angle_alpha 90.000000
_cell_angle_beta 135.165325
_cell_angle_gamma 90.000000
_cell_volume 1422.526350
_symmetry_space_group_name_H-M "P 21/M"
_symmetry_group_IT_number 11
_symmetry_cell_setting 'monoclinic'
loop_
_space_group_symop_operation_xyz
x,y,z
-x,1/2+y,-z
-x,-y,-z
x,1/2-y,z
loop_
_atom_site_type_symbol
_atom_site_label
_atom_site_fract_x
_atom_site_fract_y
_atom_site_fract_z
Si Si1 0.041022 0.335089 0.593379
Si Si2 0.712844 0.963190 0.584830
Si Si3 0.776468 0.125929 0.738160
Si Si4 0.076756 0.333548 0.237514
Si Si5 0.745522 0.164247 0.320635
Si Si6 0.676048 0.831921 0.985235
Si Si7 0.529995 0.894896 0.125340
Si Si8 0.514395 0.863408 0.466224
O O1 0.023615 0.250000 0.623132
O O2 0.072994 0.339084 0.435454
O O3 0.172814 0.365097 0.853643
O O4 0.893380 0.366577 0.450878
O O5 0.822991 0.897570 0.703146
O O6 0.615519 0.964544 0.298002
O O7 0.597493 0.940611 0.577538
O O8 0.782348 0.039217 0.710106
O O9 0.740154 0.162621 0.515578
O O10 0.647032 0.137428 0.701416
O O11 0.921433 0.154433 0.982792
O O12 0.118836 0.250000 0.243335
O O13 0.725967 0.250000 0.242399
O O14 0.630184 0.111976 0.102460
O O15 0.700553 0.750000 0.082038
O O16 0.597104 0.871808 0.035224
O O17 0.587807 0.825124 0.710270
O O18 0.547626 0.843019 0.314157
#
# Coordination Sequence:
#
# PCOD9166439 Si02
#       8
#     4   4   4   4   4   4   4   4
#     4   9  20  39  61  90 131 173 216 274 334 394
#     4  10  25  45  67  96 133 179 225 280 330 403
#     4  12  24  43  66  98 137 178 226 275 335 402
#     4  11  23  43  69  96 131 176 223 278 342 401
#     4  11  23  39  62  97 137 173 223 280 329 396
#     4  11  21  39  66  98 135 172 225 283 331 394
#     4  10  22  41  64  94 130 174 220 274 334 391
#     4  10  24  42  67  98 131 184 223 273 338 396
#
# _framework density 22.495190999999998
#
# number of rings (size 3 to 8) (size 9 to 14) (size 15 to 20)
#    0.750    0.750    2.500    2.250    1.750    3.000 
#    0.000    0.625    0.000    0.000    0.000    0.000 
#    0.000    0.000    0.000    0.000    0.000    0.000 
#
# Total GULP energy -178373.521169 kJ/mol
# GULP energy per Si atom -5574.172537 kJ/mol
# Density = 2.244399 g / cm^3
# Si number density = 22.495191 Si / 1000 Ang^3
#
#
#
# Elastic Constant Matrix: (Units=GPa)
#
#
# Indices 1 2 3 4 5 6 
#
# 1 57.8526 14.8284 36.9815 0.0000 14.2098 0.0000
# 2 14.8284 79.0263 10.8314 0.0000 8.7175 0.0000
# 3 36.9815 10.8314 131.9861 0.0000 22.8475 0.0000
# 4 0.0000 0.0000 0.0000 242.1771 0.0000 -190.4304
# 5 14.2098 8.7175 22.8475 0.0000 48.7953 0.0000
# 6 0.0000 0.0000 0.0000 -190.4304 0.0000 222.6901
#
#
#
# Elastic Compliance Matrix: (Units=1/GPa)
#
#
# Indices 1 2 3 4 5 6 
#
# 1 0.022385 -0.003078 -0.005426 0.000000 -0.003428 0.000000
# 2 -0.003078 0.013395 0.000024 0.000000 -0.001508 0.000000
# 3 -0.005426 0.000024 0.009600 0.000000 -0.002919 0.000000
# 4 0.000000 0.000000 0.000000 0.012605 0.000000 0.010779
# 5 -0.003428 -0.001508 -0.002919 0.000000 0.023128 0.000000
# 6 0.000000 0.000000 0.000000 0.010779 0.000000 0.013708
#
#
# Mechanical properties :
#
#
# Convention : Reuss Voigt Hill
#
# Bulk Modulus (GPa) = 35.18692 43.79416 39.49054
# Shear Modulus (GPa) = 41.23550 116.48075 78.85813
#
# Velocity S-wave (km/s) = 4.28609 7.20366 5.92720
# Velocity P-wave (km/s) = 6.33799 9.41811 8.02717
#
# Compressibility (1/GPa) = 0.02841965
#
# Stress axis : x y z
#
# Youngs Moduli (GPa) = 44.67304 74.65670 104.16404
#
# Poissons Ratio (x) = 0.22982 0.56519
# Poissons Ratio (y) = 0.13752 -0.00254
# Poissons Ratio (z) = 0.24240 -0.00182
#
# Static dielectric constant tensor:
#      x y z
#    x 1.846560 0.000000 0.025230 
#    y 0.000000 1.837200 0.000000 
#    z 0.025230 0.000000 1.861790 
# 
# From -- ./inp_files/23114.got.cif
#   From: 2010.05.17/outbox.cif.g08.bks.cpg/sg11_12_cif.got.tgz:23114.got - 2010.06.03 12:22:45.
