data_PCOD9166444
_publ_section_title
;
Structure prediction by ZEFSAII (Michael W. Deem and Ramdas Pophale) SiO2 
 PCOD9166444
Probable space group: P 21/M
;
_chemical_formula_sum "Si O2"
_cell_formula_units_Z 28
_cell_length_a 7.759858
_cell_length_b 18.524130
_cell_length_c 13.158250
_cell_angle_alpha 90.000000
_cell_angle_beta 140.523920
_cell_angle_gamma 90.000000
_cell_volume 1202.486508
_symmetry_space_group_name_H-M "P 21/M"
_symmetry_group_IT_number 11
_symmetry_cell_setting 'monoclinic'
loop_
_space_group_symop_operation_xyz
x,y,z
-x,1/2+y,-z
-x,-y,-z
x,1/2-y,z
loop_
_atom_site_type_symbol
_atom_site_label
_atom_site_fract_x
_atom_site_fract_y
_atom_site_fract_z
Si Si1 0.926908 0.087274 0.571303
Si Si2 0.884923 0.664534 0.634250
Si Si3 0.008801 0.664448 0.919573
Si Si4 0.602993 0.071488 0.603184
Si Si5 0.157209 0.083642 0.954217
Si Si6 0.280908 0.550372 0.739934
Si Si7 0.381694 0.335108 0.855997
O O1 0.168270 0.144080 0.670432
O O2 0.735911 0.116870 0.572039
O O3 0.758395 0.063015 0.397714
O O4 0.082800 0.014800 0.679739
O O5 0.885430 0.750000 0.612915
O O6 0.857799 0.653914 0.743552
O O7 0.646763 0.618802 0.471607
O O8 0.165603 0.624629 0.734076
O O9 0.016098 0.750000 0.943156
O O10 0.876835 0.627105 0.956473
O O11 0.318819 0.640323 0.040109
O O12 0.500000 0.000000 0.500000
O O13 0.855373 0.055087 0.791848
O O14 0.413923 0.032183 0.090346
O O15 0.262593 0.130136 0.905458
O O16 0.395348 0.250000 0.877523
#
# Coordination Sequence:
#
# PCOD9166444 Si02
#       7
#     4   4   4   4   4   4   4
#     4  10  24  42  69  95 139 177 225 283 341 412
#     4  11  24  43  69  99 139 182 225 282 344 408
#     4  10  22  41  66  99 138 176 225 283 342 405
#     4  11  24  44  67 100 138 180 229 285 339 411
#     4  11  24  41  71  98 132 181 225 285 336 411
#     4  11  23  44  68 100 134 180 231 278 346 408
#     4  10  22  41  64  98 134 173 223 282 340 401
#
# _framework density 23.285084999999999
#
# number of rings (size 3 to 8) (size 9 to 14) (size 15 to 20)
#    0.000    1.429    2.857    1.286    2.000    7.429 
#    0.000    2.143    0.000    0.000    0.000    0.000 
#    0.000    0.000    0.000    0.000    0.000    0.000 
#
# Total GULP energy -156425.727714 kJ/mol
# GULP energy per Si atom -5586.633133 kJ/mol
# Density = 2.323209 g / cm^3
# Si number density = 23.285085 Si / 1000 Ang^3
#
#
#
# Elastic Constant Matrix: (Units=GPa)
#
#
# Indices 1 2 3 4 5 6 
#
# 1 76.6766 21.3865 12.9106 0.0000 5.1797 0.0000
# 2 21.3865 79.5907 36.4227 0.0000 0.4246 0.0000
# 3 12.9106 36.4227 145.2231 0.0000 28.3146 0.0000
# 4 0.0000 0.0000 0.0000 24.8806 0.0000 2.4985
# 5 5.1797 0.4246 28.3146 0.0000 31.3510 0.0000
# 6 0.0000 0.0000 0.0000 2.4985 0.0000 21.8758
#
#
#
# Elastic Compliance Matrix: (Units=1/GPa)
#
#
# Indices 1 2 3 4 5 6 
#
# 1 0.014267 -0.003910 0.000196 0.000000 -0.002481 0.000000
# 2 -0.003910 0.015621 -0.004436 0.000000 0.004441 0.000000
# 3 0.000196 -0.004436 0.009680 0.000000 -0.008715 0.000000
# 4 0.000000 0.000000 0.000000 0.040658 0.000000 -0.004644
# 5 -0.002481 0.004441 -0.008715 0.000000 0.040118 0.000000
# 6 0.000000 0.000000 0.000000 -0.004644 0.000000 0.046243
#
#
# Mechanical properties :
#
#
# Convention : Reuss Voigt Hill
#
# Bulk Modulus (GPa) = 42.97691 49.21445 46.09568
# Shear Modulus (GPa) = 26.22688 31.00619 28.61653
#
# Velocity S-wave (km/s) = 3.35974 3.65305 3.50946
# Velocity P-wave (km/s) = 5.79201 6.24296 6.02171
#
# Compressibility (1/GPa) = 0.02326831
#
# Stress axis : x y z
#
# Youngs Moduli (GPa) = 70.09183 64.01484 103.30210
#
# Poissons Ratio (x) = 0.25031 -0.02026
# Poissons Ratio (y) = 0.27407 0.45827
# Poissons Ratio (z) = -0.01374 0.28398
#
# Static dielectric constant tensor:
#      x y z
#    x 1.880630 0.000000 -0.013220 
#    y 0.000000 1.839130 0.000000 
#    z -0.013220 0.000000 1.962470 
# 
# From -- ./inp_files/48339.got.cif
#   From: 2010.05.17/outbox.cif.g08.bks.cpg/sg11_25_cif.got.tgz:48339.got - 2010.06.03 12:22:45.
