data_PCOD9166258
_publ_section_title
;
Structure prediction by ZEFSAII (Michael W. Deem and Ramdas Pophale) SiO2 
 PCOD9166258
Probable space group: P 21/M
;
_chemical_formula_sum "Si O2"
_cell_formula_units_Z 22
_cell_length_a 8.368483
_cell_length_b 13.630945
_cell_length_c 12.181882
_cell_angle_alpha 90.000000
_cell_angle_beta 46.133975
_cell_angle_gamma 90.000000
_cell_volume 1001.842752
_symmetry_space_group_name_H-M "P 21/M"
_symmetry_group_IT_number 11
_symmetry_cell_setting 'monoclinic'
loop_
_space_group_symop_operation_xyz
x,y,z
-x,1/2+y,-z
-x,-y,-z
x,1/2-y,z
loop_
_atom_site_type_symbol
_atom_site_label
_atom_site_fract_x
_atom_site_fract_y
_atom_site_fract_z
Si Si1 0.560255 0.250000 0.837471
Si Si2 0.099237 0.750000 0.514386
Si Si3 0.345721 0.932949 0.994768
Si Si4 0.099660 0.137980 0.714832
Si Si5 0.337791 0.429581 0.819876
Si Si6 0.198197 0.526788 0.491161
Si Si7 0.403228 0.250000 0.166668
O O1 0.804367 0.250000 0.657275
O O2 0.446978 0.343371 0.836871
O O3 0.450657 0.250000 0.012030
O O4 0.177333 0.644279 0.526332
O O5 0.837786 0.750000 0.664558
O O6 0.479925 0.852228 0.862196
O O7 0.224470 0.002346 0.964965
O O8 0.166536 0.874038 0.151374
O O9 0.500000 0.000000 0.000000
O O10 0.161301 0.250000 0.656491
O O11 0.197601 0.114635 0.788074
O O12 0.173489 0.050592 0.600632
O O13 0.553709 0.485209 0.670867
O O14 0.000000 0.500000 0.500000
#
# Coordination Sequence:
#
# PCOD9166258 Si02
#       7
#     2   2   4   4   4   4   2
#     4  10  22  39  74  98 141 192 232 302 373 414
#     4  10  24  42  66 108 142 180 248 296 370 424
#     4  12  24  42  68 100 137 182 245 298 352 429
#     4  12  26  45  70 104 145 188 238 296 376 444
#     4  11  23  46  67  99 142 187 237 294 366 437
#     4  11  25  44  73 104 138 188 242 305 358 430
#     4  12  22  41  66 108 137 186 246 306 355 420
#
# _framework density 21.959533
#
# number of rings (size 3 to 8) (size 9 to 14) (size 15 to 20)
#    0.000    0.727    3.636    4.364    3.818    0.000 
#    1.636    0.909    0.000    0.000    0.000    0.000 
#    0.000    0.000    0.000    0.000    0.000    0.000 
#
# Total GULP energy -122699.258953 kJ/mol
# GULP energy per Si atom -5577.239043 kJ/mol
# Density = 2.190955 g / cm^3
# Si number density = 21.959533 Si / 1000 Ang^3
#
#
#
# Elastic Constant Matrix: (Units=GPa)
#
#
# Indices 1 2 3 4 5 6 
#
# 1 66.5404 15.6822 4.0478 0.0000 15.7129 0.0000
# 2 15.6822 168.7798 52.0701 0.0000 15.0671 0.0000
# 3 4.0478 52.0701 88.4440 0.0000 -4.6019 0.0000
# 4 0.0000 0.0000 0.0000 45.8381 0.0000 -67.8715
# 5 15.7129 15.0671 -4.6019 0.0000 35.5327 0.0000
# 6 0.0000 0.0000 0.0000 -67.8715 0.0000 -879.8500
#
#
#
# Elastic Compliance Matrix: (Units=1/GPa)
#
#
# Indices 1 2 3 4 5 6 
#
# 1 0.016962 -0.000693 -0.000748 0.000000 -0.007304 0.000000
# 2 -0.000693 0.007770 -0.004730 0.000000 -0.003601 0.000000
# 3 -0.000748 -0.004730 0.014344 0.000000 0.004194 0.000000
# 4 0.000000 0.000000 0.000000 0.019580 0.000000 -0.001510
# 5 -0.007304 -0.003601 0.004194 0.000000 0.033443 0.000000
# 6 0.000000 0.000000 0.000000 -0.001510 0.000000 -0.001020
#
#
# Mechanical properties :
#
#
# Convention : Reuss Voigt Hill
#
# Bulk Modulus (GPa) = 37.40712 51.92938 44.66825
# Shear Modulus (GPa) = 44.51076 -142.89822 -49.19373
#
# Velocity S-wave (km/s) = 4.50704 -8.07556 -4.73821
# Velocity P-wave (km/s) = 6.64501 7.95323 3.09012
#
# Compressibility (1/GPa) = 0.02673288
#
# Stress axis : x y z
#
# Youngs Moduli (GPa) = 58.95510 128.69987 69.71636
#
# Poissons Ratio (x) = 0.08921 0.05216
# Poissons Ratio (y) = 0.04087 0.32977
# Poissons Ratio (z) = 0.04411 0.60876
#
# Static dielectric constant tensor:
#      x y z
#    x 1.821550 0.000000 -0.000230 
#    y 0.000000 1.809920 0.000000 
#    z -0.000230 0.000000 1.837160 
# 
# From -- ./inp_files/31429.got.cif
#   From: 2010.05.17/outbox.cif.g08.bks.cpg/sg11_16_cif.got.tgz:31429.got - 2010.06.03 12:22:45.
