data_PCOD9166838
_publ_section_title
;
Structure prediction by ZEFSAII (Michael W. Deem and Ramdas Pophale) SiO2 
 PCOD9166838
Probable space group: P 21/M
;
_chemical_formula_sum "Si O2"
_cell_formula_units_Z 26
_cell_length_a 14.298577
_cell_length_b 9.473868
_cell_length_c 14.672772
_cell_angle_alpha 90.000000
_cell_angle_beta 37.820714
_cell_angle_gamma 90.000000
_cell_volume 1218.791106
_symmetry_space_group_name_H-M "P 21/M"
_symmetry_group_IT_number 11
_symmetry_cell_setting 'monoclinic'
loop_
_space_group_symop_operation_xyz
x,y,z
-x,1/2+y,-z
-x,-y,-z
x,1/2-y,z
loop_
_atom_site_type_symbol
_atom_site_label
_atom_site_fract_x
_atom_site_fract_y
_atom_site_fract_z
Si Si1 0.461762 0.417729 0.120762
Si Si2 0.129859 0.418457 0.455529
Si Si3 0.214140 0.082546 0.594875
Si Si4 0.468361 0.250000 0.568167
Si Si5 0.434860 0.538083 0.658490
Si Si6 0.250244 0.594130 0.971415
Si Si7 0.016839 0.919767 0.889618
O O1 0.452253 0.250000 0.110908
O O2 0.298723 0.459804 0.289480
O O3 0.605192 0.438950 0.077012
O O4 0.500000 0.500000 0.000000
O O5 0.112886 0.250000 0.455052
O O6 0.125817 0.441546 0.568100
O O7 0.000000 0.500000 0.500000
O O8 0.211959 0.250000 0.622673
O O9 0.391283 0.049730 0.438223
O O10 0.153372 0.988509 0.724494
O O11 0.387985 0.376349 0.686563
O O12 0.554437 0.128686 0.441038
O O13 0.319751 0.604943 0.817529
O O14 0.185811 0.750000 0.046819
O O15 0.126316 0.471951 0.061426
O O16 0.027656 0.750000 0.890378
O O17 0.000000 0.000000 0.000000
#
# Coordination Sequence:
#
# PCOD9166838 Si02
#       7
#     4   4   4   2   4   4   4
#     4  10  23  44  70 100 134 172 217 272 335 400
#     4  10  23  44  70 100 134 172 217 272 335 400
#     4  11  23  45  69  95 131 176 221 272 335 397
#     4  10  24  34  64 100 128 162 210 278 324 382
#     4  11  22  40  65  97 127 164 219 267 326 386
#     4  11  23  45  69  95 131 176 221 272 335 397
#     4  12  30  46  65  95 139 182 228 276 332 396
#
# _framework density 21.332612999999998
#
# number of rings (size 3 to 8) (size 9 to 14) (size 15 to 20)
#    0.000    1.231    3.077    1.385    8.615    1.846 
#    0.000    0.000    0.000    0.000    0.000    0.000 
#    0.000    0.000    0.000    0.000    0.000    0.000 
#
# Total GULP energy -144774.830025 kJ/mol
# GULP energy per Si atom -5568.262693 kJ/mol
# Density = 2.128406 g / cm^3
# Si number density = 21.332613 Si / 1000 Ang^3
#
#
#
# Elastic Constant Matrix: (Units=GPa)
#
#
# Indices 1 2 3 4 5 6 
#
# 1 94.7969 60.7159 23.9441 0.0000 -10.3998 0.0000
# 2 60.7159 177.3847 40.8835 0.0000 -1.2633 0.0000
# 3 23.9441 40.8835 79.4539 0.0000 -0.9444 0.0000
# 4 0.0000 0.0000 0.0000 27.5241 0.0000 9.1178
# 5 -10.3998 -1.2633 -0.9444 0.0000 32.9410 0.0000
# 6 0.0000 0.0000 0.0000 9.1178 0.0000 22.0804
#
#
#
# Elastic Compliance Matrix: (Units=1/GPa)
#
#
# Indices 1 2 3 4 5 6 
#
# 1 0.014360 -0.004423 -0.002000 0.000000 0.004306 0.000000
# 2 -0.004423 0.007759 -0.002674 0.000000 -0.001176 0.000000
# 3 -0.002000 -0.002674 0.014561 0.000000 -0.000317 0.000000
# 4 0.000000 0.000000 0.000000 0.042089 0.000000 -0.017380
# 5 0.004306 -0.001176 -0.000317 0.000000 0.031663 0.000000
# 6 0.000000 0.000000 0.000000 -0.017380 0.000000 0.052466
#
#
# Mechanical properties :
#
#
# Convention : Reuss Voigt Hill
#
# Bulk Modulus (GPa) = 54.09668 66.96914 60.53291
# Shear Modulus (GPa) = 26.70175 31.58191 29.14183
#
# Velocity S-wave (km/s) = 3.54176 3.85184 3.70005
# Velocity P-wave (km/s) = 6.49146 7.15844 6.83309
#
# Compressibility (1/GPa) = 0.01848542
#
# Stress axis : x y z
#
# Youngs Moduli (GPa) = 69.63968 128.87674 68.67846
#
# Poissons Ratio (x) = 0.57007 0.13736
# Poissons Ratio (y) = 0.30804 0.18362
# Poissons Ratio (z) = 0.13929 0.34456
#
# Static dielectric constant tensor:
#      x y z
#    x 1.917220 0.000000 0.122460 
#    y 0.000000 1.775020 0.000000 
#    z 0.122460 0.000000 2.114810 
# 
# From -- ./inp_files/51900.got.cif
#   From: 2010.05.17/outbox.cif.g08.bks.cpg/sg11_26_cif.got.tgz:51900.got - 2010.06.03 12:22:45.
