data_PCOD9166244
_publ_section_title
;
Structure prediction by ZEFSAII (Michael W. Deem and Ramdas Pophale) SiO2 
 PCOD9166244
Probable space group: P 21/M
;
_chemical_formula_sum "Si O2"
_cell_formula_units_Z 26
_cell_length_a 5.025057
_cell_length_b 12.443119
_cell_length_c 19.585903
_cell_angle_alpha 90.000000
_cell_angle_beta 63.297758
_cell_angle_gamma 90.000000
_cell_volume 1094.050422
_symmetry_space_group_name_H-M "P 21/M"
_symmetry_group_IT_number 11
_symmetry_cell_setting 'monoclinic'
loop_
_space_group_symop_operation_xyz
x,y,z
-x,1/2+y,-z
-x,-y,-z
x,1/2-y,z
loop_
_atom_site_type_symbol
_atom_site_label
_atom_site_fract_x
_atom_site_fract_y
_atom_site_fract_z
Si Si1 0.222956 0.578767 0.835395
Si Si2 0.401703 0.750000 0.068577
Si Si3 0.917344 0.250000 0.034390
Si Si4 0.217364 0.130019 0.531550
Si Si5 0.649459 0.750000 0.709177
Si Si6 0.244234 0.559480 0.183927
Si Si7 0.310169 0.368263 0.674399
Si Si8 0.731824 0.550805 0.616503
O O1 0.121737 0.645559 0.913426
O O2 0.433242 0.658304 0.768733
O O3 0.427760 0.478005 0.833127
O O4 0.936999 0.542217 0.825048
O O5 0.268105 0.646825 0.121774
O O6 0.322050 0.750000 0.998264
O O7 0.756198 0.750000 0.035554
O O8 0.083023 0.250000 0.538657
O O9 0.380770 0.134924 0.585329
O O10 0.382427 0.102214 0.442097
O O11 0.990727 0.032997 0.569855
O O12 0.830938 0.652203 0.649704
O O13 0.035525 0.609009 0.267761
O O14 0.387295 0.250000 0.694010
O O15 0.485657 0.473005 0.677821
#
# Coordination Sequence:
#
# PCOD9166244 Si02
#       8
#     4   2   2   4   2   4   4   4
#     4  11  26  46  73 102 142 186 227 293 354 424
#     4  12  26  46  73 109 140 184 236 288 338 434
#     4  11  26  48  72 108 144 182 232 286 356 421
#     4  10  22  39  64  93 133 177 236 291 356 416
#     4  11  22  42  65  97 136 178 242 290 352 417
#     4  12  25  46  71 106 141 186 237 286 355 412
#     4  11  23  41  63  96 134 182 229 296 349 422
#     4  11  21  41  63  95 132 181 232 295 352 416
#
# _framework density 23.764900000000001
#
# number of rings (size 3 to 8) (size 9 to 14) (size 15 to 20)
#    0.000    0.923    3.077    3.692    0.000    5.538 
#    2.769    0.000    0.000    0.000    0.000    0.000 
#    0.000    0.000    0.000    0.000    0.000    0.000 
#
# Total GULP energy -144838.077624 kJ/mol
# GULP energy per Si atom -5570.695293 kJ/mol
# Density = 2.371081 g / cm^3
# Si number density = 23.764900 Si / 1000 Ang^3
#
#
#
# Elastic Constant Matrix: (Units=GPa)
#
#
# Indices 1 2 3 4 5 6 
#
# 1 42.4109 6.7588 -0.2984 0.0000 -2.4553 0.0000
# 2 6.7588 158.8131 27.8497 0.0000 -1.0427 0.0000
# 3 -0.2984 27.8497 49.5068 0.0000 3.8142 0.0000
# 4 0.0000 0.0000 0.0000 35.5982 0.0000 0.1194
# 5 -2.4553 -1.0427 3.8142 0.0000 31.2381 0.0000
# 6 0.0000 0.0000 0.0000 0.1194 0.0000 25.0987
#
#
#
# Elastic Compliance Matrix: (Units=1/GPa)
#
#
# Indices 1 2 3 4 5 6 
#
# 1 0.023863 -0.001115 0.000636 0.000000 0.001761 0.000000
# 2 -0.001115 0.007054 -0.004024 0.000000 0.000639 0.000000
# 3 0.000636 -0.004024 0.022687 0.000000 -0.002854 0.000000
# 4 0.000000 0.000000 0.000000 0.028092 0.000000 -0.000134
# 5 0.001761 0.000639 -0.002854 0.000000 0.032520 0.000000
# 6 0.000000 0.000000 0.000000 -0.000134 0.000000 0.039843
#
#
# Mechanical properties :
#
#
# Convention : Reuss Voigt Hill
#
# Bulk Modulus (GPa) = 22.42359 35.48345 28.95352
# Shear Modulus (GPa) = 28.10053 32.81506 30.45780
#
# Velocity S-wave (km/s) = 3.44239 3.71997 3.58387
# Velocity P-wave (km/s) = 5.02555 5.78051 5.41620
#
# Compressibility (1/GPa) = 0.04459589
#
# Stress axis : x y z
#
# Youngs Moduli (GPa) = 41.90582 141.76230 44.07862
#
# Poissons Ratio (x) = 0.15813 -0.02802
# Poissons Ratio (y) = 0.04675 0.17738
# Poissons Ratio (z) = -0.02664 0.57048
#
# Static dielectric constant tensor:
#      x y z
#    x 1.920090 0.000000 0.033850 
#    y 0.000000 1.897840 0.000000 
#    z 0.033850 0.000000 1.935290 
# 
# From -- ./inp_files/62647.got.cif
#   From: 2010.05.17/outbox.cif.g08.bks.cpg/sg11_32_cif.got.tgz:62647.got - 2010.06.03 12:22:45.
