data_PCOD9166081
_publ_section_title
;
Structure prediction by ZEFSAII (Michael W. Deem and Ramdas Pophale) SiO2 
 PCOD9166081
Probable space group: P 21/M
;
_chemical_formula_sum "Si O2"
_cell_formula_units_Z 32
_cell_length_a 9.858483
_cell_length_b 14.179464
_cell_length_c 15.355139
_cell_angle_alpha 90.000000
_cell_angle_beta 119.027843
_cell_angle_gamma 90.000000
_cell_volume 1876.834012
_symmetry_space_group_name_H-M "P 21/M"
_symmetry_group_IT_number 11
_symmetry_cell_setting 'monoclinic'
loop_
_space_group_symop_operation_xyz
x,y,z
-x,1/2+y,-z
-x,-y,-z
x,1/2-y,z
loop_
_atom_site_type_symbol
_atom_site_label
_atom_site_fract_x
_atom_site_fract_y
_atom_site_fract_z
Si Si1 0.684314 0.638309 0.266288
Si Si2 0.856845 0.643005 0.768199
Si Si3 0.907577 0.017523 0.059868
Si Si4 0.553200 0.018312 0.919129
Si Si5 0.541031 0.857742 0.776495
Si Si6 0.401592 0.495414 0.604937
Si Si7 0.266012 0.971786 0.376444
Si Si8 0.032178 0.138767 0.776529
O O1 0.665447 0.750000 0.274242
O O2 0.548507 0.596022 0.162613
O O3 0.673427 0.580460 0.353079
O O4 0.843980 0.622748 0.262701
O O5 0.877475 0.750000 0.745315
O O6 0.716962 0.640798 0.794868
O O7 0.802015 0.572346 0.675887
O O8 0.008222 0.599824 0.859982
O O9 0.917139 0.925359 0.125343
O O10 0.733671 0.042707 0.979904
O O11 0.000000 0.000000 0.000000
O O12 0.533984 0.921645 0.859366
O O13 0.500000 0.000000 0.000000
O O14 0.494588 0.750000 0.775518
O O15 0.438732 0.911203 0.672466
O O16 0.569238 0.458499 0.621798
O O17 0.301597 0.522236 0.489641
O O18 0.137412 0.896196 0.307358
O O19 0.032208 0.250000 0.797461
#
# Coordination Sequence:
#
# PCOD9166081 Si02
#       8
#     4   4   4   4   4   4   4   4
#     4  10  22  38  55  80 112 146 185 225 270 324
#     4   9  18  33  53  78 106 137 175 218 263 315
#     4  11  21  36  55  79 108 142 183 226 270 320
#     4  11  21  36  55  77 108 144 179 223 272 317
#     4   9  18  33  54  77 104 139 176 214 262 322
#     4   9  19  36  58  84 110 139 178 226 273 319
#     4   9  19  36  58  83 111 140 177 224 274 323
#     4  10  22  38  56  80 111 147 185 223 268 328
#
# _framework density 17.049990000000001
#
# number of rings (size 3 to 8) (size 9 to 14) (size 15 to 20)
#    0.000    2.250    2.500    0.000    1.750    4.000 
#    0.000    2.500    0.000    0.000    0.000    0.000 
#    0.000    0.000    0.000    0.000    0.000    0.000 
#
# Total GULP energy -178466.197633 kJ/mol
# GULP energy per Si atom -5577.068676 kJ/mol
# Density = 1.701118 g / cm^3
# Si number density = 17.049990 Si / 1000 Ang^3
#
#
#
# Elastic Constant Matrix: (Units=GPa)
#
#
# Indices 1 2 3 4 5 6 
#
# 1 54.5333 22.9420 18.7517 0.0000 -1.3598 0.0000
# 2 22.9420 104.1429 19.4129 0.0000 -8.3388 0.0000
# 3 18.7517 19.4129 76.5068 0.0000 -9.1094 0.0000
# 4 0.0000 0.0000 0.0000 5.3702 0.0000 -2.0079
# 5 -1.3598 -8.3388 -9.1094 0.0000 28.3717 0.0000
# 6 0.0000 0.0000 0.0000 -2.0079 0.0000 24.6129
#
#
#
# Elastic Compliance Matrix: (Units=1/GPa)
#
#
# Indices 1 2 3 4 5 6 
#
# 1 0.021524 -0.004041 -0.004438 0.000000 -0.001581 0.000000
# 2 -0.004041 0.010975 -0.001490 0.000000 0.002553 0.000000
# 3 -0.004438 -0.001490 0.015034 0.000000 0.004176 0.000000
# 4 0.000000 0.000000 0.000000 0.192071 0.000000 0.015669
# 5 -0.001581 0.002553 0.004176 0.000000 0.037262 0.000000
# 6 0.000000 0.000000 0.000000 0.015669 0.000000 0.041907
#
#
# Mechanical properties :
#
#
# Convention : Reuss Voigt Hill
#
# Bulk Modulus (GPa) = 36.24036 39.71072 37.97554
# Shear Modulus (GPa) = 14.37152 23.27606 18.82379
#
# Velocity S-wave (km/s) = 2.90643 3.69882 3.32631
# Velocity P-wave (km/s) = 5.70654 6.44849 6.08883
#
# Compressibility (1/GPa) = 0.02759355
#
# Stress axis : x y z
#
# Youngs Moduli (GPa) = 46.45937 91.11931 66.51594
#
# Poissons Ratio (x) = 0.36820 0.29523
# Poissons Ratio (y) = 0.18774 0.09913
# Poissons Ratio (z) = 0.20621 0.13579
#
# Static dielectric constant tensor:
#      x y z
#    x 1.572450 0.000000 0.005240 
#    y 0.000000 1.554740 0.000000 
#    z 0.005240 0.000000 1.559580 
# 
# From -- ./inp_files/22256.got.cif
#   From: 2010.05.17/outbox.cif.g08.bks.cpg/sg11_12_cif.got.tgz:22256.got - 2010.06.03 12:22:45.
