data_PCOD9166803
_publ_section_title
;
Structure prediction by ZEFSAII (Michael W. Deem and Ramdas Pophale) SiO2 
 PCOD9166803
Probable space group: P 21/M
;
_chemical_formula_sum "Si O2"
_cell_formula_units_Z 20
_cell_length_a 8.455563
_cell_length_b 8.133505
_cell_length_c 15.627282
_cell_angle_alpha 90.000000
_cell_angle_beta 128.341700
_cell_angle_gamma 90.000000
_cell_volume 842.946133
_symmetry_space_group_name_H-M "P 21/M"
_symmetry_group_IT_number 11
_symmetry_cell_setting 'monoclinic'
loop_
_space_group_symop_operation_xyz
x,y,z
-x,1/2+y,-z
-x,-y,-z
x,1/2-y,z
loop_
_atom_site_type_symbol
_atom_site_label
_atom_site_fract_x
_atom_site_fract_y
_atom_site_fract_z
Si Si1 0.303274 0.062086 0.384573
Si Si2 0.807192 0.446572 0.485289
Si Si3 0.516451 0.446698 0.232222
Si Si4 0.299844 0.945806 0.883763
Si Si5 0.104011 0.567761 0.157328
O O1 0.316599 0.250000 0.357642
O O2 0.500000 0.000000 0.500000
O O3 0.158482 0.047818 0.416252
O O4 0.228564 0.941451 0.287491
O O5 0.795953 0.250000 0.498848
O O6 0.621620 0.490702 0.358763
O O7 0.000000 0.500000 0.500000
O O8 0.522241 0.250000 0.230233
O O9 0.651732 0.509707 0.197391
O O10 0.276908 0.493541 0.152125
O O11 0.284970 0.750000 0.871994
O O12 0.107590 0.995788 0.878165
O O13 0.500000 0.000000 0.000000
O O14 0.061964 0.750000 0.111746
#
# Coordination Sequence:
#
# PCOD9166803 Si02
#       5
#     4   4   4   4   4
#     4  12  23  38  60  91 131 172 215 262 316 384
#     4  11  22  37  60  91 129 173 219 269 325 386
#     4  10  23  43  67  94 129 174 222 273 331 393
#     4  11  25  47  72  99 132 171 220 280 341 400
#     4  12  25  42  69 101 134 176 222 273 335 399
#
# _framework density 23.726309000000001
#
# number of rings (size 3 to 8) (size 9 to 14) (size 15 to 20)
#    0.000    0.800    2.000    6.000    0.000    4.800 
#    0.000    0.000    0.000    0.000    0.000    0.000 
#    0.000    0.000    0.000    0.000    0.000    0.000 
#
# Total GULP energy -111482.885695 kJ/mol
# GULP energy per Si atom -5574.144285 kJ/mol
# Density = 2.367231 g / cm^3
# Si number density = 23.726309 Si / 1000 Ang^3
#
#
#
# Elastic Constant Matrix: (Units=GPa)
#
#
# Indices 1 2 3 4 5 6 
#
# 1 140.0020 10.4752 18.6298 0.0000 30.9930 0.0000
# 2 10.4752 65.2735 3.7043 0.0000 7.0150 0.0000
# 3 18.6298 3.7043 54.5105 0.0000 10.7129 0.0000
# 4 0.0000 0.0000 0.0000 21.1121 0.0000 6.9933
# 5 30.9930 7.0150 10.7129 0.0000 49.8390 0.0000
# 6 0.0000 0.0000 0.0000 6.9933 0.0000 39.7773
#
#
#
# Elastic Compliance Matrix: (Units=1/GPa)
#
#
# Indices 1 2 3 4 5 6 
#
# 1 0.008511 -0.000744 -0.001920 0.000000 -0.004775 0.000000
# 2 -0.000744 0.015643 -0.000488 0.000000 -0.001634 0.000000
# 3 -0.001920 -0.000488 0.019615 0.000000 -0.002954 0.000000
# 4 0.000000 0.000000 0.000000 0.050295 0.000000 -0.008842
# 5 -0.004775 -0.001634 -0.002954 0.000000 0.023899 0.000000
# 6 0.000000 0.000000 0.000000 -0.008842 0.000000 0.026695
#
#
# Mechanical properties :
#
#
# Convention : Reuss Voigt Hill
#
# Bulk Modulus (GPa) = 26.69050 36.15608 31.42329
# Shear Modulus (GPa) = 30.59066 37.27747 33.93406
#
# Velocity S-wave (km/s) = 3.59460 3.96807 3.78594
# Velocity P-wave (km/s) = 5.33872 6.02212 5.69069
#
# Compressibility (1/GPa) = 0.03746651
#
# Stress axis : x y z
#
# Youngs Moduli (GPa) = 117.49508 63.92706 50.98186
#
# Poissons Ratio (x) = 0.04754 0.09787
# Poissons Ratio (y) = 0.08738 0.02486
# Poissons Ratio (z) = 0.22556 0.03117
#
# Static dielectric constant tensor:
#      x y z
#    x -40.734810 0.000000 7.157730 
#    y 0.000000 1.940810 0.000000 
#    z 7.157730 0.000000 0.695680 
# 
# From -- ./inp_files/23850.got.cif
#   From: 2010.05.17/outbox.cif.g08.bks.cpg/sg11_12_cif.got.tgz:23850.got - 2010.06.03 12:22:45.
