data_PCOD9166774
_publ_section_title
;
Structure prediction by ZEFSAII (Michael W. Deem and Ramdas Pophale) SiO2 
 PCOD9166774
Probable space group: P 21/M
;
_chemical_formula_sum "Si O2"
_cell_formula_units_Z 28
_cell_length_a 8.998964
_cell_length_b 13.616985
_cell_length_c 21.320741
_cell_angle_alpha 90.000000
_cell_angle_beta 148.767315
_cell_angle_gamma 90.000000
_cell_volume 1354.680843
_symmetry_space_group_name_H-M "P 21/M"
_symmetry_group_IT_number 11
_symmetry_cell_setting 'monoclinic'
loop_
_space_group_symop_operation_xyz
x,y,z
-x,1/2+y,-z
-x,-y,-z
x,1/2-y,z
loop_
_atom_site_type_symbol
_atom_site_label
_atom_site_fract_x
_atom_site_fract_y
_atom_site_fract_z
Si Si1 0.896300 0.135104 0.909779
Si Si2 0.083110 0.363878 0.205686
Si Si3 0.285261 0.636514 0.623459
Si Si4 0.084860 0.992962 0.443706
Si Si5 0.678036 0.038802 0.957518
Si Si6 0.997897 0.969620 0.269996
Si Si7 0.408366 0.862435 0.331384
O O1 0.969389 0.250000 0.940053
O O2 0.743188 0.100046 0.917983
O O3 0.689081 0.120587 0.775230
O O4 0.173565 0.067013 0.999178
O O5 0.030491 0.250000 0.200064
O O6 0.383869 0.371668 0.277033
O O7 0.095304 0.428903 0.272518
O O8 0.841573 0.409251 0.073894
O O9 0.226293 0.750000 0.617590
O O10 0.102590 0.599043 0.497290
O O11 0.195624 0.559746 0.644823
O O12 0.345301 0.063875 0.557868
O O13 0.107579 0.962603 0.380394
O O14 0.344132 0.033405 0.851221
O O15 0.134471 0.885789 0.275926
O O16 0.499438 0.750000 0.371213
#
# Coordination Sequence:
#
# PCOD9166774 Si02
#       7
#     4   4   4   4   4   4   4
#     4  10  23  42  69  95 124 172 223 271 322 378
#     4  11  24  44  67  95 133 171 217 270 323 386
#     4  10  23  42  69  95 124 172 223 271 322 378
#     4  11  24  43  67  95 135 169 216 272 325 383
#     4  11  24  43  67  95 135 169 216 272 325 383
#     4  12  26  42  64 100 132 176 212 258 330 392
#     4  11  24  44  67  95 133 171 217 270 323 386
#
# _framework density 20.669074999999999
#
# number of rings (size 3 to 8) (size 9 to 14) (size 15 to 20)
#    0.000    1.143    2.857    1.714    8.000    3.429 
#    0.000    0.000    0.000    0.000    0.000    0.000 
#    0.000    0.000    0.000    0.000    0.000    0.000 
#
# Total GULP energy -156689.555481 kJ/mol
# GULP energy per Si atom -5596.055553 kJ/mol
# Density = 2.062203 g / cm^3
# Si number density = 20.669075 Si / 1000 Ang^3
#
#
#
# Elastic Constant Matrix: (Units=GPa)
#
#
# Indices 1 2 3 4 5 6 
#
# 1 44.0500 -23.0251 4.1168 0.0000 -10.2046 0.0000
# 2 -23.0251 60.0954 7.1742 0.0000 -8.8547 0.0000
# 3 4.1168 7.1742 49.1289 0.0000 6.5843 0.0000
# 4 0.0000 0.0000 0.0000 9.7811 0.0000 5.5250
# 5 -10.2046 -8.8547 6.5843 0.0000 43.0678 0.0000
# 6 0.0000 0.0000 0.0000 5.5250 0.0000 10.3963
#
#
#
# Elastic Compliance Matrix: (Units=1/GPa)
#
#
# Indices 1 2 3 4 5 6 
#
# 1 0.034561 0.015909 -0.006896 0.000000 0.012514 0.000000
# 2 0.015909 0.024940 -0.006296 0.000000 0.009860 0.000000
# 3 -0.006896 -0.006296 0.022710 0.000000 -0.006400 0.000000
# 4 0.000000 0.000000 0.000000 0.146095 0.000000 -0.077641
# 5 0.012514 0.009860 -0.006400 0.000000 0.029190 0.000000
# 6 0.000000 0.000000 0.000000 -0.077641 0.000000 0.137450
#
#
# Mechanical properties :
#
#
# Convention : Reuss Voigt Hill
#
# Bulk Modulus (GPa) = 11.40998 14.42290 12.91644
# Shear Modulus (GPa) = 11.94094 23.64958 17.79526
#
# Velocity S-wave (km/s) = 2.40619 3.38627 2.93740
# Velocity P-wave (km/s) = 3.64032 4.72041 4.21511
#
# Compressibility (1/GPa) = 0.08764254
#
# Stress axis : x y z
#
# Youngs Moduli (GPa) = 28.93462 40.09622 44.03397
#
# Poissons Ratio (x) = -0.63788 0.30367
# Poissons Ratio (y) = -0.46032 0.27726
# Poissons Ratio (z) = 0.19954 0.25246
#
# Static dielectric constant tensor:
#      x y z
#    x 1.727230 0.000000 0.022510 
#    y 0.000000 1.721430 0.000000 
#    z 0.022510 0.000000 1.737560 
# 
# From -- ./inp_files/63883.got.cif
#   From: 2010.05.17/outbox.cif.g08.bks.cpg/sg11_32_cif.got.tgz:63883.got - 2010.06.03 12:22:45.
