data_PCOD9166691
_publ_section_title
;
Structure prediction by ZEFSAII (Michael W. Deem and Ramdas Pophale) SiO2 
 PCOD9166691
Probable space group: P 21/M
;
_chemical_formula_sum "Si O2"
_cell_formula_units_Z 28
_cell_length_a 8.111894
_cell_length_b 27.086096
_cell_length_c 6.033767
_cell_angle_alpha 90.000000
_cell_angle_beta 60.302910
_cell_angle_gamma 90.000000
_cell_volume 1151.609869
_symmetry_space_group_name_H-M "P 21/M"
_symmetry_group_IT_number 11
_symmetry_cell_setting 'monoclinic'
loop_
_space_group_symop_operation_xyz
x,y,z
-x,1/2+y,-z
-x,-y,-z
x,1/2-y,z
loop_
_atom_site_type_symbol
_atom_site_label
_atom_site_fract_x
_atom_site_fract_y
_atom_site_fract_z
Si Si1 0.734628 0.804994 0.706741
Si Si2 0.482016 0.636445 0.202614
Si Si3 0.861089 0.305876 0.339962
Si Si4 0.916372 0.515243 0.799584
Si Si5 0.938578 0.100177 0.069059
Si Si6 0.724514 0.902395 0.432470
Si Si7 0.589329 0.445976 0.110975
O O1 0.680620 0.750000 0.666385
O O2 0.955448 0.804249 0.624618
O O3 0.701578 0.849625 0.562349
O O4 0.609554 0.821827 0.999449
O O5 0.615888 0.605689 0.276206
O O6 0.310490 0.664932 0.433104
O O7 0.408225 0.595576 0.079776
O O8 0.811350 0.250000 0.310512
O O9 0.925118 0.341235 0.097338
O O10 0.000000 0.500000 0.500000
O O11 0.952451 0.574070 0.799188
O O12 0.700883 0.494936 0.963912
O O13 0.000000 0.500000 0.000000
O O14 0.056991 0.088227 0.768635
O O15 0.729986 0.077640 0.201240
O O16 0.617139 0.944722 0.640040
#
# Coordination Sequence:
#
# PCOD9166691 Si02
#       7
#     4   4   4   4   4   4   4
#     4  10  23  40  60  90 126 171 224 274 334 406
#     4  11  21  41  63  90 131 166 220 275 343 393
#     4  11  22  38  64  91 124 173 219 271 335 404
#     4  10  23  43  72 102 136 184 227 279 345 405
#     4  11  22  43  66  96 134 175 222 278 342 400
#     4  11  23  39  65  94 128 175 214 283 338 402
#     4  10  23  42  67  94 132 172 225 275 337 410
#
# _framework density 24.313790999999998
#
# number of rings (size 3 to 8) (size 9 to 14) (size 15 to 20)
#    0.000    1.429    2.857    2.143    2.000    3.429 
#    0.000    1.429    0.000    0.000    0.000    0.000 
#    0.000    0.000    0.000    0.000    0.000    0.000 
#
# Total GULP energy -156444.848623 kJ/mol
# GULP energy per Si atom -5587.316022 kJ/mol
# Density = 2.425845 g / cm^3
# Si number density = 24.313791 Si / 1000 Ang^3
#
#
#
# Elastic Constant Matrix: (Units=GPa)
#
#
# Indices 1 2 3 4 5 6 
#
# 1 59.0118 8.7978 27.3482 0.0000 -14.6390 0.0000
# 2 8.7978 101.3702 39.5600 0.0000 7.7846 0.0000
# 3 27.3482 39.5600 134.0674 0.0000 -19.8997 0.0000
# 4 0.0000 0.0000 0.0000 15.4164 0.0000 2.0491
# 5 -14.6390 7.7846 -19.8997 0.0000 32.7088 0.0000
# 6 0.0000 0.0000 0.0000 2.0491 0.0000 33.6319
#
#
#
# Elastic Compliance Matrix: (Units=1/GPa)
#
#
# Indices 1 2 3 4 5 6 
#
# 1 0.020285 -0.001358 -0.002574 0.000000 0.007836 0.000000
# 2 -0.001358 0.012077 -0.004181 0.000000 -0.006026 0.000000
# 3 -0.002574 -0.004181 0.010107 0.000000 0.005992 0.000000
# 4 0.000000 0.000000 0.000000 0.065396 0.000000 -0.003984
# 5 0.007836 -0.006026 0.005992 0.000000 0.039159 0.000000
# 6 0.000000 0.000000 0.000000 -0.003984 0.000000 0.029976
#
#
# Mechanical properties :
#
#
# Convention : Reuss Voigt Hill
#
# Bulk Modulus (GPa) = 38.10501 49.54017 43.82259
# Shear Modulus (GPa) = 24.75561 30.93430 27.84496
#
# Velocity S-wave (km/s) = 3.19434 3.57079 3.38780
# Velocity P-wave (km/s) = 5.41399 6.11722 5.77631
#
# Compressibility (1/GPa) = 0.02624327
#
# Stress axis : x y z
#
# Youngs Moduli (GPa) = 49.29763 82.80144 98.93923
#
# Poissons Ratio (x) = 0.11241 0.25469
# Poissons Ratio (y) = 0.06693 0.41368
# Poissons Ratio (z) = 0.12690 0.34620
#
# Static dielectric constant tensor:
#      x y z
#    x 1.956410 0.000000 0.016130 
#    y 0.000000 1.976550 0.000000 
#    z 0.016130 0.000000 1.971720 
# 
# From -- ./inp_files/3319.got.cif
#   From: 2010.05.17/outbox.cif.g08.bks.cpg/sg11_2_cif.got.tgz:3319.got - 2010.06.03 12:22:45.
