data_PCOD9166555
_publ_section_title
;
Structure prediction by ZEFSAII (Michael W. Deem and Ramdas Pophale) SiO2 
 PCOD9166555
Probable space group: P 21/M
;
_chemical_formula_sum "Si O2"
_cell_formula_units_Z 32
_cell_length_a 11.728560
_cell_length_b 17.177914
_cell_length_c 14.452430
_cell_angle_alpha 90.000000
_cell_angle_beta 148.106083
_cell_angle_gamma 90.000000
_cell_volume 1538.424625
_symmetry_space_group_name_H-M "P 21/M"
_symmetry_group_IT_number 11
_symmetry_cell_setting 'monoclinic'
loop_
_space_group_symop_operation_xyz
x,y,z
-x,1/2+y,-z
-x,-y,-z
x,1/2-y,z
loop_
_atom_site_type_symbol
_atom_site_label
_atom_site_fract_x
_atom_site_fract_y
_atom_site_fract_z
Si Si1 0.901610 0.608887 0.858106
Si Si2 0.870772 0.425253 0.797680
Si Si3 0.372406 0.332994 0.854157
Si Si4 0.418394 0.840969 0.545037
Si Si5 0.901313 0.890923 0.498617
Si Si6 0.139550 0.630364 0.837309
Si Si7 0.266154 0.049300 0.941469
Si Si8 0.706336 0.058855 0.361978
O O1 0.843301 0.518307 0.793663
O O2 0.677073 0.650568 0.724375
O O3 0.027867 0.643800 0.858177
O O4 0.060346 0.607609 0.055391
O O5 0.674692 0.383563 0.610604
O O6 0.076134 0.414681 0.871829
O O7 0.302191 0.250000 0.846031
O O8 0.262305 0.346074 0.679764
O O9 0.305590 0.402456 0.875877
O O10 0.627964 0.333016 0.016936
O O11 0.357688 0.750000 0.505118
O O12 0.328259 0.887018 0.572673
O O13 0.977412 0.849470 0.643512
O O14 0.114453 0.906812 0.583736
O O15 0.792294 0.973626 0.448789
O O16 0.192673 0.537821 0.867502
O O17 0.483482 0.049095 0.152185
#
# Coordination Sequence:
#
# PCOD9166555 Si02
#       8
#     4   4   4   4   4   4   4   4
#     4  10  23  43  69  94 125 174 227 271 313 383
#     4  10  22  42  69  97 126 170 220 275 320 383
#     4  12  26  41  63  96 135 173 215 269 333 400
#     4  12  26  43  67 102 140 170 212 275 337 392
#     4  11  23  40  67  96 132 171 217 271 320 390
#     4  11  23  43  68  94 126 174 223 269 319 386
#     4  11  20  42  70  95 128 167 220 274 327 382
#     4  11  21  40  69  98 129 172 218 265 326 392
#
# _framework density 20.8005
#
# number of rings (size 3 to 8) (size 9 to 14) (size 15 to 20)
#    0.000    1.000    3.750    4.500    0.000    5.000 
#    0.000    1.250    0.000    0.000    0.000    0.000 
#    0.000    0.000    0.000    0.000    0.000    0.000 
#
# Total GULP energy -179058.308255 kJ/mol
# GULP energy per Si atom -5595.572133 kJ/mol
# Density = 2.075316 g / cm^3
# Si number density = 20.800500 Si / 1000 Ang^3
#
#
#
# Elastic Constant Matrix: (Units=GPa)
#
#
# Indices 1 2 3 4 5 6 
#
# 1 88.9214 29.5709 16.4484 0.0000 -13.1082 0.0000
# 2 29.5709 60.7783 14.9710 0.0000 -4.9730 0.0000
# 3 16.4484 14.9710 101.3822 0.0000 -34.2501 0.0000
# 4 0.0000 0.0000 0.0000 -407.0230 0.0000 1.3085
# 5 -13.1082 -4.9730 -34.2501 0.0000 30.5693 0.0000
# 6 0.0000 0.0000 0.0000 1.3085 0.0000 -3.2065
#
#
#
# Elastic Compliance Matrix: (Units=1/GPa)
#
#
# Indices 1 2 3 4 5 6 
#
# 1 0.014156 -0.006568 0.000584 0.000000 0.005656 0.000000
# 2 -0.006568 0.020122 -0.002818 0.000000 -0.002700 0.000000
# 3 0.000584 -0.002818 0.016275 0.000000 0.018027 0.000000
# 4 0.000000 0.000000 0.000000 -0.002460 0.000000 -0.001004
# 5 0.005656 -0.002700 0.018027 0.000000 0.054896 0.000000
# 6 0.000000 0.000000 0.000000 -0.001004 0.000000 -0.312273
#
#
# Mechanical properties :
#
#
# Convention : Reuss Voigt Hill
#
# Bulk Modulus (GPa) = 30.35072 41.45141 35.90106
# Shear Modulus (GPa) = -27.67065 -63.25926 -45.46495
#
# Velocity S-wave (km/s) = -3.65127 -5.52072 -4.68029
# Velocity P-wave (km/s) = 1.77557 4.54604 3.45103
#
# Compressibility (1/GPa) = 0.03294815
#
# Stress axis : x y z
#
# Youngs Moduli (GPa) = 70.64166 49.69629 61.44397
#
# Poissons Ratio (x) = 0.32643 -0.03588
# Poissons Ratio (y) = 0.46401 0.17315
# Poissons Ratio (z) = -0.04126 0.14005
#
# Static dielectric constant tensor:
#      x y z
#    x 1.711110 0.000000 -0.005850 
#    y 0.000000 1.777160 0.000000 
#    z -0.005850 0.000000 1.727670 
# 
# From -- ./inp_files/50700.got.cif
#   From: 2010.05.17/outbox.cif.g08.bks.cpg/sg11_26_cif.got.tgz:50700.got - 2010.06.03 12:22:45.
