data_PCOD9166361
_publ_section_title
;
Structure prediction by ZEFSAII (Michael W. Deem and Ramdas Pophale) SiO2 
 PCOD9166361
Probable space group: P 21/M
;
_chemical_formula_sum "Si O2"
_cell_formula_units_Z 20
_cell_length_a 11.709211
_cell_length_b 14.972788
_cell_length_c 4.977108
_cell_angle_alpha 90.000000
_cell_angle_beta 72.620315
_cell_angle_gamma 90.000000
_cell_volume 832.747553
_symmetry_space_group_name_H-M "P 21/M"
_symmetry_group_IT_number 11
_symmetry_cell_setting 'monoclinic'
loop_
_space_group_symop_operation_xyz
x,y,z
-x,1/2+y,-z
-x,-y,-z
x,1/2-y,z
loop_
_atom_site_type_symbol
_atom_site_label
_atom_site_fract_x
_atom_site_fract_y
_atom_site_fract_z
Si Si1 0.302031 0.147557 0.339038
Si Si2 0.156563 0.406698 0.940816
Si Si3 0.550863 0.141346 0.406622
Si Si4 0.073289 0.934559 0.646225
Si Si5 0.696619 0.357509 0.801229
O O1 0.321690 0.250000 0.235270
O O2 0.208403 0.145625 0.650152
O O3 0.424395 0.110340 0.379017
O O4 0.249323 0.095877 0.121520
O O5 0.129940 0.504236 0.838971
O O6 0.029006 0.373434 0.146928
O O7 0.541719 0.250000 0.420400
O O8 0.591211 0.112563 0.672122
O O9 0.655583 0.116753 0.126408
O O10 0.177909 0.889929 0.403346
O O11 0.000000 0.000000 0.500000
O O12 0.699615 0.250000 0.794230
#
# Coordination Sequence:
#
# PCOD9166361 Si02
#       5
#     4   4   4   4   4
#     4  11  22  41  67  96 128 161 212 264 313 379
#     4  11  24  41  64  91 126 176 204 252 334 371
#     4   9  20  39  63  93 127 159 201 268 321 364
#     4  11  25  45  64  87 136 170 209 267 322 365
#     4  10  22  40  66  92 118 165 217 255 311 382
#
# _framework density 24.016883
#
# number of rings (size 3 to 8) (size 9 to 14) (size 15 to 20)
#    0.000    1.600    2.000    1.800    5.600    4.800 
#    0.000    6.000    0.000    0.000    0.000    0.000 
#    0.000    0.000    0.000    0.000    0.000    0.000 
#
# Total GULP energy -111944.273563 kJ/mol
# GULP energy per Si atom -5597.213678 kJ/mol
# Density = 2.396222 g / cm^3
# Si number density = 24.016883 Si / 1000 Ang^3
#
#
#
# Elastic Constant Matrix: (Units=GPa)
#
#
# Indices 1 2 3 4 5 6 
#
# 1 101.3444 26.1956 -2.5189 0.0000 16.3157 0.0000
# 2 26.1956 36.4516 6.6827 0.0000 -2.2748 0.0000
# 3 -2.5189 6.6827 71.9854 0.0000 15.0379 0.0000
# 4 0.0000 0.0000 0.0000 49.0559 0.0000 -2.5992
# 5 16.3157 -2.2748 15.0379 0.0000 47.4243 0.0000
# 6 0.0000 0.0000 0.0000 -2.5992 0.0000 35.3292
#
#
#
# Elastic Compliance Matrix: (Units=1/GPa)
#
#
# Indices 1 2 3 4 5 6 
#
# 1 0.013688 -0.010721 0.002747 0.000000 -0.006095 0.000000
# 2 -0.010721 0.036544 -0.005252 0.000000 0.007107 0.000000
# 3 0.002747 -0.005252 0.015770 0.000000 -0.006198 0.000000
# 4 0.000000 0.000000 0.000000 0.020465 0.000000 0.001506
# 5 -0.006095 0.007107 -0.006198 0.000000 0.025489 0.000000
# 6 0.000000 0.000000 0.000000 0.001506 0.000000 0.028416
#
#
# Mechanical properties :
#
#
# Convention : Reuss Voigt Hill
#
# Bulk Modulus (GPa) = 25.28370 30.05559 27.66965
# Shear Modulus (GPa) = 27.77664 38.32333 33.04999
#
# Velocity S-wave (km/s) = 3.40449 3.99893 3.71363
# Velocity P-wave (km/s) = 5.09945 5.81923 5.47119
#
# Compressibility (1/GPa) = 0.03955117
#
# Stress axis : x y z
#
# Youngs Moduli (GPa) = 73.05717 27.36397 63.41091
#
# Poissons Ratio (x) = 0.29336 -0.17421
# Poissons Ratio (y) = 0.78323 0.33305
# Poissons Ratio (z) = -0.20072 0.14372
#
# Static dielectric constant tensor:
#      x y z
#    x 1.916930 0.000000 -0.021770 
#    y 0.000000 1.964530 0.000000 
#    z -0.021770 0.000000 1.899310 
# 
# From -- ./inp_files/2313.got.cif
#   From: 2010.05.17/outbox.cif.g08.bks.cpg/sg11_2_cif.got.tgz:2313.got - 2010.06.03 12:22:45.
