data_PCOD9166443
_publ_section_title
;
Structure prediction by ZEFSAII (Michael W. Deem and Ramdas Pophale) SiO2 
 PCOD9166443
Probable space group: P 21/M
;
_chemical_formula_sum "Si O2"
_cell_formula_units_Z 28
_cell_length_a 5.200056
_cell_length_b 18.449018
_cell_length_c 12.797792
_cell_angle_alpha 90.000000
_cell_angle_beta 117.255090
_cell_angle_gamma 90.000000
_cell_volume 1091.456884
_symmetry_space_group_name_H-M "P 21/M"
_symmetry_group_IT_number 11
_symmetry_cell_setting 'monoclinic'
loop_
_space_group_symop_operation_xyz
x,y,z
-x,1/2+y,-z
-x,-y,-z
x,1/2-y,z
loop_
_atom_site_type_symbol
_atom_site_label
_atom_site_fract_x
_atom_site_fract_y
_atom_site_fract_z
Si Si1 0.810109 0.039129 0.244607
Si Si2 0.400790 0.332773 0.904783
Si Si3 0.762690 0.938437 0.959078
Si Si4 0.550471 0.968658 0.624252
Si Si5 0.021701 0.667563 0.845556
Si Si6 0.307561 0.663585 0.483788
Si Si7 0.352843 0.162647 0.659251
O O1 0.554727 0.026793 0.114508
O O2 0.685374 0.013731 0.332008
O O3 0.871137 0.125546 0.238047
O O4 0.127408 0.008284 0.284170
O O5 0.283490 0.250000 0.883043
O O6 0.428171 0.359004 0.791181
O O7 0.208082 0.386917 0.935890
O O8 0.703112 0.330703 0.023632
O O9 0.801681 0.884188 0.867176
O O10 0.000000 0.000000 0.000000
O O11 0.505959 0.882372 0.598132
O O12 0.500000 0.000000 0.500000
O O13 0.926876 0.750000 0.811167
O O14 0.331744 0.750000 0.503152
O O15 0.973017 0.640716 0.432237
O O16 0.418326 0.645046 0.387557
O O17 0.345644 0.250000 0.661150
#
# Coordination Sequence:
#
# PCOD9166443 Si02
#       7
#     4   4   4   4   4   4   4
#     4  11  25  48  70 101 139 182 237 285 360 413
#     4   9  20  37  64  99 138 183 228 282 350 418
#     4  11  24  44  68 106 147 183 235 287 353 432
#     4  12  26  48  70 101 135 183 239 296 349 422
#     4  10  22  44  71 103 144 185 237 291 347 431
#     4  10  22  41  64  95 131 171 226 288 344 402
#     4   9  19  37  61  95 131 167 217 270 338 409
#
# _framework density 25.653784000000002
#
# number of rings (size 3 to 8) (size 9 to 14) (size 15 to 20)
#    0.000    1.714    1.429    1.714    2.000    5.143 
#    5.143    0.000    0.000    0.000    0.000    0.000 
#    0.000    0.000    0.000    0.000    0.000    0.000 
#
# Total GULP energy -156841.874232 kJ/mol
# GULP energy per Si atom -5601.495508 kJ/mol
# Density = 2.559539 g / cm^3
# Si number density = 25.653784 Si / 1000 Ang^3
#
#
#
# Elastic Constant Matrix: (Units=GPa)
#
#
# Indices 1 2 3 4 5 6 
#
# 1 94.5772 54.8846 7.4800 0.0000 3.2500 0.0000
# 2 54.8846 136.0601 37.1105 0.0000 -2.9462 0.0000
# 3 7.4800 37.1105 68.7774 0.0000 -0.5863 0.0000
# 4 0.0000 0.0000 0.0000 44.5268 0.0000 -6.0443
# 5 3.2500 -2.9462 -0.5863 0.0000 46.5306 0.0000
# 6 0.0000 0.0000 0.0000 -6.0443 0.0000 38.7531
#
#
#
# Elastic Compliance Matrix: (Units=1/GPa)
#
#
# Indices 1 2 3 4 5 6 
#
# 1 0.014074 -0.006198 0.001802 0.000000 -0.001353 0.000000
# 2 -0.006198 0.011359 -0.005446 0.000000 0.001084 0.000000
# 3 0.001802 -0.005446 0.017280 0.000000 -0.000253 0.000000
# 4 0.000000 0.000000 0.000000 0.022944 0.000000 0.003579
# 5 -0.001353 0.001084 -0.000253 0.000000 0.021651 0.000000
# 6 0.000000 0.000000 0.000000 0.003579 0.000000 0.026363
#
#
# Mechanical properties :
#
#
# Convention : Reuss Voigt Hill
#
# Bulk Modulus (GPa) = 43.42233 55.37389 49.39811
# Shear Modulus (GPa) = 35.45342 39.29139 37.37241
#
# Velocity S-wave (km/s) = 3.72155 3.91781 3.82094
# Velocity P-wave (km/s) = 5.95228 6.48827 6.22605
#
# Compressibility (1/GPa) = 0.02302963
#
# Stress axis : x y z
#
# Youngs Moduli (GPa) = 71.05189 88.03844 57.87119
#
# Poissons Ratio (x) = 0.54568 -0.10429
# Poissons Ratio (y) = 0.44039 0.31514
# Poissons Ratio (z) = -0.12805 0.47941
#
# Static dielectric constant tensor:
#      x y z
#    x 1.990650 0.000000 -0.005340 
#    y 0.000000 2.062230 0.000000 
#    z -0.005340 0.000000 2.008770 
# 
# From -- ./inp_files/46084.got.cif
#   From: 2010.05.17/outbox.cif.g08.bks.cpg/sg11_24_cif.got.tgz:46084.got - 2010.06.03 12:22:45.
