data_PCOD9166225
_publ_section_title
;
Structure prediction by ZEFSAII (Michael W. Deem and Ramdas Pophale) SiO2 
 PCOD9166225
Probable space group: P 21/M
;
_chemical_formula_sum "Si O2"
_cell_formula_units_Z 28
_cell_length_a 12.093474
_cell_length_b 8.771478
_cell_length_c 15.938654
_cell_angle_alpha 90.000000
_cell_angle_beta 55.797855
_cell_angle_gamma 90.000000
_cell_volume 1398.338346
_symmetry_space_group_name_H-M "P 21/M"
_symmetry_group_IT_number 11
_symmetry_cell_setting 'monoclinic'
loop_
_space_group_symop_operation_xyz
x,y,z
-x,1/2+y,-z
-x,-y,-z
x,1/2-y,z
loop_
_atom_site_type_symbol
_atom_site_label
_atom_site_fract_x
_atom_site_fract_y
_atom_site_fract_z
Si Si1 0.910267 0.932200 0.111869
Si Si2 0.903281 0.934755 0.303920
Si Si3 0.830026 0.068091 0.720487
Si Si4 0.355761 0.931732 0.038750
Si Si5 0.369987 0.931783 0.510542
Si Si6 0.639141 0.568236 0.140071
Si Si7 0.632810 0.569028 0.673824
O O1 0.926177 0.750000 0.101787
O O2 0.943637 0.981711 0.192115
O O3 0.755004 0.966168 0.157668
O O4 0.000000 0.000000 0.000000
O O5 0.891283 0.750000 0.309085
O O6 0.018951 0.975627 0.320617
O O7 0.763014 0.007432 0.387725
O O8 0.825178 0.250000 0.705718
O O9 0.743184 0.040858 0.841684
O O10 0.759902 0.980631 0.674848
O O11 0.365550 0.750000 0.022101
O O12 0.500000 0.000000 0.000000
O O13 0.311752 0.010142 0.971280
O O14 0.375656 0.750000 0.510965
O O15 0.500000 0.000000 0.500000
O O16 0.365901 0.988553 0.416586
O O17 0.616948 0.750000 0.146960
O O18 0.500733 0.486657 0.221348
O O19 0.629914 0.750000 0.664625
#
# Coordination Sequence:
#
# PCOD9166225 Si02
#       7
#     4   4   4   4   4   4   4
#     4  10  22  39  62  91 125 165 207 257 309 371
#     4  10  22  43  67  93 127 170 214 260 315 373
#     4  10  22  40  63  91 129 171 214 264 318 376
#     4  11  21  35  58  89 126 170 214 259 312 372
#     4  12  26  46  71  97 126 161 206 261 318 380
#     4  11  22  37  59  90 128 167 211 264 320 376
#     4  12  25  41  65  94 124 163 212 264 317 377
#
# _framework density 20.023768
#
# number of rings (size 3 to 8) (size 9 to 14) (size 15 to 20)
#    0.000    1.143    1.429    5.143    0.000    5.714 
#    0.000    0.000    0.000    0.000    0.000    0.000 
#    0.000    0.000    0.000    0.000    0.000    0.000 
#
# Total GULP energy -156660.847270 kJ/mol
# GULP energy per Si atom -5595.030260 kJ/mol
# Density = 1.997819 g / cm^3
# Si number density = 20.023768 Si / 1000 Ang^3
#
#
#
# Elastic Constant Matrix: (Units=GPa)
#
#
# Indices 1 2 3 4 5 6 
#
# 1 149.6390 65.5569 55.2234 0.0000 1.6689 0.0000
# 2 65.5569 75.5657 36.6091 0.0000 -2.4203 0.0000
# 3 55.2234 36.6091 87.7883 0.0000 4.3498 0.0000
# 4 0.0000 0.0000 0.0000 35.5706 0.0000 2.9605
# 5 1.6689 -2.4203 4.3498 0.0000 37.4875 0.0000
# 6 0.0000 0.0000 0.0000 2.9605 0.0000 28.9672
#
#
#
# Elastic Compliance Matrix: (Units=1/GPa)
#
#
# Indices 1 2 3 4 5 6 
#
# 1 0.011791 -0.008359 -0.003901 0.000000 -0.000612 0.000000
# 2 -0.008359 0.022643 -0.004300 0.000000 0.002333 0.000000
# 3 -0.003901 -0.004300 0.015734 0.000000 -0.001930 0.000000
# 4 0.000000 0.000000 0.000000 0.028354 0.000000 -0.002898
# 5 -0.000612 0.002333 -0.001930 0.000000 0.027077 0.000000
# 6 0.000000 0.000000 0.000000 -0.002898 0.000000 0.034818
#
#
# Mechanical properties :
#
#
# Convention : Reuss Voigt Hill
#
# Bulk Modulus (GPa) = 58.65751 69.75240 64.20495
# Shear Modulus (GPa) = 27.89840 30.77862 29.33851
#
# Velocity S-wave (km/s) = 3.73669 3.92485 3.83193
# Velocity P-wave (km/s) = 6.92638 7.44645 7.19112
#
# Compressibility (1/GPa) = 0.01704812
#
# Stress axis : x y z
#
# Youngs Moduli (GPa) = 84.80695 44.16286 63.55743
#
# Poissons Ratio (x) = 0.36917 0.24795
# Poissons Ratio (y) = 0.70893 0.27329
# Poissons Ratio (z) = 0.33085 0.18989
#
# Static dielectric constant tensor:
#      x y z
#    x 1.759070 0.000000 0.028380 
#    y 0.000000 1.668420 0.000000 
#    z 0.028380 0.000000 1.703560 
# 
# From -- ./inp_files/49173.got.cif
#   From: 2010.05.17/outbox.cif.g08.bks.cpg/sg11_25_cif.got.tgz:49173.got - 2010.06.03 12:22:45.
