data_PCOD9166977
_publ_section_title
;
Structure prediction by ZEFSAII (Michael W. Deem and Ramdas Pophale) SiO2 
 PCOD9166977
Probable space group: P 21/M
;
_chemical_formula_sum "Si O2"
_cell_formula_units_Z 24
_cell_length_a 7.186574
_cell_length_b 26.545800
_cell_length_c 5.419221
_cell_angle_alpha 90.000000
_cell_angle_beta 94.458339
_cell_angle_gamma 90.000000
_cell_volume 1030.714692
_symmetry_space_group_name_H-M "P 21/M"
_symmetry_group_IT_number 11
_symmetry_cell_setting 'monoclinic'
loop_
_space_group_symop_operation_xyz
x,y,z
-x,1/2+y,-z
-x,-y,-z
x,1/2-y,z
loop_
_atom_site_type_symbol
_atom_site_label
_atom_site_fract_x
_atom_site_fract_y
_atom_site_fract_z
Si Si1 0.788724 0.890321 0.210725
Si Si2 0.687460 0.983127 0.883503
Si Si3 0.490397 0.904197 0.548378
Si Si4 0.901809 0.449595 0.583102
Si Si5 0.927261 0.191724 0.863941
Si Si6 0.315822 0.808889 0.666010
O O1 0.581910 0.887358 0.298664
O O2 0.945294 0.906345 0.425666
O O3 0.886379 0.841937 0.107224
O O4 0.791454 0.940279 0.045868
O O5 0.618654 0.951182 0.640833
O O6 0.812433 0.031185 0.833629
O O7 0.500000 0.000000 0.000000
O O8 0.285706 0.927887 0.554812
O O9 0.477050 0.851462 0.692479
O O10 0.000000 0.500000 0.500000
O O11 0.981063 0.250000 0.855434
O O12 0.798220 0.182525 0.605035
O O13 0.810468 0.183997 0.103277
O O14 0.376896 0.750000 0.669531
#
# Coordination Sequence:
#
# PCOD9166977 Si02
#       6
#     4   4   4   4   4   4
#     4  12  26  43  70 101 134 189 234 289 353 418
#     4  12  26  43  65  99 141 183 235 294 342 420
#     4  12  26  44  68 104 138 180 242 291 351 422
#     4  12  24  45  65  93 139 189 229 286 349 411
#     4  10  24  47  75 105 138 184 236 289 358 429
#     4  10  24  47  75 104 141 184 231 295 360 422
#
# _framework density 23.284814999999998
#
# number of rings (size 3 to 8) (size 9 to 14) (size 15 to 20)
#    0.000    0.667    5.000    2.000    9.333    0.667 
#    0.000    0.833    0.000    0.000    0.000    0.000 
#    0.000    0.000    0.000    0.000    0.000    0.000 
#
# Total GULP energy -133857.799109 kJ/mol
# GULP energy per Si atom -5577.408296 kJ/mol
# Density = 2.323182 g / cm^3
# Si number density = 23.284815 Si / 1000 Ang^3
#
#
#
# Elastic Constant Matrix: (Units=GPa)
#
#
# Indices 1 2 3 4 5 6 
#
# 1 73.0759 18.1352 1.5313 0.0000 -10.5450 0.0000
# 2 18.1352 109.4634 8.2590 0.0000 -15.2756 0.0000
# 3 1.5313 8.2590 70.6477 0.0000 -11.5820 0.0000
# 4 0.0000 0.0000 0.0000 24.8375 0.0000 -18.6370
# 5 -10.5450 -15.2756 -11.5820 0.0000 29.6989 0.0000
# 6 0.0000 0.0000 0.0000 -18.6370 0.0000 30.2320
#
#
#
# Elastic Compliance Matrix: (Units=1/GPa)
#
#
# Indices 1 2 3 4 5 6 
#
# 1 0.014789 -0.001865 0.000642 0.000000 0.004542 0.000000
# 2 -0.001865 0.010085 -0.000424 0.000000 0.004360 0.000000
# 3 0.000642 -0.000424 0.015161 0.000000 0.005923 0.000000
# 4 0.000000 0.000000 0.000000 0.074915 0.000000 0.046182
# 5 0.004542 0.004360 0.005923 0.000000 0.039836 0.000000
# 6 0.000000 0.000000 0.000000 0.046182 0.000000 0.061547
#
#
# Mechanical properties :
#
#
# Convention : Reuss Voigt Hill
#
# Bulk Modulus (GPa) = 27.21647 34.33757 30.77702
# Shear Modulus (GPa) = 21.56342 31.97112 26.76727
#
# Velocity S-wave (km/s) = 3.04644 3.70948 3.39419
# Velocity P-wave (km/s) = 4.90799 5.75550 5.34856
#
# Compressibility (1/GPa) = 0.03674245
#
# Stress axis : x y z
#
# Youngs Moduli (GPa) = 67.61693 99.15927 65.95728
#
# Poissons Ratio (x) = 0.18491 -0.04235
# Poissons Ratio (y) = 0.12609 0.02795
# Poissons Ratio (z) = -0.04342 0.04202
#
# Static dielectric constant tensor:
#      x y z
#    x 1.965250 0.000000 0.121740 
#    y 0.000000 1.854810 0.000000 
#    z 0.121740 0.000000 2.073590 
# 
# From -- ./inp_files/2714.got.cif
#   From: 2010.05.17/outbox.cif.g08.bks.cpg/sg11_2_cif.got.tgz:2714.got - 2010.06.03 12:22:45.
