data_PCOD9166649
_publ_section_title
;
Structure prediction by ZEFSAII (Michael W. Deem and Ramdas Pophale) SiO2 
 PCOD9166649
Probable space group: P 21/M
;
_chemical_formula_sum "Si O2"
_cell_formula_units_Z 20
_cell_length_a 5.414056
_cell_length_b 26.285025
_cell_length_c 7.648260
_cell_angle_alpha 90.000000
_cell_angle_beta 127.174341
_cell_angle_gamma 90.000000
_cell_volume 867.248251
_symmetry_space_group_name_H-M "P 21/M"
_symmetry_group_IT_number 11
_symmetry_cell_setting 'monoclinic'
loop_
_space_group_symop_operation_xyz
x,y,z
-x,1/2+y,-z
-x,-y,-z
x,1/2-y,z
loop_
_atom_site_type_symbol
_atom_site_label
_atom_site_fract_x
_atom_site_fract_y
_atom_site_fract_z
Si Si1 0.296745 0.115316 0.314532
Si Si2 0.973703 0.020511 0.294054
Si Si3 0.682482 0.923708 0.036533
Si Si4 0.246242 0.694698 0.389594
Si Si5 0.311331 0.341027 0.674908
O O1 0.204952 0.112207 0.073416
O O2 0.626515 0.143945 0.458859
O O3 0.154134 0.147532 0.416306
O O4 0.255082 0.056948 0.357577
O O5 0.658349 0.053804 0.147579
O O6 0.000000 0.000000 0.500000
O O7 0.917643 0.970720 0.153131
O O8 0.653593 0.893159 0.204585
O O9 0.375913 0.750000 0.499317
O O10 0.366849 0.684525 0.245727
O O11 0.890191 0.693799 0.286391
#
# Coordination Sequence:
#
# PCOD9166649 Si02
#       5
#     4   4   4   4   4
#     4  10  23  39  69  95 141 176 227 280 337 402
#     4  11  22  42  64 102 142 184 224 276 336 408
#     4  11  24  41  66 101 138 184 226 274 336 416
#     4  10  22  45  72  96 133 177 225 291 349 394
#     4  10  23  42  70  97 137 173 226 281 342 398
#
# _framework density 23.061447999999999
#
# number of rings (size 3 to 8) (size 9 to 14) (size 15 to 20)
#    1.200    0.400    2.000    2.400    2.800    0.800 
#    0.000    2.000    0.000    0.000    0.000    0.000 
#    0.000    0.000    0.000    0.000    0.000    0.000 
#
# Total GULP energy -111340.359690 kJ/mol
# GULP energy per Si atom -5567.017985 kJ/mol
# Density = 2.300896 g / cm^3
# Si number density = 23.061448 Si / 1000 Ang^3
#
#
#
# Elastic Constant Matrix: (Units=GPa)
#
#
# Indices 1 2 3 4 5 6 
#
# 1 138.3393 41.5874 33.4710 0.0000 -26.3049 0.0000
# 2 41.5874 91.8361 33.9031 0.0000 9.2719 0.0000
# 3 33.4710 33.9031 60.1462 0.0000 -15.1964 0.0000
# 4 0.0000 0.0000 0.0000 2.9732 0.0000 9.3273
# 5 -26.3049 9.2719 -15.1964 0.0000 30.0238 0.0000
# 6 0.0000 0.0000 0.0000 9.3273 0.0000 17.7593
#
#
#
# Elastic Compliance Matrix: (Units=1/GPa)
#
#
# Indices 1 2 3 4 5 6 
#
# 1 0.011433 -0.006584 0.000451 0.000000 0.012278 0.000000
# 2 -0.006584 0.020300 -0.012407 0.000000 -0.018317 0.000000
# 3 0.000451 -0.012407 0.028020 0.000000 0.018408 0.000000
# 4 0.000000 0.000000 0.000000 -0.519323 0.000000 0.272752
# 5 0.012278 -0.018317 0.018408 0.000000 0.059038 0.000000
# 6 0.000000 0.000000 0.000000 0.272752 0.000000 -0.086942
#
#
# Mechanical properties :
#
#
# Convention : Reuss Voigt Hill
#
# Bulk Modulus (GPa) = 44.10390 56.47163 50.28777
# Shear Modulus (GPa) = -11.29083 22.24191 5.47554
#
# Velocity S-wave (km/s) = -2.21509 3.10895 1.54256
# Velocity P-wave (km/s) = 3.55301 6.11785 5.00260
#
# Compressibility (1/GPa) = 0.02267373
#
# Stress axis : x y z
#
# Youngs Moduli (GPa) = 87.46263 49.26173 35.68915
#
# Poissons Ratio (x) = 0.32432 -0.01608
# Poissons Ratio (y) = 0.57582 0.44278
# Poissons Ratio (z) = -0.03941 0.61117
#
# Static dielectric constant tensor:
#      x y z
#    x 1.915060 0.000000 0.031340 
#    y 0.000000 1.886530 0.000000 
#    z 0.031340 0.000000 1.869210 
# 
# From -- ./inp_files/10396.got.cif
#   From: 2010.05.17/outbox.cif.g08.bks.cpg/sg11_6_cif.got.tgz:10396.got - 2010.06.03 12:22:45.
