data_PCOD9166505
_publ_section_title
;
Structure prediction by ZEFSAII (Michael W. Deem and Ramdas Pophale) SiO2 
 PCOD9166505
Probable space group: P 21/M
;
_chemical_formula_sum "Si O2"
_cell_formula_units_Z 26
_cell_length_a 11.989287
_cell_length_b 22.113015
_cell_length_c 8.976627
_cell_angle_alpha 90.000000
_cell_angle_beta 151.163950
_cell_angle_gamma 90.000000
_cell_volume 1147.826401
_symmetry_space_group_name_H-M "P 21/M"
_symmetry_group_IT_number 11
_symmetry_cell_setting 'monoclinic'
loop_
_space_group_symop_operation_xyz
x,y,z
-x,1/2+y,-z
-x,-y,-z
x,1/2-y,z
loop_
_atom_site_type_symbol
_atom_site_label
_atom_site_fract_x
_atom_site_fract_y
_atom_site_fract_z
Si Si1 0.758663 0.360913 0.842904
Si Si2 0.528944 0.458675 0.788663
Si Si3 0.885658 0.072922 0.444958
Si Si4 0.529382 0.250000 0.421142
Si Si5 0.856214 0.455402 0.728241
Si Si6 0.580315 0.187477 0.175841
Si Si7 0.817430 0.867661 0.458214
O O1 0.640272 0.417391 0.790035
O O2 0.596686 0.304339 0.617948
O O3 0.859213 0.389979 0.808587
O O4 0.972163 0.342543 0.198374
O O5 0.406463 0.519927 0.594052
O O6 0.321222 0.417253 0.609283
O O7 0.713840 0.465471 0.138586
O O8 0.962038 0.042110 0.686552
O O9 0.734468 0.129419 0.327608
O O10 0.080584 0.099156 0.567290
O O11 0.499323 0.198310 0.250456
O O12 0.000000 0.500000 0.000000
O O13 0.714641 0.250000 0.298422
O O14 0.364826 0.180484 0.814226
#
# Coordination Sequence:
#
# PCOD9166505 Si02
#       7
#     4   4   4   2   4   4   4
#     4  11  23  44  64  96 127 168 208 275 323 367
#     4  10  23  43  63  92 131 169 209 254 322 390
#     4  10  22  42  65  89 131 168 211 259 321 381
#     4  10  22  42  68  90 128 162 214 262 326 372
#     4  12  22  41  67  96 130 167 215 267 323 376
#     4   9  20  41  61  90 121 165 216 255 309 383
#     4  10  22  42  62  93 127 164 215 252 315 387
#
# _framework density 22.651509999999998
#
# number of rings (size 3 to 8) (size 9 to 14) (size 15 to 20)
#    0.462    1.231    3.077    0.923    1.077    2.462 
#   16.615    1.538    0.000    0.000    0.000    0.000 
#    0.000    0.000    0.000    0.000    0.000    0.000 
#
# Total GULP energy -144766.176071 kJ/mol
# GULP energy per Si atom -5567.929849 kJ/mol
# Density = 2.259995 g / cm^3
# Si number density = 22.651510 Si / 1000 Ang^3
#
#
#
# Elastic Constant Matrix: (Units=GPa)
#
#
# Indices 1 2 3 4 5 6 
#
# 1 80.1523 -2.8944 32.7296 0.0000 -27.1526 0.0000
# 2 -2.8944 63.1215 18.0105 0.0000 -24.8995 0.0000
# 3 32.7296 18.0105 37.4965 0.0000 -29.2781 0.0000
# 4 0.0000 0.0000 0.0000 24.9997 0.0000 -14.4809
# 5 -27.1526 -24.8995 -29.2781 0.0000 34.4491 0.0000
# 6 0.0000 0.0000 0.0000 -14.4809 0.0000 27.2561
#
#
#
# Elastic Compliance Matrix: (Units=1/GPa)
#
#
# Indices 1 2 3 4 5 6 
#
# 1 0.023672 0.010736 -0.015433 0.000000 0.013301 0.000000
# 2 0.010736 0.027424 -0.001364 0.000000 0.027124 0.000000
# 3 -0.015433 -0.001364 0.090752 0.000000 0.063979 0.000000
# 4 0.000000 0.000000 0.000000 0.057783 0.000000 0.030699
# 5 0.013301 0.027124 0.063979 0.000000 0.113493 0.000000
# 6 0.000000 0.000000 0.000000 0.030699 0.000000 0.052999
#
#
# Mechanical properties :
#
#
# Convention : Reuss Voigt Hill
#
# Bulk Modulus (GPa) = 7.70863 30.71796 19.21329
# Shear Modulus (GPa) = 11.86272 26.20263 19.03268
#
# Velocity S-wave (km/s) = 2.29094 3.40482 2.90183
# Velocity P-wave (km/s) = 3.22621 5.38959 4.44163
#
# Compressibility (1/GPa) = 0.12972472
#
# Stress axis : x y z
#
# Youngs Moduli (GPa) = 42.24388 36.46488 11.01898
#
# Poissons Ratio (x) = -0.39149 0.17006
# Poissons Ratio (y) = -0.45353 0.01503
# Poissons Ratio (z) = 0.65197 0.04975
#
# Static dielectric constant tensor:
#      x y z
#    x 1.856630 0.000000 -0.001110 
#    y 0.000000 1.891190 0.000000 
#    z -0.001110 0.000000 1.855740 
# 
# From -- ./inp_files/19829.got.cif
#   From: 2010.05.17/outbox.cif.g08.bks.cpg/sg11_10_cif.got.tgz:19829.got - 2010.06.03 12:22:45.
