data_PCOD9166985
_publ_section_title
;
Structure prediction by ZEFSAII (Michael W. Deem and Ramdas Pophale) SiO2 
 PCOD9166985
Probable space group: P 21/M
;
_chemical_formula_sum "Si O2"
_cell_formula_units_Z 24
_cell_length_a 13.582669
_cell_length_b 16.730481
_cell_length_c 4.842078
_cell_angle_alpha 90.000000
_cell_angle_beta 60.690790
_cell_angle_gamma 90.000000
_cell_volume 959.482651
_symmetry_space_group_name_H-M "P 21/M"
_symmetry_group_IT_number 11
_symmetry_cell_setting 'monoclinic'
loop_
_space_group_symop_operation_xyz
x,y,z
-x,1/2+y,-z
-x,-y,-z
x,1/2-y,z
loop_
_atom_site_type_symbol
_atom_site_label
_atom_site_fract_x
_atom_site_fract_y
_atom_site_fract_z
Si Si1 0.901162 0.467706 0.327383
Si Si2 0.677583 0.394966 0.601242
Si Si3 0.599732 0.750000 0.717776
Si Si4 0.532406 0.085366 0.296681
Si Si5 0.959402 0.250000 0.977842
Si Si6 0.244267 0.250000 0.985048
Si Si7 0.925504 0.624258 0.549710
Si Si8 0.804428 0.250000 0.694102
O O1 0.790666 0.436542 0.330533
O O2 0.962672 0.405662 0.444852
O O3 0.862794 0.543740 0.553668
O O4 0.000000 0.500000 0.000000
O O5 0.605048 0.441724 0.930104
O O6 0.602494 0.372640 0.445938
O O7 0.728957 0.323847 0.709934
O O8 0.541461 0.662882 0.720226
O O9 0.644830 0.750000 0.971085
O O10 0.713914 0.750000 0.382122
O O11 0.500000 0.000000 0.500000
O O12 0.029920 0.174232 0.774454
O O13 0.845502 0.250000 0.950539
O O14 0.917892 0.250000 0.346766
O O15 0.162809 0.176114 0.161359
#
# Coordination Sequence:
#
# PCOD9166985 Si02
#       8
#     4   4   2   4   2   2   4   2
#     4  11  25  41  71 105 160 189 243 291 367 465
#     4  12  26  45  75 105 140 194 237 307 375 444
#     4  12  28  54  74 109 143 194 261 334 387 445
#     4  12  29  50  77 104 143 189 261 322 382 444
#     4  11  22  41  62  99 142 190 227 282 343 434
#     4  11  28  45  82 101 149 197 245 314 386 455
#     4  10  25  42  64 109 145 194 239 290 363 459
#     4  12  22  40  70  99 140 181 235 286 362 440
#
# _framework density 25.013479
#
# number of rings (size 3 to 8) (size 9 to 14) (size 15 to 20)
#    0.000    0.667    1.667    4.500   11.667    1.333 
#    0.000    0.000    0.000    0.000    0.000    0.000 
#    0.000    0.000    0.000    0.000    0.000    0.000 
#
# Total GULP energy -134170.719432 kJ/mol
# GULP energy per Si atom -5590.446643 kJ/mol
# Density = 2.495655 g / cm^3
# Si number density = 25.013479 Si / 1000 Ang^3
#
#
#
# Elastic Constant Matrix: (Units=GPa)
#
#
# Indices 1 2 3 4 5 6 
#
# 1 92.5496 27.1476 -7.5461 0.0000 5.9572 0.0000
# 2 27.1476 133.4476 5.2245 0.0000 -10.4277 0.0000
# 3 -7.5461 5.2245 106.0309 0.0000 -12.6167 0.0000
# 4 0.0000 0.0000 0.0000 21.9954 0.0000 -1.0788
# 5 5.9572 -10.4277 -12.6167 0.0000 39.5269 0.0000
# 6 0.0000 0.0000 0.0000 -1.0788 0.0000 34.0398
#
#
#
# Elastic Compliance Matrix: (Units=1/GPa)
#
#
# Indices 1 2 3 4 5 6 
#
# 1 0.011767 -0.002596 0.000699 0.000000 -0.002235 0.000000
# 2 -0.002596 0.008226 -0.000297 0.000000 0.002467 0.000000
# 3 0.000699 -0.000297 0.009848 0.000000 0.002960 0.000000
# 4 0.000000 0.000000 0.000000 0.045535 0.000000 0.001443
# 5 -0.002235 0.002467 0.002960 0.000000 0.027232 0.000000
# 6 0.000000 0.000000 0.000000 0.001443 0.000000 0.029423
#
#
# Mechanical properties :
#
#
# Convention : Reuss Voigt Hill
#
# Bulk Modulus (GPa) = 39.28484 42.40890 40.84687
# Shear Modulus (GPa) = 34.50614 39.59256 37.04935
#
# Velocity S-wave (km/s) = 3.71819 3.98282 3.85278
# Velocity P-wave (km/s) = 5.84576 6.17590 6.01309
#
# Compressibility (1/GPa) = 0.02545511
#
# Stress axis : x y z
#
# Youngs Moduli (GPa) = 84.98078 121.56532 101.54573
#
# Poissons Ratio (x) = 0.31557 -0.07102
# Poissons Ratio (y) = 0.22060 0.03011
# Poissons Ratio (z) = -0.05944 0.03605
#
# Static dielectric constant tensor:
#      x y z
#    x 1.973640 0.000000 -0.018250 
#    y 0.000000 2.158120 0.000000 
#    z -0.018250 0.000000 1.971210 
# 
# From -- ./inp_files/4616.got.cif
#   From: 2010.05.17/outbox.cif.g08.bks.cpg/sg11_3_cif.got.tgz:4616.got - 2010.06.03 12:22:45.
