data_PCOD9166457
_publ_section_title
;
Structure prediction by ZEFSAII (Michael W. Deem and Ramdas Pophale) SiO2 
 PCOD9166457
Probable space group: P 21/M
;
_chemical_formula_sum "Si O2"
_cell_formula_units_Z 28
_cell_length_a 19.309555
_cell_length_b 8.619804
_cell_length_c 16.535495
_cell_angle_alpha 90.000000
_cell_angle_beta 29.936669
_cell_angle_gamma 90.000000
_cell_volume 1373.486336
_symmetry_space_group_name_H-M "P 21/M"
_symmetry_group_IT_number 11
_symmetry_cell_setting 'monoclinic'
loop_
_space_group_symop_operation_xyz
x,y,z
-x,1/2+y,-z
-x,-y,-z
x,1/2-y,z
loop_
_atom_site_type_symbol
_atom_site_label
_atom_site_fract_x
_atom_site_fract_y
_atom_site_fract_z
Si Si1 0.848050 0.934919 0.512040
Si Si2 0.656601 0.064325 0.849208
Si Si3 0.558194 0.433193 0.524434
Si Si4 0.044101 0.932132 0.040887
Si Si5 0.281075 0.433479 0.890194
Si Si6 0.805852 0.064555 0.381748
Si Si7 0.837843 0.563294 0.813287
O O1 0.849532 0.750000 0.519412
O O2 0.752008 0.009303 0.677929
O O3 0.787463 0.983653 0.486188
O O4 0.006932 0.996454 0.354768
O O5 0.651664 0.250000 0.856604
O O6 0.734410 0.000256 0.849874
O O7 0.500000 0.000000 0.000000
O O8 0.500000 0.500000 0.500000
O O9 0.575908 0.250000 0.493096
O O10 0.443551 0.455334 0.710590
O O11 0.701477 0.492885 0.417293
O O12 0.016327 0.750000 0.072614
O O13 0.957824 0.022635 0.196251
O O14 0.000000 0.000000 0.000000
O O15 0.202378 0.968547 0.901709
O O16 0.251945 0.250000 0.907268
O O17 0.225781 0.477442 0.034486
O O18 0.790970 0.250000 0.406142
O O19 0.845777 0.750000 0.800089
#
# Coordination Sequence:
#
# PCOD9166457 Si02
#       7
#     4   4   4   4   4   4   4
#     4  12  25  44  69 101 135 174 222 271 328 394
#     4  12  27  47  71 102 138 175 218 270 326 392
#     4  10  23  41  62  91 126 170 217 267 326 390
#     4  12  24  39  62  92 128 169 218 272 324 387
#     4  10  22  41  65  93 128 169 216 266 326 392
#     4  11  23  41  65  95 130 171 217 270 331 392
#     4  11  23  43  71 100 134 176 219 271 330 394
#
# _framework density 20.386078999999999
#
# number of rings (size 3 to 8) (size 9 to 14) (size 15 to 20)
#    0.000    0.857    1.429    6.000    2.000    4.571 
#    0.000    0.000    0.000    0.000    0.000    0.000 
#    0.000    0.000    0.000    0.000    0.000    0.000 
#
# Total GULP energy -156625.758836 kJ/mol
# GULP energy per Si atom -5593.777101 kJ/mol
# Density = 2.033968 g / cm^3
# Si number density = 20.386079 Si / 1000 Ang^3
#
#
#
# Elastic Constant Matrix: (Units=GPa)
#
#
# Indices 1 2 3 4 5 6 
#
# 1 120.6040 25.8339 27.3011 0.0000 -2.9997 0.0000
# 2 25.8339 79.9445 22.8983 0.0000 -3.6679 0.0000
# 3 27.3011 22.8983 77.5347 0.0000 2.0101 0.0000
# 4 0.0000 0.0000 0.0000 28.1546 0.0000 -1.9969
# 5 -2.9997 -3.6679 2.0101 0.0000 37.6240 0.0000
# 6 0.0000 0.0000 0.0000 -1.9969 0.0000 38.4722
#
#
#
# Elastic Compliance Matrix: (Units=1/GPa)
#
#
# Indices 1 2 3 4 5 6 
#
# 1 0.009391 -0.002241 -0.002662 0.000000 0.000672 0.000000
# 2 -0.002241 0.014290 -0.003467 0.000000 0.001400 0.000000
# 3 -0.002662 -0.003467 0.014894 0.000000 -0.001346 0.000000
# 4 0.000000 0.000000 0.000000 0.035649 0.000000 0.001850
# 5 0.000672 0.001400 -0.001346 0.000000 0.026841 0.000000
# 6 0.000000 0.000000 0.000000 0.001850 0.000000 0.026089
#
#
# Mechanical properties :
#
#
# Convention : Reuss Voigt Hill
#
# Bulk Modulus (GPa) = 45.80180 47.79444 46.79812
# Shear Modulus (GPa) = 33.07447 34.32015 33.69731
#
# Velocity S-wave (km/s) = 4.03228 4.10751 4.07007
# Velocity P-wave (km/s) = 6.64793 6.78167 6.71513
#
# Compressibility (1/GPa) = 0.02183320
#
# Stress axis : x y z
#
# Youngs Moduli (GPa) = 106.48408 69.97735 67.14199
#
# Poissons Ratio (x) = 0.15684 0.17875
# Poissons Ratio (y) = 0.23866 0.23281
# Poissons Ratio (z) = 0.28349 0.24264
#
# Static dielectric constant tensor:
#      x y z
#    x 1.703280 0.000000 0.002820 
#    y 0.000000 1.666070 0.000000 
#    z 0.002820 0.000000 1.706320 
# 
# From -- ./inp_files/28537.got.cif
#   From: 2010.05.17/outbox.cif.g08.bks.cpg/sg11_15_cif.got.tgz:28537.got - 2010.06.03 12:22:45.
