data_PCOD9166182
_publ_section_title
;
Structure prediction by ZEFSAII (Michael W. Deem and Ramdas Pophale) SiO2 
 PCOD9166182
Probable space group: P 21/M
;
_chemical_formula_sum "Si O2"
_cell_formula_units_Z 32
_cell_length_a 13.916233
_cell_length_b 19.934222
_cell_length_c 14.029278
_cell_angle_alpha 90.000000
_cell_angle_beta 21.278419
_cell_angle_gamma 90.000000
_cell_volume 1412.354115
_symmetry_space_group_name_H-M "P 21/M"
_symmetry_group_IT_number 11
_symmetry_cell_setting 'monoclinic'
loop_
_space_group_symop_operation_xyz
x,y,z
-x,1/2+y,-z
-x,-y,-z
x,1/2-y,z
loop_
_atom_site_type_symbol
_atom_site_label
_atom_site_fract_x
_atom_site_fract_y
_atom_site_fract_z
Si Si1 0.199910 0.558644 0.882725
Si Si2 0.008652 0.496903 0.334260
Si Si3 0.751029 0.087968 0.730950
Si Si4 0.362926 0.383751 0.386033
Si Si5 0.625057 0.375179 0.457547
Si Si6 0.196320 0.320618 0.729705
Si Si7 0.294908 0.330013 0.240963
Si Si8 0.167252 0.080501 0.006675
O O1 0.380071 0.582731 0.805093
O O2 0.366105 0.567009 0.632206
O O3 0.114355 0.484398 0.988273
O O4 0.972776 0.614663 0.086128
O O5 0.801686 0.454368 0.588793
O O6 0.848703 0.556348 0.430276
O O7 0.210672 0.533620 0.219359
O O8 0.145672 0.448398 0.132242
O O9 0.999766 0.139368 0.508173
O O10 0.484627 0.129617 0.993134
O O11 0.266923 0.331232 0.554069
O O12 0.399645 0.349151 0.250143
O O13 0.459217 0.321226 0.551496
O O14 0.927377 0.367398 0.211013
O O15 0.449090 0.393391 0.711492
O O16 0.052234 0.250000 0.876408
O O17 0.299188 0.250000 0.222922
#
# Coordination Sequence:
#
# PCOD9166182 Si02
#       8
#     4   4   4   4   4   4   4   4
#     4  11  22  38  62  93 131 167 202 262 315 383
#     4  10  22  42  66  97 135 160 211 273 333 392
#     4  10  24  42  66  97 131 172 205 264 341 383
#     4  10  22  39  60 101 129 169 205 259 326 392
#     4  11  25  39  61  91 126 166 211 257 311 364
#     4  11  24  42  61  89 132 176 211 255 316 386
#     4  11  23  41  65  94 131 171 217 255 307 396
#     4  12  22  38  64  93 124 160 213 266 315 367
#
# _framework density 22.657207
#
# number of rings (size 3 to 8) (size 9 to 14) (size 15 to 20)
#    0.000    1.250    2.500    3.000    3.500   10.000 
#    0.000    0.000    0.000    4.500    0.000    0.000 
#    0.000    0.000    0.000    0.000    0.000    0.000 
#
# Total GULP energy -178970.010172 kJ/mol
# GULP energy per Si atom -5592.812818 kJ/mol
# Density = 2.260564 g / cm^3
# Si number density = 22.657207 Si / 1000 Ang^3
#
#
#
# Elastic Constant Matrix: (Units=GPa)
#
#
# Indices 1 2 3 4 5 6 
#
# 1 64.9846 18.9468 27.9592 0.0000 14.8479 0.0000
# 2 18.9468 63.6894 15.6399 0.0000 7.0319 0.0000
# 3 27.9592 15.6399 102.6879 0.0000 11.0987 0.0000
# 4 0.0000 0.0000 0.0000 11.7382 0.0000 -10.3251
# 5 14.8479 7.0319 11.0987 0.0000 38.9674 0.0000
# 6 0.0000 0.0000 0.0000 -10.3251 0.0000 -12.9714
#
#
#
# Elastic Compliance Matrix: (Units=1/GPa)
#
#
# Indices 1 2 3 4 5 6 
#
# 1 0.019657 -0.004225 -0.004108 0.000000 -0.005558 0.000000
# 2 -0.004225 0.017423 -0.001380 0.000000 -0.001141 0.000000
# 3 -0.004108 -0.001380 0.011216 0.000000 -0.001380 0.000000
# 4 0.000000 0.000000 0.000000 0.050108 0.000000 -0.039886
# 5 -0.005558 -0.001141 -0.001380 0.000000 0.028379 0.000000
# 6 0.000000 0.000000 0.000000 -0.039886 0.000000 -0.045344
#
#
# Mechanical properties :
#
#
# Convention : Reuss Voigt Hill
#
# Bulk Modulus (GPa) = 34.63790 39.60595 37.12192
# Shear Modulus (GPa) = 45.25320 18.80124 32.02722
#
# Velocity S-wave (km/s) = 4.47396 2.88377 3.76381
# Velocity P-wave (km/s) = 6.48147 5.34852 5.94206
#
# Compressibility (1/GPa) = 0.02887011
#
# Stress axis : x y z
#
# Youngs Moduli (GPa) = 50.87122 57.39528 89.15776
#
# Poissons Ratio (x) = 0.24252 0.36626
# Poissons Ratio (y) = 0.21495 0.12302
# Poissons Ratio (z) = 0.20898 0.07919
#
# Static dielectric constant tensor:
#      x y z
#    x 1.875320 0.000000 -0.005580 
#    y 0.000000 1.821390 0.000000 
#    z -0.005580 0.000000 1.873460 
# 
# From -- ./inp_files/52679.got.cif
#   From: 2010.05.17/outbox.cif.g08.bks.cpg/sg11_27_cif.got.tgz:52679.got - 2010.06.03 12:22:45.
