data_PCOD9166224
_publ_section_title
;
Structure prediction by ZEFSAII (Michael W. Deem and Ramdas Pophale) SiO2 
 PCOD9166224
Probable space group: P 21/M
;
_chemical_formula_sum "Si O2"
_cell_formula_units_Z 20
_cell_length_a 25.027687
_cell_length_b 9.102125
_cell_length_c 10.646575
_cell_angle_alpha 90.000000
_cell_angle_beta 156.549195
_cell_angle_gamma 90.000000
_cell_volume 965.193770
_symmetry_space_group_name_H-M "P 21/M"
_symmetry_group_IT_number 11
_symmetry_cell_setting 'monoclinic'
loop_
_space_group_symop_operation_xyz
x,y,z
-x,1/2+y,-z
-x,-y,-z
x,1/2-y,z
loop_
_atom_site_type_symbol
_atom_site_label
_atom_site_fract_x
_atom_site_fract_y
_atom_site_fract_z
Si Si1 0.929263 0.574379 0.466287
Si Si2 0.947751 0.421367 0.762347
Si Si3 0.670487 0.079676 0.285647
Si Si4 0.627519 0.925977 0.439094
Si Si5 0.634925 0.926141 0.739386
O O1 0.948721 0.750000 0.506785
O O2 0.982893 0.503966 0.710363
O O3 0.000000 0.500000 0.500000
O O4 0.769395 0.544678 0.108125
O O5 0.987493 0.250000 0.843833
O O6 0.786860 0.429558 0.434874
O O7 0.000000 0.500000 0.000000
O O8 0.656070 0.250000 0.291154
O O9 0.703852 0.991935 0.484400
O O10 0.528237 0.031187 0.921992
O O11 0.639093 0.750000 0.459511
O O12 0.663386 0.974250 0.656642
O O13 0.613683 0.750000 0.691375
O O14 0.500000 0.000000 0.500000
#
# Coordination Sequence:
#
# PCOD9166224 Si02
#       5
#     4   4   4   4   4
#     4  11  25  44  65  95 132 172 218 267 323 385
#     4  11  24  42  64  90 123 165 214 264 316 378
#     4   9  19  35  56  85 118 153 198 248 306 367
#     4   9  18  34  57  85 118 153 193 248 307 365
#     4  10  22  39  62  91 123 163 211 261 317 380
#
# _framework density 20.721226999999999
#
# number of rings (size 3 to 8) (size 9 to 14) (size 15 to 20)
#    0.000    2.000    0.000    2.400    2.800    5.600 
#    0.000    4.000    0.000    0.000    0.000    0.000 
#    0.000    0.000    0.000    0.000    0.000    0.000 
#
# Total GULP energy -111742.057346 kJ/mol
# GULP energy per Si atom -5587.102867 kJ/mol
# Density = 2.067406 g / cm^3
# Si number density = 20.721227 Si / 1000 Ang^3
#
#
#
# Elastic Constant Matrix: (Units=GPa)
#
#
# Indices 1 2 3 4 5 6 
#
# 1 143.3776 70.5920 35.4741 0.0000 -30.3004 0.0000
# 2 70.5920 82.0536 46.9379 0.0000 -13.5537 0.0000
# 3 35.4741 46.9379 61.5480 0.0000 -13.5293 0.0000
# 4 0.0000 0.0000 0.0000 23.6191 0.0000 0.9025
# 5 -30.3004 -13.5537 -13.5293 0.0000 41.2320 0.0000
# 6 0.0000 0.0000 0.0000 0.9025 0.0000 40.8413
#
#
#
# Elastic Compliance Matrix: (Units=1/GPa)
#
#
# Indices 1 2 3 4 5 6 
#
# 1 0.013889 -0.012576 0.003147 0.000000 0.007106 0.000000
# 2 -0.012576 0.033133 -0.019030 0.000000 -0.004594 0.000000
# 3 0.003147 -0.019030 0.030262 0.000000 0.005987 0.000000
# 4 0.000000 0.000000 0.000000 0.042374 0.000000 -0.000936
# 5 0.007106 -0.004594 0.005987 0.000000 0.029929 0.000000
# 6 0.000000 0.000000 0.000000 -0.000936 0.000000 0.024506
#
#
# Mechanical properties :
#
#
# Convention : Reuss Voigt Hill
#
# Bulk Modulus (GPa) = 49.09671 65.88747 57.49209
# Shear Modulus (GPa) = 21.02607 30.07014 25.54810
#
# Velocity S-wave (km/s) = 3.18891 3.81356 3.51514
# Velocity P-wave (km/s) = 6.10772 7.15941 6.65437
#
# Compressibility (1/GPa) = 0.02036796
#
# Stress axis : x y z
#
# Youngs Moduli (GPa) = 71.99811 30.18118 33.04451
#
# Poissons Ratio (x) = 0.37955 -0.10400
# Poissons Ratio (y) = 0.90543 0.62883
# Poissons Ratio (z) = -0.22660 0.57434
#
# Static dielectric constant tensor:
#      x y z
#    x 1.721390 0.000000 0.011340 
#    y 0.000000 1.698950 0.000000 
#    z 0.011340 0.000000 1.783520 
# 
# From -- ./inp_files/44706.got.cif
#   From: 2010.05.17/outbox.cif.g08.bks.cpg/sg11_23_cif.got.tgz:44706.got - 2010.06.03 12:22:45.
