data_PCOD9166894
_publ_section_title
;
Structure prediction by ZEFSAII (Michael W. Deem and Ramdas Pophale) SiO2 
 PCOD9166894
Probable space group: P 21/M
;
_chemical_formula_sum "Si O2"
_cell_formula_units_Z 26
_cell_length_a 8.715364
_cell_length_b 21.605536
_cell_length_c 8.246080
_cell_angle_alpha 90.000000
_cell_angle_beta 129.068260
_cell_angle_gamma 90.000000
_cell_volume 1205.538874
_symmetry_space_group_name_H-M "P 21/M"
_symmetry_group_IT_number 11
_symmetry_cell_setting 'monoclinic'
loop_
_space_group_symop_operation_xyz
x,y,z
-x,1/2+y,-z
-x,-y,-z
x,1/2-y,z
loop_
_atom_site_type_symbol
_atom_site_label
_atom_site_fract_x
_atom_site_fract_y
_atom_site_fract_z
Si Si1 0.226806 0.818342 0.971082
Si Si2 0.414819 0.457351 0.145844
Si Si3 0.067450 0.027562 0.715473
Si Si4 0.884373 0.914269 0.777265
Si Si5 0.505856 0.904888 0.326817
Si Si6 0.263642 0.622745 0.493672
Si Si7 0.774128 0.250000 0.365950
O O1 0.231241 0.750000 0.053557
O O2 0.205261 0.802990 0.766652
O O3 0.044428 0.860635 0.905206
O O4 0.424531 0.856646 0.141478
O O5 0.251009 0.426986 0.157078
O O6 0.466607 0.524381 0.252071
O O7 0.606150 0.414447 0.285673
O O8 0.299920 0.463555 0.899811
O O9 0.949923 0.091169 0.656829
O O10 0.000000 0.000000 0.500000
O O11 0.994664 0.977127 0.798686
O O12 0.732580 0.897457 0.531013
O O13 0.375593 0.891687 0.400340
O O14 0.254693 0.694704 0.521335
#
# Coordination Sequence:
#
# PCOD9166894 Si02
#       7
#     4   4   4   4   4   4   2
#     4  10  24  42  61  87 132 169 207 256 307 381
#     4  11  22  41  67 100 128 154 214 277 314 367
#     4  12  23  35  65  98 126 166 203 256 327 372
#     4  11  20  41  66  96 124 160 211 265 312 374
#     4  11  21  40  73  96 118 166 215 265 320 364
#     4  11  23  43  63  94 129 166 208 265 314 378
#     4  10  26  46  58  84 140 172 204 256 314 386
#
# _framework density 21.567117
#
# number of rings (size 3 to 8) (size 9 to 14) (size 15 to 20)
#    0.462    0.615    4.615    3.231    1.077    2.462 
#    4.154    2.308    0.000    0.000    0.000    0.000 
#    0.000    0.000    0.000    0.000    0.000    0.000 
#
# Total GULP energy -144928.376665 kJ/mol
# GULP energy per Si atom -5574.168333 kJ/mol
# Density = 2.151803 g / cm^3
# Si number density = 21.567117 Si / 1000 Ang^3
#
#
#
# Elastic Constant Matrix: (Units=GPa)
#
#
# Indices 1 2 3 4 5 6 
#
# 1 44.7100 26.0838 10.8732 0.0000 -2.1116 0.0000
# 2 26.0838 193.0042 43.9932 0.0000 11.8455 0.0000
# 3 10.8732 43.9932 83.7226 0.0000 24.7638 0.0000
# 4 0.0000 0.0000 0.0000 20.7819 0.0000 -10.4731
# 5 -2.1116 11.8455 24.7638 0.0000 36.4134 0.0000
# 6 0.0000 0.0000 0.0000 -10.4731 0.0000 19.0280
#
#
#
# Elastic Compliance Matrix: (Units=1/GPa)
#
#
# Indices 1 2 3 4 5 6 
#
# 1 0.025044 -0.002972 -0.003012 0.000000 0.004468 0.000000
# 2 -0.002972 0.006241 -0.002806 0.000000 -0.000294 0.000000
# 3 -0.003012 -0.002806 0.017014 0.000000 -0.010833 0.000000
# 4 0.000000 0.000000 0.000000 0.066589 0.000000 0.036651
# 5 0.004468 -0.000294 -0.010833 0.000000 0.035184 0.000000
# 6 0.000000 0.000000 0.000000 0.036651 0.000000 0.072727
#
#
# Mechanical properties :
#
#
# Convention : Reuss Voigt Hill
#
# Bulk Modulus (GPa) = 32.55488 53.70414 43.12951
# Shear Modulus (GPa) = 19.95058 31.27712 25.61385
#
# Velocity S-wave (km/s) = 3.04476 3.81231 3.44995
# Velocity P-wave (km/s) = 5.24292 6.65832 5.99256
#
# Compressibility (1/GPa) = 0.03071736
#
# Stress axis : x y z
#
# Youngs Moduli (GPa) = 39.92987 160.24071 58.77476
#
# Poissons Ratio (x) = 0.47627 0.17704
# Poissons Ratio (y) = 0.11868 0.16494
# Poissons Ratio (z) = 0.12028 0.44968
#
# Static dielectric constant tensor:
#      x y z
#    x 1.793720 0.000000 -0.047370 
#    y 0.000000 1.739530 0.000000 
#    z -0.047370 0.000000 1.869330 
# 
# From -- ./inp_files/14557.got.cif
#   From: 2010.05.17/outbox.cif.g08.bks.cpg/sg11_8_cif.got.tgz:14557.got - 2010.06.03 12:22:45.
