data_PCOD9166040
_publ_section_title
;
Structure prediction by ZEFSAII (Michael W. Deem and Ramdas Pophale) SiO2 
 PCOD9166040
Probable space group: P 21/M
;
_chemical_formula_sum "Si O2"
_cell_formula_units_Z 20
_cell_length_a 6.866784
_cell_length_b 11.196056
_cell_length_c 10.189687
_cell_angle_alpha 90.000000
_cell_angle_beta 88.000783
_cell_angle_gamma 90.000000
_cell_volume 782.915441
_symmetry_space_group_name_H-M "P 21/M"
_symmetry_group_IT_number 11
_symmetry_cell_setting 'monoclinic'
loop_
_space_group_symop_operation_xyz
x,y,z
-x,1/2+y,-z
-x,-y,-z
x,1/2-y,z
loop_
_atom_site_type_symbol
_atom_site_label
_atom_site_fract_x
_atom_site_fract_y
_atom_site_fract_z
Si Si1 0.178988 0.376914 0.855934
Si Si2 0.848711 0.376194 0.171312
Si Si3 0.576892 0.383727 0.717535
Si Si4 0.868911 0.382326 0.480332
Si Si5 0.597652 0.621225 0.873337
O O1 0.076804 0.250000 0.843713
O O2 0.054514 0.496826 0.858717
O O3 0.341968 0.386733 0.737264
O O4 0.303967 0.376706 0.987013
O O5 0.942869 0.250000 0.130958
O O6 0.821574 0.375084 0.327967
O O7 0.637247 0.379937 0.109115
O O8 0.627906 0.250000 0.768479
O O9 0.674851 0.391926 0.573010
O O10 0.644596 0.501859 0.792745
O O11 0.957605 0.250000 0.512202
O O12 0.000000 0.500000 0.500000
O O13 0.642288 0.750000 0.805511
#
# Coordination Sequence:
#
# PCOD9166040 Si02
#       5
#     4   4   4   4   4
#     4   9  17  29  49  79 107 125 146 185 239 295
#     4   9  17  30  48  70  97 127 158 193 237 286
#     4   9  17  30  48  70  97 127 158 193 237 286
#     4  10  22  37  50  66  92 129 171 208 237 270
#     4   9  17  29  49  79 107 125 146 185 239 295
#
# _framework density 25.545544
#
# number of rings (size 3 to 8) (size 9 to 14) (size 15 to 20)
#    0.000    2.800    0.000    2.400    0.000    7.200 
#    0.000    2.000    0.000    4.800    0.000    5.600 
#    0.000    0.000    0.000    0.000    0.000    0.000 
#
# Total GULP energy -111678.511502 kJ/mol
# GULP energy per Si atom -5583.925575 kJ/mol
# Density = 2.548740 g / cm^3
# Si number density = 25.545544 Si / 1000 Ang^3
#
#
#
# Elastic Constant Matrix: (Units=GPa)
#
#
# Indices 1 2 3 4 5 6 
#
# 1 86.0988 16.1820 11.4644 0.0000 -13.4187 0.0000
# 2 16.1820 326.1757 31.3398 0.0000 -4.2287 0.0000
# 3 11.4644 31.3398 81.5433 0.0000 -32.0633 0.0000
# 4 0.0000 0.0000 0.0000 32.9536 0.0000 9.7762
# 5 -13.4187 -4.2287 -32.0633 0.0000 31.6858 0.0000
# 6 0.0000 0.0000 0.0000 9.7762 0.0000 -10.1132
#
#
#
# Elastic Compliance Matrix: (Units=1/GPa)
#
#
# Indices 1 2 3 4 5 6 
#
# 1 0.012571 -0.000629 0.000888 0.000000 0.006139 0.000000
# 2 -0.000629 0.003250 -0.001818 0.000000 -0.001673 0.000000
# 3 0.000888 -0.001818 0.021408 0.000000 0.021796 0.000000
# 4 0.000000 0.000000 0.000000 0.023583 0.000000 0.022797
# 5 0.006139 -0.001673 0.021796 0.000000 0.055992 0.000000
# 6 0.000000 0.000000 0.000000 0.022797 0.000000 -0.076843
#
#
# Mechanical properties :
#
#
# Convention : Reuss Voigt Hill
#
# Bulk Modulus (GPa) = 29.31692 67.97668 48.64680
# Shear Modulus (GPa) = 91.82769 39.89403 65.86086
#
# Velocity S-wave (km/s) = 6.00206 3.95610 5.08308
# Velocity P-wave (km/s) = 7.71584 6.89459 7.31675
#
# Compressibility (1/GPa) = 0.03411000
#
# Stress axis : x y z
#
# Youngs Moduli (GPa) = 79.54619 307.68391 46.71185
#
# Poissons Ratio (x) = 0.19367 -0.04149
# Poissons Ratio (y) = 0.05007 0.08494
# Poissons Ratio (z) = -0.07065 0.55949
#
# Static dielectric constant tensor:
#      x y z
#    x 1.935050 0.000000 -0.006670 
#    y 0.000000 2.137520 0.000000 
#    z -0.006670 0.000000 1.958900 
# 
# From -- ./inp_files/11732.got.cif
#   From: 2010.05.17/outbox.cif.g08.bks.cpg/sg11_6_cif.got.tgz:11732.got - 2010.06.03 12:22:45.
