data_PCOD9166800
_publ_section_title
;
Structure prediction by ZEFSAII (Michael W. Deem and Ramdas Pophale) SiO2 
 PCOD9166800
Probable space group: P 21/M
;
_chemical_formula_sum "Si O2"
_cell_formula_units_Z 32
_cell_length_a 12.212240
_cell_length_b 8.968548
_cell_length_c 15.505348
_cell_angle_alpha 90.000000
_cell_angle_beta 89.009420
_cell_angle_gamma 90.000000
_cell_volume 1697.985885
_symmetry_space_group_name_H-M "P 21/M"
_symmetry_group_IT_number 11
_symmetry_cell_setting 'monoclinic'
loop_
_space_group_symop_operation_xyz
x,y,z
-x,1/2+y,-z
-x,-y,-z
x,1/2-y,z
loop_
_atom_site_type_symbol
_atom_site_label
_atom_site_fract_x
_atom_site_fract_y
_atom_site_fract_z
Si Si1 0.379224 0.071157 0.504943
Si Si2 0.284726 0.077830 0.150163
Si Si3 0.721816 0.074893 0.149759
Si Si4 0.778184 0.425107 0.350241
Si Si5 0.501877 0.926045 0.093418
Si Si6 0.784726 0.922170 0.650162
Si Si7 0.879224 0.928843 0.004942
Si Si8 0.001877 0.073955 0.593418
O O1 0.387739 0.250000 0.514273
O O2 0.311064 0.041911 0.417298
O O3 0.500000 0.000000 0.500000
O O4 0.308989 0.003313 0.584946
O O5 0.318452 0.250000 0.130877
O O6 0.250000 0.071592 0.250000
O O7 0.386981 0.970027 0.136755
O O8 0.188935 0.041911 0.082703
O O9 0.715997 0.250000 0.126654
O O10 0.750000 0.063134 0.250000
O O11 0.604831 0.998039 0.139360
O O12 0.808989 0.996687 0.084946
O O13 0.784003 0.250000 0.373345
O O14 0.895169 0.501961 0.360640
O O15 0.515504 0.750000 0.087301
O O16 0.500000 0.000000 0.000000
O O17 0.818452 0.750000 0.630877
O O18 0.886981 0.029973 0.636755
O O19 0.887739 0.750000 0.014273
O O20 0.000000 0.000000 0.000000
O O21 0.015505 0.250000 0.587301
O O22 0.000000 0.000000 0.500000
#
# Coordination Sequence:
#
# PCOD9166800 Si02
#       8
#     4   4   4   4   4   4   4   4
#     4  11  24  42  65  93 130 171 211 262 318 377
#     4  10  23  43  66  93 127 169 213 259 316 377
#     4  11  25  44  67  94 128 170 214 263 322 379
#     4  11  25  44  67  94 128 170 214 263 322 379
#     4  12  24  41  67  96 128 166 213 266 319 375
#     4  10  23  43  66  93 127 169 213 259 316 377
#     4  11  24  42  65  93 130 171 211 262 318 377
#     4  12  24  41  67  96 128 166 213 266 319 375
#
# _framework density 18.845858
#
# number of rings (size 3 to 8) (size 9 to 14) (size 15 to 20)
#    0.000    1.000    2.500    3.750    3.500    3.500 
#    0.000    0.000    0.000    0.000    0.000    0.000 
#    0.000    0.000    0.000    0.000    0.000    0.000 
#
# Total GULP energy -178905.668002 kJ/mol
# GULP energy per Si atom -5590.802125 kJ/mol
# Density = 1.880296 g / cm^3
# Si number density = 18.845858 Si / 1000 Ang^3
#
#
#
# Elastic Constant Matrix: (Units=GPa)
#
#
# Indices 1 2 3 4 5 6 
#
# 1 156.9100 101.1036 57.2345 0.0000 13.8079 0.0000
# 2 101.1036 160.0334 76.8424 0.0000 14.2769 0.0000
# 3 57.2345 76.8424 100.9169 0.0000 2.5306 0.0000
# 4 0.0000 0.0000 0.0000 30.4914 0.0000 -4.4092
# 5 13.8079 14.2769 2.5306 0.0000 24.0945 0.0000
# 6 0.0000 0.0000 0.0000 -4.4092 0.0000 39.5233
#
#
#
# Elastic Compliance Matrix: (Units=1/GPa)
#
#
# Indices 1 2 3 4 5 6 
#
# 1 0.011041 -0.005935 -0.001676 0.000000 -0.002634 0.000000
# 2 -0.005935 0.013698 -0.006964 0.000000 -0.003984 0.000000
# 3 -0.001676 -0.006964 0.016077 0.000000 0.003398 0.000000
# 4 0.000000 0.000000 0.000000 0.033334 0.000000 0.003719
# 5 -0.002634 -0.003984 0.003398 0.000000 0.045016 0.000000
# 6 0.000000 0.000000 0.000000 0.003719 0.000000 0.025716
#
#
# Mechanical properties :
#
#
# Convention : Reuss Voigt Hill
#
# Bulk Modulus (GPa) = 85.72888 98.69126 92.21007
# Shear Modulus (GPa) = 28.10238 31.00050 29.55144
#
# Velocity S-wave (km/s) = 3.86576 4.06020 3.96417
# Velocity P-wave (km/s) = 8.09405 8.62911 8.36586
#
# Compressibility (1/GPa) = 0.01166468
#
# Stress axis : x y z
#
# Youngs Moduli (GPa) = 90.57465 73.00574 62.19985
#
# Poissons Ratio (x) = 0.43330 0.10426
# Poissons Ratio (y) = 0.53758 0.43315
# Poissons Ratio (z) = 0.15183 0.50840
#
# Static dielectric constant tensor:
#      x y z
#    x 1.612840 0.000000 0.003740 
#    y 0.000000 1.647540 0.000000 
#    z 0.003740 0.000000 1.676730 
# 
# From -- ./inp_files/49318.got.cif
#   From: 2010.05.17/outbox.cif.g08.bks.cpg/sg11_25_cif.got.tgz:49318.got - 2010.06.03 12:22:45.
