data_PCOD9166060
_publ_section_title
;
Structure prediction by ZEFSAII (Michael W. Deem and Ramdas Pophale) SiO2 
 PCOD9166060
Probable space group: P 21/M
;
_chemical_formula_sum "Si O2"
_cell_formula_units_Z 20
_cell_length_a 9.569164
_cell_length_b 16.425188
_cell_length_c 13.025297
_cell_angle_alpha 90.000000
_cell_angle_beta 150.089893
_cell_angle_gamma 90.000000
_cell_volume 1020.844667
_symmetry_space_group_name_H-M "P 21/M"
_symmetry_group_IT_number 11
_symmetry_cell_setting 'monoclinic'
loop_
_space_group_symop_operation_xyz
x,y,z
-x,1/2+y,-z
-x,-y,-z
x,1/2-y,z
loop_
_atom_site_type_symbol
_atom_site_label
_atom_site_fract_x
_atom_site_fract_y
_atom_site_fract_z
Si Si1 0.596615 0.564861 0.149166
Si Si2 0.807993 0.977723 0.728260
Si Si3 0.915006 0.340900 0.232704
Si Si4 0.872167 0.155711 0.448732
Si Si5 0.674326 0.942619 0.876019
O O1 0.498253 0.521961 0.192663
O O2 0.917241 0.593487 0.359764
O O3 0.500000 0.500000 0.000000
O O4 0.406892 0.643179 0.004579
O O5 0.775508 0.946501 0.823826
O O6 0.918103 0.908558 0.722781
O O7 0.500000 0.000000 0.500000
O O8 0.037695 0.050492 0.875649
O O9 0.003212 0.250000 0.261643
O O10 0.940907 0.351341 0.371296
O O11 0.911770 0.250000 0.504613
O O12 0.548415 0.129207 0.253203
#
# Coordination Sequence:
#
# PCOD9166060 Si02
#       5
#     4   4   4   4   4
#     4  11  21  36  64  90 118 157 203 252 300 362
#     4  10  22  38  60  84 121 158 204 242 292 355
#     4  10  22  39  59  88 121 156 199 250 307 359
#     4  11  23  38  60  91 123 153 198 255 310 360
#     4  10  22  37  59  91 113 157 203 243 289 358
#
# _framework density 19.591618
#
# number of rings (size 3 to 8) (size 9 to 14) (size 15 to 20)
#    0.000    1.600    2.000    2.400    5.600    0.800 
#    0.000    1.000    0.000    0.000    0.000    0.000 
#    0.000    0.000    0.000    0.000    0.000    0.000 
#
# Total GULP energy -111545.674011 kJ/mol
# GULP energy per Si atom -5577.283701 kJ/mol
# Density = 1.954703 g / cm^3
# Si number density = 19.591618 Si / 1000 Ang^3
#
#
#
# Elastic Constant Matrix: (Units=GPa)
#
#
# Indices 1 2 3 4 5 6 
#
# 1 79.6717 25.6092 24.9675 0.0000 7.6894 0.0000
# 2 25.6092 70.7354 50.6672 0.0000 6.5325 0.0000
# 3 24.9675 50.6672 126.0173 0.0000 29.9131 0.0000
# 4 0.0000 0.0000 0.0000 15.1436 0.0000 -5.0686
# 5 7.6894 6.5325 29.9131 0.0000 30.9206 0.0000
# 6 0.0000 0.0000 0.0000 -5.0686 0.0000 22.7024
#
#
#
# Elastic Compliance Matrix: (Units=1/GPa)
#
#
# Indices 1 2 3 4 5 6 
#
# 1 0.014410 -0.004689 -0.000460 0.000000 -0.002148 0.000000
# 2 -0.004689 0.021894 -0.009155 0.000000 0.005397 0.000000
# 3 -0.000460 -0.009155 0.014566 0.000000 -0.012043 0.000000
# 4 0.000000 0.000000 0.000000 0.071368 0.000000 0.015934
# 5 -0.002148 0.005397 -0.012043 0.000000 0.043385 0.000000
# 6 0.000000 0.000000 0.000000 0.015934 0.000000 0.047606
#
#
# Mechanical properties :
#
#
# Convention : Reuss Voigt Hill
#
# Bulk Modulus (GPa) = 44.91905 53.21247 49.06576
# Shear Modulus (GPa) = 20.05953 25.43201 22.74577
#
# Velocity S-wave (km/s) = 3.20329 3.60683 3.41103
# Velocity P-wave (km/s) = 6.05466 6.67574 6.37277
#
# Compressibility (1/GPa) = 0.02226227
#
# Stress axis : x y z
#
# Youngs Moduli (GPa) = 69.39502 45.67429 68.65280
#
# Poissons Ratio (x) = 0.21419 0.03156
# Poissons Ratio (y) = 0.32543 0.62851
# Poissons Ratio (z) = 0.03190 0.41815
#
# Static dielectric constant tensor:
#      x y z
#    x 1.913870 0.000000 -0.070130 
#    y 0.000000 1.683200 0.000000 
#    z -0.070130 0.000000 1.757330 
# 
# From -- ./inp_files/1982.got.cif
#   From: 2010.05.17/outbox.cif.g08.bks.cpg/sg11_1_cif.got.tgz:1982.got - 2010.06.03 12:22:45.
