data_PCOD9166836
_publ_section_title
;
Structure prediction by ZEFSAII (Michael W. Deem and Ramdas Pophale) SiO2 
 PCOD9166836
Probable space group: P 21/M
;
_chemical_formula_sum "Si O2"
_cell_formula_units_Z 22
_cell_length_a 18.778277
_cell_length_b 9.436979
_cell_length_c 8.401428
_cell_angle_alpha 90.000000
_cell_angle_beta 46.742443
_cell_angle_gamma 90.000000
_cell_volume 1084.277825
_symmetry_space_group_name_H-M "P 21/M"
_symmetry_group_IT_number 11
_symmetry_cell_setting 'monoclinic'
loop_
_space_group_symop_operation_xyz
x,y,z
-x,1/2+y,-z
-x,-y,-z
x,1/2-y,z
loop_
_atom_site_type_symbol
_atom_site_label
_atom_site_fract_x
_atom_site_fract_y
_atom_site_fract_z
Si Si1 0.630640 0.962189 0.881507
Si Si2 0.594794 0.587751 0.302863
Si Si3 0.775781 0.418501 0.172660
Si Si4 0.825723 0.583880 0.413248
Si Si5 0.016393 0.917350 0.312774
Si Si6 0.481761 0.750000 0.962970
O O1 0.744260 0.934316 0.674767
O O2 0.567492 0.873177 0.851481
O O3 0.600375 0.910093 0.103252
O O4 0.601569 0.125220 0.915496
O O5 0.500000 0.500000 0.500000
O O6 0.589628 0.750000 0.370825
O O7 0.688069 0.504321 0.225980
O O8 0.754269 0.250000 0.211886
O O9 0.793037 0.484089 0.319676
O O10 0.875948 0.440306 0.922092
O O11 0.827551 0.750000 0.362025
O O12 0.932217 0.543314 0.315533
O O13 0.004571 0.750000 0.360860
O O14 0.000000 0.000000 0.500000
#
# Coordination Sequence:
#
# PCOD9166836 Si02
#       6
#     4   4   4   4   4   2
#     4  11  24  42  65  93 127 166 219 260 328 376
#     4  12  27  44  66  94 133 174 217 266 323 384
#     4  11  26  43  64  98 133 168 217 269 324 385
#     4  11  23  42  69  95 128 170 218 267 325 386
#     4  10  23  44  69  96 130 169 216 268 324 387
#     4  10  24  40  68  90 128 166 216 268 314 386
#
# _framework density 20.290002999999999
#
# number of rings (size 3 to 8) (size 9 to 14) (size 15 to 20)
#    0.000    1.091    1.818    2.727    8.909    3.636 
#    0.000    0.000    0.000    0.000    0.000    0.000 
#    0.000    0.000    0.000    0.000    0.000    0.000 
#
# Total GULP energy -122542.344057 kJ/mol
# GULP energy per Si atom -5570.106548 kJ/mol
# Density = 2.024382 g / cm^3
# Si number density = 20.290003 Si / 1000 Ang^3
#
#
#
# Elastic Constant Matrix: (Units=GPa)
#
#
# Indices 1 2 3 4 5 6 
#
# 1 66.5731 47.0936 22.7257 0.0000 -30.0477 0.0000
# 2 47.0936 159.7230 37.7392 0.0000 -20.8793 0.0000
# 3 22.7257 37.7392 81.7660 0.0000 -9.0491 0.0000
# 4 0.0000 0.0000 0.0000 31.7192 0.0000 -1.0685
# 5 -30.0477 -20.8793 -9.0491 0.0000 35.8932 0.0000
# 6 0.0000 0.0000 0.0000 -1.0685 0.0000 37.4074
#
#
#
# Elastic Compliance Matrix: (Units=1/GPa)
#
#
# Indices 1 2 3 4 5 6 
#
# 1 0.029031 -0.005063 -0.003465 0.000000 0.020484 0.000000
# 2 -0.005063 0.008329 -0.002438 0.000000 -0.000008 0.000000
# 3 -0.003465 -0.002438 0.014237 0.000000 -0.000729 0.000000
# 4 0.000000 0.000000 0.000000 0.031557 0.000000 0.000901
# 5 0.020484 -0.000008 -0.000729 0.000000 0.044820 0.000000
# 6 0.000000 0.000000 0.000000 0.000901 0.000000 0.026758
#
#
# Mechanical properties :
#
#
# Convention : Reuss Voigt Hill
#
# Bulk Modulus (GPa) = 33.70909 58.13101 45.92005
# Shear Modulus (GPa) = 26.80202 34.37089 30.58646
#
# Velocity S-wave (km/s) = 3.63843 4.12027 3.88682
# Velocity P-wave (km/s) = 5.85667 7.16573 6.54402
#
# Compressibility (1/GPa) = 0.02966559
#
# Stress axis : x y z
#
# Youngs Moduli (GPa) = 34.44560 120.06805 70.23725
#
# Poissons Ratio (x) = 0.60794 0.24336
# Poissons Ratio (y) = 0.17441 0.17122
# Poissons Ratio (z) = 0.11935 0.29270
#
# Static dielectric constant tensor:
#      x y z
#    x 1.730880 0.000000 0.012810 
#    y 0.000000 1.699870 0.000000 
#    z 0.012810 0.000000 1.718190 
# 
# From -- ./inp_files/25696.got.cif
#   From: 2010.05.17/outbox.cif.g08.bks.cpg/sg11_13_cif.got.tgz:25696.got - 2010.06.03 12:22:45.
