data_PCOD9166260
_publ_section_title
;
Structure prediction by ZEFSAII (Michael W. Deem and Ramdas Pophale) SiO2 
 PCOD9166260
Probable space group: P 21/M
;
_chemical_formula_sum "Si O2"
_cell_formula_units_Z 28
_cell_length_a 11.855948
_cell_length_b 8.066089
_cell_length_c 15.374314
_cell_angle_alpha 90.000000
_cell_angle_beta 65.963575
_cell_angle_gamma 90.000000
_cell_volume 1342.771681
_symmetry_space_group_name_H-M "P 21/M"
_symmetry_group_IT_number 11
_symmetry_cell_setting 'monoclinic'
loop_
_space_group_symop_operation_xyz
x,y,z
-x,1/2+y,-z
-x,-y,-z
x,1/2-y,z
loop_
_atom_site_type_symbol
_atom_site_label
_atom_site_fract_x
_atom_site_fract_y
_atom_site_fract_z
Si Si1 0.199193 0.552226 0.454377
Si Si2 0.468513 0.945331 0.412945
Si Si3 0.453340 0.550908 0.110193
Si Si4 0.634041 0.444460 0.206027
Si Si5 0.986493 0.451130 0.638700
Si Si6 0.139608 0.549572 0.973714
Si Si7 0.180541 0.951935 0.156695
O O1 0.207432 0.750000 0.438699
O O2 0.337175 0.482866 0.420348
O O3 0.115735 0.490467 0.400137
O O4 0.117904 0.517191 0.565684
O O5 0.451105 0.750000 0.421641
O O6 0.500000 0.000000 0.500000
O O7 0.576628 0.981331 0.310844
O O8 0.460632 0.750000 0.116829
O O9 0.536911 0.471830 0.158225
O O10 0.309821 0.500460 0.160351
O O11 0.500000 0.500000 0.000000
O O12 0.649022 0.250000 0.216973
O O13 0.763757 0.512860 0.128762
O O14 0.991718 0.250000 0.634703
O O15 0.935475 0.503705 0.748484
O O16 0.148446 0.750000 0.971720
O O17 0.176715 0.490067 0.058577
O O18 0.000000 0.500000 0.000000
O O19 0.180019 0.750000 0.155020
#
# Coordination Sequence:
#
# PCOD9166260 Si02
#       7
#     4   4   4   4   4   4   4
#     4   9  19  36  55  81 116 147 183 237 297 346
#     4  11  24  42  63  87 117 157 202 248 299 355
#     4  11  20  35  60  89 122 157 197 244 298 357
#     4  11  23  41  62  89 123 156 195 249 306 357
#     4   9  17  32  58  84 108 146 189 232 288 352
#     4  10  22  40  58  80 114 154 195 243 294 350
#     4   9  18  35  56  81 115 151 189 238 294 345
#
# _framework density 20.85239
#
# number of rings (size 3 to 8) (size 9 to 14) (size 15 to 20)
#    0.000    2.000    1.429    2.143    0.000    5.714 
#    0.000    7.857    0.000    0.000    0.000    0.000 
#    0.000    0.000    0.000    0.000    0.000    0.000 
#
# Total GULP energy -156384.322278 kJ/mol
# GULP energy per Si atom -5585.154367 kJ/mol
# Density = 2.080493 g / cm^3
# Si number density = 20.852390 Si / 1000 Ang^3
#
#
#
# Elastic Constant Matrix: (Units=GPa)
#
#
# Indices 1 2 3 4 5 6 
#
# 1 88.4619 -1.7250 41.8705 0.0000 -20.1887 0.0000
# 2 -1.7250 9.2645 -7.6314 0.0000 0.6307 0.0000
# 3 41.8705 -7.6314 140.7541 0.0000 -15.0553 0.0000
# 4 0.0000 0.0000 0.0000 29.4692 0.0000 -0.1952
# 5 -20.1887 0.6307 -15.0553 0.0000 28.3821 0.0000
# 6 0.0000 0.0000 0.0000 -0.1952 0.0000 26.0555
#
#
#
# Elastic Compliance Matrix: (Units=1/GPa)
#
#
# Indices 1 2 3 4 5 6 
#
# 1 0.014978 -0.000738 -0.003556 0.000000 0.008784 0.000000
# 2 -0.000738 0.113038 0.006386 0.000000 0.000350 0.000000
# 3 -0.003556 0.006386 0.008717 0.000000 0.001953 0.000000
# 4 0.000000 0.000000 0.000000 0.033935 0.000000 0.000254
# 5 0.008784 0.000350 0.001953 0.000000 0.042510 0.000000
# 6 0.000000 0.000000 0.000000 0.000254 0.000000 0.038381
#
#
# Mechanical properties :
#
#
# Convention : Reuss Voigt Hill
#
# Bulk Modulus (GPa) = 7.09640 33.72317 20.40979
# Shear Modulus (GPa) = 16.98664 30.51248 23.74956
#
# Velocity S-wave (km/s) = 2.85724 3.82941 3.37848
# Velocity P-wave (km/s) = 3.78096 5.97996 5.00278
#
# Compressibility (1/GPa) = 0.14091647
#
# Stress axis : x y z
#
# Youngs Moduli (GPa) = 66.76612 8.84657 114.71186
#
# Poissons Ratio (x) = 0.00653 0.40791
# Poissons Ratio (y) = 0.04930 -0.73253
# Poissons Ratio (z) = 0.23741 -0.05649
#
# Static dielectric constant tensor:
#      x y z
#    x 1.753900 0.000000 -0.014840 
#    y 0.000000 1.735940 0.000000 
#    z -0.014840 0.000000 1.742830 
# 
# From -- ./inp_files/49124.got.cif
#   From: 2010.05.17/outbox.cif.g08.bks.cpg/sg11_25_cif.got.tgz:49124.got - 2010.06.03 12:22:45.
