data_PCOD9166585
_publ_section_title
;
Structure prediction by ZEFSAII (Michael W. Deem and Ramdas Pophale) SiO2 
 PCOD9166585
Probable space group: P 21/M
;
_chemical_formula_sum "Si O2"
_cell_formula_units_Z 32
_cell_length_a 15.370832
_cell_length_b 8.643116
_cell_length_c 22.979328
_cell_angle_alpha 90.000000
_cell_angle_beta 148.002737
_cell_angle_gamma 90.000000
_cell_volume 1617.638770
_symmetry_space_group_name_H-M "P 21/M"
_symmetry_group_IT_number 11
_symmetry_cell_setting 'monoclinic'
loop_
_space_group_symop_operation_xyz
x,y,z
-x,1/2+y,-z
-x,-y,-z
x,1/2-y,z
loop_
_atom_site_type_symbol
_atom_site_label
_atom_site_fract_x
_atom_site_fract_y
_atom_site_fract_z
Si Si1 0.255831 0.565079 0.586903
Si Si2 0.423241 0.434738 0.297670
Si Si3 0.370186 0.064061 0.776038
Si Si4 0.260999 0.562314 0.989357
Si Si5 0.341875 0.934219 0.376917
Si Si6 0.838281 0.064261 0.938637
Si Si7 0.050235 0.935328 0.651011
Si Si8 0.981651 0.937286 0.744113
O O1 0.239920 0.750000 0.582376
O O2 0.388220 0.529151 0.611270
O O3 0.326746 0.501198 0.687599
O O4 0.082855 0.491975 0.471338
O O5 0.406249 0.250000 0.292944
O O6 0.359278 0.511545 0.320211
O O7 0.315470 0.495776 0.183105
O O8 0.371700 0.250000 0.773499
O O9 0.225965 0.007638 0.736262
O O10 0.550063 0.010445 0.899544
O O11 0.265663 0.750000 0.989827
O O12 0.146990 0.511205 0.871511
O O13 0.174063 0.519379 0.000797
O O14 0.342767 0.750000 0.380394
O O15 0.500000 0.000000 0.500000
O O16 0.177024 0.997263 0.313273
O O17 0.835420 0.250000 0.933515
O O18 0.000000 0.000000 0.000000
O O19 0.062351 0.750000 0.655574
O O20 0.990662 0.981902 0.681645
O O21 0.973313 0.750000 0.742177
#
# Coordination Sequence:
#
# PCOD9166585 Si02
#       8
#     4   4   4   4   4   4   4   4
#     4  11  23  40  63  91 124 160 205 261 314 374
#     4  11  23  39  61  90 124 161 203 254 312 372
#     4  11  22  40  65  91 123 162 205 256 315 375
#     4   9  20  39  63  89 122 163 205 254 308 366
#     4  12  25  41  63  92 126 166 211 258 310 371
#     4  11  21  36  59  89 123 161 207 253 307 369
#     4  11  24  40  62  91 123 162 207 258 315 376
#     4  10  22  43  66  90 125 167 211 258 310 370
#
# _framework density 19.78192
#
# number of rings (size 3 to 8) (size 9 to 14) (size 15 to 20)
#    0.000    1.250    1.250    4.875    0.000    6.000 
#    0.000    1.875    0.000    0.000    0.000    0.000 
#    0.000    0.000    0.000    0.000    0.000    0.000 
#
# Total GULP energy -178967.491176 kJ/mol
# GULP energy per Si atom -5592.734099 kJ/mol
# Density = 1.973690 g / cm^3
# Si number density = 19.781920 Si / 1000 Ang^3
#
#
#
# Elastic Constant Matrix: (Units=GPa)
#
#
# Indices 1 2 3 4 5 6 
#
# 1 85.1455 31.6563 21.4333 0.0000 5.3641 0.0000
# 2 31.6563 49.4832 21.0760 0.0000 6.9010 0.0000
# 3 21.4333 21.0760 115.4496 0.0000 3.0005 0.0000
# 4 0.0000 0.0000 0.0000 25.6985 0.0000 2.8683
# 5 5.3641 6.9010 3.0005 0.0000 37.0629 0.0000
# 6 0.0000 0.0000 0.0000 2.8683 0.0000 23.2049
#
#
#
# Elastic Compliance Matrix: (Units=1/GPa)
#
#
# Indices 1 2 3 4 5 6 
#
# 1 0.015558 -0.009402 -0.001161 0.000000 -0.000407 0.000000
# 2 -0.009402 0.028131 -0.003296 0.000000 -0.003610 0.000000
# 3 -0.001161 -0.003296 0.009479 0.000000 0.000014 0.000000
# 4 0.000000 0.000000 0.000000 0.039457 0.000000 -0.004877
# 5 -0.000407 -0.003610 0.000014 0.000000 0.027711 0.000000
# 6 0.000000 0.000000 0.000000 -0.004877 0.000000 0.043697
#
#
# Mechanical properties :
#
#
# Convention : Reuss Voigt Hill
#
# Bulk Modulus (GPa) = 39.29404 44.26771 41.78088
# Shear Modulus (GPa) = 24.97072 28.92080 26.94576
#
# Velocity S-wave (km/s) = 3.55674 3.82773 3.69472
# Velocity P-wave (km/s) = 6.06415 6.47780 6.27438
#
# Compressibility (1/GPa) = 0.02544915
#
# Stress axis : x y z
#
# Youngs Moduli (GPa) = 64.27548 35.54818 105.49880
#
# Poissons Ratio (x) = 0.33421 0.12253
# Poissons Ratio (y) = 0.60429 0.34775
# Poissons Ratio (z) = 0.07465 0.11717
#
# Static dielectric constant tensor:
#      x y z
#    x 1.690850 0.000000 -0.001000 
#    y 0.000000 1.675080 0.000000 
#    z -0.001000 0.000000 1.687630 
# 
# From -- ./inp_files/69102.got.cif
#   From: 2010.05.17/outbox.cif.g08.bks.cpg/sg11_35_cif.got.tgz:69102.got - 2010.06.03 12:22:45.
