data_PCOD9166727
_publ_section_title
;
Structure prediction by ZEFSAII (Michael W. Deem and Ramdas Pophale) SiO2 
 PCOD9166727
Probable space group: P 21/M
;
_chemical_formula_sum "Si O2"
_cell_formula_units_Z 28
_cell_length_a 12.066513
_cell_length_b 8.764107
_cell_length_c 15.233366
_cell_angle_alpha 90.000000
_cell_angle_beta 61.289905
_cell_angle_gamma 90.000000
_cell_volume 1412.912931
_symmetry_space_group_name_H-M "P 21/M"
_symmetry_group_IT_number 11
_symmetry_cell_setting 'monoclinic'
loop_
_space_group_symop_operation_xyz
x,y,z
-x,1/2+y,-z
-x,-y,-z
x,1/2-y,z
loop_
_atom_site_type_symbol
_atom_site_label
_atom_site_fract_x
_atom_site_fract_y
_atom_site_fract_z
Si Si1 0.756387 0.075873 0.703475
Si Si2 0.878107 0.570276 0.816656
Si Si3 0.857895 0.930140 0.305819
Si Si4 0.501128 0.069871 0.220283
Si Si5 0.107822 0.928492 0.519487
Si Si6 0.418403 0.567155 0.612430
Si Si7 0.626430 0.069210 0.997072
O O1 0.784771 0.250000 0.718367
O O2 0.775422 0.064266 0.592073
O O3 0.846140 0.968856 0.726963
O O4 0.613849 0.028202 0.773409
O O5 0.885155 0.750000 0.826543
O O6 0.013867 0.496107 0.786206
O O7 0.756393 0.503229 0.913167
O O8 0.851682 0.750000 0.294729
O O9 0.871815 0.971417 0.403227
O O10 0.725331 0.007043 0.331552
O O11 0.466091 0.250000 0.230573
O O12 0.528050 0.030390 0.310917
O O13 0.612825 0.048452 0.107538
O O14 0.085639 0.750000 0.550130
O O15 0.000000 0.000000 0.500000
O O16 0.500000 0.500000 0.500000
O O17 0.417918 0.750000 0.602736
O O18 0.627690 0.250000 0.978285
O O19 0.500000 0.000000 0.000000
#
# Coordination Sequence:
#
# PCOD9166727 Si02
#       7
#     4   4   4   4   4   4   4
#     4  11  22  35  57  89 125 162 205 255 312 380
#     4  12  24  39  61  90 126 166 208 261 322 382
#     4  12  25  42  63  90 126 169 215 267 324 382
#     4  10  23  41  64  91 125 166 211 260 317 379
#     4  11  22  35  55  86 123 162 204 253 312 380
#     4  11  24  45  69  96 128 169 217 264 316 381
#     4  11  22  39  63  95 130 168 211 263 321 384
#
# _framework density 19.817214
#
# number of rings (size 3 to 8) (size 9 to 14) (size 15 to 20)
#    0.000    0.857    2.857    5.143    0.000    5.714 
#    0.000    0.714    0.000    0.000    0.000    0.000 
#    0.000    0.000    0.000    0.000    0.000    0.000 
#
# Total GULP energy -156419.152255 kJ/mol
# GULP energy per Si atom -5586.398295 kJ/mol
# Density = 1.977211 g / cm^3
# Si number density = 19.817214 Si / 1000 Ang^3
#
#
#
# Elastic Constant Matrix: (Units=GPa)
#
#
# Indices 1 2 3 4 5 6 
#
# 1 93.8261 43.6913 30.0533 0.0000 -21.8861 0.0000
# 2 43.6913 89.9745 44.2084 0.0000 -11.3442 0.0000
# 3 30.0533 44.2084 114.3169 0.0000 -18.9498 0.0000
# 4 0.0000 0.0000 0.0000 33.3799 0.0000 -6.6330
# 5 -21.8861 -11.3442 -18.9498 0.0000 35.1818 0.0000
# 6 0.0000 0.0000 0.0000 -6.6330 0.0000 29.6942
#
#
#
# Elastic Compliance Matrix: (Units=1/GPa)
#
#
# Indices 1 2 3 4 5 6 
#
# 1 0.015477 -0.006405 -0.000371 0.000000 0.007363 0.000000
# 2 -0.006405 0.016467 -0.004902 0.000000 -0.001315 0.000000
# 3 -0.000371 -0.004902 0.011464 0.000000 0.004363 0.000000
# 4 0.000000 0.000000 0.000000 0.031350 0.000000 0.007003
# 5 0.007363 -0.001315 0.004363 0.000000 0.034930 0.000000
# 6 0.000000 0.000000 0.000000 0.007003 0.000000 0.035241
#
#
# Mechanical properties :
#
#
# Convention : Reuss Voigt Hill
#
# Bulk Modulus (GPa) = 49.87189 59.33593 54.60391
# Shear Modulus (GPa) = 28.57627 31.66214 30.11920
#
# Velocity S-wave (km/s) = 3.80148 4.00147 3.90276
# Velocity P-wave (km/s) = 6.67000 7.16629 6.92259
#
# Compressibility (1/GPa) = 0.02005138
#
# Stress axis : x y z
#
# Youngs Moduli (GPa) = 64.61258 60.72628 87.22648
#
# Poissons Ratio (x) = 0.38893 0.03240
# Poissons Ratio (y) = 0.41382 0.42762
# Poissons Ratio (z) = 0.02400 0.29771
#
# Static dielectric constant tensor:
#      x y z
#    x 1.775310 0.000000 0.093870 
#    y 0.000000 1.673920 0.000000 
#    z 0.093870 0.000000 1.927140 
# 
# From -- ./inp_files/49175.got.cif
#   From: 2010.05.17/outbox.cif.g08.bks.cpg/sg11_25_cif.got.tgz:49175.got - 2010.06.03 12:22:45.
