data_PCOD9166094
_publ_section_title
;
Structure prediction by ZEFSAII (Michael W. Deem and Ramdas Pophale) SiO2 
 PCOD9166094
Probable space group: P 21/M
;
_chemical_formula_sum "Si O2"
_cell_formula_units_Z 28
_cell_length_a 15.662905
_cell_length_b 7.564709
_cell_length_c 21.391731
_cell_angle_alpha 90.000000
_cell_angle_beta 26.571374
_cell_angle_gamma 90.000000
_cell_volume 1133.760457
_symmetry_space_group_name_H-M "P 21/M"
_symmetry_group_IT_number 11
_symmetry_cell_setting 'monoclinic'
loop_
_space_group_symop_operation_xyz
x,y,z
-x,1/2+y,-z
-x,-y,-z
x,1/2-y,z
loop_
_atom_site_type_symbol
_atom_site_label
_atom_site_fract_x
_atom_site_fract_y
_atom_site_fract_z
Si Si1 0.368238 0.959341 0.921176
Si Si2 0.199582 0.550641 0.661794
Si Si3 0.294830 0.539773 0.107075
Si Si4 0.202256 0.538384 0.900362
Si Si5 0.794767 0.461028 0.602832
Si Si6 0.908881 0.046087 0.396643
Si Si7 0.613472 0.033321 0.344032
O O1 0.330174 0.750000 0.948212
O O2 0.259487 0.032286 0.931056
O O3 0.597373 0.979950 0.763790
O O4 0.294862 0.030152 0.035625
O O5 0.124281 0.750000 0.716735
O O6 0.111308 0.459942 0.658800
O O7 0.213909 0.476515 0.722459
O O8 0.421069 0.550373 0.495642
O O9 0.266837 0.750000 0.125803
O O10 0.135523 0.457399 0.256242
O O11 0.500000 0.500000 0.000000
O O12 0.216052 0.750000 0.895217
O O13 0.352511 0.479654 0.749118
O O14 0.000000 0.500000 0.000000
O O15 0.783479 0.250000 0.606699
O O16 0.806635 0.532828 0.523681
O O17 0.000000 0.500000 0.500000
O O18 0.845124 0.250000 0.432221
O O19 0.601429 0.250000 0.355455
#
# Coordination Sequence:
#
# PCOD9166094 Si02
#       7
#     4   4   4   4   4   4   4
#     4  10  23  42  61  87 125 161 198 250 303 355
#     4   9  18  33  54  80 109 142 180 228 278 329
#     4  11  24  41  61  86 117 155 198 243 298 356
#     4  10  22  38  57  83 117 156 198 241 287 344
#     4  11  23  39  62  91 119 154 198 246 304 365
#     4  10  22  38  58  85 117 148 189 241 291 346
#     4   9  18  33  53  79 110 144 184 227 275 328
#
# _framework density 24.696576
#
# number of rings (size 3 to 8) (size 9 to 14) (size 15 to 20)
#    0.000    2.000    0.000    2.571    2.000    7.429 
#    0.000    0.000    0.000    0.000    0.000    0.000 
#    0.000    0.000    0.000    0.000    0.000    0.000 
#
# Total GULP energy -156377.812722 kJ/mol
# GULP energy per Si atom -5584.921883 kJ/mol
# Density = 2.464037 g / cm^3
# Si number density = 24.696576 Si / 1000 Ang^3
#
#
#
# Elastic Constant Matrix: (Units=GPa)
#
#
# Indices 1 2 3 4 5 6 
#
# 1 109.9671 7.5438 11.4923 0.0000 12.3875 0.0000
# 2 7.5438 78.3198 -7.4123 0.0000 8.2294 0.0000
# 3 11.4923 -7.4123 84.9665 0.0000 12.2051 0.0000
# 4 0.0000 0.0000 0.0000 22.5258 0.0000 -8.7150
# 5 12.3875 8.2294 12.2051 0.0000 42.1058 0.0000
# 6 0.0000 0.0000 0.0000 -8.7150 0.0000 15.1951
#
#
#
# Elastic Compliance Matrix: (Units=1/GPa)
#
#
# Indices 1 2 3 4 5 6 
#
# 1 0.009518 -0.000765 -0.001016 0.000000 -0.002356 0.000000
# 2 -0.000765 0.013301 0.001675 0.000000 -0.002860 0.000000
# 3 -0.001016 0.001675 0.012581 0.000000 -0.003675 0.000000
# 4 0.000000 0.000000 0.000000 0.057053 0.000000 0.032722
# 5 -0.002356 -0.002860 -0.003675 0.000000 0.026067 0.000000
# 6 0.000000 0.000000 0.000000 0.032722 0.000000 0.084578
#
#
# Mechanical properties :
#
#
# Convention : Reuss Voigt Hill
#
# Bulk Modulus (GPa) = 28.41980 32.94455 30.68218
# Shear Modulus (GPa) = 23.25151 33.40731 28.32941
#
# Velocity S-wave (km/s) = 3.07170 3.68191 3.39056
# Velocity P-wave (km/s) = 4.91050 5.60749 5.27053
#
# Compressibility (1/GPa) = 0.03518673
#
# Stress axis : x y z
#
# Youngs Moduli (GPa) = 105.06763 75.18306 79.48652
#
# Poissons Ratio (x) = 0.05754 0.08073
# Poissons Ratio (y) = 0.08041 -0.13311
# Poissons Ratio (z) = 0.10671 -0.12591
#
# Static dielectric constant tensor:
#      x y z
#    x 2.104070 0.000000 -0.008660 
#    y 0.000000 2.020380 0.000000 
#    z -0.008660 0.000000 1.954330 
# 
# From -- ./inp_files/65361.got.cif
#   From: 2010.05.17/outbox.cif.g08.bks.cpg/sg11_33_cif.got.tgz:65361.got - 2010.06.03 12:22:45.
