data_PCOD9166484
_publ_section_title
;
Structure prediction by ZEFSAII (Michael W. Deem and Ramdas Pophale) SiO2 
 PCOD9166484
Probable space group: P 21/M
;
_chemical_formula_sum "Si O2"
_cell_formula_units_Z 32
_cell_length_a 5.194830
_cell_length_b 13.919093
_cell_length_c 18.472552
_cell_angle_alpha 90.000000
_cell_angle_beta 90.618434
_cell_angle_gamma 90.000000
_cell_volume 1335.622957
_symmetry_space_group_name_H-M "P 21/M"
_symmetry_group_IT_number 11
_symmetry_cell_setting 'monoclinic'
loop_
_space_group_symop_operation_xyz
x,y,z
-x,1/2+y,-z
-x,-y,-z
x,1/2-y,z
loop_
_atom_site_type_symbol
_atom_site_label
_atom_site_fract_x
_atom_site_fract_y
_atom_site_fract_z
Si Si1 0.548170 0.993694 0.806887
Si Si2 0.894469 0.640290 0.887293
Si Si3 0.266296 0.635251 0.014736
Si Si4 0.529914 0.636443 0.555198
Si Si5 0.200168 0.001903 0.336704
Si Si6 0.763167 0.635190 0.102339
Si Si7 0.826342 0.144638 0.265773
Si Si8 0.020333 0.861952 0.459947
O O1 0.683055 0.941815 0.875514
O O2 0.720799 0.037466 0.742737
O O3 0.427851 0.903440 0.764830
O O4 0.335441 0.069378 0.832529
O O5 0.810594 0.750000 0.908975
O O6 0.005491 0.649911 0.807067
O O7 0.119320 0.604026 0.941542
O O8 0.278184 0.750000 0.005938
O O9 0.054760 0.618480 0.077475
O O10 0.556221 0.609285 0.038052
O O11 0.570972 0.750000 0.574184
O O12 0.581018 0.562414 0.620178
O O13 0.251408 0.626606 0.518327
O O14 0.750685 0.611815 0.496612
O O15 0.978475 0.078900 0.320790
O O16 0.093244 0.922031 0.389898
O O17 0.735712 0.750000 0.116473
O O18 0.784880 0.250000 0.295373
O O19 0.006208 0.750000 0.440625
#
# Coordination Sequence:
#
# PCOD9166484 Si02
#       8
#     4   4   4   4   4   4   4   4
#     4  11  25  38  61  89 125 168 210 252 308 374
#     4   9  20  39  60  88 122 159 206 264 320 372
#     4   9  20  39  65  89 118 162 208 262 322 368
#     4  10  22  41  67  97 127 164 206 258 310 358
#     4  11  24  40  63  92 127 168 211 248 308 371
#     4  10  23  42  62  89 124 161 210 263 312 370
#     4  10  23  41  60  88 126 164 210 258 310 374
#     4  10  23  42  67  98 130 162 207 258 306 360
#
# _framework density 23.958860000000001
#
# number of rings (size 3 to 8) (size 9 to 14) (size 15 to 20)
#    0.000    2.000    0.000    1.500    8.750    3.000 
#    0.000    0.625    0.000    0.000    0.000    0.000 
#    0.000    0.000    0.000    0.000    0.000    0.000 
#
# Total GULP energy -179065.236029 kJ/mol
# GULP energy per Si atom -5595.788626 kJ/mol
# Density = 2.390433 g / cm^3
# Si number density = 23.958860 Si / 1000 Ang^3
#
#
#
# Elastic Constant Matrix: (Units=GPa)
#
#
# Indices 1 2 3 4 5 6 
#
# 1 62.4681 -0.8621 9.4683 0.0000 -13.5158 0.0000
# 2 -0.8621 79.6266 25.3206 0.0000 -4.9136 0.0000
# 3 9.4683 25.3206 78.6517 0.0000 -14.7689 0.0000
# 4 0.0000 0.0000 0.0000 25.8781 0.0000 6.8720
# 5 -13.5158 -4.9136 -14.7689 0.0000 33.2231 0.0000
# 6 0.0000 0.0000 0.0000 6.8720 0.0000 21.4310
#
#
#
# Elastic Compliance Matrix: (Units=1/GPa)
#
#
# Indices 1 2 3 4 5 6 
#
# 1 0.017673 0.000982 -0.001163 0.000000 0.006818 0.000000
# 2 0.000982 0.014046 -0.004555 0.000000 0.000452 0.000000
# 3 -0.001163 -0.004555 0.015390 0.000000 0.005694 0.000000
# 4 0.000000 0.000000 0.000000 0.042239 0.000000 -0.013544
# 5 0.006818 0.000452 0.005694 0.000000 0.035471 0.000000
# 6 0.000000 0.000000 0.000000 -0.013544 0.000000 0.051004
#
#
# Mechanical properties :
#
#
# Convention : Reuss Voigt Hill
#
# Bulk Modulus (GPa) = 26.57043 32.06666 29.31854
# Shear Modulus (GPa) = 25.27262 28.56109 26.91686
#
# Velocity S-wave (km/s) = 3.25134 3.45641 3.35544
# Velocity P-wave (km/s) = 5.02086 5.41684 5.22261
#
# Compressibility (1/GPa) = 0.03763582
#
# Stress axis : x y z
#
# Youngs Moduli (GPa) = 56.58282 71.19650 64.97697
#
# Poissons Ratio (x) = -0.06992 0.07560
# Poissons Ratio (y) = -0.05557 0.29598
# Poissons Ratio (z) = 0.06583 0.32431
#
# Static dielectric constant tensor:
#      x y z
#    x 1.951440 0.000000 -0.021490 
#    y 0.000000 1.934030 0.000000 
#    z -0.021490 0.000000 1.961480 
# 
# From -- ./inp_files/8090.got.cif
#   From: 2010.05.17/outbox.cif.g08.bks.cpg/sg11_5_cif.got.tgz:8090.got - 2010.06.03 12:22:45.
