data_PCOD9166028
_publ_section_title
;
Structure prediction by ZEFSAII (Michael W. Deem and Ramdas Pophale) SiO2 
 PCOD9166028
Probable space group: P 21/M
;
_chemical_formula_sum "Si O2"
_cell_formula_units_Z 28
_cell_length_a 30.595044
_cell_length_b 8.805930
_cell_length_c 9.383063
_cell_angle_alpha 90.000000
_cell_angle_beta 139.265860
_cell_angle_gamma 90.000000
_cell_volume 1649.623196
_symmetry_space_group_name_H-M "P 21/M"
_symmetry_group_IT_number 11
_symmetry_cell_setting 'monoclinic'
loop_
_space_group_symop_operation_xyz
x,y,z
-x,1/2+y,-z
-x,-y,-z
x,1/2-y,z
loop_
_atom_site_type_symbol
_atom_site_label
_atom_site_fract_x
_atom_site_fract_y
_atom_site_fract_z
Si Si1 0.561059 0.433615 0.242412
Si Si2 0.201335 0.429320 0.849413
Si Si3 0.438970 0.431703 0.440525
Si Si4 0.690527 0.431959 0.379921
Si Si5 0.926824 0.567655 0.312056
Si Si6 0.683304 0.431007 0.035172
Si Si7 0.803775 0.929445 0.841787
O O1 0.557483 0.250000 0.237939
O O2 0.559282 0.499902 0.396674
O O3 0.629685 0.479393 0.331934
O O4 0.500000 0.500000 0.000000
O O5 0.206698 0.250000 0.828699
O O6 0.122784 0.469138 0.677579
O O7 0.243886 0.527777 0.846995
O O8 0.228234 0.450165 0.078694
O O9 0.500000 0.500000 0.500000
O O10 0.443984 0.250000 0.458920
O O11 0.371047 0.482682 0.194306
O O12 0.691540 0.250000 0.381089
O O13 0.678747 0.481161 0.188336
O O14 0.760161 0.488957 0.616834
O O15 0.931082 0.750000 0.317848
O O16 0.000000 0.500000 0.500000
O O17 0.880515 0.520057 0.062162
O O18 0.671540 0.250000 0.997535
O O19 0.804384 0.750000 0.814311
#
# Coordination Sequence:
#
# PCOD9166028 Si02
#       7
#     4   4   4   4   4   4   4
#     4  11  23  40  60  83 111 146 186 229 280 333
#     4   8  17  33  51  77 108 138 177 220 266 321
#     4  12  25  41  60  82 109 143 185 233 282 336
#     4  10  22  36  52  77 109 141 180 225 269 323
#     4   8  16  30  51  81 111 138 176 223 270 326
#     4  11  22  36  54  80 111 143 183 228 273 329
#     4   8  17  32  51  76 105 135 175 218 263 319
#
# _framework density 16.973572000000001
#
# number of rings (size 3 to 8) (size 9 to 14) (size 15 to 20)
#    0.857    1.429    0.000    3.857    0.000    7.429 
#    0.000    0.000    0.000    0.857    0.000    0.000 
#    0.000    0.000    0.000    0.000    0.000    0.000 
#
# Total GULP energy -155976.496275 kJ/mol
# GULP energy per Si atom -5570.589153 kJ/mol
# Density = 1.693494 g / cm^3
# Si number density = 16.973572 Si / 1000 Ang^3
#
#
#
# Elastic Constant Matrix: (Units=GPa)
#
#
# Indices 1 2 3 4 5 6 
#
# 1 108.2486 42.6357 76.0045 0.0000 -0.3812 0.0000
# 2 42.6357 57.1480 41.4140 0.0000 -1.4186 0.0000
# 3 76.0045 41.4140 137.3468 0.0000 2.5755 0.0000
# 4 0.0000 0.0000 0.0000 34.1102 0.0000 2.6988
# 5 -0.3812 -1.4186 2.5755 0.0000 28.9878 0.0000
# 6 0.0000 0.0000 0.0000 2.6988 0.0000 27.6927
#
#
#
# Elastic Compliance Matrix: (Units=1/GPa)
#
#
# Indices 1 2 3 4 5 6 
#
# 1 0.017404 -0.007659 -0.007331 0.000000 0.000505 0.000000
# 2 -0.007659 0.025846 -0.003583 0.000000 0.001482 0.000000
# 3 -0.007331 -0.003583 0.012444 0.000000 -0.001377 0.000000
# 4 0.000000 0.000000 0.000000 0.029545 0.000000 -0.002879
# 5 0.000505 0.001482 -0.001377 0.000000 0.034699 0.000000
# 6 0.000000 0.000000 0.000000 -0.002879 0.000000 0.036391
#
#
# Mechanical properties :
#
#
# Convention : Reuss Voigt Hill
#
# Bulk Modulus (GPa) = 53.91469 69.20578 61.56023
# Shear Modulus (GPa) = 25.04320 27.67076 26.35698
#
# Velocity S-wave (km/s) = 3.84529 4.04199 3.94486
# Velocity P-wave (km/s) = 7.17968 7.91484 7.55621
#
# Compressibility (1/GPa) = 0.01854782
#
# Stress axis : x y z
#
# Youngs Moduli (GPa) = 57.45934 38.69129 80.36245
#
# Poissons Ratio (x) = 0.29634 0.58912
# Poissons Ratio (y) = 0.44009 0.28791
# Poissons Ratio (z) = 0.42122 0.13862
#
# Static dielectric constant tensor:
#      x y z
#    x 1.581490 0.000000 0.007920 
#    y 0.000000 1.569170 0.000000 
#    z 0.007920 0.000000 1.572530 
# 
# From -- ./inp_files/29124.got.cif
#   From: 2010.05.17/outbox.cif.g08.bks.cpg/sg11_15_cif.got.tgz:29124.got - 2010.06.03 12:22:45.
