data_PCOD9166015
_publ_section_title
;
Structure prediction by ZEFSAII (Michael W. Deem and Ramdas Pophale) SiO2 
 PCOD9166015
Probable space group: P 21/M
;
_chemical_formula_sum "Si O2"
_cell_formula_units_Z 20
_cell_length_a 14.067327
_cell_length_b 10.887928
_cell_length_c 7.532686
_cell_angle_alpha 90.000000
_cell_angle_beta 138.452712
_cell_angle_gamma 90.000000
_cell_volume 765.201939
_symmetry_space_group_name_H-M "P 21/M"
_symmetry_group_IT_number 11
_symmetry_cell_setting 'monoclinic'
loop_
_space_group_symop_operation_xyz
x,y,z
-x,1/2+y,-z
-x,-y,-z
x,1/2-y,z
loop_
_atom_site_type_symbol
_atom_site_label
_atom_site_fract_x
_atom_site_fract_y
_atom_site_fract_z
Si Si1 0.176070 0.750000 0.388409
Si Si2 0.209963 0.250000 0.529866
Si Si3 0.519628 0.489361 0.812889
Si Si4 0.017076 0.250000 0.584935
Si Si5 0.203972 0.025924 0.278763
Si Si6 0.190390 0.611035 0.928632
Si Si7 0.508000 0.750000 0.877182
O O1 0.018773 0.750000 0.261046
O O2 0.180583 0.889003 0.320521
O O3 0.340405 0.750000 0.701753
O O4 0.153264 0.368050 0.341757
O O5 0.155984 0.250000 0.657851
O O6 0.381813 0.250000 0.802312
O O7 0.374407 0.449304 0.516132
O O8 0.656772 0.415534 0.944578
O O9 0.537351 0.632712 0.796925
O O10 0.500000 0.500000 0.000000
O O11 0.925696 0.133418 0.384542
O O12 0.155638 0.001726 0.010010
O O13 0.195671 0.750000 0.022705
#
# Coordination Sequence:
#
# PCOD9166015 Si02
#       7
#     2   2   4   2   4   4   2
#     4  10  21  45  71  92 125 181 212 254 327 404
#     4  12  26  38  65 102 130 161 216 285 317 358
#     4  11  21  38  66  96 128 165 207 264 325 378
#     4  10  25  41  65  94 126 173 223 264 316 384
#     4  11  23  41  67  98 129 169 214 268 324 384
#     4  10  23  42  63  90 125 177 216 251 313 400
#     4  10  22  38  63  98 129 159 211 267 328 368
#
# _framework density 26.136892
#
# number of rings (size 3 to 8) (size 9 to 14) (size 15 to 20)
#    0.600    0.800    3.000    3.000    2.800    2.400 
#    0.000    0.000    0.000    0.000    0.000    0.000 
#    0.000    0.000    0.000    0.000    0.000    0.000 
#
# Total GULP energy -111592.113049 kJ/mol
# GULP energy per Si atom -5579.605652 kJ/mol
# Density = 2.607740 g / cm^3
# Si number density = 26.136892 Si / 1000 Ang^3
#
#
#
# Elastic Constant Matrix: (Units=GPa)
#
#
# Indices 1 2 3 4 5 6 
#
# 1 77.5680 34.4098 7.9171 0.0000 14.0557 0.0000
# 2 34.4098 108.6792 -8.7209 0.0000 13.2224 0.0000
# 3 7.9171 -8.7209 42.9480 0.0000 10.9392 0.0000
# 4 0.0000 0.0000 0.0000 22.0267 0.0000 3.2002
# 5 14.0557 13.2224 10.9392 0.0000 20.4942 0.0000
# 6 0.0000 0.0000 0.0000 3.2002 0.0000 46.2263
#
#
#
# Elastic Compliance Matrix: (Units=1/GPa)
#
#
# Indices 1 2 3 4 5 6 
#
# 1 0.016406 -0.004480 -0.002088 0.000000 -0.007246 0.000000
# 2 -0.004480 0.011926 0.005121 0.000000 -0.007355 0.000000
# 3 -0.002088 0.005121 0.029148 0.000000 -0.017430 0.000000
# 4 0.000000 0.000000 0.000000 0.045861 0.000000 -0.003175
# 5 -0.007246 -0.007355 -0.017430 0.000000 0.067813 0.000000
# 6 0.000000 0.000000 0.000000 -0.003175 0.000000 0.021853
#
#
# Mechanical properties :
#
#
# Convention : Reuss Voigt Hill
#
# Bulk Modulus (GPa) = 18.32040 32.93413 25.62727
# Shear Modulus (GPa) = 23.35405 30.78873 27.07139
#
# Velocity S-wave (km/s) = 2.99244 3.43589 3.22180
# Velocity P-wave (km/s) = 4.35479 5.32621 4.86481
#
# Compressibility (1/GPa) = 0.05458396
#
# Stress axis : x y z
#
# Youngs Moduli (GPa) = 60.95477 83.85292 34.30735
#
# Poissons Ratio (x) = 0.37568 0.07164
# Poissons Ratio (y) = 0.27309 -0.17568
# Poissons Ratio (z) = 0.12729 -0.42939
#
# Static dielectric constant tensor:
#      x y z
#    x 2.138750 0.000000 -0.041650 
#    y 0.000000 2.106510 0.000000 
#    z -0.041650 0.000000 2.110400 
# 
# From -- ./inp_files/21075.got.cif
#   From: 2010.05.17/outbox.cif.g08.bks.cpg/sg11_11_cif.got.tgz:21075.got - 2010.06.03 12:22:45.
