data_PCOD9166607
_publ_section_title
;
Structure prediction by ZEFSAII (Michael W. Deem and Ramdas Pophale) SiO2 
 PCOD9166607
Probable space group: P 21/M
;
_chemical_formula_sum "Si O2"
_cell_formula_units_Z 32
_cell_length_a 18.081762
_cell_length_b 14.436674
_cell_length_c 5.258864
_cell_angle_alpha 90.000000
_cell_angle_beta 88.039035
_cell_angle_gamma 90.000000
_cell_volume 1371.972569
_symmetry_space_group_name_H-M "P 21/M"
_symmetry_group_IT_number 11
_symmetry_cell_setting 'monoclinic'
loop_
_space_group_symop_operation_xyz
x,y,z
-x,1/2+y,-z
-x,-y,-z
x,1/2-y,z
loop_
_atom_site_type_symbol
_atom_site_label
_atom_site_fract_x
_atom_site_fract_y
_atom_site_fract_z
Si Si1 0.988754 0.861114 0.264244
Si Si2 0.538037 0.401158 0.032765
Si Si3 0.806667 0.491372 0.062374
Si Si4 0.341900 0.514146 0.666700
Si Si5 0.098855 0.361861 0.221496
Si Si6 0.879919 0.355270 0.392453
Si Si7 0.272457 0.853290 0.299434
Si Si8 0.456537 0.348786 0.554048
O O1 0.989892 0.750000 0.258251
O O2 0.964139 0.886017 0.982821
O O3 0.067636 0.885256 0.379432
O O4 0.929183 0.884972 0.492121
O O5 0.620745 0.424368 0.113843
O O6 0.497971 0.356827 0.281169
O O7 0.500000 0.500000 0.000000
O O8 0.516322 0.351966 0.774812
O O9 0.767995 0.408029 0.917083
O O10 0.739119 0.524483 0.250739
O O11 0.833739 0.574199 0.879029
O O12 0.873950 0.439361 0.196222
O O13 0.331363 0.582460 0.432017
O O14 0.399149 0.432796 0.593795
O O15 0.112631 0.250000 0.207553
O O16 0.903523 0.250000 0.302674
O O17 0.795598 0.344960 0.492578
O O18 0.297808 0.750000 0.229220
O O19 0.416868 0.250000 0.572807
#
# Coordination Sequence:
#
# PCOD9166607 Si02
#       8
#     4   4   4   4   4   4   4   4
#     4   9  20  39  63  88 121 164 209 266 328 379
#     4  10  22  43  69  96 133 173 213 270 319 369
#     4  11  24  38  63  89 127 169 214 260 318 381
#     4  10  24  42  64  93 132 174 211 261 322 381
#     4  10  23  41  61  90 125 163 211 263 320 385
#     4   9  20  39  60  87 122 161 211 272 327 378
#     4  10  23  41  61  89 124 167 220 266 319 385
#     4  11  24  43  71 106 136 171 219 266 319 383
#
# _framework density 23.324083999999999
#
# number of rings (size 3 to 8) (size 9 to 14) (size 15 to 20)
#    0.000    2.000    0.000    2.250   10.500    3.000 
#    0.000    0.625    0.000    0.000    0.000    0.000 
#    0.000    0.000    0.000    0.000    0.000    0.000 
#
# Total GULP energy -178782.346871 kJ/mol
# GULP energy per Si atom -5586.948340 kJ/mol
# Density = 2.327100 g / cm^3
# Si number density = 23.324084 Si / 1000 Ang^3
#
#
#
# Elastic Constant Matrix: (Units=GPa)
#
#
# Indices 1 2 3 4 5 6 
#
# 1 77.8819 30.3229 10.8166 0.0000 -4.1481 0.0000
# 2 30.3229 120.9138 19.7449 0.0000 4.6546 0.0000
# 3 10.8166 19.7449 99.5621 0.0000 9.7477 0.0000
# 4 0.0000 0.0000 0.0000 -21.1600 0.0000 -27.8164
# 5 -4.1481 4.6546 9.7477 0.0000 39.0132 0.0000
# 6 0.0000 0.0000 0.0000 -27.8164 0.0000 10.9098
#
#
#
# Elastic Compliance Matrix: (Units=1/GPa)
#
#
# Indices 1 2 3 4 5 6 
#
# 1 0.014489 -0.003542 -0.001091 0.000000 0.002236 0.000000
# 2 -0.003542 0.009427 -0.001371 0.000000 -0.001159 0.000000
# 3 -0.001091 -0.001371 0.010691 0.000000 -0.002624 0.000000
# 4 0.000000 0.000000 0.000000 -0.010860 0.000000 -0.027689
# 5 0.002236 -0.001159 -0.002624 0.000000 0.026664 0.000000
# 6 0.000000 0.000000 0.000000 -0.027689 0.000000 0.021063
#
#
# Mechanical properties :
#
#
# Convention : Reuss Voigt Hill
#
# Bulk Modulus (GPa) = 44.24682 46.68075 45.46379
# Shear Modulus (GPa) = 54.93562 21.58416 38.25989
#
# Velocity S-wave (km/s) = 4.85843 3.04534 4.05453
# Velocity P-wave (km/s) = 7.10521 5.69411 6.43844
#
# Compressibility (1/GPa) = 0.02260049
#
# Stress axis : x y z
#
# Youngs Moduli (GPa) = 69.01589 106.07750 93.53392
#
# Poissons Ratio (x) = 0.37569 0.10201
# Poissons Ratio (y) = 0.24443 0.12827
# Poissons Ratio (z) = 0.07527 0.14547
#
# Static dielectric constant tensor:
#      x y z
#    x 1.901930 0.000000 -0.025600 
#    y 0.000000 1.893210 0.000000 
#    z -0.025600 0.000000 1.937500 
# 
# From -- ./inp_files/8105.got.cif
#   From: 2010.05.17/outbox.cif.g08.bks.cpg/sg11_5_cif.got.tgz:8105.got - 2010.06.03 12:22:45.
