data_PCOD9166207
_publ_section_title
;
Structure prediction by ZEFSAII (Michael W. Deem and Ramdas Pophale) SiO2 
 PCOD9166207
Probable space group: P 21/M
;
_chemical_formula_sum "Si O2"
_cell_formula_units_Z 30
_cell_length_a 18.122615
_cell_length_b 12.349077
_cell_length_c 6.677655
_cell_angle_alpha 90.000000
_cell_angle_beta 95.063798
_cell_angle_gamma 90.000000
_cell_volume 1488.610189
_symmetry_space_group_name_H-M "P 21/M"
_symmetry_group_IT_number 11
_symmetry_cell_setting 'monoclinic'
loop_
_space_group_symop_operation_xyz
x,y,z
-x,1/2+y,-z
-x,-y,-z
x,1/2-y,z
loop_
_atom_site_type_symbol
_atom_site_label
_atom_site_fract_x
_atom_site_fract_y
_atom_site_fract_z
Si Si1 0.374023 0.947236 0.437379
Si Si2 0.575264 0.464773 0.125807
Si Si3 0.819658 0.973626 0.015410
Si Si4 0.066947 0.128201 0.647927
Si Si5 0.902659 0.439636 0.652290
Si Si6 0.231142 0.873010 0.646715
Si Si7 0.394699 0.750000 0.121726
Si Si8 0.334041 0.122643 0.109041
O O1 0.429774 0.958771 0.636203
O O2 0.294794 0.925373 0.526057
O O3 0.389291 0.846414 0.294966
O O4 0.366989 0.055951 0.304231
O O5 0.500000 0.500000 0.000000
O O6 0.598837 0.347725 0.046861
O O7 0.632225 0.559886 0.074819
O O8 0.754163 0.898575 0.916172
O O9 0.862558 0.034195 0.849313
O O10 0.878592 0.908791 0.162663
O O11 0.782181 0.061164 0.153721
O O12 0.083378 0.250000 0.593797
O O13 0.981675 0.117213 0.695230
O O14 0.080094 0.050257 0.462916
O O15 0.845051 0.376947 0.497370
O O16 0.250698 0.750000 0.697953
O O17 0.350912 0.250000 0.113984
#
# Coordination Sequence:
#
# PCOD9166207 Si02
#       8
#     4   4   4   4   4   4   2   4
#     4  11  22  45  67  97 133 169 218 270 330 392
#     4  11  26  47  68 100 137 173 220 277 331 391
#     4  11  22  41  62  94 127 166 218 266 325 386
#     4  10  22  39  61  88 123 169 214 265 325 381
#     4  10  22  41  59  89 129 162 214 268 323 386
#     4  11  22  37  65  94 126 167 209 270 325 385
#     4  10  24  42  76 100 130 176 214 266 334 402
#     4  11  25  43  67  99 131 177 225 266 327 399
#
# _framework density 20.153026000000001
#
# number of rings (size 3 to 8) (size 9 to 14) (size 15 to 20)
#    0.000    1.333    3.333    1.600    0.933    4.800 
#    2.400    0.000    0.000    0.000    0.000    0.000 
#    0.000    0.000    0.000    0.000    0.000    0.000 
#
# Total GULP energy -167168.550970 kJ/mol
# GULP energy per Si atom -5572.285032 kJ/mol
# Density = 2.010716 g / cm^3
# Si number density = 20.153026 Si / 1000 Ang^3
#
#
#
# Elastic Constant Matrix: (Units=GPa)
#
#
# Indices 1 2 3 4 5 6 
#
# 1 56.3093 16.5158 13.3957 0.0000 9.7134 0.0000
# 2 16.5158 174.7928 53.8478 0.0000 0.4382 0.0000
# 3 13.3957 53.8478 114.9248 0.0000 5.3532 0.0000
# 4 0.0000 0.0000 0.0000 10.6685 0.0000 -7.5329
# 5 9.7134 0.4382 5.3532 0.0000 25.8670 0.0000
# 6 0.0000 0.0000 0.0000 -7.5329 0.0000 12.6535
#
#
#
# Elastic Compliance Matrix: (Units=1/GPa)
#
#
# Indices 1 2 3 4 5 6 
#
# 1 0.019717 -0.001448 -0.001288 0.000000 -0.007113 0.000000
# 2 -0.001448 0.006800 -0.003067 0.000000 0.001063 0.000000
# 3 -0.001288 -0.003067 0.010363 0.000000 -0.001609 0.000000
# 4 0.000000 0.000000 0.000000 0.161707 0.000000 0.096268
# 5 -0.007113 0.001063 -0.001609 0.000000 0.041645 0.000000
# 6 0.000000 0.000000 0.000000 0.096268 0.000000 0.136340
#
#
# Mechanical properties :
#
#
# Convention : Reuss Voigt Hill
#
# Bulk Modulus (GPa) = 39.56669 57.06061 48.31365
# Shear Modulus (GPa) = 12.60703 27.32230 19.96466
#
# Velocity S-wave (km/s) = 2.50384 3.68603 3.15088
# Velocity P-wave (km/s) = 5.29478 6.81843 6.10433
#
# Compressibility (1/GPa) = 0.02527378
#
# Stress axis : x y z
#
# Youngs Moduli (GPa) = 50.71675 147.05797 96.49314
#
# Poissons Ratio (x) = 0.21299 0.12432
# Poissons Ratio (y) = 0.07345 0.29593
# Poissons Ratio (z) = 0.06534 0.45101
#
# Static dielectric constant tensor:
#      x y z
#    x 1.773860 0.000000 0.029810 
#    y 0.000000 1.673830 0.000000 
#    z 0.029810 0.000000 1.707910 
# 
# From -- ./inp_files/8822.got.cif
#   From: 2010.05.17/outbox.cif.g08.bks.cpg/sg11_5_cif.got.tgz:8822.got - 2010.06.03 12:22:45.
