data_PCOD9166551
_publ_section_title
;
Structure prediction by ZEFSAII (Michael W. Deem and Ramdas Pophale) SiO2 
 PCOD9166551
Probable space group: P 21/M
;
_chemical_formula_sum "Si O2"
_cell_formula_units_Z 16
_cell_length_a 9.338673
_cell_length_b 13.573676
_cell_length_c 5.480885
_cell_angle_alpha 90.000000
_cell_angle_beta 78.071233
_cell_angle_gamma 90.000000
_cell_volume 679.754587
_symmetry_space_group_name_H-M "P 21/M"
_symmetry_group_IT_number 11
_symmetry_cell_setting 'monoclinic'
loop_
_space_group_symop_operation_xyz
x,y,z
-x,1/2+y,-z
-x,-y,-z
x,1/2-y,z
loop_
_atom_site_type_symbol
_atom_site_label
_atom_site_fract_x
_atom_site_fract_y
_atom_site_fract_z
Si Si1 0.622133 0.463544 0.643591
Si Si2 0.922683 0.631973 0.166118
Si Si3 0.367707 0.364244 0.992394
Si Si4 0.921961 0.130627 0.389881
O O1 0.500000 0.500000 0.500000
O O2 0.668279 0.558075 0.785013
O O3 0.759093 0.410357 0.476242
O O4 0.532153 0.388013 0.849057
O O5 0.939806 0.750000 0.163266
O O6 0.751027 0.615201 0.177908
O O7 0.008963 0.598966 0.892484
O O8 0.986304 0.599230 0.402397
O O9 0.351538 0.250000 0.072189
O O10 0.918875 0.250000 0.390084
#
# Coordination Sequence:
#
# PCOD9166551 Si02
#       4
#     4   4   4   4
#     4  11  26  42  64 100 130 178 223 268 336 398
#     4   9  21  41  68  98 130 177 222 271 333 389
#     4  10  24  45  66  93 133 173 221 277 333 398
#     4  10  22  42  68  98 135 174 222 274 328 392
#
# _framework density 23.537903
#
# number of rings (size 3 to 8) (size 9 to 14) (size 15 to 20)
#    0.000    2.000    0.000    0.750   10.500    4.000 
#    0.000    0.000    0.000    0.000    0.000    0.000 
#    0.000    0.000    0.000    0.000    0.000    0.000 
#
# Total GULP energy -89627.831515 kJ/mol
# GULP energy per Si atom -5601.739470 kJ/mol
# Density = 2.348433 g / cm^3
# Si number density = 23.537903 Si / 1000 Ang^3
#
#
#
# Elastic Constant Matrix: (Units=GPa)
#
#
# Indices 1 2 3 4 5 6 
#
# 1 132.4189 58.2413 67.3646 0.0000 0.8473 0.0000
# 2 58.2413 135.6726 72.6548 0.0000 7.0378 0.0000
# 3 67.3646 72.6548 130.6917 0.0000 -0.3731 0.0000
# 4 0.0000 0.0000 0.0000 38.5986 0.0000 5.0585
# 5 0.8473 7.0378 -0.3731 0.0000 55.9583 0.0000
# 6 0.0000 0.0000 0.0000 5.0585 0.0000 38.9478
#
#
#
# Elastic Compliance Matrix: (Units=1/GPa)
#
#
# Indices 1 2 3 4 5 6 
#
# 1 0.010735 -0.002350 -0.004226 0.000000 0.000105 0.000000
# 2 -0.002350 0.011114 -0.004971 0.000000 -0.001395 0.000000
# 3 -0.004226 -0.004971 0.012596 0.000000 0.000773 0.000000
# 4 0.000000 0.000000 0.000000 0.026356 0.000000 -0.003423
# 5 0.000105 -0.001395 0.000773 0.000000 0.018050 0.000000
# 6 0.000000 0.000000 0.000000 -0.003423 0.000000 0.026120
#
#
# Mechanical properties :
#
#
# Convention : Reuss Voigt Hill
#
# Bulk Modulus (GPa) = 88.11210 88.36716 88.23963
# Shear Modulus (GPa) = 37.92202 40.06909 38.99556
#
# Velocity S-wave (km/s) = 4.01821 4.13040 4.07469
# Velocity P-wave (km/s) = 7.68397 7.76987 7.72704
#
# Compressibility (1/GPa) = 0.01134918
#
# Stress axis : x y z
#
# Youngs Moduli (GPa) = 93.15373 89.97529 79.39156
#
# Poissons Ratio (x) = 0.21148 0.33553
# Poissons Ratio (y) = 0.21895 0.39466
# Poissons Ratio (z) = 0.39370 0.44727
#
# Static dielectric constant tensor:
#      x y z
#    x 1.858430 0.000000 -0.010980 
#    y 0.000000 1.893860 0.000000 
#    z -0.010980 0.000000 1.910470 
# 
# From -- ./inp_files/1394.got.cif
#   From: 2010.05.17/outbox.cif.g08.bks.cpg/sg11_1_cif.got.tgz:1394.got - 2010.06.03 12:22:45.
