data_PCOD9166006
_publ_section_title
;
Structure prediction by ZEFSAII (Michael W. Deem and Ramdas Pophale) SiO2 
 PCOD9166006
Probable space group: P 21/M
;
_chemical_formula_sum "Si O2"
_cell_formula_units_Z 32
_cell_length_a 6.414959
_cell_length_b 16.124883
_cell_length_c 18.847590
_cell_angle_alpha 90.000000
_cell_angle_beta 131.325678
_cell_angle_gamma 90.000000
_cell_volume 1464.090320
_symmetry_space_group_name_H-M "P 21/M"
_symmetry_group_IT_number 11
_symmetry_cell_setting 'monoclinic'
loop_
_space_group_symop_operation_xyz
x,y,z
-x,1/2+y,-z
-x,-y,-z
x,1/2-y,z
loop_
_atom_site_type_symbol
_atom_site_label
_atom_site_fract_x
_atom_site_fract_y
_atom_site_fract_z
Si Si1 0.522312 0.653570 0.672047
Si Si2 0.280045 0.567943 0.477252
Si Si3 0.675545 0.657229 0.933400
Si Si4 0.770034 0.494070 0.315331
Si Si5 0.863357 0.655260 0.287793
Si Si6 0.666042 0.655061 0.089588
Si Si7 0.088086 0.929211 0.799753
Si Si8 0.898422 0.442417 0.041252
O O1 0.450182 0.750000 0.669211
O O2 0.396961 0.620419 0.569171
O O3 0.407459 0.584986 0.702339
O O4 0.853863 0.641242 0.745026
O O5 0.500000 0.500000 0.500000
O O6 0.999406 0.514394 0.425743
O O7 0.157876 0.630873 0.389750
O O8 0.577559 0.750000 0.901721
O O9 0.900073 0.635649 0.925306
O O10 0.403958 0.601395 0.869987
O O11 0.795072 0.648355 0.040152
O O12 0.648379 0.585650 0.270615
O O13 0.935893 0.476451 0.279584
O O14 0.791385 0.750000 0.289535
O O15 0.856822 0.647528 0.201274
O O16 0.550323 0.750000 0.066385
O O17 0.414199 0.589731 0.037796
O O18 0.057167 0.974270 0.868791
O O19 0.000000 0.500000 0.000000
#
# Coordination Sequence:
#
# PCOD9166006 Si02
#       8
#     4   4   4   4   4   4   4   4
#     4  12  24  42  69 102 136 176 219 267 329 399
#     4  10  21  44  67  95 133 170 211 275 332 386
#     4  10  22  41  62  89 127 169 214 268 325 388
#     4  10  24  41  67  93 136 171 219 269 333 383
#     4   9  20  39  68  94 126 173 221 269 329 392
#     4   9  20  39  62  90 125 166 216 274 323 385
#     4  11  24  41  63  95 131 173 217 272 325 394
#     4  11  25  36  62  92 127 169 217 265 328 393
#
# _framework density 21.856573999999998
#
# number of rings (size 3 to 8) (size 9 to 14) (size 15 to 20)
#    0.750    1.000    1.250    2.250    5.250    4.500 
#    0.000    0.000    0.000    3.750    0.000    0.000 
#    0.000    0.000    0.000    0.000    0.000    0.000 
#
# Total GULP energy -178299.463276 kJ/mol
# GULP energy per Si atom -5571.858227 kJ/mol
# Density = 2.180683 g / cm^3
# Si number density = 21.856574 Si / 1000 Ang^3
#
#
#
# Elastic Constant Matrix: (Units=GPa)
#
#
# Indices 1 2 3 4 5 6 
#
# 1 70.7850 36.4453 35.0835 0.0000 -21.1113 0.0000
# 2 36.4453 140.8802 28.5455 0.0000 -12.3100 0.0000
# 3 35.0835 28.5455 112.7554 0.0000 -31.0536 0.0000
# 4 0.0000 0.0000 0.0000 25.3204 0.0000 -1.2449
# 5 -21.1113 -12.3100 -31.0536 0.0000 36.1433 0.0000
# 6 0.0000 0.0000 0.0000 -1.2449 0.0000 32.9691
#
#
#
# Elastic Compliance Matrix: (Units=1/GPa)
#
#
# Indices 1 2 3 4 5 6 
#
# 1 0.019943 -0.003858 -0.003121 0.000000 0.007653 0.000000
# 2 -0.003858 0.008269 -0.000967 0.000000 -0.000268 0.000000
# 3 -0.003121 -0.000967 0.012434 0.000000 0.008531 0.000000
# 4 0.000000 0.000000 0.000000 0.039567 0.000000 0.001494
# 5 0.007653 -0.000268 0.008531 0.000000 0.039376 0.000000
# 6 0.000000 0.000000 0.000000 0.001494 0.000000 0.030388
#
#
# Mechanical properties :
#
#
# Convention : Reuss Voigt Hill
#
# Bulk Modulus (GPa) = 40.39610 58.28548 49.34079
# Shear Modulus (GPa) = 28.71582 33.84297 31.27940
#
# Velocity S-wave (km/s) = 3.62861 3.93925 3.78712
# Velocity P-wave (km/s) = 6.00652 6.88589 6.46118
#
# Compressibility (1/GPa) = 0.02475486
#
# Stress axis : x y z
#
# Youngs Moduli (GPa) = 50.14276 120.93673 80.42495
#
# Poissons Ratio (x) = 0.46659 0.25098
# Poissons Ratio (y) = 0.19346 0.07774
# Poissons Ratio (z) = 0.15648 0.11691
#
# Static dielectric constant tensor:
#      x y z
#    x 1.800730 0.000000 -0.023690 
#    y 0.000000 1.907810 0.000000 
#    z -0.023690 0.000000 1.817170 
# 
# From -- ./inp_files/62933.got.cif
#   From: 2010.05.17/outbox.cif.g08.bks.cpg/sg11_32_cif.got.tgz:62933.got - 2010.06.03 12:22:45.
