data_PCOD9166408
_publ_section_title
;
Structure prediction by ZEFSAII (Michael W. Deem and Ramdas Pophale) SiO2 
 PCOD9166408
Probable space group: P 21/M
;
_chemical_formula_sum "Si O2"
_cell_formula_units_Z 28
_cell_length_a 6.508752
_cell_length_b 30.170226
_cell_length_c 8.064740
_cell_angle_alpha 90.000000
_cell_angle_beta 124.855352
_cell_angle_gamma 90.000000
_cell_volume 1299.561492
_symmetry_space_group_name_H-M "P 21/M"
_symmetry_group_IT_number 11
_symmetry_cell_setting 'monoclinic'
loop_
_space_group_symop_operation_xyz
x,y,z
-x,1/2+y,-z
-x,-y,-z
x,1/2-y,z
loop_
_atom_site_type_symbol
_atom_site_label
_atom_site_fract_x
_atom_site_fract_y
_atom_site_fract_z
Si Si1 0.483554 0.798572 0.663680
Si Si2 0.997650 0.661559 0.937105
Si Si3 0.917084 0.937134 0.005354
Si Si4 0.097962 0.047174 0.607185
Si Si5 0.537522 0.800814 0.290666
Si Si6 0.601246 0.012074 0.865917
Si Si7 0.019788 0.643571 0.556549
O O1 0.391276 0.750000 0.673941
O O2 0.516185 0.799108 0.480473
O O3 0.277255 0.834682 0.614478
O O4 0.759666 0.807278 0.864243
O O5 0.000622 0.652393 0.742655
O O6 0.270195 0.680369 0.107827
O O7 0.932867 0.614896 0.992328
O O8 0.936246 0.948284 0.210003
O O9 0.148223 0.959451 0.017471
O O10 0.674787 0.964021 0.825841
O O11 0.389973 0.043129 0.692365
O O12 0.984373 0.091224 0.477473
O O13 0.000000 0.000000 0.500000
O O14 0.575518 0.750000 0.249183
O O15 0.776596 0.832206 0.362047
O O16 0.500000 0.000000 0.000000
#
# Coordination Sequence:
#
# PCOD9166408 Si02
#       7
#     4   4   4   4   4   4   4
#     4  10  23  43  67  98 132 168 213 267 331 396
#     4  11  24  40  68  96 133 168 220 266 328 390
#     4  10  22  41  63  88 125 171 211 267 323 376
#     4  11  25  40  61  92 130 169 221 264 322 384
#     4  10  22  44  68  94 130 170 213 269 330 394
#     4   9  21  39  62  86 119 162 218 262 313 375
#     4  11  25  41  64  98 133 169 217 273 321 389
#
# _framework density 21.545731
#
# number of rings (size 3 to 8) (size 9 to 14) (size 15 to 20)
#    0.000    1.714    0.000    2.571    8.000    6.857 
#    0.000    0.000    0.000    0.000    0.000    0.000 
#    0.000    0.000    0.000    0.000    0.000    0.000 
#
# Total GULP energy -156347.046299 kJ/mol
# GULP energy per Si atom -5583.823082 kJ/mol
# Density = 2.149669 g / cm^3
# Si number density = 21.545731 Si / 1000 Ang^3
#
#
#
# Elastic Constant Matrix: (Units=GPa)
#
#
# Indices 1 2 3 4 5 6 
#
# 1 82.7321 25.9815 20.3329 0.0000 20.1586 0.0000
# 2 25.9815 139.7411 33.5342 0.0000 9.8647 0.0000
# 3 20.3329 33.5342 67.3891 0.0000 16.7689 0.0000
# 4 0.0000 0.0000 0.0000 19.8924 0.0000 9.2429
# 5 20.1586 9.8647 16.7689 0.0000 28.0705 0.0000
# 6 0.0000 0.0000 0.0000 9.2429 0.0000 38.3106
#
#
#
# Elastic Compliance Matrix: (Units=1/GPa)
#
#
# Indices 1 2 3 4 5 6 
#
# 1 0.015325 -0.001858 -0.001320 0.000000 -0.009565 0.000000
# 2 -0.001858 0.008358 -0.003758 0.000000 0.000642 0.000000
# 3 -0.001320 -0.003758 0.019432 0.000000 -0.009340 0.000000
# 4 0.000000 0.000000 0.000000 0.056617 0.000000 -0.013660
# 5 -0.009565 0.000642 -0.009340 0.000000 0.047847 0.000000
# 6 0.000000 0.000000 0.000000 -0.013660 0.000000 0.029398
#
#
# Mechanical properties :
#
#
# Convention : Reuss Voigt Hill
#
# Bulk Modulus (GPa) = 34.19500 49.95104 42.07302
# Shear Modulus (GPa) = 24.92559 31.25561 28.09060
#
# Velocity S-wave (km/s) = 3.40497 3.81289 3.61469
# Velocity P-wave (km/s) = 5.60034 6.52826 6.08202
#
# Compressibility (1/GPa) = 0.02924404
#
# Stress axis : x y z
#
# Youngs Moduli (GPa) = 65.25101 119.64504 51.46228
#
# Poissons Ratio (x) = 0.22224 0.06791
# Poissons Ratio (y) = 0.12120 0.19342
# Poissons Ratio (z) = 0.08611 0.44968
#
# Static dielectric constant tensor:
#      x y z
#    x 1.789300 0.000000 0.051070 
#    y 0.000000 1.798460 0.000000 
#    z 0.051070 0.000000 1.861590 
# 
# From -- ./inp_files/10899.got.cif
#   From: 2010.05.17/outbox.cif.g08.bks.cpg/sg11_6_cif.got.tgz:10899.got - 2010.06.03 12:22:45.
