data_PCOD9166965
_publ_section_title
;
Structure prediction by ZEFSAII (Michael W. Deem and Ramdas Pophale) SiO2 
 PCOD9166965
Probable space group: P 21/M
;
_chemical_formula_sum "Si O2"
_cell_formula_units_Z 26
_cell_length_a 9.196403
_cell_length_b 21.998838
_cell_length_c 9.678958
_cell_angle_alpha 90.000000
_cell_angle_beta 137.557442
_cell_angle_gamma 90.000000
_cell_volume 1321.460086
_symmetry_space_group_name_H-M "P 21/M"
_symmetry_group_IT_number 11
_symmetry_cell_setting 'monoclinic'
loop_
_space_group_symop_operation_xyz
x,y,z
-x,1/2+y,-z
-x,-y,-z
x,1/2-y,z
loop_
_atom_site_type_symbol
_atom_site_label
_atom_site_fract_x
_atom_site_fract_y
_atom_site_fract_z
Si Si1 0.230134 0.054889 0.024057
Si Si2 0.916004 0.644351 0.635764
Si Si3 0.554773 0.318232 0.619203
Si Si4 0.769263 0.250000 0.259609
Si Si5 0.049933 0.434378 0.597896
Si Si6 0.165623 0.921639 0.050686
Si Si7 0.623675 0.356663 0.358149
O O1 0.193068 0.059203 0.834536
O O2 0.007028 0.069487 0.947094
O O3 0.411213 0.102463 0.194690
O O4 0.282117 0.985645 0.103849
O O5 0.700656 0.671214 0.551344
O O6 0.081712 0.696906 0.710435
O O7 0.850917 0.607997 0.451590
O O8 0.031989 0.598235 0.822080
O O9 0.606310 0.250000 0.703298
O O10 0.673596 0.368330 0.794409
O O11 0.628258 0.327387 0.513215
O O12 0.640111 0.303811 0.256140
O O13 0.828141 0.400946 0.483951
O O14 0.000000 0.500000 0.500000
#
# Coordination Sequence:
#
# PCOD9166965 Si02
#       7
#     4   4   4   2   4   4   4
#     4  11  24  44  70 104 137 177 228 277 350 405
#     4  11  24  45  69  97 140 174 223 290 338 392
#     4  12  25  44  72  99 132 186 232 272 337 406
#     4  10  24  46  64  96 142 176 224 282 342 396
#     4  11  24  44  67  99 139 176 216 285 345 401
#     4  11  25  42  70 106 136 174 230 287 333 408
#     4  11  24  44  72  97 136 185 227 276 339 412
#
# _framework density 19.675205999999999
#
# number of rings (size 3 to 8) (size 9 to 14) (size 15 to 20)
#    0.000    0.923    6.154    0.000    3.231    3.692 
#    1.385    3.077    0.000    0.000    0.000    0.000 
#    0.000    0.000    0.000    0.000    0.000    0.000 
#
# Total GULP energy -144804.879046 kJ/mol
# GULP energy per Si atom -5569.418425 kJ/mol
# Density = 1.963042 g / cm^3
# Si number density = 19.675206 Si / 1000 Ang^3
#
#
#
# Elastic Constant Matrix: (Units=GPa)
#
#
# Indices 1 2 3 4 5 6 
#
# 1 74.5015 26.8628 -4.0250 0.0000 -7.4199 0.0000
# 2 26.8628 140.9668 15.1882 0.0000 3.2134 0.0000
# 3 -4.0250 15.1882 46.1727 0.0000 -7.2271 0.0000
# 4 0.0000 0.0000 0.0000 17.8720 0.0000 8.8353
# 5 -7.4199 3.2134 -7.2271 0.0000 27.8081 0.0000
# 6 0.0000 0.0000 0.0000 8.8353 0.0000 19.9464
#
#
#
# Elastic Compliance Matrix: (Units=1/GPa)
#
#
# Indices 1 2 3 4 5 6 
#
# 1 0.015361 -0.003404 0.003296 0.000000 0.005349 0.000000
# 2 -0.003404 0.008173 -0.003414 0.000000 -0.002740 0.000000
# 3 0.003296 -0.003414 0.024254 0.000000 0.007577 0.000000
# 4 0.000000 0.000000 0.000000 0.071641 0.000000 -0.031734
# 5 0.005349 -0.002740 0.007577 0.000000 0.039674 0.000000
# 6 0.000000 0.000000 0.000000 -0.031734 0.000000 0.064191
#
#
# Mechanical properties :
#
#
# Convention : Reuss Voigt Hill
#
# Bulk Modulus (GPa) = 24.54385 37.52143 31.03264
# Shear Modulus (GPa) = 20.49857 28.03298 24.26578
#
# Velocity S-wave (km/s) = 3.23127 3.77873 3.51567
# Velocity P-wave (km/s) = 5.14034 6.17659 5.68213
#
# Compressibility (1/GPa) = 0.04074340
#
# Stress axis : x y z
#
# Youngs Moduli (GPa) = 65.10103 122.35593 41.22989
#
# Poissons Ratio (x) = 0.41652 -0.13589
# Poissons Ratio (y) = 0.22162 0.14076
# Poissons Ratio (z) = -0.21457 0.41773
#
# Static dielectric constant tensor:
#      x y z
#    x 1.680610 0.000000 -0.015240 
#    y 0.000000 1.665890 0.000000 
#    z -0.015240 0.000000 1.668740 
# 
# From -- ./inp_files/14495.got.cif
#   From: 2010.05.17/outbox.cif.g08.bks.cpg/sg11_8_cif.got.tgz:14495.got - 2010.06.03 12:22:45.
