data_PCOD9166742
_publ_section_title
;
Structure prediction by ZEFSAII (Michael W. Deem and Ramdas Pophale) SiO2 
 PCOD9166742
Probable space group: P 21/M
;
_chemical_formula_sum "Si O2"
_cell_formula_units_Z 24
_cell_length_a 15.886716
_cell_length_b 17.474194
_cell_length_c 9.022934
_cell_angle_alpha 90.000000
_cell_angle_beta 149.294379
_cell_angle_gamma 90.000000
_cell_volume 1279.036892
_symmetry_space_group_name_H-M "P 21/M"
_symmetry_group_IT_number 11
_symmetry_cell_setting 'monoclinic'
loop_
_space_group_symop_operation_xyz
x,y,z
-x,1/2+y,-z
-x,-y,-z
x,1/2-y,z
loop_
_atom_site_type_symbol
_atom_site_label
_atom_site_fract_x
_atom_site_fract_y
_atom_site_fract_z
Si Si1 0.998394 0.660565 0.301642
Si Si2 0.654482 0.467186 0.820487
Si Si3 0.850367 0.529113 0.870274
Si Si4 0.633232 0.561755 0.262785
Si Si5 0.861683 0.563582 0.336596
Si Si6 0.359764 0.839344 0.957020
O O1 0.978938 0.750000 0.237384
O O2 0.193413 0.641700 0.612273
O O3 0.924666 0.639999 0.352320
O O4 0.907686 0.604724 0.047888
O O5 0.500000 0.500000 0.500000
O O6 0.797470 0.466987 0.913209
O O7 0.702634 0.532730 0.009415
O O8 0.640630 0.390316 0.894238
O O9 0.702044 0.542710 0.530363
O O10 0.000000 0.500000 0.000000
O O11 0.793188 0.568054 0.398748
O O12 0.500000 0.500000 0.000000
O O13 0.522315 0.637544 0.112211
O O14 0.000000 0.500000 0.500000
O O15 0.354629 0.750000 0.983136
#
# Coordination Sequence:
#
# PCOD9166742 Si02
#       6
#     4   4   4   4   4   4
#     4  10  23  42  61  86 127 167 206 260 315 364
#     4  11  20  39  59  89 120 162 202 251 304 370
#     4  11  23  36  64  94 121 158 211 258 305 369
#     4  12  21  38  64  94 124 157 207 256 307 374
#     4  11  20  37  66  90 118 161 214 247 304 376
#     4  11  23  40  62  89 126 166 206 257 317 366
#
# _framework density 18.764118
#
# number of rings (size 3 to 8) (size 9 to 14) (size 15 to 20)
#    0.000    1.000    5.000    3.000    0.000    1.333 
#    0.000    0.833    0.000    3.000    0.000    0.000 
#    0.000    0.000    0.000    0.000    0.000    0.000 
#
# Total GULP energy -133811.886360 kJ/mol
# GULP energy per Si atom -5575.495265 kJ/mol
# Density = 1.872141 g / cm^3
# Si number density = 18.764118 Si / 1000 Ang^3
#
#
#
# Elastic Constant Matrix: (Units=GPa)
#
#
# Indices 1 2 3 4 5 6 
#
# 1 134.5808 28.1792 23.6166 0.0000 9.1621 0.0000
# 2 28.1792 80.2856 39.3573 0.0000 0.9626 0.0000
# 3 23.6166 39.3573 115.1402 0.0000 -10.1667 0.0000
# 4 0.0000 0.0000 0.0000 25.5716 0.0000 1.5512
# 5 9.1621 0.9626 -10.1667 0.0000 33.2932 0.0000
# 6 0.0000 0.0000 0.0000 1.5512 0.0000 25.8117
#
#
#
# Elastic Compliance Matrix: (Units=1/GPa)
#
#
# Indices 1 2 3 4 5 6 
#
# 1 0.008290 -0.002324 -0.001132 0.000000 -0.002560 0.000000
# 2 -0.002324 0.015752 -0.005027 0.000000 -0.001351 0.000000
# 3 -0.001132 -0.005027 0.010972 0.000000 0.003807 0.000000
# 4 0.000000 0.000000 0.000000 0.039249 0.000000 -0.002359
# 5 -0.002560 -0.001351 0.003807 0.000000 0.031942 0.000000
# 6 0.000000 0.000000 0.000000 -0.002359 0.000000 0.038884
#
#
# Mechanical properties :
#
#
# Convention : Reuss Voigt Hill
#
# Bulk Modulus (GPa) = 55.40907 56.92368 56.16637
# Shear Modulus (GPa) = 29.74948 32.85887 31.30417
#
# Velocity S-wave (km/s) = 3.98608 4.18922 4.08891
# Velocity P-wave (km/s) = 7.12591 7.33497 7.23119
#
# Compressibility (1/GPa) = 0.01804759
#
# Stress axis : x y z
#
# Youngs Moduli (GPa) = 120.62695 63.48527 91.14359
#
# Poissons Ratio (x) = 0.14754 0.10317
# Poissons Ratio (y) = 0.28035 0.45816
# Poissons Ratio (z) = 0.13655 0.31913
#
# Static dielectric constant tensor:
#      x y z
#    x 1.703220 0.000000 0.018610 
#    y 0.000000 1.629260 0.000000 
#    z 0.018610 0.000000 1.734360 
# 
# From -- ./inp_files/22836.got.cif
#   From: 2010.05.17/outbox.cif.g08.bks.cpg/sg11_12_cif.got.tgz:22836.got - 2010.06.03 12:22:45.
