data_PCOD9166321
_publ_section_title
;
Structure prediction by ZEFSAII (Michael W. Deem and Ramdas Pophale) SiO2 
 PCOD9166321
Probable space group: P 21/M
;
_chemical_formula_sum "Si O2"
_cell_formula_units_Z 24
_cell_length_a 7.061934
_cell_length_b 21.708701
_cell_length_c 7.396646
_cell_angle_alpha 90.000000
_cell_angle_beta 71.796291
_cell_angle_gamma 90.000000
_cell_volume 1077.193960
_symmetry_space_group_name_H-M "P 21/M"
_symmetry_group_IT_number 11
_symmetry_cell_setting 'monoclinic'
loop_
_space_group_symop_operation_xyz
x,y,z
-x,1/2+y,-z
-x,-y,-z
x,1/2-y,z
loop_
_atom_site_type_symbol
_atom_site_label
_atom_site_fract_x
_atom_site_fract_y
_atom_site_fract_z
Si Si1 0.908228 0.821051 0.318661
Si Si2 0.313892 0.103671 0.895489
Si Si3 0.684610 0.025459 0.647259
Si Si4 0.388969 0.582808 0.691597
Si Si5 0.095199 0.935118 0.106134
Si Si6 0.339483 0.321789 0.258470
O O1 0.952899 0.750000 0.268981
O O2 0.724791 0.844694 0.247166
O O3 0.841861 0.828049 0.545592
O O4 0.081552 0.867485 0.206846
O O5 0.509315 0.064076 0.799820
O O6 0.313377 0.136707 0.088346
O O7 0.120952 0.060193 0.921520
O O8 0.727310 0.063882 0.453964
O O9 0.411943 0.039960 0.374394
O O10 0.858978 0.020445 0.740442
O O11 0.261098 0.566835 0.904524
O O12 0.467393 0.651734 0.694004
O O13 0.360231 0.250000 0.205911
#
# Coordination Sequence:
#
# PCOD9166321 Si02
#       6
#     4   4   4   4   4   4
#     4   9  21  41  59  89 128 162 208 255 308 376
#     4  10  22  40  63  91 126 167 205 254 323 366
#     4  11  23  44  63  92 135 162 209 266 310 381
#     4  11  23  42  65  96 125 167 216 258 314 377
#     4  10  23  38  65  91 123 162 210 254 313 365
#     4  11  22  41  66  90 126 169 209 261 320 376
#
# _framework density 22.280107000000001
#
# number of rings (size 3 to 8) (size 9 to 14) (size 15 to 20)
#    1.000    0.667    3.333    1.000    2.333    1.333 
#    0.000    3.333    0.000    0.000    0.000    0.000 
#    0.000    0.000    0.000    0.000    0.000    0.000 
#
# Total GULP energy -134087.479707 kJ/mol
# GULP energy per Si atom -5586.978321 kJ/mol
# Density = 2.222940 g / cm^3
# Si number density = 22.280107 Si / 1000 Ang^3
#
#
#
# Elastic Constant Matrix: (Units=GPa)
#
#
# Indices 1 2 3 4 5 6 
#
# 1 59.0721 21.2708 24.5550 0.0000 21.7949 0.0000
# 2 21.2708 72.4491 15.7587 0.0000 3.8329 0.0000
# 3 24.5550 15.7587 106.2063 0.0000 31.3849 0.0000
# 4 0.0000 0.0000 0.0000 34.2896 0.0000 0.1429
# 5 21.7949 3.8329 31.3849 0.0000 26.2244 0.0000
# 6 0.0000 0.0000 0.0000 0.1429 0.0000 19.4552
#
#
#
# Elastic Compliance Matrix: (Units=1/GPa)
#
#
# Indices 1 2 3 4 5 6 
#
# 1 0.027680 -0.007242 0.001795 0.000000 -0.024094 0.000000
# 2 -0.007242 0.016166 -0.002792 0.000000 0.006998 0.000000
# 3 0.001795 -0.002792 0.015062 0.000000 -0.019110 0.000000
# 4 0.000000 0.000000 0.000000 0.029164 0.000000 -0.000214
# 5 -0.024094 0.006998 -0.019110 0.000000 0.080004 0.000000
# 6 0.000000 0.000000 0.000000 -0.000214 0.000000 0.051402
#
#
# Mechanical properties :
#
#
# Convention : Reuss Voigt Hill
#
# Bulk Modulus (GPa) = 23.56885 40.09962 31.83423
# Shear Modulus (GPa) = 19.99196 27.73672 23.86434
#
# Velocity S-wave (km/s) = 2.99875 3.53216 3.27633
# Velocity P-wave (km/s) = 4.75304 5.88828 5.35085
#
# Compressibility (1/GPa) = 0.04242888
#
# Stress axis : x y z
#
# Youngs Moduli (GPa) = 36.12739 61.85716 66.39227
#
# Poissons Ratio (x) = 0.44800 -0.11918
# Poissons Ratio (y) = 0.26165 0.18538
# Poissons Ratio (z) = -0.06485 0.17272
#
# Static dielectric constant tensor:
#      x y z
#    x 1.869300 0.000000 0.020390 
#    y 0.000000 1.819610 0.000000 
#    z 0.020390 0.000000 1.811400 
# 
# From -- ./inp_files/14601.got.cif
#   From: 2010.05.17/outbox.cif.g08.bks.cpg/sg11_8_cif.got.tgz:14601.got - 2010.06.03 12:22:45.
