data_PCOD9166763
_publ_section_title
;
Structure prediction by ZEFSAII (Michael W. Deem and Ramdas Pophale) SiO2 
 PCOD9166763
Probable space group: P 21/M
;
_chemical_formula_sum "Si O2"
_cell_formula_units_Z 24
_cell_length_a 12.256337
_cell_length_b 22.464392
_cell_length_c 9.601762
_cell_angle_alpha 90.000000
_cell_angle_beta 24.121407
_cell_angle_gamma 90.000000
_cell_volume 1080.390205
_symmetry_space_group_name_H-M "P 21/M"
_symmetry_group_IT_number 11
_symmetry_cell_setting 'monoclinic'
loop_
_space_group_symop_operation_xyz
x,y,z
-x,1/2+y,-z
-x,-y,-z
x,1/2-y,z
loop_
_atom_site_type_symbol
_atom_site_label
_atom_site_fract_x
_atom_site_fract_y
_atom_site_fract_z
Si Si1 0.178425 0.865757 0.017501
Si Si2 0.874137 0.969214 0.511362
Si Si3 0.076282 0.686584 0.424887
Si Si4 0.581381 0.814778 0.191615
Si Si5 0.616515 0.411690 0.758672
Si Si6 0.763568 0.819992 0.285174
O O1 0.080793 0.930599 0.181648
O O2 0.081833 0.822971 0.254680
O O3 0.021035 0.846067 0.062498
O O4 0.495013 0.855807 0.639347
O O5 0.747796 0.024446 0.575668
O O6 0.644248 0.927558 0.844988
O O7 0.000000 0.000000 0.500000
O O8 0.209127 0.750000 0.306070
O O9 0.212179 0.630987 0.341275
O O10 0.780440 0.689315 0.829710
O O11 0.439394 0.750000 0.372618
O O12 0.422539 0.873712 0.336168
O O13 0.758600 0.822622 0.123283
O O14 0.734219 0.750000 0.356836
#
# Coordination Sequence:
#
# PCOD9166763 Si02
#       6
#     4   4   4   4   4   4
#     4  12  24  44  67 102 134 177 227 276 338 401
#     4  11  23  40  66  97 133 175 224 286 340 383
#     4  11  22  38  68 101 129 166 229 286 329 398
#     4  10  23  42  66  97 134 178 221 275 342 405
#     4  11  21  40  67  96 131 172 229 278 338 394
#     4  11  26  45  67  98 144 182 215 276 351 411
#
# _framework density 22.214196999999999
#
# number of rings (size 3 to 8) (size 9 to 14) (size 15 to 20)
#    0.000    1.000    3.333    3.000    4.667    0.000 
#    0.000    1.667    0.000    0.000    0.000    0.000 
#    0.000    0.000    0.000    0.000    0.000    0.000 
#
# Total GULP energy -134136.522744 kJ/mol
# GULP energy per Si atom -5589.021781 kJ/mol
# Density = 2.216364 g / cm^3
# Si number density = 22.214197 Si / 1000 Ang^3
#
#
#
# Elastic Constant Matrix: (Units=GPa)
#
#
# Indices 1 2 3 4 5 6 
#
# 1 72.9781 23.4911 -17.2459 0.0000 3.4406 0.0000
# 2 23.4911 146.2191 7.3961 0.0000 -10.5856 0.0000
# 3 -17.2459 7.3961 44.1968 0.0000 -1.1801 0.0000
# 4 0.0000 0.0000 0.0000 20.5302 0.0000 -7.8177
# 5 3.4406 -10.5856 -1.1801 0.0000 29.0574 0.0000
# 6 0.0000 0.0000 0.0000 -7.8177 0.0000 37.2271
#
#
#
# Elastic Compliance Matrix: (Units=1/GPa)
#
#
# Indices 1 2 3 4 5 6 
#
# 1 0.016499 -0.003205 0.006898 0.000000 -0.002841 0.000000
# 2 -0.003205 0.007702 -0.002457 0.000000 0.003085 0.000000
# 3 0.006898 -0.002457 0.025711 0.000000 -0.000668 0.000000
# 4 0.000000 0.000000 0.000000 0.052942 0.000000 0.011118
# 5 -0.002841 0.003085 -0.000668 0.000000 0.035848 0.000000
# 6 0.000000 0.000000 0.000000 0.011118 0.000000 0.029197
#
#
# Mechanical properties :
#
#
# Convention : Reuss Voigt Hill
#
# Bulk Modulus (GPa) = 19.08996 32.29739 25.69367
# Shear Modulus (GPa) = 27.33919 34.01313 30.67616
#
# Velocity S-wave (km/s) = 3.51195 3.91723 3.72011
# Velocity P-wave (km/s) = 5.00573 5.91863 5.48122
#
# Compressibility (1/GPa) = 0.05238357
#
# Stress axis : x y z
#
# Youngs Moduli (GPa) = 60.61113 129.84229 38.89350
#
# Poissons Ratio (x) = 0.41617 -0.26830
# Poissons Ratio (y) = 0.19427 0.09557
# Poissons Ratio (z) = -0.41812 0.31904
#
# Static dielectric constant tensor:
#      x y z
#    x 1.837090 0.000000 -0.036190 
#    y 0.000000 1.866920 0.000000 
#    z -0.036190 0.000000 1.844870 
# 
# From -- ./inp_files/19679.got.cif
#   From: 2010.05.17/outbox.cif.g08.bks.cpg/sg11_10_cif.got.tgz:19679.got - 2010.06.03 12:22:45.
