data_PCOD9166735
_publ_section_title
;
Structure prediction by ZEFSAII (Michael W. Deem and Ramdas Pophale) SiO2 
 PCOD9166735
Probable space group: P 21/M
;
_chemical_formula_sum "Si O2"
_cell_formula_units_Z 30
_cell_length_a 12.578350
_cell_length_b 15.321225
_cell_length_c 8.214541
_cell_angle_alpha 90.000000
_cell_angle_beta 74.102908
_cell_angle_gamma 90.000000
_cell_volume 1522.527046
_symmetry_space_group_name_H-M "P 21/M"
_symmetry_group_IT_number 11
_symmetry_cell_setting 'monoclinic'
loop_
_space_group_symop_operation_xyz
x,y,z
-x,1/2+y,-z
-x,-y,-z
x,1/2-y,z
loop_
_atom_site_type_symbol
_atom_site_label
_atom_site_fract_x
_atom_site_fract_y
_atom_site_fract_z
Si Si1 0.384813 0.001960 0.146093
Si Si2 0.966386 0.432130 0.651403
Si Si3 0.727662 0.353171 0.240968
Si Si4 0.827524 0.998094 0.990252
Si Si5 0.149106 0.343449 0.768001
Si Si6 0.739021 0.148820 0.624302
Si Si7 0.489424 0.087035 0.394535
Si Si8 0.370908 0.250000 0.584258
O O1 0.282785 0.021724 0.069602
O O2 0.351240 0.911246 0.248098
O O3 0.401046 0.069404 0.288311
O O4 0.500000 0.000000 0.000000
O O5 0.927307 0.485696 0.825652
O O6 0.858815 0.377650 0.643262
O O7 0.000000 0.500000 0.500000
O O8 0.069198 0.372234 0.656442
O O9 0.736270 0.250000 0.201161
O O10 0.742922 0.366281 0.428481
O O11 0.605479 0.390806 0.259626
O O12 0.807722 0.413445 0.101298
O O13 0.848385 0.918465 0.100691
O O14 0.108734 0.250000 0.852784
O O15 0.273232 0.324525 0.656277
O O16 0.715821 0.250000 0.663844
O O17 0.460065 0.172174 0.510010
O O18 0.500000 0.000000 0.500000
#
# Coordination Sequence:
#
# PCOD9166735 Si02
#       8
#     4   4   4   4   4   4   4   2
#     4  11  24  39  61  95 131 176 210 274 327 393
#     4  11  24  44  70  94 128 174 225 277 342 389
#     4  11  22  40  67  97 129 169 220 264 328 397
#     4  11  24  43  66  96 135 167 221 274 337 393
#     4  10  24  43  66  95 131 178 222 271 337 389
#     4  10  23  41  65  96 127 169 223 273 323 390
#     4  12  22  42  68  94 135 178 222 261 327 400
#     4  10  26  40  70  98 132 178 226 272 328 386
#
# _framework density 19.704082
#
# number of rings (size 3 to 8) (size 9 to 14) (size 15 to 20)
#    0.400    0.800    3.333    2.400    3.733    2.667 
#    2.400    2.667    0.000    0.000    0.000    0.000 
#    0.000    0.000    0.000    0.000    0.000    0.000 
#
# Total GULP energy -167059.201407 kJ/mol
# GULP energy per Si atom -5568.640047 kJ/mol
# Density = 1.965923 g / cm^3
# Si number density = 19.704082 Si / 1000 Ang^3
#
#
#
# Elastic Constant Matrix: (Units=GPa)
#
#
# Indices 1 2 3 4 5 6 
#
# 1 41.4910 32.4439 27.0649 0.0000 10.0704 0.0000
# 2 32.4439 151.9360 66.9137 0.0000 6.0438 0.0000
# 3 27.0649 66.9137 91.6349 0.0000 -12.2635 0.0000
# 4 0.0000 0.0000 0.0000 16.4032 0.0000 -2.4981
# 5 10.0704 6.0438 -12.2635 0.0000 39.1340 0.0000
# 6 0.0000 0.0000 0.0000 -2.4981 0.0000 33.4121
#
#
#
# Elastic Compliance Matrix: (Units=1/GPa)
#
#
# Indices 1 2 3 4 5 6 
#
# 1 0.035763 -0.002654 -0.010231 0.000000 -0.011999 0.000000
# 2 -0.002654 0.010498 -0.007315 0.000000 -0.003231 0.000000
# 3 -0.010231 -0.007315 0.020645 0.000000 0.010232 0.000000
# 4 0.000000 0.000000 0.000000 0.061666 0.000000 0.004610
# 5 -0.011999 -0.003231 0.010232 0.000000 0.032346 0.000000
# 6 0.000000 0.000000 0.000000 0.004610 0.000000 0.030274
#
#
# Mechanical properties :
#
#
# Convention : Reuss Voigt Hill
#
# Bulk Modulus (GPa) = 37.72448 59.76744 48.74596
# Shear Modulus (GPa) = 20.79638 28.36583 24.58110
#
# Velocity S-wave (km/s) = 3.25227 3.79831 3.53585
# Velocity P-wave (km/s) = 5.76976 7.04518 6.43913
#
# Compressibility (1/GPa) = 0.02650799
#
# Stress axis : x y z
#
# Youngs Moduli (GPa) = 27.96217 95.25339 48.43713
#
# Poissons Ratio (x) = 0.25276 0.49555
# Poissons Ratio (y) = 0.07420 0.35430
# Poissons Ratio (z) = 0.28608 0.69675
#
# Static dielectric constant tensor:
#      x y z
#    x 1.752450 0.000000 0.004800 
#    y 0.000000 1.670880 0.000000 
#    z 0.004800 0.000000 1.694820 
# 
# From -- ./inp_files/17990.got.cif
#   From: 2010.05.17/outbox.cif.g08.bks.cpg/sg11_9_cif.got.tgz:17990.got - 2010.06.03 12:22:45.
