data_PCOD9166611
_publ_section_title
;
Structure prediction by ZEFSAII (Michael W. Deem and Ramdas Pophale) SiO2 
 PCOD9166611
Probable space group: P 21/M
;
_chemical_formula_sum "Si O2"
_cell_formula_units_Z 32
_cell_length_a 9.459514
_cell_length_b 29.270686
_cell_length_c 11.934331
_cell_angle_alpha 90.000000
_cell_angle_beta 28.772572
_cell_angle_gamma 90.000000
_cell_volume 1590.546811
_symmetry_space_group_name_H-M "P 21/M"
_symmetry_group_IT_number 11
_symmetry_cell_setting 'monoclinic'
loop_
_space_group_symop_operation_xyz
x,y,z
-x,1/2+y,-z
-x,-y,-z
x,1/2-y,z
loop_
_atom_site_type_symbol
_atom_site_label
_atom_site_fract_x
_atom_site_fract_y
_atom_site_fract_z
Si Si1 0.977912 0.555134 0.525728
Si Si2 0.523391 0.582988 0.461238
Si Si3 0.926870 0.474199 0.935631
Si Si4 0.768148 0.302685 0.700421
Si Si5 0.476425 0.117305 0.780855
Si Si6 0.892035 0.557941 0.830067
Si Si7 0.525363 0.696125 0.847034
Si Si8 0.491821 0.108314 0.285563
O O1 0.288138 0.579412 0.337823
O O2 0.807251 0.562681 0.760971
O O3 0.000000 0.500000 0.500000
O O4 0.814065 0.584950 0.545104
O O5 0.593710 0.610903 0.300117
O O6 0.236387 0.555307 0.620773
O O7 0.498101 0.614052 0.587947
O O8 0.772435 0.546604 0.318101
O O9 0.773649 0.510855 0.962262
O O10 0.721631 0.431541 0.100122
O O11 0.000000 0.500000 0.000000
O O12 0.697150 0.250000 0.732643
O O13 0.603888 0.334835 0.727390
O O14 0.117640 0.307435 0.425671
O O15 0.630594 0.313087 0.921754
O O16 0.193854 0.103744 0.047003
O O17 0.455493 0.750000 0.871136
O O18 0.425292 0.654716 0.836244
#
# Coordination Sequence:
#
# PCOD9166611 Si02
#       8
#     4   4   4   4   4   4   4   4
#     4  11  24  36  57  93 126 161 211 275 323 384
#     4  11  24  39  60  88 130 174 221 263 324 394
#     4  12  23  39  59  88 125 181 222 260 326 397
#     4  10  22  43  71 100 132 169 214 271 341 406
#     4  11  22  40  62  91 125 165 214 267 326 387
#     4  11  23  40  60  83 128 171 218 268 319 389
#     4  10  23  44  70 102 133 168 216 277 339 400
#     4  12  24  39  64  95 128 173 218 272 335 395
#
# _framework density 20.118867000000002
#
# number of rings (size 3 to 8) (size 9 to 14) (size 15 to 20)
#    0.000    1.000    3.750    2.625    5.250    4.000 
#    0.000    0.625    0.000    3.000    0.000    0.000 
#    0.000    0.000    0.000    0.000    0.000    0.000 
#
# Total GULP energy -178338.763407 kJ/mol
# GULP energy per Si atom -5573.086356 kJ/mol
# Density = 2.007308 g / cm^3
# Si number density = 20.118867 Si / 1000 Ang^3
#
#
#
# Elastic Constant Matrix: (Units=GPa)
#
#
# Indices 1 2 3 4 5 6 
#
# 1 89.2194 21.9785 6.4653 0.0000 18.5790 0.0000
# 2 21.9785 65.7875 -1.7223 0.0000 7.7604 0.0000
# 3 6.4653 -1.7223 44.4423 0.0000 5.2136 0.0000
# 4 0.0000 0.0000 0.0000 16.8929 0.0000 -0.6984
# 5 18.5790 7.7604 5.2136 0.0000 34.3589 0.0000
# 6 0.0000 0.0000 0.0000 -0.6984 0.0000 36.5202
#
#
#
# Elastic Compliance Matrix: (Units=1/GPa)
#
#
# Indices 1 2 3 4 5 6 
#
# 1 0.013554 -0.003827 -0.001386 0.000000 -0.006254 0.000000
# 2 -0.003827 0.016744 0.001432 0.000000 -0.001930 0.000000
# 3 -0.001386 0.001432 0.023120 0.000000 -0.003082 0.000000
# 4 0.000000 0.000000 0.000000 0.059243 0.000000 0.001133
# 5 -0.006254 -0.001930 -0.003082 0.000000 0.033390 0.000000
# 6 0.000000 0.000000 0.000000 0.001133 0.000000 0.027404
#
#
# Mechanical properties :
#
#
# Convention : Reuss Voigt Hill
#
# Bulk Modulus (GPa) = 21.80753 28.09913 24.95333
# Shear Modulus (GPa) = 25.47097 29.06958 27.27027
#
# Velocity S-wave (km/s) = 3.56198 3.80530 3.68565
# Velocity P-wave (km/s) = 5.27066 5.77095 5.52647
#
# Compressibility (1/GPa) = 0.04585573
#
# Stress axis : x y z
#
# Youngs Moduli (GPa) = 73.77979 59.72283 43.25289
#
# Poissons Ratio (x) = 0.22854 0.05996
# Poissons Ratio (y) = 0.28233 -0.06194
# Poissons Ratio (z) = 0.10228 -0.08552
#
# Static dielectric constant tensor:
#      x y z
#    x 1.695430 0.000000 0.017320 
#    y 0.000000 1.696780 0.000000 
#    z 0.017320 0.000000 1.881540 
# 
# From -- ./inp_files/33202.got.cif
#   From: 2010.05.17/outbox.cif.g08.bks.cpg/sg11_17_cif.got.tgz:33202.got - 2010.06.03 12:22:45.
