data_PCOD9166895
_publ_section_title
;
Structure prediction by ZEFSAII (Michael W. Deem and Ramdas Pophale) SiO2 
 PCOD9166895
Probable space group: P 21/M
;
_chemical_formula_sum "Si O2"
_cell_formula_units_Z 18
_cell_length_a 11.851561
_cell_length_b 10.374742
_cell_length_c 8.025913
_cell_angle_alpha 90.000000
_cell_angle_beta 102.633634
_cell_angle_gamma 90.000000
_cell_volume 962.948413
_symmetry_space_group_name_H-M "P 21/M"
_symmetry_group_IT_number 11
_symmetry_cell_setting 'monoclinic'
loop_
_space_group_symop_operation_xyz
x,y,z
-x,1/2+y,-z
-x,-y,-z
x,1/2-y,z
loop_
_atom_site_type_symbol
_atom_site_label
_atom_site_fract_x
_atom_site_fract_y
_atom_site_fract_z
Si Si1 0.455228 0.398816 0.617225
Si Si2 0.657584 0.394042 0.940227
Si Si3 0.892186 0.250000 0.305833
Si Si4 0.052428 0.250000 0.671544
Si Si5 0.862669 0.250000 0.901203
Si Si6 0.232759 0.021033 0.726433
O O1 0.500000 0.500000 0.500000
O O2 0.465936 0.250000 0.567053
O O3 0.542113 0.415734 0.801295
O O4 0.323491 0.429979 0.620226
O O5 0.645787 0.250000 0.017751
O O6 0.772277 0.370015 0.863702
O O7 0.691165 0.500950 0.082533
O O8 0.912123 0.250000 0.109215
O O9 0.821796 0.380547 0.322953
O O10 0.998845 0.250000 0.468125
O O11 0.131998 0.124180 0.717324
O O12 0.954590 0.250000 0.784025
#
# Coordination Sequence:
#
# PCOD9166895 Si02
#       6
#     4   4   2   2   2   4
#     4  11  24  41  64  96 126 161 212 266 323 385
#     4   8  19  41  65  87 122 168 206 254 317 399
#     4  10  24  42  63  90 127 186 206 255 326 388
#     4  12  24  39  66  94 132 163 217 285 292 373
#     4   8  20  41  63  88 121 173 217 236 332 375
#     4  11  22  43  61  94 125 164 218 261 324 374
#
# _framework density 18.692589999999999
#
# number of rings (size 3 to 8) (size 9 to 14) (size 15 to 20)
#    0.667    1.333    2.222    1.333    4.667    3.556 
#    6.000    0.000    0.000    0.000    0.000    0.000 
#    0.000    0.000    0.000    0.000    0.000    0.000 
#
# Total GULP energy -100249.397259 kJ/mol
# GULP energy per Si atom -5569.410959 kJ/mol
# Density = 1.865004 g / cm^3
# Si number density = 18.692590 Si / 1000 Ang^3
#
#
#
# Elastic Constant Matrix: (Units=GPa)
#
#
# Indices 1 2 3 4 5 6 
#
# 1 107.9186 44.4873 26.5287 0.0000 -17.9880 0.0000
# 2 44.4873 116.6615 22.1490 0.0000 7.2109 0.0000
# 3 26.5287 22.1490 35.6482 0.0000 11.8751 0.0000
# 4 0.0000 0.0000 0.0000 26.5017 0.0000 8.6340
# 5 -17.9880 7.2109 11.8751 0.0000 29.4650 0.0000
# 6 0.0000 0.0000 0.0000 8.6340 0.0000 33.3166
#
#
#
# Elastic Compliance Matrix: (Units=1/GPa)
#
#
# Indices 1 2 3 4 5 6 
#
# 1 0.019069 -0.005157 -0.017655 0.000000 0.020019 0.000000
# 2 -0.005157 0.011113 -0.001285 0.000000 -0.005350 0.000000
# 3 -0.017655 -0.001285 0.052526 0.000000 -0.031633 0.000000
# 4 0.000000 0.000000 0.000000 0.041213 0.000000 -0.010680
# 5 0.020019 -0.005350 -0.031633 0.000000 0.060218 0.000000
# 6 0.000000 0.000000 0.000000 -0.010680 0.000000 0.032783
#
#
# Mechanical properties :
#
#
# Convention : Reuss Voigt Hill
#
# Bulk Modulus (GPa) = 28.97342 49.61757 39.29549
# Shear Modulus (GPa) = 18.07528 28.99421 23.53474
#
# Velocity S-wave (km/s) = 3.11300 3.94268 3.55215
# Velocity P-wave (km/s) = 5.33428 6.87953 6.15559
#
# Compressibility (1/GPa) = 0.03451440
#
# Stress axis : x y z
#
# Youngs Moduli (GPa) = 52.44128 89.98459 19.03808
#
# Poissons Ratio (x) = 0.46406 0.33612
# Poissons Ratio (y) = 0.27045 0.02446
# Poissons Ratio (z) = 0.92586 0.11560
#
# Static dielectric constant tensor:
#      x y z
#    x 1.658050 0.000000 0.002700 
#    y 0.000000 1.635560 0.000000 
#    z 0.002700 0.000000 1.674070 
# 
# From -- ./inp_files/16094.got.cif
#   From: 2010.05.17/outbox.cif.g08.bks.cpg/sg11_9_cif.got.tgz:16094.got - 2010.06.03 12:22:45.
