data_PCOD9166346
_publ_section_title
;
Structure prediction by ZEFSAII (Michael W. Deem and Ramdas Pophale) SiO2 
 PCOD9166346
Probable space group: P 21/M
;
_chemical_formula_sum "Si O2"
_cell_formula_units_Z 28
_cell_length_a 5.491415
_cell_length_b 9.902623
_cell_length_c 29.617032
_cell_angle_alpha 90.000000
_cell_angle_beta 51.184481
_cell_angle_gamma 90.000000
_cell_volume 1254.894668
_symmetry_space_group_name_H-M "P 21/M"
_symmetry_group_IT_number 11
_symmetry_cell_setting 'monoclinic'
loop_
_space_group_symop_operation_xyz
x,y,z
-x,1/2+y,-z
-x,-y,-z
x,1/2-y,z
loop_
_atom_site_type_symbol
_atom_site_label
_atom_site_fract_x
_atom_site_fract_y
_atom_site_fract_z
Si Si1 0.894879 0.402692 0.722137
Si Si2 0.998400 0.901710 0.784781
Si Si3 0.813294 0.250000 0.510111
Si Si4 0.685143 0.599231 0.669841
Si Si5 0.947546 0.408301 0.871631
Si Si6 0.510848 0.481658 0.604552
Si Si7 0.200604 0.092938 0.943806
Si Si8 0.436429 0.750000 0.562916
O O1 0.787997 0.250000 0.740139
O O2 0.813822 0.491105 0.775495
O O3 0.757177 0.481932 0.696095
O O4 0.260921 0.403574 0.665002
O O5 0.866507 0.750000 0.806620
O O6 0.311567 0.884913 0.719115
O O7 0.073617 0.980078 0.822092
O O8 0.667602 0.381121 0.551552
O O9 0.695524 0.250000 0.472257
O O10 0.182742 0.250000 0.477872
O O11 0.805706 0.750000 0.665415
O O12 0.750658 0.549263 0.611834
O O13 0.011221 0.250000 0.851840
O O14 0.570064 0.426161 0.911084
O O15 0.089784 0.431095 0.904917
O O16 0.355032 0.608826 0.597316
O O17 0.131642 0.250000 0.961091
O O18 0.000000 0.000000 0.000000
#
# Coordination Sequence:
#
# PCOD9166346 Si02
#       8
#     4   4   2   4   4   4   4   2
#     4  11  24  40  67  95 128 170 217 271 326 408
#     4  10  23  42  62  97 130 171 223 273 341 396
#     4  12  28  46  68 100 134 164 224 266 325 396
#     4  10  23  41  66  93 128 170 218 270 326 405
#     4  10  22  40  64  95 139 177 224 284 337 395
#     4  11  25  43  66  95 129 171 218 263 333 393
#     4  10  22  40  64  95 132 181 233 282 334 392
#     4  12  28  46  70  96 132 176 208 276 327 386
#
# _framework density 22.312629999999999
#
# number of rings (size 3 to 8) (size 9 to 14) (size 15 to 20)
#    0.000    1.429    1.429    2.143    9.000    2.286 
#    0.000    0.000    0.000    0.000    0.000    0.000 
#    0.000    0.000    0.000    0.000    0.000    0.000 
#
# Total GULP energy -156404.596257 kJ/mol
# GULP energy per Si atom -5585.878438 kJ/mol
# Density = 2.226185 g / cm^3
# Si number density = 22.312630 Si / 1000 Ang^3
#
#
#
# Elastic Constant Matrix: (Units=GPa)
#
#
# Indices 1 2 3 4 5 6 
#
# 1 113.1538 49.6209 31.0043 0.0000 23.1294 0.0000
# 2 49.6209 191.7606 60.6008 0.0000 27.0200 0.0000
# 3 31.0043 60.6008 70.5952 0.0000 26.9241 0.0000
# 4 0.0000 0.0000 0.0000 35.5603 0.0000 6.2540
# 5 23.1294 27.0200 26.9241 0.0000 36.4680 0.0000
# 6 0.0000 0.0000 0.0000 6.2540 0.0000 27.8000
#
#
#
# Elastic Compliance Matrix: (Units=1/GPa)
#
#
# Indices 1 2 3 4 5 6 
#
# 1 0.010942 -0.001676 -0.001661 0.000000 -0.004471 0.000000
# 2 -0.001676 0.007443 -0.005506 0.000000 -0.000387 0.000000
# 3 -0.001661 -0.005506 0.024586 0.000000 -0.013019 0.000000
# 4 0.000000 0.000000 0.000000 0.029280 0.000000 -0.006587
# 5 -0.004471 -0.000387 -0.013019 0.000000 0.040156 0.000000
# 6 0.000000 0.000000 0.000000 -0.006587 0.000000 0.037453
#
#
# Mechanical properties :
#
#
# Convention : Reuss Voigt Hill
#
# Bulk Modulus (GPa) = 39.54923 73.10683 56.32803
# Shear Modulus (GPa) = 28.41331 35.58455 31.99893
#
# Velocity S-wave (km/s) = 3.57237 3.99785 3.79108
# Velocity P-wave (km/s) = 5.89740 7.35842 6.66804
#
# Compressibility (1/GPa) = 0.02528494
#
# Stress axis : x y z
#
# Youngs Moduli (GPa) = 91.39300 134.35447 40.67311
#
# Poissons Ratio (x) = 0.22523 0.06756
# Poissons Ratio (y) = 0.15321 0.22393
# Poissons Ratio (z) = 0.15182 0.73969
#
# Static dielectric constant tensor:
#      x y z
#    x 1.926970 0.000000 -0.059990 
#    y 0.000000 1.848120 0.000000 
#    z -0.059990 0.000000 1.827370 
# 
# From -- ./inp_files/72542.got.cif
#   From: 2010.05.17/outbox.cif.g08.bks.cpg/sg11_37_cif.got.tgz:72542.got - 2010.06.03 12:22:45.
