data_PCOD9166092
_publ_section_title
;
Structure prediction by ZEFSAII (Michael W. Deem and Ramdas Pophale) SiO2 
 PCOD9166092
Probable space group: P 21/M
;
_chemical_formula_sum "Si O2"
_cell_formula_units_Z 32
_cell_length_a 24.685907
_cell_length_b 7.644867
_cell_length_c 19.887969
_cell_angle_alpha 90.000000
_cell_angle_beta 22.231410
_cell_angle_gamma 90.000000
_cell_volume 1420.042177
_symmetry_space_group_name_H-M "P 21/M"
_symmetry_group_IT_number 11
_symmetry_cell_setting 'monoclinic'
loop_
_space_group_symop_operation_xyz
x,y,z
-x,1/2+y,-z
-x,-y,-z
x,1/2-y,z
loop_
_atom_site_type_symbol
_atom_site_label
_atom_site_fract_x
_atom_site_fract_y
_atom_site_fract_z
Si Si1 0.995098 0.451782 0.835423
Si Si2 0.451937 0.457497 0.447763
Si Si3 0.278111 0.537535 0.779522
Si Si4 0.592202 0.958682 0.076693
Si Si5 0.649485 0.959871 0.862726
Si Si6 0.682973 0.538377 0.535429
Si Si7 0.953776 0.958966 0.476833
Si Si8 0.159696 0.049160 0.120344
O O1 0.015361 0.250000 0.832581
O O2 0.916435 0.455729 0.853904
O O3 0.154325 0.527849 0.646777
O O4 0.879238 0.528364 0.020385
O O5 0.469854 0.250000 0.418193
O O6 0.337177 0.486210 0.639000
O O7 0.603134 0.525666 0.302693
O O8 0.391423 0.528417 0.447562
O O9 0.277114 0.750000 0.783588
O O10 0.615886 0.750000 0.049172
O O11 0.425451 0.990838 0.280513
O O12 0.644771 0.028621 0.944595
O O13 0.690150 0.027672 0.025287
O O14 0.663617 0.750000 0.850740
O O15 0.789080 0.020876 0.662173
O O16 0.500000 0.000000 0.000000
O O17 0.687177 0.750000 0.529351
O O18 0.961125 0.750000 0.457858
O O19 0.000000 0.000000 0.500000
O O20 0.056369 0.043001 0.303985
O O21 0.179864 0.250000 0.076050
#
# Coordination Sequence:
#
# PCOD9166092 Si02
#       8
#     4   4   4   4   4   4   4   4
#     4  10  22  39  57  84 118 151 190 236 284 337
#     4   9  18  34  56  82 112 147 189 232 276 333
#     4   9  18  34  57  82 112 148 189 233 279 331
#     4  10  22  41  59  81 114 149 189 238 283 336
#     4  10  23  41  59  84 117 150 188 235 286 341
#     4  10  22  38  57  83 116 153 191 233 283 340
#     4  11  22  40  63  88 117 148 190 239 287 341
#     4  11  23  40  61  85 114 150 193 239 287 339
#
# _framework density 22.534541999999998
#
# number of rings (size 3 to 8) (size 9 to 14) (size 15 to 20)
#    0.000    2.000    1.250    1.500    1.750    5.500 
#    0.000    2.500    0.000    0.000    0.000    0.000 
#    0.000    0.000    0.000    0.000    0.000    0.000 
#
# Total GULP energy -178818.355590 kJ/mol
# GULP energy per Si atom -5588.073612 kJ/mol
# Density = 2.248325 g / cm^3
# Si number density = 22.534542 Si / 1000 Ang^3
#
#
#
# Elastic Constant Matrix: (Units=GPa)
#
#
# Indices 1 2 3 4 5 6 
#
# 1 34.9611 -6.4270 7.1359 0.0000 -6.5474 0.0000
# 2 -6.4270 52.1062 -4.9080 0.0000 -3.0184 0.0000
# 3 7.1359 -4.9080 145.0651 0.0000 -16.2208 0.0000
# 4 0.0000 0.0000 0.0000 24.7922 0.0000 3.1577
# 5 -6.5474 -3.0184 -16.2208 0.0000 30.6255 0.0000
# 6 0.0000 0.0000 0.0000 3.1577 0.0000 18.6384
#
#
#
# Elastic Compliance Matrix: (Units=1/GPa)
#
#
# Indices 1 2 3 4 5 6 
#
# 1 0.030732 0.004116 -0.000630 0.000000 0.006642 0.000000
# 2 0.004116 0.019969 0.000841 0.000000 0.003294 0.000000
# 3 -0.000630 0.000841 0.007384 0.000000 0.003859 0.000000
# 4 0.000000 0.000000 0.000000 0.041225 0.000000 -0.006984
# 5 0.006642 0.003294 0.003859 0.000000 0.036441 0.000000
# 6 0.000000 0.000000 0.000000 -0.006984 0.000000 0.054836
#
#
# Mechanical properties :
#
#
# Convention : Reuss Voigt Hill
#
# Bulk Modulus (GPa) = 14.98311 24.85936 19.92124
# Shear Modulus (GPa) = 24.48818 30.56664 27.52741
#
# Velocity S-wave (km/s) = 3.30008 3.68698 3.49888
# Velocity P-wave (km/s) = 4.60262 5.40191 5.01821
#
# Compressibility (1/GPa) = 0.06674180
#
# Stress axis : x y z
#
# Youngs Moduli (GPa) = 32.53897 50.07677 135.41950
#
# Poissons Ratio (x) = -0.20612 0.08528
# Poissons Ratio (y) = -0.13393 -0.11395
# Poissons Ratio (z) = 0.02049 -0.04214
#
# Static dielectric constant tensor:
#      x y z
#    x 1.815600 0.000000 -0.013240 
#    y 0.000000 1.848260 0.000000 
#    z -0.013240 0.000000 1.866320 
# 
# From -- ./inp_files/67043.got.cif
#   From: 2010.05.17/outbox.cif.g08.bks.cpg/sg11_34_cif.got.tgz:67043.got - 2010.06.03 12:22:45.
