data_PCOD9166148
_publ_section_title
;
Structure prediction by ZEFSAII (Michael W. Deem and Ramdas Pophale) SiO2 
 PCOD9166148
Probable space group: P 21/M
;
_chemical_formula_sum "Si O2"
_cell_formula_units_Z 22
_cell_length_a 8.075948
_cell_length_b 13.397053
_cell_length_c 9.237790
_cell_angle_alpha 90.000000
_cell_angle_beta 109.058361
_cell_angle_gamma 90.000000
_cell_volume 944.687934
_symmetry_space_group_name_H-M "P 21/M"
_symmetry_group_IT_number 11
_symmetry_cell_setting 'monoclinic'
loop_
_space_group_symop_operation_xyz
x,y,z
-x,1/2+y,-z
-x,-y,-z
x,1/2-y,z
loop_
_atom_site_type_symbol
_atom_site_label
_atom_site_fract_x
_atom_site_fract_y
_atom_site_fract_z
Si Si1 0.591211 0.078382 0.415910
Si Si2 0.798342 0.750000 0.452788
Si Si3 0.968566 0.250000 0.207174
Si Si4 0.165217 0.638910 0.277126
Si Si5 0.174959 0.553602 0.988154
Si Si6 0.640046 0.750000 0.711359
Si Si7 0.194182 0.444534 0.734427
O O1 0.700950 0.145747 0.555685
O O2 0.459567 0.147438 0.286653
O O3 0.500000 0.000000 0.500000
O O4 0.729648 0.025832 0.351469
O O5 0.976639 0.750000 0.605200
O O6 0.659319 0.750000 0.541753
O O7 0.774456 0.843276 0.342342
O O8 0.159043 0.250000 0.181709
O O9 0.873517 0.149220 0.126824
O O10 0.091613 0.750000 0.223610
O O11 0.013411 0.564009 0.289701
O O12 0.256855 0.596588 0.158612
O O13 0.269904 0.472853 0.913984
O O14 0.000000 0.500000 0.000000
#
# Coordination Sequence:
#
# PCOD9166148 Si02
#       7
#     4   2   2   4   4   2   4
#     4  12  24  41  68  94 135 172 220 270 325 388
#     4  10  22  38  65  98 129 169 217 269 324 387
#     4  10  22  41  64  97 138 165 217 272 330 387
#     4  11  23  42  66  98 133 172 219 273 324 387
#     4  10  24  39  66  97 130 169 216 272 328 383
#     4  10  24  39  61  97 131 176 210 269 330 388
#     4  11  24  40  68  99 126 167 225 272 327 373
#
# _framework density 23.288112999999999
#
# number of rings (size 3 to 8) (size 9 to 14) (size 15 to 20)
#    0.545    0.727    4.545    0.545   12.727    0.727 
#    0.000    0.909    0.000    0.000    0.000    0.000 
#    0.000    0.000    0.000    0.000    0.000    0.000 
#
# Total GULP energy -122673.382031 kJ/mol
# GULP energy per Si atom -5576.062820 kJ/mol
# Density = 2.323511 g / cm^3
# Si number density = 23.288113 Si / 1000 Ang^3
#
#
#
# Elastic Constant Matrix: (Units=GPa)
#
#
# Indices 1 2 3 4 5 6 
#
# 1 32.9865 8.1551 31.7123 0.0000 -9.3891 0.0000
# 2 8.1551 93.7050 48.4638 0.0000 -20.4647 0.0000
# 3 31.7123 48.4638 101.6155 0.0000 -35.5412 0.0000
# 4 0.0000 0.0000 0.0000 30.9810 0.0000 -10.5645
# 5 -9.3891 -20.4647 -35.5412 0.0000 27.4430 0.0000
# 6 0.0000 0.0000 0.0000 -10.5645 0.0000 20.1315
#
#
#
# Elastic Compliance Matrix: (Units=1/GPa)
#
#
# Indices 1 2 3 4 5 6 
#
# 1 0.044888 0.004228 -0.017459 0.000000 -0.004102 0.000000
# 2 0.004228 0.014731 -0.007307 0.000000 0.002969 0.000000
# 3 -0.017459 -0.007307 0.027018 0.000000 0.023568 0.000000
# 4 0.000000 0.000000 0.000000 0.039313 0.000000 0.020630
# 5 -0.004102 0.002969 0.023568 0.000000 0.067773 0.000000
# 6 0.000000 0.000000 0.000000 0.020630 0.000000 0.060500
#
#
# Mechanical properties :
#
#
# Convention : Reuss Voigt Hill
#
# Bulk Modulus (GPa) = 21.94919 44.99659 33.47289
# Shear Modulus (GPa) = 16.10376 25.04284 20.57330
#
# Velocity S-wave (km/s) = 2.63249 3.28281 2.97547
# Velocity P-wave (km/s) = 4.32268 5.80799 5.11949
#
# Compressibility (1/GPa) = 0.04555976
#
# Stress axis : x y z
#
# Youngs Moduli (GPa) = 22.27773 67.88275 37.01237
#
# Poissons Ratio (x) = -0.28698 0.64622
# Poissons Ratio (y) = -0.09418 0.27044
# Poissons Ratio (z) = 0.38896 0.49601
#
# Static dielectric constant tensor:
#      x y z
#    x 1.898130 0.000000 0.005570 
#    y 0.000000 1.947900 0.000000 
#    z 0.005570 0.000000 1.884090 
# 
# From -- ./inp_files/12629.got.cif
#   From: 2010.05.17/outbox.cif.g08.bks.cpg/sg11_7_cif.got.tgz:12629.got - 2010.06.03 12:22:45.
