data_PCOD9166773
_publ_section_title
;
Structure prediction by ZEFSAII (Michael W. Deem and Ramdas Pophale) SiO2 
 PCOD9166773
Probable space group: P 21/M
;
_chemical_formula_sum "Si O2"
_cell_formula_units_Z 32
_cell_length_a 16.257602
_cell_length_b 15.085244
_cell_length_c 21.665537
_cell_angle_alpha 90.000000
_cell_angle_beta 165.869166
_cell_angle_gamma 90.000000
_cell_volume 1297.214343
_symmetry_space_group_name_H-M "P 21/M"
_symmetry_group_IT_number 11
_symmetry_cell_setting 'monoclinic'
loop_
_space_group_symop_operation_xyz
x,y,z
-x,1/2+y,-z
-x,-y,-z
x,1/2-y,z
loop_
_atom_site_type_symbol
_atom_site_label
_atom_site_fract_x
_atom_site_fract_y
_atom_site_fract_z
Si Si1 0.692794 0.151101 0.488128
Si Si2 0.434678 0.350829 0.862573
Si Si3 0.284587 0.583867 0.622212
Si Si4 0.452837 0.480353 0.537324
Si Si5 0.967578 0.095966 0.340465
Si Si6 0.655693 0.350545 0.781879
Si Si7 0.540101 0.650197 0.924324
Si Si8 0.887740 0.147261 0.084453
O O1 0.609405 0.250000 0.449755
O O2 0.559377 0.135215 0.322079
O O3 0.587519 0.072123 0.456012
O O4 0.101060 0.144442 0.780691
O O5 0.519655 0.250000 0.944647
O O6 0.532860 0.356441 0.862283
O O7 0.048088 0.368300 0.593879
O O8 0.667855 0.415954 0.072383
O O9 0.523206 0.581719 0.855255
O O10 0.149570 0.492393 0.496438
O O11 0.500000 0.500000 0.500000
O O12 0.699797 0.419038 0.758183
O O13 0.126020 0.417351 0.295272
O O14 0.764695 0.137155 0.250069
O O15 0.268437 0.147958 0.525304
O O16 0.739741 0.250000 0.825238
O O17 0.858536 0.376321 0.991402
O O18 0.521230 0.750000 0.884311
O O19 0.002438 0.250000 0.171823
#
# Coordination Sequence:
#
# PCOD9166773 Si02
#       8
#     4   4   4   4   4   4   4   4
#     4  11  25  44  64  91 129 172 218 264 318 388
#     4  11  20  35  61  93 133 177 213 252 304 370
#     4  12  23  38  60  92 132 178 216 255 308 375
#     4  12  27  46  72  97 125 162 214 282 340 395
#     4  12  22  35  60  97 134 172 215 261 305 372
#     4  11  23  43  69 100 134 171 214 265 322 386
#     4  11  24  39  59  90 131 179 217 254 305 375
#     4  10  23  42  69 100 134 170 213 265 321 385
#
# _framework density 24.668244999999999
#
# number of rings (size 3 to 8) (size 9 to 14) (size 15 to 20)
#    0.000    0.750    3.750    4.125    3.500    2.500 
#    0.000    0.000    0.000    1.500    0.000    0.000 
#    0.000    0.000    0.000    0.000    0.000    0.000 
#
# Total GULP energy -179202.377545 kJ/mol
# GULP energy per Si atom -5600.074298 kJ/mol
# Density = 2.461210 g / cm^3
# Si number density = 24.668245 Si / 1000 Ang^3
#
#
#
# Elastic Constant Matrix: (Units=GPa)
#
#
# Indices 1 2 3 4 5 6 
#
# 1 152.3094 60.4054 11.4337 0.0000 -21.4029 0.0000
# 2 60.4054 133.1211 6.7098 0.0000 -14.6713 0.0000
# 3 11.4337 6.7098 39.5417 0.0000 -9.7247 0.0000
# 4 0.0000 0.0000 0.0000 -44.6101 0.0000 -8.3681
# 5 -21.4029 -14.6713 -9.7247 0.0000 33.5578 0.0000
# 6 0.0000 0.0000 0.0000 -8.3681 0.0000 36.1717
#
#
#
# Elastic Compliance Matrix: (Units=1/GPa)
#
#
# Indices 1 2 3 4 5 6 
#
# 1 0.008503 -0.003407 -0.000983 0.000000 0.003649 0.000000
# 2 -0.003407 0.009267 -0.000135 0.000000 0.001840 0.000000
# 3 -0.000983 -0.000135 0.027380 0.000000 0.007248 0.000000
# 4 0.000000 0.000000 0.000000 -0.021484 0.000000 -0.004970
# 5 0.003649 0.001840 0.007248 0.000000 0.035031 0.000000
# 6 0.000000 0.000000 0.000000 -0.004970 0.000000 0.026496
#
#
# Mechanical properties :
#
#
# Convention : Reuss Voigt Hill
#
# Bulk Modulus (GPa) = 27.70075 53.56333 40.63204
# Shear Modulus (GPa) = 47.04684 21.45210 34.24947
#
# Velocity S-wave (km/s) = 4.37187 2.95214 3.73017
# Velocity P-wave (km/s) = 6.06119 5.77761 5.92110
#
# Compressibility (1/GPa) = 0.03610011
#
# Stress axis : x y z
#
# Youngs Moduli (GPa) = 117.60188 107.90539 36.52355
#
# Poissons Ratio (x) = 0.36761 0.03591
# Poissons Ratio (y) = 0.40064 0.00493
# Poissons Ratio (z) = 0.11563 0.01457
#
# Static dielectric constant tensor:
#      x y z
#    x 1.940210 0.000000 -0.005570 
#    y 0.000000 1.980050 0.000000 
#    z -0.005570 0.000000 1.960670 
# 
# From -- ./inp_files/65774.got.cif
#   From: 2010.05.17/outbox.cif.g08.bks.cpg/sg11_33_cif.got.tgz:65774.got - 2010.06.03 12:22:45.
