data_PCOD9166202
_publ_section_title
;
Structure prediction by ZEFSAII (Michael W. Deem and Ramdas Pophale) SiO2 
 PCOD9166202
Probable space group: P 21/M
;
_chemical_formula_sum "Si O2"
_cell_formula_units_Z 28
_cell_length_a 7.242379
_cell_length_b 11.719127
_cell_length_c 18.287721
_cell_angle_alpha 90.000000
_cell_angle_beta 109.856993
_cell_angle_gamma 90.000000
_cell_volume 1459.872461
_symmetry_space_group_name_H-M "P 21/M"
_symmetry_group_IT_number 11
_symmetry_cell_setting 'monoclinic'
loop_
_space_group_symop_operation_xyz
x,y,z
-x,1/2+y,-z
-x,-y,-z
x,1/2-y,z
loop_
_atom_site_type_symbol
_atom_site_label
_atom_site_fract_x
_atom_site_fract_y
_atom_site_fract_z
Si Si1 0.003372 0.617570 0.618566
Si Si2 0.758768 0.621014 0.731457
Si Si3 0.754164 0.116325 0.947016
Si Si4 0.328240 0.117919 0.830872
Si Si5 0.618072 0.960880 0.325037
Si Si6 0.397551 0.381781 0.517461
Si Si7 0.040239 0.967931 0.885171
O O1 0.066188 0.750000 0.629902
O O2 0.893215 0.590142 0.679952
O O3 0.830993 0.607207 0.535715
O O4 0.190700 0.538338 0.633678
O O5 0.689225 0.750000 0.710559
O O6 0.573653 0.538864 0.711937
O O7 0.894246 0.613151 0.821103
O O8 0.771900 0.250000 0.934672
O O9 0.533693 0.082461 0.896016
O O10 0.812123 0.092009 0.038513
O O11 0.905118 0.049807 0.916001
O O12 0.291325 0.250000 0.843898
O O13 0.346179 0.103874 0.746149
O O14 0.160199 0.040111 0.842190
O O15 0.581356 0.887122 0.392439
O O16 0.500000 0.500000 0.500000
O O17 0.457799 0.250000 0.500903
#
# Coordination Sequence:
#
# PCOD9166202 Si02
#       7
#     4   4   4   4   4   4   4
#     4  10  22  41  64  91 126 164 207 258 313 371
#     4  11  22  38  62  92 124 162 208 256 309 368
#     4  10  22  39  61  87 120 160 202 252 306 366
#     4  11  23  39  60  89 123 160 202 251 307 371
#     4  12  22  41  64  93 123 166 206 258 310 376
#     4  11  24  43  67  96 130 169 214 264 315 378
#     4  11  21  40  62  87 122 160 203 251 306 369
#
# _framework density 19.179756999999999
#
# number of rings (size 3 to 8) (size 9 to 14) (size 15 to 20)
#    0.000    1.143    4.286    2.571    0.000    0.571 
#    0.000    2.857    0.000    0.000    0.000    0.000 
#    0.000    0.000    0.000    0.000    0.000    0.000 
#
# Total GULP energy -156284.365116 kJ/mol
# GULP energy per Si atom -5581.584468 kJ/mol
# Density = 1.913610 g / cm^3
# Si number density = 19.179757 Si / 1000 Ang^3
#
#
#
# Elastic Constant Matrix: (Units=GPa)
#
#
# Indices 1 2 3 4 5 6 
#
# 1 40.8357 36.2310 11.2206 0.0000 6.7478 0.0000
# 2 36.2310 68.0373 4.0878 0.0000 9.6695 0.0000
# 3 11.2206 4.0878 105.3585 0.0000 4.1483 0.0000
# 4 0.0000 0.0000 0.0000 34.5069 0.0000 5.6305
# 5 6.7478 9.6695 4.1483 0.0000 33.2757 0.0000
# 6 0.0000 0.0000 0.0000 5.6305 0.0000 17.9783
#
#
#
# Elastic Compliance Matrix: (Units=1/GPa)
#
#
# Indices 1 2 3 4 5 6 
#
# 1 0.048283 -0.025187 -0.004088 0.000000 -0.001962 0.000000
# 2 -0.025187 0.028488 0.001710 0.000000 -0.003384 0.000000
# 3 -0.004088 0.001710 0.009896 0.000000 -0.000902 0.000000
# 4 0.000000 0.000000 0.000000 0.030540 0.000000 -0.009565
# 5 -0.001962 -0.003384 -0.000902 0.000000 0.031546 0.000000
# 6 0.000000 0.000000 0.000000 -0.009565 0.000000 0.058618
#
#
# Mechanical properties :
#
#
# Convention : Reuss Voigt Hill
#
# Bulk Modulus (GPa) = 31.70708 35.25670 33.48189
# Shear Modulus (GPa) = 18.31420 27.99833 23.15626
#
# Velocity S-wave (km/s) = 3.09345 3.82486 3.47843
# Velocity P-wave (km/s) = 5.41541 6.15859 5.79892
#
# Compressibility (1/GPa) = 0.03153870
#
# Stress axis : x y z
#
# Youngs Moduli (GPa) = 20.71140 35.10199 101.05216
#
# Poissons Ratio (x) = 0.88411 0.41306
# Poissons Ratio (y) = 0.52165 -0.17283
# Poissons Ratio (z) = 0.08466 -0.06004
#
# Static dielectric constant tensor:
#      x y z
#    x 1.638160 0.000000 0.001430 
#    y 0.000000 1.675270 0.000000 
#    z 0.001430 0.000000 1.686490 
# 
# From -- ./inp_files/8835.got.cif
#   From: 2010.05.17/outbox.cif.g08.bks.cpg/sg11_5_cif.got.tgz:8835.got - 2010.06.03 12:22:45.
