data_PCOD9166191
_publ_section_title
;
Structure prediction by ZEFSAII (Michael W. Deem and Ramdas Pophale) SiO2 
 PCOD9166191
Probable space group: P 21/M
;
_chemical_formula_sum "Si O2"
_cell_formula_units_Z 24
_cell_length_a 7.996554
_cell_length_b 8.826273
_cell_length_c 23.056832
_cell_angle_alpha 90.000000
_cell_angle_beta 132.284219
_cell_angle_gamma 90.000000
_cell_volume 1203.937219
_symmetry_space_group_name_H-M "P 21/M"
_symmetry_group_IT_number 11
_symmetry_cell_setting 'monoclinic'
loop_
_space_group_symop_operation_xyz
x,y,z
-x,1/2+y,-z
-x,-y,-z
x,1/2-y,z
loop_
_atom_site_type_symbol
_atom_site_label
_atom_site_fract_x
_atom_site_fract_y
_atom_site_fract_z
Si Si1 0.815065 0.569109 0.413747
Si Si2 0.929903 0.068681 0.315304
Si Si3 0.314816 0.068442 0.999765
Si Si4 0.144518 0.573925 0.173343
Si Si5 0.331764 0.070588 0.329098
Si Si6 0.488779 0.073841 0.840461
O O1 0.825010 0.750000 0.415914
O O2 0.869147 0.507868 0.362025
O O3 0.567104 0.516121 0.376509
O O4 0.000000 0.500000 0.500000
O O5 0.916683 0.250000 0.318106
O O6 0.177955 0.029087 0.348580
O O7 0.743246 0.013376 0.225465
O O8 0.333199 0.250000 0.007256
O O9 0.365500 0.997843 0.074050
O O10 0.070765 0.031529 0.915795
O O11 0.500000 0.000000 0.000000
O O12 0.116463 0.750000 0.185198
O O13 0.183835 0.470454 0.237967
O O14 0.363764 0.565751 0.183600
O O15 0.375952 0.250000 0.341021
O O16 0.442966 0.250000 0.842972
#
# Coordination Sequence:
#
# PCOD9166191 Si02
#       6
#     4   4   4   4   4   4
#     4  12  26  46  72 100 133 171 212 264 323 386
#     4  11  24  43  68 100 134 173 218 266 323 385
#     4  11  23  38  56  84 123 167 218 273 324 382
#     4  10  22  39  60  88 124 169 218 267 322 381
#     4  11  24  42  68  99 133 172 216 266 322 386
#     4  11  22  38  61  90 124 169 218 268 325 382
#
# _framework density 19.934595999999999
#
# number of rings (size 3 to 8) (size 9 to 14) (size 15 to 20)
#    0.000    1.000    1.667    5.000    0.000    8.000 
#    0.000    0.000    0.000    0.000    0.000    0.000 
#    0.000    0.000    0.000    0.000    0.000    0.000 
#
# Total GULP energy -134271.326247 kJ/mol
# GULP energy per Si atom -5594.638594 kJ/mol
# Density = 1.988922 g / cm^3
# Si number density = 19.934596 Si / 1000 Ang^3
#
#
#
# Elastic Constant Matrix: (Units=GPa)
#
#
# Indices 1 2 3 4 5 6 
#
# 1 126.6072 67.8169 47.3076 0.0000 22.8065 0.0000
# 2 67.8169 107.7171 47.9712 0.0000 14.8600 0.0000
# 3 47.3076 47.9712 107.1315 0.0000 21.7454 0.0000
# 4 0.0000 0.0000 0.0000 39.5758 0.0000 3.7280
# 5 22.8065 14.8600 21.7454 0.0000 11.9997 0.0000
# 6 0.0000 0.0000 0.0000 3.7280 0.0000 12.5281
#
#
#
# Elastic Compliance Matrix: (Units=1/GPa)
#
#
# Indices 1 2 3 4 5 6 
#
# 1 0.015256 -0.006951 0.000813 0.000000 -0.021860 0.000000
# 2 -0.006951 0.015248 -0.004124 0.000000 0.001802 0.000000
# 3 0.000813 -0.004124 0.015975 0.000000 -0.025388 0.000000
# 4 0.000000 0.000000 0.000000 0.025997 0.000000 -0.007736
# 5 -0.021860 0.001802 -0.025388 0.000000 0.168657 0.000000
# 6 0.000000 0.000000 0.000000 -0.007736 0.000000 0.082123
#
#
# Mechanical properties :
#
#
# Convention : Reuss Voigt Hill
#
# Bulk Modulus (GPa) = 38.52879 74.18302 56.35590
# Shear Modulus (GPa) = 14.18716 24.71140 19.44928
#
# Velocity S-wave (km/s) = 2.67064 3.52465 3.12694
# Velocity P-wave (km/s) = 5.37395 7.33881 6.43185
#
# Compressibility (1/GPa) = 0.02595461
#
# Stress axis : x y z
#
# Youngs Moduli (GPa) = 65.54852 65.58284 62.59753
#
# Poissons Ratio (x) = 0.45588 -0.05089
# Poissons Ratio (y) = 0.45564 0.25815
# Poissons Ratio (z) = -0.05329 0.27046
#
# Static dielectric constant tensor:
#      x y z
#    x 1.703940 0.000000 -0.002940 
#    y 0.000000 1.667910 0.000000 
#    z -0.002940 0.000000 1.707130 
# 
# From -- ./inp_files/67818.got.cif
#   From: 2010.05.17/outbox.cif.g08.bks.cpg/sg11_34_cif.got.tgz:67818.got - 2010.06.03 12:22:45.
