data_PCOD9166929
_publ_section_title
;
Structure prediction by ZEFSAII (Michael W. Deem and Ramdas Pophale) SiO2 
 PCOD9166929
Probable space group: P 21/M
;
_chemical_formula_sum "Si O2"
_cell_formula_units_Z 24
_cell_length_a 10.792540
_cell_length_b 19.738225
_cell_length_c 5.335619
_cell_angle_alpha 90.000000
_cell_angle_beta 67.981503
_cell_angle_gamma 90.000000
_cell_volume 1053.721303
_symmetry_space_group_name_H-M "P 21/M"
_symmetry_group_IT_number 11
_symmetry_cell_setting 'monoclinic'
loop_
_space_group_symop_operation_xyz
x,y,z
-x,1/2+y,-z
-x,-y,-z
x,1/2-y,z
loop_
_atom_site_type_symbol
_atom_site_label
_atom_site_fract_x
_atom_site_fract_y
_atom_site_fract_z
Si Si1 0.184007 0.362634 0.015579
Si Si2 0.011255 0.250000 0.378345
Si Si3 0.206547 0.508925 0.254559
Si Si4 0.519126 0.672636 0.348598
Si Si5 0.834203 0.250000 0.007522
Si Si6 0.623635 0.130440 0.060362
Si Si7 0.943886 0.947744 0.243913
O O1 0.323345 0.333961 0.816265
O O2 0.086639 0.376606 0.855930
O O3 0.107979 0.314474 0.264582
O O4 0.207122 0.437593 0.108870
O O5 0.936111 0.250000 0.697308
O O6 0.905376 0.250000 0.225829
O O7 0.191895 0.481085 0.547150
O O8 0.068090 0.552767 0.339943
O O9 0.318533 0.557822 0.066028
O O10 0.486518 0.750000 0.442102
O O11 0.468834 0.628265 0.621812
O O12 0.450670 0.656508 0.133735
O O13 0.741291 0.183196 0.043050
O O14 0.000000 0.000000 0.000000
#
# Coordination Sequence:
#
# PCOD9166929 Si02
#       7
#     4   2   4   4   2   4   4
#     4  11  26  45  70 104 142 185 234 292 359 424
#     4  12  28  42  74 106 138 180 236 298 354 434
#     4  10  24  43  71 106 142 182 234 297 361 419
#     4  12  26  50  70 100 143 195 238 291 345 415
#     4  12  26  46  72 106 138 184 244 282 360 420
#     4  12  27  47  74 100 144 190 240 293 345 419
#     4   9  21  42  67 100 141 176 220 288 363 407
#
# _framework density 22.776419000000001
#
# number of rings (size 3 to 8) (size 9 to 14) (size 15 to 20)
#    0.000    1.000    2.500    2.000   16.333    1.333 
#    0.000    0.000    0.000    0.000    0.000    0.000 
#    0.000    0.000    0.000    0.000    0.000    0.000 
#
# Total GULP energy -134108.735051 kJ/mol
# GULP energy per Si atom -5587.863960 kJ/mol
# Density = 2.272458 g / cm^3
# Si number density = 22.776419 Si / 1000 Ang^3
#
#
#
# Elastic Constant Matrix: (Units=GPa)
#
#
# Indices 1 2 3 4 5 6 
#
# 1 33.4907 15.2740 29.8883 0.0000 -10.8560 0.0000
# 2 15.2740 82.6433 9.5451 0.0000 -2.2167 0.0000
# 3 29.8883 9.5451 145.3389 0.0000 -4.8496 0.0000
# 4 0.0000 0.0000 0.0000 39.8253 0.0000 -11.6941
# 5 -10.8560 -2.2167 -4.8496 0.0000 27.6179 0.0000
# 6 0.0000 0.0000 0.0000 -11.6941 0.0000 20.1971
#
#
#
# Elastic Compliance Matrix: (Units=1/GPa)
#
#
# Indices 1 2 3 4 5 6 
#
# 1 0.045753 -0.007057 -0.008414 0.000000 0.015941 0.000000
# 2 -0.007057 0.013301 0.000524 0.000000 -0.001614 0.000000
# 3 -0.008414 0.000524 0.008517 0.000000 -0.001770 0.000000
# 4 0.000000 0.000000 0.000000 0.030253 0.000000 0.017516
# 5 0.015941 -0.001614 -0.001770 0.000000 0.042034 0.000000
# 6 0.000000 0.000000 0.000000 0.017516 0.000000 0.059654
#
#
# Mechanical properties :
#
#
# Convention : Reuss Voigt Hill
#
# Bulk Modulus (GPa) = 26.54068 41.20974 33.87521
# Shear Modulus (GPa) = 20.66418 31.31242 25.98830
#
# Velocity S-wave (km/s) = 3.01535 3.71182 3.38156
# Velocity P-wave (km/s) = 4.87864 6.04173 5.49107
#
# Compressibility (1/GPa) = 0.03767801
#
# Stress axis : x y z
#
# Youngs Moduli (GPa) = 21.85642 75.18456 117.40894
#
# Poissons Ratio (x) = 0.53056 0.98783
# Poissons Ratio (y) = 0.15423 -0.06150
# Poissons Ratio (z) = 0.18389 -0.03938
#
# Static dielectric constant tensor:
#      x y z
#    x 1.939030 0.000000 0.047190 
#    y 0.000000 1.851700 0.000000 
#    z 0.047190 0.000000 1.871580 
# 
# From -- ./inp_files/4841.got.cif
#   From: 2010.05.17/outbox.cif.g08.bks.cpg/sg11_3_cif.got.tgz:4841.got - 2010.06.03 12:22:45.
