data_PCOD9166944
_publ_section_title
;
Structure prediction by ZEFSAII (Michael W. Deem and Ramdas Pophale) SiO2 
 PCOD9166944
Probable space group: P 21/M
;
_chemical_formula_sum "Si O2"
_cell_formula_units_Z 24
_cell_length_a 14.988627
_cell_length_b 17.082750
_cell_length_c 14.957237
_cell_angle_alpha 90.000000
_cell_angle_beta 159.883209
_cell_angle_gamma 90.000000
_cell_volume 1317.186424
_symmetry_space_group_name_H-M "P 21/M"
_symmetry_group_IT_number 11
_symmetry_cell_setting 'monoclinic'
loop_
_space_group_symop_operation_xyz
x,y,z
-x,1/2+y,-z
-x,-y,-z
x,1/2-y,z
loop_
_atom_site_type_symbol
_atom_site_label
_atom_site_fract_x
_atom_site_fract_y
_atom_site_fract_z
Si Si1 0.846791 0.156836 0.711003
Si Si2 0.466730 0.250000 0.077321
Si Si3 0.100764 0.160910 0.409685
Si Si4 0.026519 0.250000 0.513479
Si Si5 0.736601 0.450862 0.764496
Si Si6 0.367699 0.569637 0.123695
Si Si7 0.599467 0.890375 0.845636
O O1 0.836633 0.250000 0.694248
O O2 0.771552 0.126748 0.738201
O O3 0.641868 0.120724 0.448409
O O4 0.133860 0.127822 0.955706
O O5 0.426920 0.326445 0.101324
O O6 0.754165 0.250000 0.307350
O O7 0.257721 0.250000 0.801576
O O8 0.113969 0.250000 0.384358
O O9 0.050000 0.176816 0.467213
O O10 0.368659 0.116421 0.646413
O O11 0.868473 0.113455 0.146509
O O12 0.500000 0.500000 0.500000
O O13 0.684727 0.434682 0.819339
O O14 0.000000 0.500000 0.000000
O O15 0.391773 0.479866 0.114365
#
# Coordination Sequence:
#
# PCOD9166944 Si02
#       7
#     4   2   4   2   4   4   4
#     4  12  22  41  59  95 137 175 217 270 304 382
#     4  12  22  44  68  99 122 179 206 266 340 412
#     4  10  24  44  69  90 132 167 211 274 337 385
#     4  10  24  46  70  89 134 167 210 270 348 392
#     4  12  23  40  62  93 134 178 214 257 319 364
#     4  12  22  42  68  99 129 177 219 266 321 389
#     4  12  24  39  68  98 133 170 219 265 330 390
#
# _framework density 18.220656000000002
#
# number of rings (size 3 to 8) (size 9 to 14) (size 15 to 20)
#    0.500    0.000    5.000    4.500    0.000    1.333 
#    0.000    5.000    0.000    0.000    0.000    0.000 
#    0.000    0.000    0.000    0.000    0.000    0.000 
#
# Total GULP energy -134140.813865 kJ/mol
# GULP energy per Si atom -5589.200578 kJ/mol
# Density = 1.817918 g / cm^3
# Si number density = 18.220656 Si / 1000 Ang^3
#
#
#
# Elastic Constant Matrix: (Units=GPa)
#
#
# Indices 1 2 3 4 5 6 
#
# 1 157.8462 21.7867 41.9797 0.0000 10.7785 0.0000
# 2 21.7867 136.2413 15.0888 0.0000 12.1980 0.0000
# 3 41.9797 15.0888 96.0319 0.0000 21.8035 0.0000
# 4 0.0000 0.0000 0.0000 70.5029 0.0000 18.4831
# 5 10.7785 12.1980 21.8035 0.0000 39.1339 0.0000
# 6 0.0000 0.0000 0.0000 18.4831 0.0000 39.4847
#
#
#
# Elastic Compliance Matrix: (Units=1/GPa)
#
#
# Indices 1 2 3 4 5 6 
#
# 1 0.007259 -0.000820 -0.003032 0.000000 -0.000054 0.000000
# 2 -0.000820 0.007690 -0.000409 0.000000 -0.001944 0.000000
# 3 -0.003032 -0.000409 0.013262 0.000000 -0.006426 0.000000
# 4 0.000000 0.000000 0.000000 0.016168 0.000000 -0.007568
# 5 -0.000054 -0.001944 -0.006426 0.000000 0.029755 0.000000
# 6 0.000000 0.000000 0.000000 -0.007568 0.000000 0.028869
#
#
# Mechanical properties :
#
#
# Convention : Reuss Voigt Hill
#
# Bulk Modulus (GPa) = 50.78781 60.86997 55.82889
# Shear Modulus (GPa) = 42.34187 50.57523 46.45855
#
# Velocity S-wave (km/s) = 4.82585 5.27422 5.05501
# Velocity P-wave (km/s) = 7.68024 8.40056 8.04846
#
# Compressibility (1/GPa) = 0.01968977
#
# Stress axis : x y z
#
# Youngs Moduli (GPa) = 137.76938 130.03357 75.40442
#
# Poissons Ratio (x) = 0.10664 0.22861
# Poissons Ratio (y) = 0.11298 0.03081
# Poissons Ratio (z) = 0.41769 0.05313
#
# Static dielectric constant tensor:
#      x y z
#    x 1.603870 0.000000 -0.002520 
#    y 0.000000 1.617780 0.000000 
#    z -0.002520 0.000000 1.598180 
# 
# From -- ./inp_files/52614.got.cif
#   From: 2010.05.17/outbox.cif.g08.bks.cpg/sg11_27_cif.got.tgz:52614.got - 2010.06.03 12:22:45.
