data_PCOD9166465
_publ_section_title
;
Structure prediction by ZEFSAII (Michael W. Deem and Ramdas Pophale) SiO2 
 PCOD9166465
Probable space group: P 21/M
;
_chemical_formula_sum "Si O2"
_cell_formula_units_Z 24
_cell_length_a 8.341317
_cell_length_b 16.061015
_cell_length_c 7.307509
_cell_angle_alpha 90.000000
_cell_angle_beta 100.743197
_cell_angle_gamma 90.000000
_cell_volume 961.827949
_symmetry_space_group_name_H-M "P 21/M"
_symmetry_group_IT_number 11
_symmetry_cell_setting 'monoclinic'
loop_
_space_group_symop_operation_xyz
x,y,z
-x,1/2+y,-z
-x,-y,-z
x,1/2-y,z
loop_
_atom_site_type_symbol
_atom_site_label
_atom_site_fract_x
_atom_site_fract_y
_atom_site_fract_z
Si Si1 0.163803 0.845870 0.360619
Si Si2 0.474591 0.100245 0.481908
Si Si3 0.050029 0.343912 0.023693
Si Si4 0.448071 0.653473 0.896215
Si Si5 0.303606 0.402154 0.793968
Si Si6 0.883828 0.425140 0.284870
O O1 0.121538 0.750000 0.393035
O O2 0.356121 0.858642 0.417985
O O3 0.100716 0.862952 0.144752
O O4 0.084458 0.905545 0.496292
O O5 0.455921 0.128372 0.269155
O O6 0.334954 0.126555 0.593797
O O7 0.500000 0.000000 0.500000
O O8 0.040269 0.250000 0.093778
O O9 0.199391 0.348989 0.914380
O O10 0.036602 0.409000 0.186003
O O11 0.471580 0.750000 0.947731
O O12 0.258709 0.639417 0.807067
O O13 0.518174 0.596693 0.073613
O O14 0.208761 0.488720 0.763473
#
# Coordination Sequence:
#
# PCOD9166465 Si02
#       6
#     4   4   4   4   4   4
#     4  10  22  41  66  90 123 171 217 256 310 380
#     4  11  22  41  66  96 125 162 211 268 315 368
#     4  11  25  41  61  91 130 171 210 257 320 382
#     4  11  24  41  67  96 128 168 212 262 319 377
#     4  12  25  40  65  97 131 162 211 268 321 371
#     4  11  22  41  65  91 122 169 216 260 309 382
#
# _framework density 24.952487999999999
#
# number of rings (size 3 to 8) (size 9 to 14) (size 15 to 20)
#    0.000    1.000    3.333    5.500    2.333    6.000 
#    0.000    1.667    0.000    0.000    0.000    0.000 
#    0.000    0.000    0.000    0.000    0.000    0.000 
#
# Total GULP energy -134393.828842 kJ/mol
# GULP energy per Si atom -5599.742868 kJ/mol
# Density = 2.489569 g / cm^3
# Si number density = 24.952488 Si / 1000 Ang^3
#
#
#
# Elastic Constant Matrix: (Units=GPa)
#
#
# Indices 1 2 3 4 5 6 
#
# 1 61.2767 -1.7270 17.4289 0.0000 -20.9565 0.0000
# 2 -1.7270 67.7205 -1.3974 0.0000 -1.2599 0.0000
# 3 17.4289 -1.3974 93.9958 0.0000 -22.3205 0.0000
# 4 0.0000 0.0000 0.0000 25.3782 0.0000 -12.4470
# 5 -20.9565 -1.2599 -22.3205 0.0000 45.9677 0.0000
# 6 0.0000 0.0000 0.0000 -12.4470 0.0000 21.6884
#
#
#
# Elastic Compliance Matrix: (Units=1/GPa)
#
#
# Indices 1 2 3 4 5 6 
#
# 1 0.019599 0.000616 -0.001695 0.000000 0.008129 0.000000
# 2 0.000616 0.014804 0.000304 0.000000 0.000834 0.000000
# 3 -0.001695 0.000304 0.012180 0.000000 0.005150 0.000000
# 4 0.000000 0.000000 0.000000 0.054840 0.000000 0.031473
# 5 0.008129 0.000834 0.005150 0.000000 0.027984 0.000000
# 6 0.000000 0.000000 0.000000 0.031473 0.000000 0.064170
#
#
# Mechanical properties :
#
#
# Convention : Reuss Voigt Hill
#
# Bulk Modulus (GPa) = 22.20522 27.95578 25.08050
# Shear Modulus (GPa) = 23.79387 32.51943 28.15665
#
# Velocity S-wave (km/s) = 3.09134 3.61398 3.36283
# Velocity P-wave (km/s) = 4.65405 5.35186 5.01510
#
# Compressibility (1/GPa) = 0.04503445
#
# Stress axis : x y z
#
# Youngs Moduli (GPa) = 51.02329 67.54892 82.09848
#
# Poissons Ratio (x) = -0.04162 0.13912
# Poissons Ratio (y) = -0.03143 -0.02495
# Poissons Ratio (z) = 0.08646 -0.02053
#
# Static dielectric constant tensor:
#      x y z
#    x 2.059600 0.000000 -0.009380 
#    y 0.000000 1.972670 0.000000 
#    z -0.009380 0.000000 1.941600 
# 
# From -- ./inp_files/13203.got.cif
#   From: 2010.05.17/outbox.cif.g08.bks.cpg/sg11_7_cif.got.tgz:13203.got - 2010.06.03 12:22:45.
