data_PCOD9166743
_publ_section_title
;
Structure prediction by ZEFSAII (Michael W. Deem and Ramdas Pophale) SiO2 
 PCOD9166743
Probable space group: P 21/M
;
_chemical_formula_sum "Si O2"
_cell_formula_units_Z 28
_cell_length_a 11.821544
_cell_length_b 8.899467
_cell_length_c 15.210933
_cell_angle_alpha 90.000000
_cell_angle_beta 117.901639
_cell_angle_gamma 90.000000
_cell_volume 1414.244775
_symmetry_space_group_name_H-M "P 21/M"
_symmetry_group_IT_number 11
_symmetry_cell_setting 'monoclinic'
loop_
_space_group_symop_operation_xyz
x,y,z
-x,1/2+y,-z
-x,-y,-z
x,1/2-y,z
loop_
_atom_site_type_symbol
_atom_site_label
_atom_site_fract_x
_atom_site_fract_y
_atom_site_fract_z
Si Si1 0.745435 0.578782 0.695422
Si Si2 0.121109 0.428550 0.991743
Si Si3 0.961178 0.422436 0.210880
Si Si4 0.066743 0.073361 0.610675
Si Si5 0.360303 0.926965 0.174929
Si Si6 0.375285 0.926374 0.497721
Si Si7 0.634794 0.924656 0.321762
O O1 0.696039 0.750000 0.679854
O O2 0.668731 0.475368 0.735049
O O3 0.736099 0.511350 0.594873
O O4 0.893865 0.580317 0.773164
O O5 0.110237 0.250000 0.994239
O O6 0.115412 0.481890 0.888450
O O7 0.255625 0.483011 0.081353
O O8 0.000000 0.500000 0.000000
O O9 0.915549 0.250000 0.198338
O O10 0.965561 0.491942 0.309622
O O11 0.031069 0.250000 0.600491
O O12 0.221651 0.063800 0.661563
O O13 0.000000 0.000000 0.500000
O O14 0.336849 0.750000 0.154966
O O15 0.511646 0.956873 0.215532
O O16 0.370671 0.750000 0.480651
O O17 0.500000 0.000000 0.500000
O O18 0.371964 0.965845 0.598021
O O19 0.617034 0.750000 0.344720
#
# Coordination Sequence:
#
# PCOD9166743 Si02
#       7
#     4   4   4   4   4   4   4
#     4  11  22  36  57  87 124 161 204 257 312 373
#     4  12  24  40  64  95 131 168 210 263 320 382
#     4  11  24  42  65  93 126 166 214 264 317 377
#     4  11  24  44  68  95 128 168 216 265 316 377
#     4  11  22  38  62  90 124 164 206 255 316 378
#     4  12  23  34  54  84 121 160 203 252 311 380
#     4  10  23  42  62  87 124 166 209 261 318 377
#
# _framework density 19.798552000000001
#
# number of rings (size 3 to 8) (size 9 to 14) (size 15 to 20)
#    0.000    0.857    2.857    5.143    0.000    6.857 
#    0.000    0.714    0.000    0.000    0.000    0.000 
#    0.000    0.000    0.000    0.000    0.000    0.000 
#
# Total GULP energy -156435.044241 kJ/mol
# GULP energy per Si atom -5586.965866 kJ/mol
# Density = 1.975349 g / cm^3
# Si number density = 19.798552 Si / 1000 Ang^3
#
#
#
# Elastic Constant Matrix: (Units=GPa)
#
#
# Indices 1 2 3 4 5 6 
#
# 1 64.4271 36.7988 29.8349 0.0000 11.1156 0.0000
# 2 36.7988 136.6697 56.9705 0.0000 8.6025 0.0000
# 3 29.8349 56.9705 133.8274 0.0000 13.8998 0.0000
# 4 0.0000 0.0000 0.0000 37.4592 0.0000 0.2987
# 5 11.1156 8.6025 13.8998 0.0000 33.0605 0.0000
# 6 0.0000 0.0000 0.0000 0.2987 0.0000 21.1187
#
#
#
# Elastic Compliance Matrix: (Units=1/GPa)
#
#
# Indices 1 2 3 4 5 6 
#
# 1 0.019664 -0.004104 -0.002155 0.000000 -0.004637 0.000000
# 2 -0.004104 0.009770 -0.003266 0.000000 0.000211 0.000000
# 3 -0.002155 -0.003266 0.009599 0.000000 -0.002461 0.000000
# 4 0.000000 0.000000 0.000000 0.026699 0.000000 -0.000378
# 5 -0.004637 0.000211 -0.002461 0.000000 0.032787 0.000000
# 6 0.000000 0.000000 0.000000 -0.000378 0.000000 0.047357
#
#
# Mechanical properties :
#
#
# Convention : Reuss Voigt Hill
#
# Bulk Modulus (GPa) = 50.04507 64.68140 57.36323
# Shear Modulus (GPa) = 29.13990 32.41569 30.77780
#
# Velocity S-wave (km/s) = 3.84059 4.05072 3.94705
# Velocity P-wave (km/s) = 6.70812 7.39043 7.05752
#
# Compressibility (1/GPa) = 0.01998199
#
# Stress axis : x y z
#
# Youngs Moduli (GPa) = 50.85527 102.35200 104.18065
#
# Poissons Ratio (x) = 0.42009 0.22449
# Poissons Ratio (y) = 0.20873 0.34026
# Poissons Ratio (z) = 0.10959 0.33429
#
# Static dielectric constant tensor:
#      x y z
#    x 2.082080 0.000000 0.500510 
#    y 0.000000 1.676350 0.000000 
#    z 0.500510 0.000000 2.291220 
# 
# From -- ./inp_files/49462.got.cif
#   From: 2010.05.17/outbox.cif.g08.bks.cpg/sg11_25_cif.got.tgz:49462.got - 2010.06.03 12:22:45.
