data_PCOD9166935
_publ_section_title
;
Structure prediction by ZEFSAII (Michael W. Deem and Ramdas Pophale) SiO2 
 PCOD9166935
Probable space group: P 21/M
;
_chemical_formula_sum "Si O2"
_cell_formula_units_Z 28
_cell_length_a 15.838211
_cell_length_b 8.389332
_cell_length_c 15.535217
_cell_angle_alpha 90.000000
_cell_angle_beta 38.370627
_cell_angle_gamma 90.000000
_cell_volume 1281.340972
_symmetry_space_group_name_H-M "P 21/M"
_symmetry_group_IT_number 11
_symmetry_cell_setting 'monoclinic'
loop_
_space_group_symop_operation_xyz
x,y,z
-x,1/2+y,-z
-x,-y,-z
x,1/2-y,z
loop_
_atom_site_type_symbol
_atom_site_label
_atom_site_fract_x
_atom_site_fract_y
_atom_site_fract_z
Si Si1 0.595984 0.061117 0.501766
Si Si2 0.086345 0.440930 0.513150
Si Si3 0.379253 0.939063 0.802270
Si Si4 0.900511 0.558744 0.006203
Si Si5 0.330356 0.059259 0.208864
Si Si6 0.361663 0.941784 0.008336
Si Si7 0.902049 0.442070 0.303316
O O1 0.605326 0.250000 0.482872
O O2 0.751961 0.000362 0.390076
O O3 0.500000 0.000000 0.500000
O O4 0.510071 0.019781 0.656221
O O5 0.074796 0.250000 0.525521
O O6 0.237847 0.489669 0.361944
O O7 0.065195 0.505864 0.625537
O O8 0.000000 0.500000 0.500000
O O9 0.404858 0.750000 0.785134
O O10 0.335622 0.995869 0.932541
O O11 0.244106 0.979024 0.858144
O O12 0.884959 0.750000 0.018040
O O13 0.976364 0.507183 0.857436
O O14 0.000000 0.500000 0.000000
O O15 0.333259 0.250000 0.204738
O O16 0.278914 0.002984 0.156502
O O17 0.483247 0.001702 0.100390
O O18 0.355512 0.750000 0.015431
O O19 0.897193 0.250000 0.305243
#
# Coordination Sequence:
#
# PCOD9166935 Si02
#       7
#     4   4   4   4   4   4   4
#     4  11  23  41  67  97 128 166 211 265 329 389
#     4  11  24  40  61  88 123 167 214 261 312 374
#     4  11  23  39  61  91 126 161 208 258 308 378
#     4  11  24  43  66  93 127 166 211 264 325 385
#     4   9  19  36  56  81 115 153 195 246 300 352
#     4   9  19  35  57  84 114 151 195 245 299 357
#     4  10  24  44  65  93 130 169 214 268 322 383
#
# _framework density 21.852108000000001
#
# number of rings (size 3 to 8) (size 9 to 14) (size 15 to 20)
#    0.000    1.714    0.000    3.429    2.000    6.857 
#    0.000    2.857    0.000    0.000    0.000    0.000 
#    0.000    0.000    0.000    0.000    0.000    0.000 
#
# Total GULP energy -156324.444104 kJ/mol
# GULP energy per Si atom -5583.015861 kJ/mol
# Density = 2.180237 g / cm^3
# Si number density = 21.852108 Si / 1000 Ang^3
#
#
#
# Elastic Constant Matrix: (Units=GPa)
#
#
# Indices 1 2 3 4 5 6 
#
# 1 73.2357 -0.7249 8.8335 0.0000 2.2642 0.0000
# 2 -0.7249 13.6008 8.1953 0.0000 0.7419 0.0000
# 3 8.8335 8.1953 89.0445 0.0000 7.6258 0.0000
# 4 0.0000 0.0000 0.0000 27.1646 0.0000 9.2240
# 5 2.2642 0.7419 7.6258 0.0000 41.1360 0.0000
# 6 0.0000 0.0000 0.0000 9.2240 0.0000 30.3802
#
#
#
# Elastic Compliance Matrix: (Units=1/GPa)
#
#
# Indices 1 2 3 4 5 6 
#
# 1 0.013866 0.001662 -0.001484 0.000000 -0.000518 0.000000
# 2 0.001662 0.078041 -0.007336 0.000000 -0.000139 0.000000
# 3 -0.001484 -0.007336 0.012229 0.000000 -0.002053 0.000000
# 4 0.000000 0.000000 0.000000 0.041044 0.000000 -0.012462
# 5 -0.000518 -0.000139 -0.002053 0.000000 0.024721 0.000000
# 6 0.000000 0.000000 0.000000 -0.012462 0.000000 0.036700
#
#
# Mechanical properties :
#
#
# Convention : Reuss Voigt Hill
#
# Bulk Modulus (GPa) = 11.13341 23.16541 17.14941
# Shear Modulus (GPa) = 19.93166 30.37462 25.15314
#
# Velocity S-wave (km/s) = 3.02340 3.73233 3.39641
# Velocity P-wave (km/s) = 4.15859 5.40349 4.82139
#
# Compressibility (1/GPa) = 0.08981976
#
# Stress axis : x y z
#
# Youngs Moduli (GPa) = 72.11875 12.81371 81.77599
#
# Poissons Ratio (x) = -0.02129 0.12136
# Poissons Ratio (y) = -0.11983 0.59987
# Poissons Ratio (z) = 0.10703 0.09400
#
# Static dielectric constant tensor:
#      x y z
#    x 1.845110 0.000000 0.004880 
#    y 0.000000 1.749270 0.000000 
#    z 0.004880 0.000000 1.815990 
# 
# From -- ./inp_files/51906.got.cif
#   From: 2010.05.17/outbox.cif.g08.bks.cpg/sg11_26_cif.got.tgz:51906.got - 2010.06.03 12:22:45.
