data_PCOD9166752
_publ_section_title
;
Structure prediction by ZEFSAII (Michael W. Deem and Ramdas Pophale) SiO2 
 PCOD9166752
Probable space group: P 21/M
;
_chemical_formula_sum "Si O2"
_cell_formula_units_Z 28
_cell_length_a 14.963595
_cell_length_b 8.477733
_cell_length_c 12.989247
_cell_angle_alpha 90.000000
_cell_angle_beta 58.301244
_cell_angle_gamma 90.000000
_cell_volume 1401.969710
_symmetry_space_group_name_H-M "P 21/M"
_symmetry_group_IT_number 11
_symmetry_cell_setting 'monoclinic'
loop_
_space_group_symop_operation_xyz
x,y,z
-x,1/2+y,-z
-x,-y,-z
x,1/2-y,z
loop_
_atom_site_type_symbol
_atom_site_label
_atom_site_fract_x
_atom_site_fract_y
_atom_site_fract_z
Si Si1 0.105143 0.938682 0.488760
Si Si2 0.117958 0.938923 0.915854
Si Si3 0.280669 0.440758 0.228051
Si Si4 0.806999 0.441721 0.352976
Si Si5 0.501911 0.438171 0.182983
Si Si6 0.732408 0.937884 0.994587
Si Si7 0.568880 0.439922 0.552889
O O1 0.103029 0.750000 0.491049
O O2 0.118233 0.994109 0.598933
O O3 0.205222 0.992805 0.361619
O O4 0.000000 0.000000 0.500000
O O5 0.116273 0.750000 0.913928
O O6 0.162684 0.998041 0.778842
O O7 0.192461 0.990210 0.964441
O O8 0.000000 0.000000 0.000000
O O9 0.276942 0.250000 0.235212
O O10 0.401668 0.487990 0.174923
O O11 0.244043 0.491077 0.136594
O O12 0.810548 0.250000 0.347744
O O13 0.689024 0.484669 0.456354
O O14 0.515010 0.250000 0.165708
O O15 0.611241 0.519337 0.089101
O O16 0.470927 0.482428 0.318106
O O17 0.744896 0.750000 0.990642
O O18 0.500000 0.500000 0.500000
O O19 0.562657 0.250000 0.565703
#
# Coordination Sequence:
#
# PCOD9166752 Si02
#       7
#     4   4   4   4   4   4   4
#     4  11  23  41  65  94 124 163 208 256 314 374
#     4  11  24  44  66  92 125 165 212 260 314 374
#     4  10  23  42  64  93 129 167 209 259 313 371
#     4   9  21  41  63  86 122 162 200 252 309 364
#     4  11  22  39  62  93 128 164 207 258 314 375
#     4  11  24  42  64  92 127 169 213 259 314 373
#     4  11  21  37  61  91 124 165 209 254 311 371
#
# _framework density 19.971900000000002
#
# number of rings (size 3 to 8) (size 9 to 14) (size 15 to 20)
#    0.000    1.429    1.429    3.429    2.000    2.857 
#    0.000    4.286    0.000    0.000    0.000    0.000 
#    0.000    0.000    0.000    0.000    0.000    0.000 
#
# Total GULP energy -156549.866008 kJ/mol
# GULP energy per Si atom -5591.066643 kJ/mol
# Density = 1.992644 g / cm^3
# Si number density = 19.971900 Si / 1000 Ang^3
#
#
#
# Elastic Constant Matrix: (Units=GPa)
#
#
# Indices 1 2 3 4 5 6 
#
# 1 137.4552 20.9174 31.4033 0.0000 27.4138 0.0000
# 2 20.9174 29.0691 10.8921 0.0000 6.0642 0.0000
# 3 31.4033 10.8921 90.9115 0.0000 28.7015 0.0000
# 4 0.0000 0.0000 0.0000 29.7464 0.0000 -3.9147
# 5 27.4138 6.0642 28.7015 0.0000 40.0983 0.0000
# 6 0.0000 0.0000 0.0000 -3.9147 0.0000 34.9317
#
#
#
# Elastic Compliance Matrix: (Units=1/GPa)
#
#
# Indices 1 2 3 4 5 6 
#
# 1 0.009275 -0.005278 -0.001061 0.000000 -0.004783 0.000000
# 2 -0.005278 0.039312 -0.002776 0.000000 -0.000349 0.000000
# 3 -0.001061 -0.002776 0.014647 0.000000 -0.009339 0.000000
# 4 0.000000 0.000000 0.000000 0.034121 0.000000 0.003824
# 5 -0.004783 -0.000349 -0.009339 0.000000 0.034946 0.000000
# 6 0.000000 0.000000 0.000000 0.003824 0.000000 0.029056
#
#
# Mechanical properties :
#
#
# Convention : Reuss Voigt Hill
#
# Bulk Modulus (GPa) = 22.22128 42.65124 32.43626
# Shear Modulus (GPa) = 25.69513 33.90348 29.79931
#
# Velocity S-wave (km/s) = 3.59076 4.12461 3.86691
# Velocity P-wave (km/s) = 5.32371 6.63967 6.01777
#
# Compressibility (1/GPa) = 0.04500191
#
# Stress axis : x y z
#
# Youngs Moduli (GPa) = 107.82023 25.43745 68.27201
#
# Poissons Ratio (x) = 0.13427 0.07246
# Poissons Ratio (y) = 0.56912 0.18955
# Poissons Ratio (z) = 0.11443 0.07062
#
# Static dielectric constant tensor:
#      x y z
#    x 1.696320 0.000000 0.024270 
#    y 0.000000 1.683760 0.000000 
#    z 0.024270 0.000000 1.691440 
# 
# From -- ./inp_files/37851.got.cif
#   From: 2010.05.17/outbox.cif.g08.bks.cpg/sg11_19_cif.got.tgz:37851.got - 2010.06.03 12:22:45.
