data_PCOD9166130
_publ_section_title
;
Structure prediction by ZEFSAII (Michael W. Deem and Ramdas Pophale) SiO2 
 PCOD9166130
Probable space group: P 21/M
;
_chemical_formula_sum "Si O2"
_cell_formula_units_Z 26
_cell_length_a 21.699315
_cell_length_b 10.269424
_cell_length_c 7.797183
_cell_angle_alpha 90.000000
_cell_angle_beta 45.426355
_cell_angle_gamma 90.000000
_cell_volume 1237.720614
_symmetry_space_group_name_H-M "P 21/M"
_symmetry_group_IT_number 11
_symmetry_cell_setting 'monoclinic'
loop_
_space_group_symop_operation_xyz
x,y,z
-x,1/2+y,-z
-x,-y,-z
x,1/2-y,z
loop_
_atom_site_type_symbol
_atom_site_label
_atom_site_fract_x
_atom_site_fract_y
_atom_site_fract_z
Si Si1 0.142622 0.004465 0.978948
Si Si2 0.022521 0.750000 0.163570
Si Si3 0.084573 0.750000 0.693372
Si Si4 0.776195 0.022695 0.524186
Si Si5 0.050907 0.250000 0.327708
Si Si6 0.579628 0.099827 0.803032
Si Si7 0.562692 0.389717 0.432050
Si Si8 0.747833 0.401841 0.927935
O O1 0.075663 0.884733 0.084638
O O2 0.212696 0.941957 0.968737
O O3 0.097256 0.121876 0.165902
O O4 0.188719 0.051359 0.712204
O O5 0.956506 0.750000 0.451555
O O6 0.006921 0.750000 0.987966
O O7 0.148077 0.631089 0.610612
O O8 0.042202 0.750000 0.588517
O O9 0.676601 0.065656 0.681290
O O10 0.772178 0.992539 0.734781
O O11 0.559346 0.250000 0.896253
O O12 0.587986 0.099317 0.580941
O O13 0.500000 0.000000 0.000000
O O14 0.500000 0.500000 0.500000
O O15 0.519619 0.250000 0.492589
O O16 0.645919 0.398341 0.150955
O O17 0.771878 0.250000 0.840449
#
# Coordination Sequence:
#
# PCOD9166130 Si02
#       8
#     4   2   2   4   2   4   4   4
#     4  11  24  42  67  97 134 169 221 274 327 393
#     4  10  22  40  70  90 127 168 217 270 320 396
#     4  10  22  38  68  95 126 171 228 259 320 397
#     4  11  21  40  67  96 129 176 224 264 324 393
#     4  12  26  44  62 105 137 169 213 281 344 381
#     4  11  22  40  66  99 134 170 219 274 322 384
#     4  10  22  38  61  93 128 164 217 269 317 383
#     4  11  20  37  68  93 122 170 225 266 318 388
#
# _framework density 21.006354999999999
#
# number of rings (size 3 to 8) (size 9 to 14) (size 15 to 20)
#    0.000    1.231    3.846    2.308    0.000    5.538 
#    2.769    0.000    0.000    0.000    0.000    0.000 
#    0.000    0.000    0.000    0.000    0.000    0.000 
#
# Total GULP energy -144796.800401 kJ/mol
# GULP energy per Si atom -5569.107708 kJ/mol
# Density = 2.095854 g / cm^3
# Si number density = 21.006355 Si / 1000 Ang^3
#
#
#
# Elastic Constant Matrix: (Units=GPa)
#
#
# Indices 1 2 3 4 5 6 
#
# 1 31.6932 -12.0202 1.1101 0.0000 -1.8799 0.0000
# 2 -12.0202 56.0766 26.6147 0.0000 -11.7551 0.0000
# 3 1.1101 26.6147 118.0077 0.0000 13.0118 0.0000
# 4 0.0000 0.0000 0.0000 23.3881 0.0000 -6.5043
# 5 -1.8799 -11.7551 13.0118 0.0000 41.1934 0.0000
# 6 0.0000 0.0000 0.0000 -6.5043 0.0000 10.9777
#
#
#
# Elastic Compliance Matrix: (Units=1/GPa)
#
#
# Indices 1 2 3 4 5 6 
#
# 1 0.035983 0.010486 -0.003330 0.000000 0.005686 0.000000
# 2 0.010486 0.025454 -0.006934 0.000000 0.009933 0.000000
# 3 -0.003330 -0.006934 0.010676 0.000000 -0.005503 0.000000
# 4 0.000000 0.000000 0.000000 0.051192 0.000000 0.030331
# 5 0.005686 0.009933 -0.005503 0.000000 0.029108 0.000000
# 6 0.000000 0.000000 0.000000 0.030331 0.000000 0.109065
#
#
# Mechanical properties :
#
#
# Convention : Reuss Voigt Hill
#
# Bulk Modulus (GPa) = 13.78265 26.35409 20.06837
# Shear Modulus (GPa) = 17.53028 27.78337 22.65683
#
# Velocity S-wave (km/s) = 2.89194 3.64073 3.28772
# Velocity P-wave (km/s) = 4.21029 5.49965 4.89759
#
# Compressibility (1/GPa) = 0.07255501
#
# Stress axis : x y z
#
# Youngs Moduli (GPa) = 27.79061 39.28700 93.66720
#
# Poissons Ratio (x) = -0.41196 0.31195
# Poissons Ratio (y) = -0.29141 0.64953
# Poissons Ratio (z) = 0.09255 0.27244
#
# Static dielectric constant tensor:
#      x y z
#    x 1.779880 0.000000 0.062220 
#    y 0.000000 1.744130 0.000000 
#    z 0.062220 0.000000 1.827700 
# 
# From -- ./inp_files/26548.got.cif
#   From: 2010.05.17/outbox.cif.g08.bks.cpg/sg11_14_cif.got.tgz:26548.got - 2010.06.03 12:22:45.
