data_PCOD9166710
_publ_section_title
;
Structure prediction by ZEFSAII (Michael W. Deem and Ramdas Pophale) SiO2 
 PCOD9166710
Probable space group: P 21/M
;
_chemical_formula_sum "Si O2"
_cell_formula_units_Z 16
_cell_length_a 7.889714
_cell_length_b 17.842288
_cell_length_c 7.255811
_cell_angle_alpha 90.000000
_cell_angle_beta 54.412045
_cell_angle_gamma 90.000000
_cell_volume 830.629755
_symmetry_space_group_name_H-M "P 21/M"
_symmetry_group_IT_number 11
_symmetry_cell_setting 'monoclinic'
loop_
_space_group_symop_operation_xyz
x,y,z
-x,1/2+y,-z
-x,-y,-z
x,1/2-y,z
loop_
_atom_site_type_symbol
_atom_site_label
_atom_site_fract_x
_atom_site_fract_y
_atom_site_fract_z
Si Si1 0.797155 0.663747 0.566419
Si Si2 0.605687 0.925668 0.348984
Si Si3 0.184510 0.042879 0.156894
Si Si4 0.790022 0.093286 0.605845
O O1 0.738195 0.750000 0.615468
O O2 0.711682 0.623847 0.438406
O O3 0.723646 0.613324 0.786184
O O4 0.049177 0.653966 0.416738
O O5 0.416398 0.882168 0.366928
O O6 0.500000 0.000000 0.500000
O O7 0.764328 0.949285 0.087672
O O8 0.939178 0.048599 0.364887
O O9 0.263019 0.966650 0.201581
#
# Coordination Sequence:
#
# PCOD9166710 Si02
#       4
#     4   4   4   4
#     4  10  23  41  56  87 126 156 198 246 296 358
#     4  12  21  36  70  92 113 156 205 246 299 350
#     4   9  20  41  60  88 123 147 200 251 287 353
#     4   9  20  40  61  86 117 159 192 244 295 351
#
# _framework density 19.262495999999999
#
# number of rings (size 3 to 8) (size 9 to 14) (size 15 to 20)
#    1.500    0.500    2.500    0.750    0.000    6.000 
#    0.000    0.000    0.000    0.000    0.000    0.000 
#    0.000    0.000    0.000    0.000    0.000    0.000 
#
# Total GULP energy -89152.055930 kJ/mol
# GULP energy per Si atom -5572.003496 kJ/mol
# Density = 1.921865 g / cm^3
# Si number density = 19.262496 Si / 1000 Ang^3
#
#
#
# Elastic Constant Matrix: (Units=GPa)
#
#
# Indices 1 2 3 4 5 6 
#
# 1 92.5770 3.3796 -1.8222 0.0000 5.7979 0.0000
# 2 3.3796 86.9253 29.4153 0.0000 14.3717 0.0000
# 3 -1.8222 29.4153 101.4625 0.0000 8.9082 0.0000
# 4 0.0000 0.0000 0.0000 8.7522 0.0000 5.0632
# 5 5.7979 14.3717 8.9082 0.0000 22.9202 0.0000
# 6 0.0000 0.0000 0.0000 5.0632 0.0000 13.0408
#
#
#
# Elastic Compliance Matrix: (Units=1/GPa)
#
#
# Indices 1 2 3 4 5 6 
#
# 1 0.010997 -0.000112 0.000485 0.000000 -0.002900 0.000000
# 2 -0.000112 0.013867 -0.003377 0.000000 -0.007354 0.000000
# 3 0.000485 -0.003377 0.011045 0.000000 -0.002298 0.000000
# 4 0.000000 0.000000 0.000000 0.147353 0.000000 -0.057210
# 5 -0.002900 -0.007354 -0.002298 0.000000 0.049868 0.000000
# 6 0.000000 0.000000 0.000000 -0.057210 0.000000 0.098894
#
#
# Mechanical properties :
#
#
# Convention : Reuss Voigt Hill
#
# Bulk Modulus (GPa) = 33.44342 38.10113 35.77228
# Shear Modulus (GPa) = 14.36784 25.60879 19.98832
#
# Velocity S-wave (km/s) = 2.73407 3.65014 3.22480
# Velocity P-wave (km/s) = 5.23130 6.13087 5.69886
#
# Compressibility (1/GPa) = 0.02990125
#
# Stress axis : x y z
#
# Youngs Moduli (GPa) = 90.93338 72.11342 90.53665
#
# Poissons Ratio (x) = 0.00808 -0.04387
# Poissons Ratio (y) = 0.01019 0.30570
# Poissons Ratio (z) = -0.04407 0.24349
#
# Static dielectric constant tensor:
#      x y z
#    x 1.735120 0.000000 -0.027980 
#    y 0.000000 1.660890 0.000000 
#    z -0.027980 0.000000 1.668560 
# 
# From -- ./inp_files/1838.got.cif
#   From: 2010.05.17/outbox.cif.g08.bks.cpg/sg11_1_cif.got.tgz:1838.got - 2010.06.03 12:22:45.
