data_PCOD9166459
_publ_section_title
;
Structure prediction by ZEFSAII (Michael W. Deem and Ramdas Pophale) SiO2 
 PCOD9166459
Probable space group: P 21/M
;
_chemical_formula_sum "Si O2"
_cell_formula_units_Z 32
_cell_length_a 4.952102
_cell_length_b 32.008773
_cell_length_c 8.565112
_cell_angle_alpha 90.000000
_cell_angle_beta 93.044277
_cell_angle_gamma 90.000000
_cell_volume 1355.746031
_symmetry_space_group_name_H-M "P 21/M"
_symmetry_group_IT_number 11
_symmetry_cell_setting 'monoclinic'
loop_
_space_group_symop_operation_xyz
x,y,z
-x,1/2+y,-z
-x,-y,-z
x,1/2-y,z
loop_
_atom_site_type_symbol
_atom_site_label
_atom_site_fract_x
_atom_site_fract_y
_atom_site_fract_z
Si Si1 0.220434 0.048287 0.248793
Si Si2 0.895409 0.417081 0.513525
Si Si3 0.300389 0.499353 0.845184
Si Si4 0.336517 0.845562 0.691173
Si Si5 0.592292 0.422692 0.786695
Si Si6 0.032939 0.882581 0.966385
Si Si7 0.821980 0.798729 0.556476
Si Si8 0.227580 0.351371 0.731595
O O1 0.102069 0.057609 0.415048
O O2 0.002185 0.016061 0.166218
O O3 0.519022 0.029373 0.259917
O O4 0.180091 0.091015 0.145905
O O5 0.698397 0.389792 0.397945
O O6 0.734183 0.441738 0.639806
O O7 0.057170 0.382335 0.616155
O O8 0.327904 0.450554 0.804424
O O9 0.500000 0.500000 0.000000
O O10 0.626995 0.826328 0.662022
O O11 0.123950 0.813213 0.608021
O O12 0.228512 0.855445 0.861429
O O13 0.783746 0.417661 0.941477
O O14 0.513429 0.374838 0.749455
O O15 0.892735 0.854894 0.097477
O O16 0.782688 0.750000 0.583289
O O17 0.762198 0.810049 0.372642
#
# Coordination Sequence:
#
# PCOD9166459 Si02
#       8
#     4   4   4   4   4   4   4   4
#     4  11  25  41  61  88 122 172 218 269 321 362
#     4   9  22  39  61  90 122 165 217 262 307 374
#     4  12  25  39  58  86 128 165 218 271 326 368
#     4  10  22  42  68  97 123 162 213 250 304 381
#     4  11  22  38  63  87 127 169 213 264 316 371
#     4  10  23  39  67  91 124 170 214 264 306 374
#     4  11  23  44  70  95 129 163 197 253 318 379
#     4  10  22  41  65  95 126 165 214 254 314 385
#
# _framework density 23.603238999999999
#
# number of rings (size 3 to 8) (size 9 to 14) (size 15 to 20)
#    0.000    1.500    2.500    1.500    7.000    3.000 
#    0.000    1.250    0.000    0.000    0.000    0.000 
#    0.000    0.000    0.000    0.000    0.000    0.000 
#
# Total GULP energy -179044.492679 kJ/mol
# GULP energy per Si atom -5595.140396 kJ/mol
# Density = 2.354952 g / cm^3
# Si number density = 23.603239 Si / 1000 Ang^3
#
#
#
# Elastic Constant Matrix: (Units=GPa)
#
#
# Indices 1 2 3 4 5 6 
#
# 1 87.2259 8.2796 4.1798 0.0000 -6.4921 0.0000
# 2 8.2796 86.8577 15.0042 0.0000 -0.9190 0.0000
# 3 4.1798 15.0042 112.6852 0.0000 -17.9048 0.0000
# 4 0.0000 0.0000 0.0000 29.6501 0.0000 -2.0091
# 5 -6.4921 -0.9190 -17.9048 0.0000 30.3870 0.0000
# 6 0.0000 0.0000 0.0000 -2.0091 0.0000 29.8445
#
#
#
# Elastic Compliance Matrix: (Units=1/GPa)
#
#
# Indices 1 2 3 4 5 6 
#
# 1 0.011754 -0.001114 0.000117 0.000000 0.002546 0.000000
# 2 -0.001114 0.011900 -0.001681 0.000000 -0.000869 0.000000
# 3 0.000117 -0.001681 0.010029 0.000000 0.005883 0.000000
# 4 0.000000 0.000000 0.000000 0.033881 0.000000 0.002281
# 5 0.002546 -0.000869 0.005883 0.000000 0.036893 0.000000
# 6 0.000000 0.000000 0.000000 0.002281 0.000000 0.033661
#
#
# Mechanical properties :
#
#
# Convention : Reuss Voigt Hill
#
# Bulk Modulus (GPa) = 35.30191 37.96621 36.63406
# Shear Modulus (GPa) = 32.69754 35.26333 33.98044
#
# Velocity S-wave (km/s) = 3.72600 3.86943 3.79839
# Velocity P-wave (km/s) = 5.78788 6.00694 5.89843
#
# Compressibility (1/GPa) = 0.02832708
#
# Stress axis : x y z
#
# Youngs Moduli (GPa) = 85.07653 84.03019 99.71470
#
# Poissons Ratio (x) = 0.09358 -0.01166
# Poissons Ratio (y) = 0.09475 0.16765
# Poissons Ratio (z) = -0.00995 0.14128
#
# Static dielectric constant tensor:
#      x y z
#    x 1.924680 0.000000 -0.005160 
#    y 0.000000 1.888970 0.000000 
#    z -0.005160 0.000000 2.004860 
# 
# From -- ./inp_files/10853.got.cif
#   From: 2010.05.17/outbox.cif.g08.bks.cpg/sg11_6_cif.got.tgz:10853.got - 2010.06.03 12:22:45.
