data_PCOD9166113
_publ_section_title
;
Structure prediction by ZEFSAII (Michael W. Deem and Ramdas Pophale) SiO2 
 PCOD9166113
Probable space group: P 21/M
;
_chemical_formula_sum "Si O2"
_cell_formula_units_Z 28
_cell_length_a 8.249684
_cell_length_b 14.002471
_cell_length_c 12.116014
_cell_angle_alpha 90.000000
_cell_angle_beta 110.962929
_cell_angle_gamma 90.000000
_cell_volume 1306.956877
_symmetry_space_group_name_H-M "P 21/M"
_symmetry_group_IT_number 11
_symmetry_cell_setting 'monoclinic'
loop_
_space_group_symop_operation_xyz
x,y,z
-x,1/2+y,-z
-x,-y,-z
x,1/2-y,z
loop_
_atom_site_type_symbol
_atom_site_label
_atom_site_fract_x
_atom_site_fract_y
_atom_site_fract_z
Si Si1 0.054661 0.520550 0.390224
Si Si2 0.916600 0.541774 0.138380
Si Si3 0.399273 0.636107 0.442580
Si Si4 0.356110 0.135453 0.094271
Si Si5 0.714370 0.137041 0.817990
Si Si6 0.705073 0.362074 0.062632
Si Si7 0.725547 0.864516 0.671923
O O1 0.218052 0.591120 0.434032
O O2 0.122016 0.424275 0.347030
O O3 0.000000 0.500000 0.500000
O O4 0.913676 0.561649 0.269320
O O5 0.870137 0.430406 0.111614
O O6 0.107357 0.577527 0.149041
O O7 0.776688 0.593551 0.027227
O O8 0.389398 0.750000 0.449832
O O9 0.410482 0.612920 0.314631
O O10 0.557564 0.607004 0.558252
O O11 0.348770 0.250000 0.084402
O O12 0.552789 0.108394 0.108999
O O13 0.308236 0.110497 0.208307
O O14 0.760035 0.250000 0.818863
O O15 0.637367 0.124755 0.920688
O O16 0.747161 0.250000 0.088226
O O17 0.751070 0.750000 0.671047
#
# Coordination Sequence:
#
# PCOD9166113 Si02
#       7
#     4   4   4   4   4   4   4
#     4  11  26  41  61  95 126 161 209 257 307 370
#     4  11  23  39  60  88 127 163 197 252 316 361
#     4   9  20  41  65  87 120 166 207 250 304 362
#     4  10  23  41  63  92 122 159 207 253 305 369
#     4   9  19  36  61  90 119 156 202 250 305 362
#     4  10  22  38  59  91 123 159 205 250 300 367
#     4  10  23  43  66  90 123 165 205 252 308 368
#
# _framework density 21.423815000000001
#
# number of rings (size 3 to 8) (size 9 to 14) (size 15 to 20)
#    0.000    2.000    0.000    1.714    8.000    2.857 
#    0.000    1.429    0.000    0.000    0.000    0.000 
#    0.000    0.000    0.000    0.000    0.000    0.000 
#
# Total GULP energy -156454.873573 kJ/mol
# GULP energy per Si atom -5587.674056 kJ/mol
# Density = 2.137505 g / cm^3
# Si number density = 21.423815 Si / 1000 Ang^3
#
#
#
# Elastic Constant Matrix: (Units=GPa)
#
#
# Indices 1 2 3 4 5 6 
#
# 1 53.7961 34.6599 66.4898 0.0000 -16.9837 0.0000
# 2 34.6599 70.4474 44.2488 0.0000 0.2130 0.0000
# 3 66.4898 44.2488 174.4112 0.0000 -5.9431 0.0000
# 4 0.0000 0.0000 0.0000 26.6610 0.0000 -0.3451
# 5 -16.9837 0.2130 -5.9431 0.0000 43.2656 0.0000
# 6 0.0000 0.0000 0.0000 -0.3451 0.0000 27.6027
#
#
#
# Elastic Compliance Matrix: (Units=1/GPa)
#
#
# Indices 1 2 3 4 5 6 
#
# 1 0.056473 -0.017547 -0.016396 0.000000 0.020002 0.000000
# 2 -0.017547 0.022357 0.000782 0.000000 -0.006891 0.000000
# 3 -0.016396 0.000782 0.011620 0.000000 -0.004844 0.000000
# 4 0.000000 0.000000 0.000000 0.037514 0.000000 0.000469
# 5 0.020002 -0.006891 -0.004844 0.000000 0.030333 0.000000
# 6 0.000000 0.000000 0.000000 0.000469 0.000000 0.036234
#
#
# Mechanical properties :
#
#
# Convention : Reuss Voigt Hill
#
# Bulk Modulus (GPa) = 41.44095 65.49462 53.46778
# Shear Modulus (GPa) = 18.59452 29.72294 24.15873
#
# Velocity S-wave (km/s) = 2.94927 3.72879 3.36170
# Velocity P-wave (km/s) = 5.56624 7.01255 6.33083
#
# Compressibility (1/GPa) = 0.02413072
#
# Stress axis : x y z
#
# Youngs Moduli (GPa) = 17.70757 44.72792 86.05497
#
# Poissons Ratio (x) = 0.78483 1.41093
# Poissons Ratio (y) = 0.31071 -0.06732
# Poissons Ratio (z) = 0.29033 -0.03499
#
# Static dielectric constant tensor:
#      x y z
#    x 1.748690 0.000000 0.006210 
#    y 0.000000 1.823210 0.000000 
#    z 0.006210 0.000000 1.805090 
# 
# From -- ./inp_files/31719.got.cif
#   From: 2010.05.17/outbox.cif.g08.bks.cpg/sg11_16_cif.got.tgz:31719.got - 2010.06.03 12:22:45.
