data_PCOD9166493
_publ_section_title
;
Structure prediction by ZEFSAII (Michael W. Deem and Ramdas Pophale) SiO2 
 PCOD9166493
Probable space group: P 21/M
;
_chemical_formula_sum "Si O2"
_cell_formula_units_Z 24
_cell_length_a 4.928184
_cell_length_b 19.433498
_cell_length_c 9.748441
_cell_angle_alpha 90.000000
_cell_angle_beta 105.814790
_cell_angle_gamma 90.000000
_cell_volume 898.286344
_symmetry_space_group_name_H-M "P 21/M"
_symmetry_group_IT_number 11
_symmetry_cell_setting 'monoclinic'
loop_
_space_group_symop_operation_xyz
x,y,z
-x,1/2+y,-z
-x,-y,-z
x,1/2-y,z
loop_
_atom_site_type_symbol
_atom_site_label
_atom_site_fract_x
_atom_site_fract_y
_atom_site_fract_z
Si Si1 0.566270 0.382640 0.862360
Si Si2 0.575372 0.829524 0.457996
Si Si3 0.628122 0.174763 0.269558
Si Si4 0.635785 0.024867 0.227883
Si Si5 0.218603 0.463078 0.402115
Si Si6 0.869421 0.675856 0.992976
O O1 0.550082 0.359074 0.700816
O O2 0.433089 0.457915 0.868722
O O3 0.371351 0.333251 0.925586
O O4 0.889874 0.379402 0.950126
O O5 0.665078 0.750000 0.452169
O O6 0.375167 0.830651 0.565566
O O7 0.798580 0.887222 0.535284
O O8 0.751945 0.250000 0.249521
O O9 0.725763 0.103932 0.211177
O O10 0.304001 0.177786 0.171611
O O11 0.337345 0.037165 0.262856
O O12 0.912805 0.002213 0.354476
O O13 0.500000 0.500000 0.500000
O O14 0.011772 0.750000 0.033078
#
# Coordination Sequence:
#
# PCOD9166493 Si02
#       6
#     4   4   4   4   4   4
#     4  12  25  42  72 104 140 177 230 290 344 410
#     4  10  22  41  69 102 132 176 233 287 336 405
#     4   9  23  46  71  99 140 187 233 281 343 417
#     4  11  24  41  69 100 136 179 229 282 346 407
#     4  11  22  40  65  96 138 177 217 277 350 408
#     4  11  25  46  68  98 142 188 227 280 350 411
#
# _framework density 26.717537
#
# number of rings (size 3 to 8) (size 9 to 14) (size 15 to 20)
#    0.000    1.333    1.667    3.000    0.000    6.000 
#    0.000    8.333    0.000    0.000    0.000    0.000 
#    0.000    0.000    0.000    0.000    0.000    0.000 
#
# Total GULP energy -133987.287030 kJ/mol
# GULP energy per Si atom -5582.803626 kJ/mol
# Density = 2.665673 g / cm^3
# Si number density = 26.717537 Si / 1000 Ang^3
#
#
#
# Elastic Constant Matrix: (Units=GPa)
#
#
# Indices 1 2 3 4 5 6 
#
# 1 138.1601 22.7620 48.2831 0.0000 12.5658 0.0000
# 2 22.7620 191.4677 16.6067 0.0000 -0.8411 0.0000
# 3 48.2831 16.6067 97.6433 0.0000 -14.3039 0.0000
# 4 0.0000 0.0000 0.0000 37.0469 0.0000 4.7605
# 5 12.5658 -0.8411 -14.3039 0.0000 38.2758 0.0000
# 6 0.0000 0.0000 0.0000 4.7605 0.0000 22.1169
#
#
#
# Elastic Compliance Matrix: (Units=1/GPa)
#
#
# Indices 1 2 3 4 5 6 
#
# 1 0.009744 -0.000707 -0.005468 0.000000 -0.005258 0.000000
# 2 -0.000707 0.005354 -0.000539 0.000000 0.000148 0.000000
# 3 -0.005468 -0.000539 0.014068 0.000000 0.007041 0.000000
# 4 0.000000 0.000000 0.000000 0.027761 0.000000 -0.005975
# 5 -0.005258 0.000148 0.007041 0.000000 0.030487 0.000000
# 6 0.000000 0.000000 0.000000 -0.005975 0.000000 0.046500
#
#
# Mechanical properties :
#
#
# Convention : Reuss Voigt Hill
#
# Bulk Modulus (GPa) = 63.54283 66.95275 65.24779
# Shear Modulus (GPa) = 32.76784 42.12920 37.44852
#
# Velocity S-wave (km/s) = 3.50588 3.97525 3.74792
# Velocity P-wave (km/s) = 6.34216 6.79588 6.57294
#
# Compressibility (1/GPa) = 0.01573742
#
# Stress axis : x y z
#
# Youngs Moduli (GPa) = 102.63144 186.76568 71.08174
#
# Poissons Ratio (x) = 0.13208 0.38868
# Poissons Ratio (y) = 0.07258 0.03833
# Poissons Ratio (z) = 0.56119 0.10071
#
# Static dielectric constant tensor:
#      x y z
#    x 2.004550 0.000000 -0.058540 
#    y 0.000000 2.176020 0.000000 
#    z -0.058540 0.000000 2.232620 
# 
# From -- ./inp_files/29921.got.cif
#   From: 2010.05.17/outbox.cif.g08.bks.cpg/sg11_15_cif.got.tgz:29921.got - 2010.06.03 12:22:45.
