data_PCOD9166347
_publ_section_title
;
Structure prediction by ZEFSAII (Michael W. Deem and Ramdas Pophale) SiO2 
 PCOD9166347
Probable space group: P 21/M
;
_chemical_formula_sum "Si O2"
_cell_formula_units_Z 28
_cell_length_a 21.533562
_cell_length_b 8.350772
_cell_length_c 14.795121
_cell_angle_alpha 90.000000
_cell_angle_beta 28.836206
_cell_angle_gamma 90.000000
_cell_volume 1283.172027
_symmetry_space_group_name_H-M "P 21/M"
_symmetry_group_IT_number 11
_symmetry_cell_setting 'monoclinic'
loop_
_space_group_symop_operation_xyz
x,y,z
-x,1/2+y,-z
-x,-y,-z
x,1/2-y,z
loop_
_atom_site_type_symbol
_atom_site_label
_atom_site_fract_x
_atom_site_fract_y
_atom_site_fract_z
Si Si1 0.961677 0.560162 0.772729
Si Si2 0.618222 0.935443 0.943030
Si Si3 0.424810 0.063964 0.332803
Si Si4 0.397840 0.564366 0.556930
Si Si5 0.895303 0.559060 0.060360
Si Si6 0.753909 0.556230 0.592486
Si Si7 0.868064 0.062118 0.711570
O O1 0.936134 0.750000 0.797631
O O2 0.111064 0.525877 0.561059
O O3 0.878482 0.465981 0.805423
O O4 0.935381 0.505694 0.908410
O O5 0.575686 0.750000 0.996899
O O6 0.647696 0.991135 0.803048
O O7 0.757521 0.952684 0.811290
O O8 0.529612 0.039959 0.121009
O O9 0.416992 0.250000 0.368282
O O10 0.294194 0.016374 0.446880
O O11 0.452492 0.964150 0.386491
O O12 0.500000 0.500000 0.500000
O O13 0.380711 0.750000 0.597253
O O14 0.254435 0.488800 0.736702
O O15 0.901084 0.750000 0.055390
O O16 0.000000 0.500000 0.000000
O O17 0.766590 0.750000 0.582842
O O18 0.847696 0.250000 0.717490
O O19 0.000000 0.000000 0.500000
#
# Coordination Sequence:
#
# PCOD9166347 Si02
#       7
#     4   4   4   4   4   4   4
#     4  11  24  40  65  96 130 170 215 266 325 390
#     4  11  23  40  63  94 131 173 218 264 318 384
#     4  11  24  43  67  96 130 172 218 267 327 392
#     4  12  27  48  72  99 134 178 228 287 347 407
#     4  11  25  46  72 104 138 176 226 282 342 407
#     4  10  22  40  64  95 133 173 214 262 318 384
#     4  12  24  40  62  91 128 170 216 267 323 386
#
# _framework density 21.820924999999999
#
# number of rings (size 3 to 8) (size 9 to 14) (size 15 to 20)
#    0.000    0.857    1.429    5.571    2.000    6.286 
#    0.000    0.000    0.000    0.000    0.000    0.000 
#    0.000    0.000    0.000    0.000    0.000    0.000 
#
# Total GULP energy -156611.891655 kJ/mol
# GULP energy per Si atom -5593.281845 kJ/mol
# Density = 2.177126 g / cm^3
# Si number density = 21.820925 Si / 1000 Ang^3
#
#
#
# Elastic Constant Matrix: (Units=GPa)
#
#
# Indices 1 2 3 4 5 6 
#
# 1 144.0394 20.1670 26.6910 0.0000 10.5338 0.0000
# 2 20.1670 53.3214 -6.6711 0.0000 6.6166 0.0000
# 3 26.6910 -6.6711 68.2880 0.0000 6.3251 0.0000
# 4 0.0000 0.0000 0.0000 34.8955 0.0000 2.1096
# 5 10.5338 6.6166 6.3251 0.0000 36.3995 0.0000
# 6 0.0000 0.0000 0.0000 2.1096 0.0000 30.4656
#
#
#
# Elastic Compliance Matrix: (Units=1/GPa)
#
#
# Indices 1 2 3 4 5 6 
#
# 1 0.008126 -0.003356 -0.003397 0.000000 -0.001151 0.000000
# 2 -0.003356 0.020914 0.003676 0.000000 -0.003469 0.000000
# 3 -0.003397 0.003676 0.016568 0.000000 -0.002564 0.000000
# 4 0.000000 0.000000 0.000000 0.028777 0.000000 -0.001993
# 5 -0.001151 -0.003469 -0.002564 0.000000 0.028882 0.000000
# 6 0.000000 0.000000 0.000000 -0.001993 0.000000 0.032962
#
#
# Mechanical properties :
#
#
# Convention : Reuss Voigt Hill
#
# Bulk Modulus (GPa) = 25.34578 38.44695 31.89637
# Shear Modulus (GPa) = 32.14706 35.38290 33.76498
#
# Velocity S-wave (km/s) = 3.84242 4.03117 3.93793
# Velocity P-wave (km/s) = 5.59698 6.27094 5.94352
#
# Compressibility (1/GPa) = 0.03945430
#
# Stress axis : x y z
#
# Youngs Moduli (GPa) = 123.06026 47.81546 60.35603
#
# Poissons Ratio (x) = 0.16045 0.20505
# Poissons Ratio (y) = 0.41294 -0.22187
# Poissons Ratio (z) = 0.41808 -0.17577
#
# Static dielectric constant tensor:
#      x y z
#    x 1.833760 0.000000 -0.016350 
#    y 0.000000 1.728720 0.000000 
#    z -0.016350 0.000000 1.844670 
# 
# From -- ./inp_files/54495.got.cif
#   From: 2010.05.17/outbox.cif.g08.bks.cpg/sg11_28_cif.got.tgz:54495.got - 2010.06.03 12:22:45.
