data_PCOD9166905
_publ_section_title
;
Structure prediction by ZEFSAII (Michael W. Deem and Ramdas Pophale) SiO2 
 PCOD9166905
Probable space group: P 21/M
;
_chemical_formula_sum "Si O2"
_cell_formula_units_Z 22
_cell_length_a 8.876085
_cell_length_b 9.081488
_cell_length_c 19.508963
_cell_angle_alpha 90.000000
_cell_angle_beta 137.227694
_cell_angle_gamma 90.000000
_cell_volume 1067.917728
_symmetry_space_group_name_H-M "P 21/M"
_symmetry_group_IT_number 11
_symmetry_cell_setting 'monoclinic'
loop_
_space_group_symop_operation_xyz
x,y,z
-x,1/2+y,-z
-x,-y,-z
x,1/2-y,z
loop_
_atom_site_type_symbol
_atom_site_label
_atom_site_fract_x
_atom_site_fract_y
_atom_site_fract_z
Si Si1 0.094528 0.077815 0.341768
Si Si2 0.186715 0.078912 0.107288
Si Si3 0.417747 0.958844 0.866148
Si Si4 0.194509 0.928558 0.520051
Si Si5 0.664374 0.072190 0.705940
Si Si6 0.477905 0.250000 0.969636
O O1 0.166526 0.250000 0.369235
O O2 0.830634 0.074996 0.241829
O O3 0.160763 0.990204 0.432117
O O4 0.206069 0.993341 0.315728
O O5 0.129329 0.250000 0.103165
O O6 0.411005 0.074676 0.137723
O O7 0.214166 0.986239 0.185620
O O8 0.000000 0.000000 0.000000
O O9 0.438057 0.124200 0.898043
O O10 0.480570 0.870515 0.955085
O O11 0.193773 0.750000 0.522301
O O12 0.423950 0.996094 0.624181
O O13 0.000000 0.000000 0.500000
O O14 0.652913 0.250000 0.700404
#
# Coordination Sequence:
#
# PCOD9166905 Si02
#       6
#     4   4   4   4   4   2
#     4  12  25  45  74 103 138 181 230 285 347 411
#     4  12  27  45  68 100 141 184 233 285 345 412
#     4  11  25  43  69  97 137 177 234 276 347 401
#     4  12  26  48  76 104 139 180 228 283 345 412
#     4  12  28  47  70 103 140 181 231 286 346 410
#     4  10  24  42  70  96 134 180 230 284 332 408
#
# _framework density 20.600836999999999
#
# number of rings (size 3 to 8) (size 9 to 14) (size 15 to 20)
#    0.000    0.364    1.818    6.000   10.182    0.000 
#    0.000    0.000    0.000    0.000    0.000    0.000 
#    0.000    0.000    0.000    0.000    0.000    0.000 
#
# Total GULP energy -122561.278738 kJ/mol
# GULP energy per Si atom -5570.967215 kJ/mol
# Density = 2.055395 g / cm^3
# Si number density = 20.600837 Si / 1000 Ang^3
#
#
#
# Elastic Constant Matrix: (Units=GPa)
#
#
# Indices 1 2 3 4 5 6 
#
# 1 206.4575 50.1305 -24.5484 0.0000 -41.3909 0.0000
# 2 50.1305 285.2390 69.7083 0.0000 -14.2760 0.0000
# 3 -24.5484 69.7083 203.6731 0.0000 13.8939 0.0000
# 4 0.0000 0.0000 0.0000 51.4161 0.0000 3.8786
# 5 -41.3909 -14.2760 13.8939 0.0000 54.8887 0.0000
# 6 0.0000 0.0000 0.0000 3.8786 0.0000 48.1647
#
#
#
# Elastic Compliance Matrix: (Units=1/GPa)
#
#
# Indices 1 2 3 4 5 6 
#
# 1 0.006007 -0.001050 0.000807 0.000000 0.004052 0.000000
# 2 -0.001050 0.004110 -0.001580 0.000000 0.000677 0.000000
# 3 0.000807 -0.001580 0.005631 0.000000 -0.001228 0.000000
# 4 0.000000 0.000000 0.000000 0.019568 0.000000 -0.001576
# 5 0.004052 0.000677 -0.001228 0.000000 0.021761 0.000000
# 6 0.000000 0.000000 0.000000 -0.001576 0.000000 0.020889
#
#
# Mechanical properties :
#
#
# Convention : Reuss Voigt Hill
#
# Bulk Modulus (GPa) = 82.62142 98.43890 90.53016
# Shear Modulus (GPa) = 58.37921 70.89917 64.63919
#
# Velocity S-wave (km/s) = 5.32915 5.87285 5.60759
# Velocity P-wave (km/s) = 8.83512 9.68890 9.27184
#
# Compressibility (1/GPa) = 0.01210340
#
# Stress axis : x y z
#
# Youngs Moduli (GPa) = 166.47304 243.29228 177.57431
#
# Poissons Ratio (x) = 0.25549 -0.14330
# Poissons Ratio (y) = 0.17482 0.28048
# Poissons Ratio (z) = -0.13434 0.38428
#
# Static dielectric constant tensor:
#      x y z
#    x 1.903710 0.000000 0.129680 
#    y 0.000000 1.721890 0.000000 
#    z 0.129680 0.000000 1.782710 
# 
# From -- ./inp_files/63328.got.cif
#   From: 2010.05.17/outbox.cif.g08.bks.cpg/sg11_32_cif.got.tgz:63328.got - 2010.06.03 12:22:45.
