data_PCOD9166449
_publ_section_title
;
Structure prediction by ZEFSAII (Michael W. Deem and Ramdas Pophale) SiO2 
 PCOD9166449
Probable space group: P 21/M
;
_chemical_formula_sum "Si O2"
_cell_formula_units_Z 28
_cell_length_a 19.246162
_cell_length_b 13.929318
_cell_length_c 8.612943
_cell_angle_alpha 90.000000
_cell_angle_beta 32.380734
_cell_angle_gamma 90.000000
_cell_volume 1236.573095
_symmetry_space_group_name_H-M "P 21/M"
_symmetry_group_IT_number 11
_symmetry_cell_setting 'monoclinic'
loop_
_space_group_symop_operation_xyz
x,y,z
-x,1/2+y,-z
-x,-y,-z
x,1/2-y,z
loop_
_atom_site_type_symbol
_atom_site_label
_atom_site_fract_x
_atom_site_fract_y
_atom_site_fract_z
Si Si1 0.014446 0.865455 0.921889
Si Si2 0.499099 0.892588 0.937876
Si Si3 0.770051 0.857928 0.577783
Si Si4 0.068535 0.636109 0.462390
Si Si5 0.194225 0.445233 0.165714
Si Si6 0.717379 0.357889 0.421585
Si Si7 0.406153 0.032539 0.541221
O O1 0.003358 0.750000 0.933122
O O2 0.038438 0.894416 0.698309
O O3 0.137784 0.884944 0.798801
O O4 0.882099 0.899329 0.254030
O O5 0.633591 0.851715 0.748537
O O6 0.514823 0.900091 0.725011
O O7 0.369902 0.851175 0.257050
O O8 0.500000 0.000000 0.000000
O O9 0.810159 0.750000 0.547787
O O10 0.752129 0.918127 0.767346
O O11 0.097495 0.750000 0.400293
O O12 0.174143 0.560380 0.201423
O O13 0.941240 0.609403 0.603199
O O14 0.286943 0.415670 0.850483
O O15 0.718510 0.250000 0.349559
O O16 0.651784 0.440037 0.440826
O O17 0.500000 0.000000 0.500000
#
# Coordination Sequence:
#
# PCOD9166449 Si02
#       7
#     4   4   4   4   4   4   4
#     4   9  21  39  65  95 125 164 217 277 327 384
#     4  10  22  41  65  89 125 170 220 273 315 394
#     4  11  23  42  68  96 131 175 225 277 331 399
#     4  10  23  41  61  94 135 170 217 270 330 402
#     4  11  24  39  65  97 131 181 211 266 342 393
#     4  10  22  42  68  95 124 170 223 277 331 390
#     4  11  25  42  62  94 132 170 214 271 332 400
#
# _framework density 22.643222000000002
#
# number of rings (size 3 to 8) (size 9 to 14) (size 15 to 20)
#    0.000    1.714    0.000    3.429   10.000    1.143 
#    0.000    4.286    0.000    0.000    0.000    0.000 
#    0.000    0.000    0.000    0.000    0.000    0.000 
#
# Total GULP energy -156508.774003 kJ/mol
# GULP energy per Si atom -5589.599072 kJ/mol
# Density = 2.259169 g / cm^3
# Si number density = 22.643222 Si / 1000 Ang^3
#
#
#
# Elastic Constant Matrix: (Units=GPa)
#
#
# Indices 1 2 3 4 5 6 
#
# 1 79.9983 -1.9045 4.6356 0.0000 10.9212 0.0000
# 2 -1.9045 76.4014 0.0670 0.0000 3.5747 0.0000
# 3 4.6356 0.0670 106.3661 0.0000 9.6956 0.0000
# 4 0.0000 0.0000 0.0000 22.0324 0.0000 4.6932
# 5 10.9212 3.5747 9.6956 0.0000 33.5338 0.0000
# 6 0.0000 0.0000 0.0000 4.6932 0.0000 30.8803
#
#
#
# Elastic Compliance Matrix: (Units=1/GPa)
#
#
# Indices 1 2 3 4 5 6 
#
# 1 0.013107 0.000527 -0.000182 0.000000 -0.004272 0.000000
# 2 0.000527 0.013177 0.000115 0.000000 -0.001610 0.000000
# 3 -0.000182 0.000115 0.009660 0.000000 -0.002746 0.000000
# 4 0.000000 0.000000 0.000000 0.046906 0.000000 -0.007129
# 5 -0.004272 -0.001610 -0.002746 0.000000 0.032177 0.000000
# 6 0.000000 0.000000 0.000000 -0.007129 0.000000 0.033467
#
#
# Mechanical properties :
#
#
# Convention : Reuss Voigt Hill
#
# Bulk Modulus (GPa) = 27.12707 29.81797 28.47252
# Shear Modulus (GPa) = 31.27713 34.62048 32.94881
#
# Velocity S-wave (km/s) = 3.72062 3.91443 3.81875
# Velocity P-wave (km/s) = 5.51938 5.79892 5.66088
#
# Compressibility (1/GPa) = 0.03686355
#
# Stress axis : x y z
#
# Youngs Moduli (GPa) = 76.29761 75.88917 103.52337
#
# Poissons Ratio (x) = -0.03998 0.01885
# Poissons Ratio (y) = -0.04019 -0.01195
# Poissons Ratio (z) = 0.01390 -0.00876
#
# Static dielectric constant tensor:
#      x y z
#    x 1.866830 0.000000 -0.090060 
#    y 0.000000 1.844830 0.000000 
#    z -0.090060 0.000000 2.012560 
# 
# From -- ./inp_files/26910.got.cif
#   From: 2010.05.17/outbox.cif.g08.bks.cpg/sg11_14_cif.got.tgz:26910.got - 2010.06.03 12:22:45.
