data_PCOD9166887
_publ_section_title
;
Structure prediction by ZEFSAII (Michael W. Deem and Ramdas Pophale) SiO2 
 PCOD9166887
Probable space group: P 21/M
;
_chemical_formula_sum "Si O2"
_cell_formula_units_Z 28
_cell_length_a 9.556741
_cell_length_b 9.333751
_cell_length_c 25.408783
_cell_angle_alpha 90.000000
_cell_angle_beta 45.058586
_cell_angle_gamma 90.000000
_cell_volume 1604.273885
_symmetry_space_group_name_H-M "P 21/M"
_symmetry_group_IT_number 11
_symmetry_cell_setting 'monoclinic'
loop_
_space_group_symop_operation_xyz
x,y,z
-x,1/2+y,-z
-x,-y,-z
x,1/2-y,z
loop_
_atom_site_type_symbol
_atom_site_label
_atom_site_fract_x
_atom_site_fract_y
_atom_site_fract_z
Si Si1 0.328131 0.423336 0.577649
Si Si2 0.676558 0.916574 0.297217
Si Si3 0.792482 0.422853 0.067706
Si Si4 0.885664 0.087242 0.682099
Si Si5 0.131566 0.906017 0.187352
Si Si6 0.518487 0.582227 0.940959
Si Si7 0.488504 0.578018 0.758331
O O1 0.500000 0.500000 0.500000
O O2 0.339562 0.250000 0.570999
O O3 0.346552 0.458277 0.635159
O O4 0.110833 0.463866 0.612667
O O5 0.612921 0.750000 0.308596
O O6 0.911553 0.920605 0.224161
O O7 0.574283 0.015671 0.281452
O O8 0.821558 0.250000 0.061040
O O9 0.643944 0.459122 0.059333
O O10 0.674541 0.462225 0.153072
O O11 0.000000 0.500000 0.000000
O O12 0.860803 0.250000 0.667629
O O13 0.880938 0.098375 0.746537
O O14 0.703074 0.988790 0.714244
O O15 0.212706 0.750000 0.148116
O O16 0.268662 0.036763 0.136702
O O17 0.502737 0.750000 0.953273
O O18 0.500000 0.500000 0.000000
O O19 0.499329 0.750000 0.755197
#
# Coordination Sequence:
#
# PCOD9166887 Si02
#       7
#     4   4   4   4   4   4   4
#     4   9  19  37  61  89 118 146 184 226 272 332
#     4   9  20  37  57  83 114 147 184 225 273 333
#     4  10  24  41  55  77 111 148 188 235 285 334
#     4   9  18  35  59  83 109 146 184 221 272 335
#     4   9  18  35  57  79 102 138 185 227 274 329
#     4  11  23  38  54  77 108 140 182 234 282 332
#     4  11  22  37  56  84 115 145 190 237 277 328
#
# _framework density 17.453379000000002
#
# number of rings (size 3 to 8) (size 9 to 14) (size 15 to 20)
#    0.000    2.286    1.429    2.571    2.000    4.000 
#    0.000    3.571    0.000    0.000    0.000    0.000 
#    0.000    0.000    0.000    0.000    0.000    0.000 
#
# Total GULP energy -156042.951518 kJ/mol
# GULP energy per Si atom -5572.962554 kJ/mol
# Density = 1.741365 g / cm^3
# Si number density = 17.453379 Si / 1000 Ang^3
#
#
#
# Elastic Constant Matrix: (Units=GPa)
#
#
# Indices 1 2 3 4 5 6 
#
# 1 111.3070 58.1037 55.1733 0.0000 -8.9763 0.0000
# 2 58.1037 54.6444 46.2790 0.0000 -8.2334 0.0000
# 3 55.1733 46.2790 115.9084 0.0000 -14.0971 0.0000
# 4 0.0000 0.0000 0.0000 33.6683 0.0000 -2.0918
# 5 -8.9763 -8.2334 -14.0971 0.0000 18.5273 0.0000
# 6 0.0000 0.0000 0.0000 -2.0918 0.0000 27.7540
#
#
#
# Elastic Compliance Matrix: (Units=1/GPa)
#
#
# Indices 1 2 3 4 5 6 
#
# 1 0.020385 -0.020363 -0.001623 0.000000 -0.000407 0.000000
# 2 -0.020363 0.048303 -0.009017 0.000000 0.004739 0.000000
# 3 -0.001623 -0.009017 0.013683 0.000000 0.005618 0.000000
# 4 0.000000 0.000000 0.000000 0.029841 0.000000 0.002249
# 5 -0.000407 0.004739 0.005618 0.000000 0.060158 0.000000
# 6 0.000000 0.000000 0.000000 0.002249 0.000000 0.036200
#
#
# Mechanical properties :
#
#
# Convention : Reuss Voigt Hill
#
# Bulk Modulus (GPa) = 49.09982 66.77462 57.93722
# Shear Modulus (GPa) = 18.02682 24.14350 21.08516
#
# Velocity S-wave (km/s) = 3.21729 3.72333 3.47952
# Velocity P-wave (km/s) = 6.48031 7.53831 7.02924
#
# Compressibility (1/GPa) = 0.02036667
#
# Stress axis : x y z
#
# Youngs Moduli (GPa) = 49.05457 20.70284 73.08172
#
# Poissons Ratio (x) = 0.42157 0.11860
# Poissons Ratio (y) = 0.99890 0.65894
# Poissons Ratio (z) = 0.07961 0.18667
#
# Static dielectric constant tensor:
#      x y z
#    x 1.570260 0.000000 -0.033530 
#    y 0.000000 1.609040 0.000000 
#    z -0.033530 0.000000 1.533480 
# 
# From -- ./inp_files/28432.got.cif
#   From: 2010.05.17/outbox.cif.g08.bks.cpg/sg11_15_cif.got.tgz:28432.got - 2010.06.03 12:22:45.
