data_PCOD9166280
_publ_section_title
;
Structure prediction by ZEFSAII (Michael W. Deem and Ramdas Pophale) SiO2 
 PCOD9166280
Probable space group: P 21/M
;
_chemical_formula_sum "Si O2"
_cell_formula_units_Z 32
_cell_length_a 13.498997
_cell_length_b 17.351560
_cell_length_c 5.849288
_cell_angle_alpha 90.000000
_cell_angle_beta 77.269978
_cell_angle_gamma 90.000000
_cell_volume 1336.393451
_symmetry_space_group_name_H-M "P 21/M"
_symmetry_group_IT_number 11
_symmetry_cell_setting 'monoclinic'
loop_
_space_group_symop_operation_xyz
x,y,z
-x,1/2+y,-z
-x,-y,-z
x,1/2-y,z
loop_
_atom_site_type_symbol
_atom_site_label
_atom_site_fract_x
_atom_site_fract_y
_atom_site_fract_z
Si Si1 0.708649 0.840174 0.082079
Si Si2 0.757781 0.161259 0.012821
Si Si3 0.076432 0.566540 0.886100
Si Si4 0.604086 0.962083 0.816344
Si Si5 0.553299 0.133933 0.337676
Si Si6 0.081493 0.338030 0.319329
Si Si7 0.576271 0.358066 0.838736
Si Si8 0.797677 0.942451 0.432479
O O1 0.676730 0.750000 0.120277
O O2 0.738874 0.881207 0.302291
O O3 0.628116 0.897961 0.001334
O O4 0.814124 0.839003 0.883855
O O5 0.774783 0.250000 0.071983
O O6 0.860225 0.113125 0.957411
O O7 0.674268 0.123736 0.232035
O O8 0.695844 0.160533 0.807197
O O9 0.159996 0.517089 0.710875
O O10 0.011758 0.627571 0.774220
O O11 0.000000 0.500000 0.000000
O O12 0.529710 0.932627 0.652898
O O13 0.717109 0.969748 0.658709
O O14 0.569908 0.049383 0.884205
O O15 0.541484 0.162952 0.602412
O O16 0.533439 0.175132 0.101098
O O17 0.063804 0.250000 0.400238
O O18 0.108321 0.395414 0.510398
#
# Coordination Sequence:
#
# PCOD9166280 Si02
#       8
#     4   4   4   4   4   4   4   4
#     4  10  22  40  60  92 132 174 220 279 344 413
#     4  10  25  45  68  99 144 189 237 297 361 427
#     4  12  23  43  70  99 130 178 241 296 354 428
#     4  11  23  39  70  99 136 180 230 288 348 420
#     4  10  24  43  71 102 142 181 236 282 350 422
#     4  10  22  41  63  91 134 175 223 286 357 422
#     4  10  23  42  70 101 139 183 233 289 348 415
#     4  11  23  39  68  99 136 175 229 291 350 422
#
# _framework density 23.945041
#
# number of rings (size 3 to 8) (size 9 to 14) (size 15 to 20)
#    0.750    0.750    1.250    3.375    5.250    1.500 
#    2.250    0.000    0.000    0.000    0.000    0.000 
#    0.000    0.000    0.000    0.000    0.000    0.000 
#
# Total GULP energy -178344.092518 kJ/mol
# GULP energy per Si atom -5573.252891 kJ/mol
# Density = 2.389054 g / cm^3
# Si number density = 23.945041 Si / 1000 Ang^3
#
#
#
# Elastic Constant Matrix: (Units=GPa)
#
#
# Indices 1 2 3 4 5 6 
#
# 1 64.8984 58.3534 15.7696 0.0000 14.5291 0.0000
# 2 58.3534 136.4724 5.5094 0.0000 18.1457 0.0000
# 3 15.7696 5.5094 106.9293 0.0000 21.4743 0.0000
# 4 0.0000 0.0000 0.0000 -77.4845 0.0000 215.8126
# 5 14.5291 18.1457 21.4743 0.0000 33.9593 0.0000
# 6 0.0000 0.0000 0.0000 215.8126 0.0000-1259.8309
#
#
#
# Elastic Compliance Matrix: (Units=1/GPa)
#
#
# Indices 1 2 3 4 5 6 
#
# 1 0.026574 -0.010725 -0.002559 0.000000 -0.004020 0.000000
# 2 -0.010725 0.012240 0.001538 0.000000 -0.002925 0.000000
# 3 -0.002559 0.001538 0.010991 0.000000 -0.006677 0.000000
# 4 0.000000 0.000000 0.000000 -0.024682 0.000000 -0.004228
# 5 -0.004020 -0.002925 -0.006677 0.000000 0.036952 0.000000
# 6 0.000000 0.000000 0.000000 -0.004228 0.000000 -0.001518
#
#
# Mechanical properties :
#
#
# Convention : Reuss Voigt Hill
#
# Bulk Modulus (GPa) = 38.00244 51.95165 44.97705
# Shear Modulus (GPa) = 53.86852 -245.42671 -95.77910
#
# Velocity S-wave (km/s) = 4.74822 -10.13501 -6.33138
# Velocity P-wave (km/s) = 6.77982 10.73380 5.88424
#
# Compressibility (1/GPa) = 0.02631410
#
# Stress axis : x y z
#
# Youngs Moduli (GPa) = 37.63141 81.70003 90.98266
#
# Poissons Ratio (x) = 0.87620 0.23282
# Poissons Ratio (y) = 0.40358 -0.13996
# Poissons Ratio (z) = 0.09630 -0.12568
#
# Static dielectric constant tensor:
#      x y z
#    x 1.750680 0.000000 -0.006570 
#    y 0.000000 1.885890 0.000000 
#    z -0.006570 0.000000 1.930750 
# 
# From -- ./inp_files/6839.got.cif
#   From: 2010.05.17/outbox.cif.g08.bks.cpg/sg11_4_cif.got.tgz:6839.got - 2010.06.03 12:22:45.
