data_PCOD9166864
_publ_section_title
;
Structure prediction by ZEFSAII (Michael W. Deem and Ramdas Pophale) SiO2 
 PCOD9166864
Probable space group: P 21/M
;
_chemical_formula_sum "Si O2"
_cell_formula_units_Z 12
_cell_length_a 9.612506
_cell_length_b 10.961533
_cell_length_c 5.004740
_cell_angle_alpha 90.000000
_cell_angle_beta 105.089298
_cell_angle_gamma 90.000000
_cell_volume 509.156493
_symmetry_space_group_name_H-M "P 21/M"
_symmetry_group_IT_number 11
_symmetry_cell_setting 'monoclinic'
loop_
_space_group_symop_operation_xyz
x,y,z
-x,1/2+y,-z
-x,-y,-z
x,1/2-y,z
loop_
_atom_site_type_symbol
_atom_site_label
_atom_site_fract_x
_atom_site_fract_y
_atom_site_fract_z
Si Si1 0.334255 0.616880 0.608990
Si Si2 0.665745 0.616880 0.774736
Si Si3 0.106086 1.000000 0.803043
O O1 0.316328 0.750000 0.468174
O O2 0.500000 0.609978 0.785789
O O3 0.311096 0.500000 0.405548
O O4 0.219596 0.606520 0.790052
O O5 0.683672 0.750000 0.651847
O O6 0.780403 0.606519 0.070456
O O7 0.000000 0.000000 0.500000
O O8 0.000000 0.000000 0.000000
#
# Coordination Sequence:
#
# PCOD9166864 Si02
#       3
#     4   4   4
#     4  10  23  46  76 110 149 196 251 306 366 440
#     4  10  23  46  76 110 149 196 251 306 366 440
#     4  12  25  46  69 104 146 192 240 300 363 436
#
# _framework density 23.568391999999999
#
# number of rings (size 3 to 8) (size 9 to 14) (size 15 to 20)
#    0.000    1.333    3.333    1.000    0.000    5.333 
#    0.000    6.667    0.000    0.000    0.000    0.000 
#    0.000    0.000    0.000    0.000    0.000    0.000 
#
# Total GULP energy -66906.676129 kJ/mol
# GULP energy per Si atom -5575.556344 kJ/mol
# Density = 2.351475 g / cm^3
# Si number density = 23.568392 Si / 1000 Ang^3
#
#
#
# Elastic Constant Matrix: (Units=GPa)
#
#
# Indices 1 2 3 4 5 6 
#
# 1 197.9291 55.4362 84.7699 0.0000 10.6207 0.0000
# 2 55.4362 207.9714 56.5078 0.0000 -0.2876 0.0000
# 3 84.7699 56.5078 140.7515 0.0000 4.7244 0.0000
# 4 0.0000 0.0000 0.0000 32.3872 0.0000 -7.1722
# 5 10.6207 -0.2876 4.7244 0.0000 38.3750 0.0000
# 6 0.0000 0.0000 0.0000 -7.1722 0.0000 5.6626
#
#
#
# Elastic Compliance Matrix: (Units=1/GPa)
#
#
# Indices 1 2 3 4 5 6 
#
# 1 0.007007 -0.000827 -0.003839 0.000000 -0.001473 0.000000
# 2 -0.000827 0.005498 -0.001726 0.000000 0.000482 0.000000
# 3 -0.003839 -0.001726 0.010116 0.000000 -0.000196 0.000000
# 4 0.000000 0.000000 0.000000 0.042913 0.000000 0.054353
# 5 -0.001473 0.000482 -0.000196 0.000000 0.026494 0.000000
# 6 0.000000 0.000000 0.000000 0.054353 0.000000 0.245441
#
#
# Mechanical properties :
#
#
# Convention : Reuss Voigt Hill
#
# Bulk Modulus (GPa) = 101.63637 104.45332 103.04484
# Shear Modulus (GPa) = 14.14303 38.61416 26.37859
#
# Velocity S-wave (km/s) = 2.45232 4.05209 3.34913
# Velocity P-wave (km/s) = 7.15794 8.14297 7.66630
#
# Compressibility (1/GPa) = 0.00983900
#
# Stress axis : x y z
#
# Youngs Moduli (GPa) = 142.71508 181.87497 98.85313
#
# Poissons Ratio (x) = 0.15037 0.37947
# Poissons Ratio (y) = 0.11799 0.17059
# Poissons Ratio (z) = 0.54784 0.31385
#
# Static dielectric constant tensor:
#      x y z
#    x 1.899220 0.000000 -0.018680 
#    y 0.000000 1.930480 0.000000 
#    z -0.018680 0.000000 1.968830 
# 
# From -- ./inp_files/1228.got.cif
#   From: 2010.05.17/outbox.cif.g08.bks.cpg/sg11_1_cif.got.tgz:1228.got - 2010.06.03 12:22:45.
