data_PCOD9166282
_publ_section_title
;
Structure prediction by ZEFSAII (Michael W. Deem and Ramdas Pophale) SiO2 
 PCOD9166282
Probable space group: P 21/M
;
_chemical_formula_sum "Si O2"
_cell_formula_units_Z 28
_cell_length_a 8.505115
_cell_length_b 20.780551
_cell_length_c 7.579123
_cell_angle_alpha 90.000000
_cell_angle_beta 103.713788
_cell_angle_gamma 90.000000
_cell_volume 1301.354075
_symmetry_space_group_name_H-M "P 21/M"
_symmetry_group_IT_number 11
_symmetry_cell_setting 'monoclinic'
loop_
_space_group_symop_operation_xyz
x,y,z
-x,1/2+y,-z
-x,-y,-z
x,1/2-y,z
loop_
_atom_site_type_symbol
_atom_site_label
_atom_site_fract_x
_atom_site_fract_y
_atom_site_fract_z
Si Si1 0.306872 0.323086 0.154431
Si Si2 0.066264 0.895169 0.460394
Si Si3 0.420854 0.919022 0.670553
Si Si4 0.458005 0.064961 0.698006
Si Si5 0.811725 0.052415 0.876985
Si Si6 0.779947 0.820016 0.273908
Si Si7 0.080481 0.076262 0.230908
O O1 0.347474 0.250000 0.217128
O O2 0.463289 0.369566 0.197535
O O3 0.172336 0.356306 0.241468
O O4 0.227422 0.321258 0.939979
O O5 0.244106 0.889081 0.590793
O O6 0.095565 0.924769 0.275100
O O7 0.959458 0.832475 0.393886
O O8 0.963127 0.935233 0.577418
O O9 0.502501 0.929993 0.499685
O O10 0.403367 0.992562 0.734891
O O11 0.630317 0.077739 0.836572
O O12 0.329829 0.119796 0.702390
O O13 0.805801 0.975971 0.836375
O O14 0.917392 0.071189 0.072615
O O15 0.718334 0.750000 0.316103
#
# Coordination Sequence:
#
# PCOD9166282 Si02
#       7
#     4   4   4   4   4   4   4
#     4  11  24  45  65  92 133 174 223 273 324 399
#     4  11  24  39  67  95 132 165 213 269 326 387
#     4  10  23  40  64 103 126 166 222 271 323 392
#     4  10  22  40  67  92 136 167 215 272 331 387
#     4  10  22  40  61 103 132 160 215 273 316 391
#     4  11  26  44  64  93 132 177 220 272 335 393
#     4  11  22  39  66  95 130 174 210 261 335 384
#
# _framework density 21.516051000000001
#
# number of rings (size 3 to 8) (size 9 to 14) (size 15 to 20)
#    0.000    1.429    2.857    1.286    8.000    3.429 
#    0.000    2.857    0.000    0.000    0.000    0.000 
#    0.000    0.000    0.000    0.000    0.000    0.000 
#
# Total GULP energy -156417.486679 kJ/mol
# GULP energy per Si atom -5586.338810 kJ/mol
# Density = 2.146708 g / cm^3
# Si number density = 21.516051 Si / 1000 Ang^3
#
#
#
# Elastic Constant Matrix: (Units=GPa)
#
#
# Indices 1 2 3 4 5 6 
#
# 1 81.7713 63.9681 33.6793 0.0000 15.6437 0.0000
# 2 63.9681 151.5475 34.0720 0.0000 15.1184 0.0000
# 3 33.6793 34.0720 67.2734 0.0000 8.6580 0.0000
# 4 0.0000 0.0000 0.0000 22.8802 0.0000 2.8201
# 5 15.6437 15.1184 8.6580 0.0000 32.8452 0.0000
# 6 0.0000 0.0000 0.0000 2.8201 0.0000 25.0434
#
#
#
# Elastic Compliance Matrix: (Units=1/GPa)
#
#
# Indices 1 2 3 4 5 6 
#
# 1 0.021426 -0.007065 -0.006473 0.000000 -0.005247 0.000000
# 2 -0.007065 0.009983 -0.001409 0.000000 -0.000859 0.000000
# 3 -0.006473 -0.001409 0.018982 0.000000 -0.001272 0.000000
# 4 0.000000 0.000000 0.000000 0.044321 0.000000 -0.004991
# 5 -0.005247 -0.000859 -0.001272 0.000000 0.033675 0.000000
# 6 0.000000 0.000000 0.000000 -0.004991 0.000000 0.040493
#
#
# Mechanical properties :
#
#
# Convention : Reuss Voigt Hill
#
# Bulk Modulus (GPa) = 48.78514 62.67012 55.72763
# Shear Modulus (GPa) = 24.31824 27.41195 25.86510
#
# Velocity S-wave (km/s) = 3.36555 3.57322 3.47094
# Velocity P-wave (km/s) = 6.15025 6.79811 6.48228
#
# Compressibility (1/GPa) = 0.02049805
#
# Stress axis : x y z
#
# Youngs Moduli (GPa) = 46.67244 100.16872 52.68018
#
# Poissons Ratio (x) = 0.70771 0.34100
# Poissons Ratio (y) = 0.32975 0.07421
# Poissons Ratio (z) = 0.30211 0.14110
#
# Static dielectric constant tensor:
#      x y z
#    x 1.781700 0.000000 -0.005010 
#    y 0.000000 1.800920 0.000000 
#    z -0.005010 0.000000 1.808580 
# 
# From -- ./inp_files/14067.got.cif
#   From: 2010.05.17/outbox.cif.g08.bks.cpg/sg11_8_cif.got.tgz:14067.got - 2010.06.03 12:22:45.
