data_PCOD9166335
_publ_section_title
;
Structure prediction by ZEFSAII (Michael W. Deem and Ramdas Pophale) SiO2 
 PCOD9166335
Probable space group: P 21/M
;
_chemical_formula_sum "Si O2"
_cell_formula_units_Z 28
_cell_length_a 11.929825
_cell_length_b 8.974656
_cell_length_c 15.924477
_cell_angle_alpha 90.000000
_cell_angle_beta 55.764159
_cell_angle_gamma 90.000000
_cell_volume 1409.548850
_symmetry_space_group_name_H-M "P 21/M"
_symmetry_group_IT_number 11
_symmetry_cell_setting 'monoclinic'
loop_
_space_group_symop_operation_xyz
x,y,z
-x,1/2+y,-z
-x,-y,-z
x,1/2-y,z
loop_
_atom_site_type_symbol
_atom_site_label
_atom_site_fract_x
_atom_site_fract_y
_atom_site_fract_z
Si Si1 0.419958 0.929638 0.612099
Si Si2 0.373111 0.421735 0.164405
Si Si3 0.912134 0.073323 0.463865
Si Si4 0.893718 0.068969 0.284520
Si Si5 0.614268 0.426519 0.661528
Si Si6 0.688410 0.420847 0.978148
Si Si7 0.069556 0.427768 0.050538
O O1 0.429723 0.750000 0.605634
O O2 0.261799 0.971601 0.670532
O O3 0.500000 0.000000 0.500000
O O4 0.491890 0.991810 0.665268
O O5 0.326959 0.250000 0.189041
O O6 0.359358 0.503821 0.258440
O O7 0.301383 0.506118 0.118112
O O8 0.532182 0.422412 0.072641
O O9 0.939723 0.250000 0.453998
O O10 0.937289 0.015915 0.358738
O O11 0.752443 0.053131 0.550225
O O12 0.000000 0.000000 0.500000
O O13 0.896583 0.250000 0.286719
O O14 0.990995 0.022775 0.168100
O O15 0.587452 0.250000 0.679111
O O16 0.734262 0.250000 0.957472
O O17 0.777790 0.515970 0.003933
O O18 0.063626 0.250000 0.047660
O O19 0.000000 0.500000 0.000000
#
# Coordination Sequence:
#
# PCOD9166335 Si02
#       7
#     4   4   4   4   4   4   4
#     4  11  21  39  63  88 119 157 200 247 300 360
#     4  10  22  40  64  91 121 160 201 249 308 368
#     4  10  22  41  61  88 124 162 202 249 300 362
#     4   9  21  42  63  84 120 163 202 249 307 359
#     4  11  23  39  61  92 125 156 198 253 304 358
#     4  10  22  42  64  89 122 158 202 256 309 366
#     4  11  24  42  64  90 122 165 210 258 309 367
#
# _framework density 19.864514
#
# number of rings (size 3 to 8) (size 9 to 14) (size 15 to 20)
#    0.000    1.714    1.429    2.143    4.000    2.857 
#    0.000    2.857    0.000    0.000    0.000    0.000 
#    0.000    0.000    0.000    0.000    0.000    0.000 
#
# Total GULP energy -156506.515691 kJ/mol
# GULP energy per Si atom -5589.518418 kJ/mol
# Density = 1.981930 g / cm^3
# Si number density = 19.864514 Si / 1000 Ang^3
#
#
#
# Elastic Constant Matrix: (Units=GPa)
#
#
# Indices 1 2 3 4 5 6 
#
# 1 96.5054 32.7724 14.5434 0.0000 25.9446 0.0000
# 2 32.7724 83.4807 34.2211 0.0000 11.1239 0.0000
# 3 14.5434 34.2211 68.3749 0.0000 27.7400 0.0000
# 4 0.0000 0.0000 0.0000 31.1072 0.0000 6.7637
# 5 25.9446 11.1239 27.7400 0.0000 35.4721 0.0000
# 6 0.0000 0.0000 0.0000 6.7637 0.0000 37.8092
#
#
#
# Elastic Compliance Matrix: (Units=1/GPa)
#
#
# Indices 1 2 3 4 5 6 
#
# 1 0.015352 -0.006457 0.005420 0.000000 -0.013442 0.000000
# 2 -0.006457 0.017859 -0.010559 0.000000 0.007380 0.000000
# 3 0.005420 -0.010559 0.027862 0.000000 -0.022441 0.000000
# 4 0.000000 0.000000 0.000000 0.033448 0.000000 -0.005984
# 5 -0.013442 0.007380 -0.022441 0.000000 0.053258 0.000000
# 6 0.000000 0.000000 0.000000 -0.005984 0.000000 0.027519
#
#
# Mechanical properties :
#
#
# Convention : Reuss Voigt Hill
#
# Bulk Modulus (GPa) = 26.39901 45.71499 36.05700
# Shear Modulus (GPa) = 23.68360 31.99930 27.84145
#
# Velocity S-wave (km/s) = 3.45665 4.01793 3.74781
# Velocity P-wave (km/s) = 5.40829 6.67745 6.07610
#
# Compressibility (1/GPa) = 0.03788021
#
# Stress axis : x y z
#
# Youngs Moduli (GPa) = 65.13802 55.99478 35.89177
#
# Poissons Ratio (x) = 0.36159 -0.19454
# Poissons Ratio (y) = 0.42063 0.37897
# Poissons Ratio (z) = -0.35305 0.59123
#
# Static dielectric constant tensor:
#      x y z
#    x 1.697600 0.000000 -0.010910 
#    y 0.000000 1.670260 0.000000 
#    z -0.010910 0.000000 1.697560 
# 
# From -- ./inp_files/38400.got.cif
#   From: 2010.05.17/outbox.cif.g08.bks.cpg/sg11_20_cif.got.tgz:38400.got - 2010.06.03 12:22:45.
