data_PCOD9166793
_publ_section_title
;
Structure prediction by ZEFSAII (Michael W. Deem and Ramdas Pophale) SiO2 
 PCOD9166793
Probable space group: P 21/M
;
_chemical_formula_sum "Si O2"
_cell_formula_units_Z 24
_cell_length_a 8.942195
_cell_length_b 15.707992
_cell_length_c 17.445238
_cell_angle_alpha 90.000000
_cell_angle_beta 31.741460
_cell_angle_gamma 90.000000
_cell_volume 1289.138024
_symmetry_space_group_name_H-M "P 21/M"
_symmetry_group_IT_number 11
_symmetry_cell_setting 'monoclinic'
loop_
_space_group_symop_operation_xyz
x,y,z
-x,1/2+y,-z
-x,-y,-z
x,1/2-y,z
loop_
_atom_site_type_symbol
_atom_site_label
_atom_site_fract_x
_atom_site_fract_y
_atom_site_fract_z
Si Si1 0.543095 0.155988 0.141894
Si Si2 0.693204 0.148259 0.736199
Si Si3 0.687747 0.845024 0.585481
Si Si4 0.732125 0.993336 0.833843
Si Si5 0.144918 0.076140 0.885806
Si Si6 0.323420 0.519546 0.653685
O O1 0.474953 0.250000 0.140213
O O2 0.446608 0.153965 0.272055
O O3 0.374853 0.079281 0.176609
O O4 0.879853 0.139153 0.988735
O O5 0.671876 0.250000 0.763109
O O6 0.749330 0.084409 0.783072
O O7 0.406119 0.116829 0.819276
O O8 0.975880 0.134845 0.560971
O O9 0.666018 0.750000 0.562932
O O10 0.501958 0.906348 0.615152
O O11 0.015485 0.963736 0.752693
O O12 0.500000 0.000000 0.000000
O O13 0.263703 0.044727 0.751420
O O14 0.000000 0.000000 0.000000
O O15 0.500000 0.500000 0.500000
#
# Coordination Sequence:
#
# PCOD9166793 Si02
#       6
#     4   4   4   4   4   4
#     4  11  24  43  68  95 125 166 222 272 313 382
#     4  11  24  43  67  93 127 174 218 266 320 386
#     4  10  23  43  65  95 128 168 221 267 318 386
#     4  12  24  42  63  95 130 166 213 262 329 387
#     4  12  22  43  68  94 126 171 220 261 318 386
#     4  12  24  40  66  95 130 173 208 265 329 381
#
# _framework density 18.617090999999999
#
# number of rings (size 3 to 8) (size 9 to 14) (size 15 to 20)
#    0.000    0.667    6.667    0.500    2.333    2.667 
#    0.000    1.667    0.000    0.000    0.000    0.000 
#    0.000    0.000    0.000    0.000    0.000    0.000 
#
# Total GULP energy -133845.395782 kJ/mol
# GULP energy per Si atom -5576.891491 kJ/mol
# Density = 1.857472 g / cm^3
# Si number density = 18.617091 Si / 1000 Ang^3
#
#
#
# Elastic Constant Matrix: (Units=GPa)
#
#
# Indices 1 2 3 4 5 6 
#
# 1 74.7652 49.7345 24.5590 0.0000 -15.1274 0.0000
# 2 49.7345 117.3241 43.9385 0.0000 -3.5092 0.0000
# 3 24.5590 43.9385 127.4372 0.0000 -3.1308 0.0000
# 4 0.0000 0.0000 0.0000 29.0663 0.0000 -9.1808
# 5 -15.1274 -3.5092 -3.1308 0.0000 49.0909 0.0000
# 6 0.0000 0.0000 0.0000 -9.1808 0.0000 1.5400
#
#
#
# Elastic Compliance Matrix: (Units=1/GPa)
#
#
# Indices 1 2 3 4 5 6 
#
# 1 0.020154 -0.008007 -0.000986 0.000000 0.005575 0.000000
# 2 -0.008007 0.012980 -0.002975 0.000000 -0.001729 0.000000
# 3 -0.000986 -0.002975 0.009064 0.000000 0.000062 0.000000
# 4 0.000000 0.000000 0.000000 -0.038961 0.000000 -0.232274
# 5 0.005575 -0.001729 0.000062 0.000000 0.021969 0.000000
# 6 0.000000 0.000000 0.000000 -0.232274 0.000000 -0.735374
#
#
# Mechanical properties :
#
#
# Convention : Reuss Voigt Hill
#
# Bulk Modulus (GPa) = 54.75937 61.77673 58.26805
# Shear Modulus (GPa) = -7.35136 29.35908 11.00386
#
# Velocity S-wave (km/s) = -1.98929 3.97545 2.43381
# Velocity P-wave (km/s) = 4.91945 7.37069 6.26610
#
# Compressibility (1/GPa) = 0.01826171
#
# Stress axis : x y z
#
# Youngs Moduli (GPa) = 49.61893 77.04155 110.32414
#
# Poissons Ratio (x) = 0.61688 0.10880
# Poissons Ratio (y) = 0.39731 0.32818
# Poissons Ratio (z) = 0.04893 0.22918
#
# Static dielectric constant tensor:
#      x y z
#    x 1.590490 0.000000 -0.016570 
#    y 0.000000 2.195400 0.000000 
#    z -0.016570 0.000000 1.596440 
# 
# From -- ./inp_files/58071.got.cif
#   From: 2010.05.17/outbox.cif.g08.bks.cpg/sg11_30_cif.got.tgz:58071.got - 2010.06.03 12:22:45.
