data_PCOD9166319
_publ_section_title
;
Structure prediction by ZEFSAII (Michael W. Deem and Ramdas Pophale) SiO2 
 PCOD9166319
Probable space group: P 21/M
;
_chemical_formula_sum "Si O2"
_cell_formula_units_Z 28
_cell_length_a 20.382090
_cell_length_b 12.810805
_cell_length_c 5.605689
_cell_angle_alpha 90.000000
_cell_angle_beta 112.592278
_cell_angle_gamma 90.000000
_cell_volume 1351.385010
_symmetry_space_group_name_H-M "P 21/M"
_symmetry_group_IT_number 11
_symmetry_cell_setting 'monoclinic'
loop_
_space_group_symop_operation_xyz
x,y,z
-x,1/2+y,-z
-x,-y,-z
x,1/2-y,z
loop_
_atom_site_type_symbol
_atom_site_label
_atom_site_fract_x
_atom_site_fract_y
_atom_site_fract_z
Si Si1 0.831671 0.640445 0.822119
Si Si2 0.963082 0.567326 0.745174
Si Si3 0.583261 0.022911 0.120775
Si Si4 0.782934 0.040822 0.041251
Si Si5 0.291421 0.368992 0.724414
Si Si6 0.085335 0.861565 0.587754
Si Si7 0.364786 0.625563 0.310928
O O1 0.835149 0.750000 0.967229
O O2 0.898175 0.637449 0.739837
O O3 0.756673 0.637076 0.579835
O O4 0.835345 0.532545 0.964760
O O5 0.927777 0.473567 0.547934
O O6 0.024299 0.633035 0.703054
O O7 0.000000 0.500000 0.000000
O O8 0.601843 0.085114 0.392195
O O9 0.630773 0.917504 0.203318
O O10 0.603754 0.078663 0.895677
O O11 0.500000 0.000000 0.000000
O O12 0.832788 0.129449 0.218761
O O13 0.748242 0.955787 0.171033
O O14 0.717770 0.090100 0.806069
O O15 0.294664 0.250000 0.825067
O O16 0.075625 0.750000 0.443457
O O17 0.370859 0.750000 0.309379
#
# Coordination Sequence:
#
# PCOD9166319 Si02
#       7
#     4   4   4   4   4   4   4
#     4  11  21  38  62  86 117 164 213 265 322 377
#     4  11  23  42  58  85 122 159 214 267 323 388
#     4  11  24  45  69 101 139 175 218 276 328 398
#     4  11  21  41  62  92 127 163 215 272 322 391
#     4  10  22  40  63  91 125 168 215 265 322 386
#     4  11  24  40  60  87 123 164 210 265 328 386
#     4  11  24  43  70 100 135 178 222 268 331 398
#
# _framework density 20.719484000000001
#
# number of rings (size 3 to 8) (size 9 to 14) (size 15 to 20)
#    0.000    1.143    4.286    2.143    0.000    2.286 
#    0.000    1.429    0.000    0.000    0.000    0.000 
#    0.000    0.000    0.000    0.000    0.000    0.000 
#
# Total GULP energy -156058.413680 kJ/mol
# GULP energy per Si atom -5573.514774 kJ/mol
# Density = 2.067233 g / cm^3
# Si number density = 20.719484 Si / 1000 Ang^3
#
#
#
# Elastic Constant Matrix: (Units=GPa)
#
#
# Indices 1 2 3 4 5 6 
#
# 1 115.3401 39.6555 25.9635 0.0000 16.7492 0.0000
# 2 39.6555 142.3099 30.5254 0.0000 2.1489 0.0000
# 3 25.9635 30.5254 85.5656 0.0000 11.1911 0.0000
# 4 0.0000 0.0000 0.0000 12.3944 0.0000 -4.1573
# 5 16.7492 2.1489 11.1911 0.0000 32.4306 0.0000
# 6 0.0000 0.0000 0.0000 -4.1573 0.0000 12.5623
#
#
#
# Elastic Compliance Matrix: (Units=1/GPa)
#
#
# Indices 1 2 3 4 5 6 
#
# 1 0.010605 -0.002519 -0.001702 0.000000 -0.004723 0.000000
# 2 -0.002519 0.008214 -0.002372 0.000000 0.001575 0.000000
# 3 -0.001702 -0.002372 0.013524 0.000000 -0.003631 0.000000
# 4 0.000000 0.000000 0.000000 0.090756 0.000000 0.030034
# 5 -0.004723 0.001575 -0.003631 0.000000 0.034423 0.000000
# 6 0.000000 0.000000 0.000000 0.030034 0.000000 0.089543
#
#
# Mechanical properties :
#
#
# Convention : Reuss Voigt Hill
#
# Bulk Modulus (GPa) = 52.19674 59.50051 55.84862
# Shear Modulus (GPa) = 18.75222 27.94887 23.35055
#
# Velocity S-wave (km/s) = 3.01167 3.67675 3.36070
# Velocity P-wave (km/s) = 6.11068 6.84135 6.48631
#
# Compressibility (1/GPa) = 0.01915829
#
# Stress axis : x y z
#
# Youngs Moduli (GPa) = 94.29605 121.74627 73.94068
#
# Poissons Ratio (x) = 0.30666 0.12582
# Poissons Ratio (y) = 0.23751 0.17539
# Poissons Ratio (z) = 0.16045 0.28878
#
# Static dielectric constant tensor:
#      x y z
#    x 1.746810 0.000000 -0.074960 
#    y 0.000000 1.701390 0.000000 
#    z -0.074960 0.000000 1.666290 
# 
# From -- ./inp_files/8839.got.cif
#   From: 2010.05.17/outbox.cif.g08.bks.cpg/sg11_5_cif.got.tgz:8839.got - 2010.06.03 12:22:45.
