data_PCOD9166083
_publ_section_title
;
Structure prediction by ZEFSAII (Michael W. Deem and Ramdas Pophale) SiO2 
 PCOD9166083
Probable space group: P 21/M
;
_chemical_formula_sum "Si O2"
_cell_formula_units_Z 32
_cell_length_a 8.033846
_cell_length_b 15.574038
_cell_length_c 10.661938
_cell_angle_alpha 90.000000
_cell_angle_beta 114.939564
_cell_angle_gamma 90.000000
_cell_volume 1209.622668
_symmetry_space_group_name_H-M "P 21/M"
_symmetry_group_IT_number 11
_symmetry_cell_setting 'monoclinic'
loop_
_space_group_symop_operation_xyz
x,y,z
-x,1/2+y,-z
-x,-y,-z
x,1/2-y,z
loop_
_atom_site_type_symbol
_atom_site_label
_atom_site_fract_x
_atom_site_fract_y
_atom_site_fract_z
Si Si1 0.589865 0.352317 0.379606
Si Si2 0.041718 0.149319 0.306630
Si Si3 0.702865 0.148592 0.799661
Si Si4 0.059475 0.646507 0.362307
Si Si5 0.644469 0.648010 0.436096
Si Si6 0.632615 0.404218 0.131901
Si Si7 0.711315 0.603054 0.112652
Si Si8 0.962393 0.598602 0.963053
O O1 0.588301 0.250000 0.350355
O O2 0.797593 0.379968 0.484751
O O3 0.469337 0.360952 0.468072
O O4 0.531928 0.402391 0.236052
O O5 0.080991 0.250000 0.317978
O O6 0.824500 0.139021 0.228323
O O7 0.156277 0.112494 0.460374
O O8 0.113491 0.111854 0.198803
O O9 0.683480 0.250000 0.772244
O O10 0.833217 0.115036 0.728526
O O11 0.498982 0.111714 0.712669
O O12 0.834058 0.138505 0.959967
O O13 0.062790 0.750000 0.367483
O O14 0.846048 0.624036 0.271587
O O15 0.668440 0.750000 0.415474
O O16 0.684591 0.500395 0.106262
O O17 0.492606 0.363690 0.985647
O O18 0.830398 0.632719 0.029670
O O19 0.000000 0.500000 0.000000
#
# Coordination Sequence:
#
# PCOD9166083 Si02
#       8
#     4   4   4   4   4   4   4   4
#     4   9  17  33  57  82 105 137 181 226 274 328
#     4  11  22  36  56  83 113 145 182 229 279 325
#     4   8  15  31  56  82 106 136 179 230 277 323
#     4   8  16  32  57  82 102 131 181 233 268 321
#     4   8  16  33  57  82 106 135 179 231 274 323
#     4  11  22  36  53  78 115 152 180 224 273 333
#     4  10  22  38  56  77 111 150 188 222 276 326
#     4  11  20  36  57  80 111 148 187 233 273 326
#
# _framework density 26.454529999999998
#
# number of rings (size 3 to 8) (size 9 to 14) (size 15 to 20)
#    0.000    2.500    1.250    3.000    0.000    2.000 
#    0.000    1.875    2.750    1.500    0.000    0.000 
#    0.000    0.000    0.000    0.000    0.000    0.000 
#
# Total GULP energy -178759.760551 kJ/mol
# GULP energy per Si atom -5586.242517 kJ/mol
# Density = 2.639432 g / cm^3
# Si number density = 26.454530 Si / 1000 Ang^3
#
#
#
# Elastic Constant Matrix: (Units=GPa)
#
#
# Indices 1 2 3 4 5 6 
#
# 1 100.4602 -2.1876 32.2390 0.0000 33.5896 0.0000
# 2 -2.1876 38.1438 4.3984 0.0000 10.0360 0.0000
# 3 32.2390 4.3984 222.6353 0.0000 32.4771 0.0000
# 4 0.0000 0.0000 0.0000 -447.3018 0.0000 -154.8107
# 5 33.5896 10.0360 32.4771 0.0000 60.5853 0.0000
# 6 0.0000 0.0000 0.0000 -154.8107 0.0000 -30.5101
#
#
#
# Elastic Compliance Matrix: (Units=1/GPa)
#
#
# Indices 1 2 3 4 5 6 
#
# 1 0.012621 0.002659 -0.000863 0.000000 -0.006975 0.000000
# 2 0.002659 0.027975 -0.000051 0.000000 -0.006081 0.000000
# 3 -0.000863 -0.000051 0.004932 0.000000 -0.002157 0.000000
# 4 0.000000 0.000000 0.000000 0.002957 0.000000 -0.015002
# 5 -0.006975 -0.006081 -0.002157 0.000000 0.022537 0.000000
# 6 0.000000 0.000000 0.000000 -0.015002 0.000000 0.043347
#
#
# Mechanical properties :
#
#
# Convention : Reuss Voigt Hill
#
# Bulk Modulus (GPa) = 20.40023 47.79322 34.09673
# Shear Modulus (GPa) = 39.30281 -61.65935 -11.17827
#
# Velocity S-wave (km/s) = 3.85863 -4.83304 -2.05782
# Velocity P-wave (km/s) = 5.25168 3.61095 2.69641
#
# Compressibility (1/GPa) = 0.04901906
#
# Stress axis : x y z
#
# Youngs Moduli (GPa) = 79.23190 35.74640 202.74662
#
# Poissons Ratio (x) = -0.09504 0.17489
# Poissons Ratio (y) = -0.21065 0.01026
# Poissons Ratio (z) = 0.06835 0.00181
#
# Static dielectric constant tensor:
#      x y z
#    x 9.583480 0.000000 -1.339220 
#    y 0.000000 1.965400 0.000000 
#    z -1.339220 0.000000 2.377590 
# 
# From -- ./inp_files/32846.got.cif
#   From: 2010.05.17/outbox.cif.g08.bks.cpg/sg11_17_cif.got.tgz:32846.got - 2010.06.03 12:22:45.
