data_PCOD9166583
_publ_section_title
;
Structure prediction by ZEFSAII (Michael W. Deem and Ramdas Pophale) SiO2 
 PCOD9166583
Probable space group: P 21/M
;
_chemical_formula_sum "Si O2"
_cell_formula_units_Z 30
_cell_length_a 9.927657
_cell_length_b 21.726820
_cell_length_c 8.488002
_cell_angle_alpha 90.000000
_cell_angle_beta 60.741290
_cell_angle_gamma 90.000000
_cell_volume 1597.257263
_symmetry_space_group_name_H-M "P 21/M"
_symmetry_group_IT_number 11
_symmetry_cell_setting 'monoclinic'
loop_
_space_group_symop_operation_xyz
x,y,z
-x,1/2+y,-z
-x,-y,-z
x,1/2-y,z
loop_
_atom_site_type_symbol
_atom_site_label
_atom_site_fract_x
_atom_site_fract_y
_atom_site_fract_z
Si Si1 0.889706 0.906925 0.121615
Si Si2 0.593933 0.416992 0.818762
Si Si3 0.922739 0.064344 0.492690
Si Si4 0.500625 0.950415 0.771701
Si Si5 0.290974 0.250000 0.275498
Si Si6 0.345853 0.181846 0.919460
Si Si7 0.811800 0.450928 0.199642
Si Si8 0.198126 0.372840 0.475325
O O1 0.789238 0.861206 0.071328
O O2 0.866579 0.887087 0.314335
O O3 0.831733 0.977600 0.137793
O O4 0.068768 0.910491 0.970195
O O5 0.776086 0.417979 0.682912
O O6 0.526189 0.476456 0.767450
O O7 0.504668 0.356127 0.814198
O O8 0.555328 0.428093 0.024286
O O9 0.863217 0.056710 0.349751
O O10 0.057805 0.113921 0.435479
O O11 0.000000 0.000000 0.500000
O O12 0.365277 0.934185 0.728051
O O13 0.661998 0.919671 0.636630
O O14 0.258251 0.304436 0.421669
O O15 0.318896 0.197182 0.119231
O O16 0.350177 0.250000 0.840312
#
# Coordination Sequence:
#
# PCOD9166583 Si02
#       8
#     4   4   4   4   2   4   4   4
#     4  11  23  38  67  94 136 167 217 265 337 393
#     4  11  22  38  66  95 131 171 219 269 341 392
#     4  12  24  41  64 100 138 173 213 277 338 404
#     4  11  22  37  67  98 131 166 214 277 332 393
#     4  10  24  44  66  90 124 180 226 272 318 414
#     4  10  22  43  65  93 129 176 221 273 327 401
#     4  11  24  38  63 103 138 165 213 277 338 396
#     4  12  24  44  66  95 132 178 225 267 338 404
#
# _framework density 18.782195000000002
#
# number of rings (size 3 to 8) (size 9 to 14) (size 15 to 20)
#    0.400    0.533    5.333    1.600    4.667    1.067 
#    1.200    0.000    1.467    0.000    0.000    0.000 
#    0.000    0.000    0.000    0.000    0.000    0.000 
#
# Total GULP energy -167053.493208 kJ/mol
# GULP energy per Si atom -5568.449774 kJ/mol
# Density = 1.873945 g / cm^3
# Si number density = 18.782195 Si / 1000 Ang^3
#
#
#
# Elastic Constant Matrix: (Units=GPa)
#
#
# Indices 1 2 3 4 5 6 
#
# 1 117.3566 29.5571 48.6355 0.0000 -17.1594 0.0000
# 2 29.5571 109.2522 35.7263 0.0000 -3.6639 0.0000
# 3 48.6355 35.7263 108.3277 0.0000 -6.8686 0.0000
# 4 0.0000 0.0000 0.0000 28.6300 0.0000 7.1545
# 5 -17.1594 -3.6639 -6.8686 0.0000 20.0912 0.0000
# 6 0.0000 0.0000 0.0000 7.1545 0.0000 14.3307
#
#
#
# Elastic Compliance Matrix: (Units=1/GPa)
#
#
# Indices 1 2 3 4 5 6 
#
# 1 0.011929 -0.001533 -0.004315 0.000000 0.008433 0.000000
# 2 -0.001533 0.010467 -0.002786 0.000000 -0.000353 0.000000
# 3 -0.004315 -0.002786 0.012083 0.000000 -0.000063 0.000000
# 4 0.000000 0.000000 0.000000 0.039907 0.000000 -0.019923
# 5 0.008433 -0.000353 -0.000063 0.000000 0.056890 0.000000
# 6 0.000000 0.000000 0.000000 -0.019923 0.000000 0.079727
#
#
# Mechanical properties :
#
#
# Convention : Reuss Voigt Hill
#
# Bulk Modulus (GPa) = 58.10486 62.53047 60.31767
# Shear Modulus (GPa) = 21.36673 27.34489 24.35581
#
# Velocity S-wave (km/s) = 3.37650 3.81976 3.60495
# Velocity P-wave (km/s) = 6.79737 7.26765 7.03644
#
# Compressibility (1/GPa) = 0.01721026
#
# Stress axis : x y z
#
# Youngs Moduli (GPa) = 83.83240 95.53689 82.75768
#
# Poissons Ratio (x) = 0.14648 0.35711
# Poissons Ratio (y) = 0.12854 0.23057
# Poissons Ratio (z) = 0.36175 0.26617
#
# Static dielectric constant tensor:
#      x y z
#    x 1.658330 0.000000 0.011060 
#    y 0.000000 1.638700 0.000000 
#    z 0.011060 0.000000 1.667210 
# 
# From -- ./inp_files/14925.got.cif
#   From: 2010.05.17/outbox.cif.g08.bks.cpg/sg11_8_cif.got.tgz:14925.got - 2010.06.03 12:22:45.
