data_PCOD9166492
_publ_section_title
;
Structure prediction by ZEFSAII (Michael W. Deem and Ramdas Pophale) SiO2 
 PCOD9166492
Probable space group: P 21/M
;
_chemical_formula_sum "Si O2"
_cell_formula_units_Z 28
_cell_length_a 21.757627
_cell_length_b 13.596544
_cell_length_c 9.603422
_cell_angle_alpha 90.000000
_cell_angle_beta 27.863690
_cell_angle_gamma 90.000000
_cell_volume 1327.781404
_symmetry_space_group_name_H-M "P 21/M"
_symmetry_group_IT_number 11
_symmetry_cell_setting 'monoclinic'
loop_
_space_group_symop_operation_xyz
x,y,z
-x,1/2+y,-z
-x,-y,-z
x,1/2-y,z
loop_
_atom_site_type_symbol
_atom_site_label
_atom_site_fract_x
_atom_site_fract_y
_atom_site_fract_z
Si Si1 0.383770 0.868492 0.565199
Si Si2 0.625026 0.132176 0.739102
Si Si3 0.882069 0.136143 0.737540
Si Si4 0.870716 0.558359 0.602029
Si Si5 0.374116 0.368908 0.730607
Si Si6 0.643155 0.631520 0.556530
Si Si7 0.846495 0.520504 0.339194
O O1 0.393059 0.750000 0.540387
O O2 0.392337 0.899000 0.387539
O O3 0.499794 0.901270 0.433738
O O4 0.246614 0.889284 0.914932
O O5 0.643254 0.250000 0.709543
O O6 0.754668 0.076639 0.533259
O O7 0.491901 0.108491 0.090046
O O8 0.875567 0.250000 0.705586
O O9 0.003637 0.117966 0.596637
O O10 0.894524 0.057223 0.588616
O O11 0.841954 0.572529 0.498137
O O12 0.751252 0.593413 0.935806
O O13 0.372973 0.250000 0.731720
O O14 0.371402 0.399886 0.575013
O O15 0.656941 0.750000 0.532035
O O16 0.770100 0.584557 0.376449
O O17 0.000000 0.500000 0.000000
#
# Coordination Sequence:
#
# PCOD9166492 Si02
#       7
#     4   4   4   4   4   4   4
#     4   9  19  38  66  94 123 165 212 261 314 373
#     4  10  22  43  68  96 131 173 217 266 327 390
#     4  10  23  42  65  93 127 163 214 267 315 380
#     4  11  25  41  65  95 124 174 212 261 326 380
#     4  10  22  41  68  98 128 166 215 270 320 378
#     4  10  24  44  67  95 132 172 216 271 327 384
#     4  12  27  43  64  97 136 173 218 267 324 395
#
# _framework density 21.087807000000002
#
# number of rings (size 3 to 8) (size 9 to 14) (size 15 to 20)
#    0.000    1.714    0.000    2.571    8.000    4.000 
#    0.000    0.000    0.000    0.000    0.000    0.000 
#    0.000    0.000    0.000    0.000    0.000    0.000 
#
# Total GULP energy -156617.453832 kJ/mol
# GULP energy per Si atom -5593.480494 kJ/mol
# Density = 2.103981 g / cm^3
# Si number density = 21.087807 Si / 1000 Ang^3
#
#
#
# Elastic Constant Matrix: (Units=GPa)
#
#
# Indices 1 2 3 4 5 6 
#
# 1 133.4334 -1.7024 64.6405 0.0000 -17.4467 0.0000
# 2 -1.7024 56.8392 15.4282 0.0000 -13.6872 0.0000
# 3 64.6405 15.4282 144.4345 0.0000 -29.5163 0.0000
# 4 0.0000 0.0000 0.0000 36.8229 0.0000 -3.0066
# 5 -17.4467 -13.6872 -29.5163 0.0000 42.2892 0.0000
# 6 0.0000 0.0000 0.0000 -3.0066 0.0000 31.0040
#
#
#
# Elastic Compliance Matrix: (Units=1/GPa)
#
#
# Indices 1 2 3 4 5 6 
#
# 1 0.009789 0.001847 -0.004235 0.000000 0.001681 0.000000
# 2 0.001847 0.019531 -0.001709 0.000000 0.005891 0.000000
# 3 -0.004235 -0.001709 0.009951 0.000000 0.004645 0.000000
# 4 0.000000 0.000000 0.000000 0.027374 0.000000 0.002655
# 5 0.001681 0.005891 0.004645 0.000000 0.029488 0.000000
# 6 0.000000 0.000000 0.000000 0.002655 0.000000 0.032511
#
#
# Mechanical properties :
#
#
# Convention : Reuss Voigt Hill
#
# Bulk Modulus (GPa) = 32.17762 54.60442 43.39102
# Shear Modulus (GPa) = 33.96791 39.11260 36.54026
#
# Velocity S-wave (km/s) = 4.01781 4.31135 4.16717
# Velocity P-wave (km/s) = 6.06760 7.12276 6.61625
#
# Compressibility (1/GPa) = 0.03107750
#
# Stress axis : x y z
#
# Youngs Moduli (GPa) = 102.15229 51.19996 100.49569
#
# Poissons Ratio (x) = -0.09459 0.42560
# Poissons Ratio (y) = -0.18872 0.17178
# Poissons Ratio (z) = 0.43261 0.08752
#
# Static dielectric constant tensor:
#      x y z
#    x 1.718620 0.000000 0.014420 
#    y 0.000000 1.811180 0.000000 
#    z 0.014420 0.000000 1.682860 
# 
# From -- ./inp_files/26917.got.cif
#   From: 2010.05.17/outbox.cif.g08.bks.cpg/sg11_14_cif.got.tgz:26917.got - 2010.06.03 12:22:45.
