data_PCOD9166389
_publ_section_title
;
Structure prediction by ZEFSAII (Michael W. Deem and Ramdas Pophale) SiO2 
 PCOD9166389
Probable space group: P 21/M
;
_chemical_formula_sum "Si O2"
_cell_formula_units_Z 30
_cell_length_a 5.419134
_cell_length_b 21.880633
_cell_length_c 11.296497
_cell_angle_alpha 90.000000
_cell_angle_beta 69.456250
_cell_angle_gamma 90.000000
_cell_volume 1254.287393
_symmetry_space_group_name_H-M "P 21/M"
_symmetry_group_IT_number 11
_symmetry_cell_setting 'monoclinic'
loop_
_space_group_symop_operation_xyz
x,y,z
-x,1/2+y,-z
-x,-y,-z
x,1/2-y,z
loop_
_atom_site_type_symbol
_atom_site_label
_atom_site_fract_x
_atom_site_fract_y
_atom_site_fract_z
Si Si1 0.642472 0.345304 0.160304
Si Si2 0.400028 0.680306 0.114232
Si Si3 0.705667 0.953067 0.793021
Si Si4 0.870476 0.605701 0.995668
Si Si5 0.010693 0.622683 0.555399
Si Si6 0.581419 0.932504 0.443165
Si Si7 0.051036 0.573475 0.202423
Si Si8 0.750805 0.750000 0.652031
O O1 0.472345 0.302659 0.271888
O O2 0.551718 0.415165 0.200356
O O3 0.592228 0.325291 0.031709
O O4 0.956578 0.346691 0.111138
O O5 0.391040 0.750000 0.150040
O O6 0.159495 0.641371 0.205291
O O7 0.666791 0.646192 0.103488
O O8 0.936120 0.918264 0.682820
O O9 0.733389 0.938582 0.927255
O O10 0.752477 0.024447 0.772578
O O11 0.045203 0.570190 0.060992
O O12 0.314154 0.606578 0.474961
O O13 0.796070 0.598287 0.495865
O O14 0.959601 0.694194 0.586545
O O15 0.760402 0.939219 0.297105
O O16 0.500000 0.000000 0.500000
#
# Coordination Sequence:
#
# PCOD9166389 Si02
#       8
#     4   4   4   4   4   4   4   2
#     4   9  20  39  65 100 139 180 223 290 363 443
#     4  10  22  41  60  95 137 183 237 282 355 435
#     4  10  22  41  67 107 141 173 233 299 369 426
#     4  10  23  38  67 106 138 184 230 297 364 436
#     4  11  27  48  75 113 142 192 241 314 360 435
#     4  12  27  51  77 103 144 195 259 301 361 428
#     4  11  25  42  70  94 142 189 234 299 352 433
#     4  10  22  44  74 106 148 180 240 306 378 426
#
# _framework density 23.917963
#
# number of rings (size 3 to 8) (size 9 to 14) (size 15 to 20)
#    0.000    1.600    2.000    0.800    6.533    6.933 
#    7.200    0.000    0.000    0.000    0.000    0.000 
#    0.000    0.000    0.000    0.000    0.000    0.000 
#
# Total GULP energy -167139.726499 kJ/mol
# GULP energy per Si atom -5571.324217 kJ/mol
# Density = 2.386353 g / cm^3
# Si number density = 23.917963 Si / 1000 Ang^3
#
#
#
# Elastic Constant Matrix: (Units=GPa)
#
#
# Indices 1 2 3 4 5 6 
#
# 1 107.1698 45.9167 27.5234 0.0000 -25.6097 0.0000
# 2 45.9167 168.7043 40.3687 0.0000 -17.6697 0.0000
# 3 27.5234 40.3687 68.9892 0.0000 -32.3791 0.0000
# 4 0.0000 0.0000 0.0000 30.7693 0.0000 -12.4275
# 5 -25.6097 -17.6697 -32.3791 0.0000 51.1614 0.0000
# 6 0.0000 0.0000 0.0000 -12.4275 0.0000 12.5265
#
#
#
# Elastic Compliance Matrix: (Units=1/GPa)
#
#
# Indices 1 2 3 4 5 6 
#
# 1 0.011710 -0.002443 -0.001262 0.000000 0.004219 0.000000
# 2 -0.002443 0.007405 -0.003886 0.000000 -0.001125 0.000000
# 3 -0.001262 -0.003886 0.023253 0.000000 0.012743 0.000000
# 4 0.000000 0.000000 0.000000 0.054230 0.000000 0.053801
# 5 0.004219 -0.001125 0.012743 0.000000 0.029334 0.000000
# 6 0.000000 0.000000 0.000000 0.053801 0.000000 0.133207
#
#
# Mechanical properties :
#
#
# Convention : Reuss Voigt Hill
#
# Bulk Modulus (GPa) = 36.78474 63.60897 50.19686
# Shear Modulus (GPa) = 17.64398 34.29506 25.96952
#
# Velocity S-wave (km/s) = 2.71899 3.79075 3.29868
# Velocity P-wave (km/s) = 5.02694 6.76846 5.96163
#
# Compressibility (1/GPa) = 0.02718519
#
# Stress axis : x y z
#
# Youngs Moduli (GPa) = 85.39611 135.05176 43.00541
#
# Poissons Ratio (x) = 0.32997 0.05427
# Poissons Ratio (y) = 0.20865 0.16712
# Poissons Ratio (z) = 0.10776 0.52482
#
# Static dielectric constant tensor:
#      x y z
#    x 1.970770 0.000000 0.048290 
#    y 0.000000 1.888420 0.000000 
#    z 0.048290 0.000000 1.968010 
# 
# From -- ./inp_files/46201.got.cif
#   From: 2010.05.17/outbox.cif.g08.bks.cpg/sg11_24_cif.got.tgz:46201.got - 2010.06.03 12:22:45.
