data_PCOD9166362
_publ_section_title
;
Structure prediction by ZEFSAII (Michael W. Deem and Ramdas Pophale) SiO2 
 PCOD9166362
Probable space group: P 21/M
;
_chemical_formula_sum "Si O2"
_cell_formula_units_Z 24
_cell_length_a 10.783953
_cell_length_b 12.571149
_cell_length_c 10.229066
_cell_angle_alpha 90.000000
_cell_angle_beta 127.086307
_cell_angle_gamma 90.000000
_cell_volume 1106.225875
_symmetry_space_group_name_H-M "P 21/M"
_symmetry_group_IT_number 11
_symmetry_cell_setting 'monoclinic'
loop_
_space_group_symop_operation_xyz
x,y,z
-x,1/2+y,-z
-x,-y,-z
x,1/2-y,z
loop_
_atom_site_type_symbol
_atom_site_label
_atom_site_fract_x
_atom_site_fract_y
_atom_site_fract_z
Si Si1 0.919672 0.625781 0.590282
Si Si2 0.592496 0.133940 0.645621
Si Si3 0.756896 0.034180 0.284152
Si Si4 0.512964 0.915845 0.709410
Si Si5 0.927747 0.037535 0.818114
Si Si6 0.756150 0.869325 0.073529
O O1 0.880233 0.750000 0.565338
O O2 0.830699 0.555685 0.425983
O O3 0.886894 0.565794 0.705707
O O4 0.102694 0.607921 0.676612
O O5 0.572052 0.250000 0.689959
O O6 0.516098 0.129195 0.453135
O O7 0.773581 0.105734 0.740852
O O8 0.524441 0.042196 0.692538
O O9 0.691803 0.964232 0.122932
O O10 0.631010 0.100371 0.284828
O O11 0.667329 0.876485 0.879019
O O12 0.061723 0.103703 0.829087
O O13 0.000000 0.000000 0.000000
O O14 0.737063 0.750000 0.114220
#
# Coordination Sequence:
#
# PCOD9166362 Si02
#       6
#     4   4   4   4   4   4
#     4  10  22  40  66  93 123 167 209 257 315 367
#     4  11  24  42  66  91 127 171 206 254 318 370
#     4  10  22  42  62  91 129 159 209 262 301 379
#     4  11  23  44  61  94 130 159 210 258 307 377
#     4  11  22  44  62  93 127 159 213 261 299 374
#     4  11  23  39  65  93 123 164 205 256 315 364
#
# _framework density 21.69539
#
# number of rings (size 3 to 8) (size 9 to 14) (size 15 to 20)
#    0.000    1.333    3.333    2.000    0.000    4.000 
#    0.000    0.000    0.000    0.000    0.000    0.000 
#    0.000    0.000    0.000    0.000    0.000    0.000 
#
# Total GULP energy -134232.854012 kJ/mol
# GULP energy per Si atom -5593.035584 kJ/mol
# Density = 2.164601 g / cm^3
# Si number density = 21.695390 Si / 1000 Ang^3
#
#
#
# Elastic Constant Matrix: (Units=GPa)
#
#
# Indices 1 2 3 4 5 6 
#
# 1 39.5764 -19.5114 -17.0283 0.0000 9.2934 0.0000
# 2 -19.5114 97.0350 -2.0142 0.0000 -1.1514 0.0000
# 3 -17.0283 -2.0142 86.8763 0.0000 -4.9367 0.0000
# 4 0.0000 0.0000 0.0000 -4.3572 0.0000 -1.2464
# 5 9.2934 -1.1514 -4.9367 0.0000 31.3888 0.0000
# 6 0.0000 0.0000 0.0000 -1.2464 0.0000 4.8772
#
#
#
# Elastic Compliance Matrix: (Units=1/GPa)
#
#
# Indices 1 2 3 4 5 6 
#
# 1 0.033266 0.006715 0.006186 0.000000 -0.008630 0.000000
# 2 0.006715 0.011671 0.001512 0.000000 -0.001322 0.000000
# 3 0.006186 0.001512 0.012771 0.000000 0.000233 0.000000
# 4 0.000000 0.000000 0.000000 -0.213869 0.000000 -0.054656
# 5 -0.008630 -0.001322 0.000233 0.000000 0.034402 0.000000
# 6 0.000000 0.000000 0.000000 -0.054656 0.000000 0.191067
#
#
# Mechanical properties :
#
#
# Convention : Reuss Voigt Hill
#
# Bulk Modulus (GPa) = 11.55621 16.26443 13.91032
# Shear Modulus (GPa) = 72.12043 23.85120 47.98582
#
# Velocity S-wave (km/s) = 5.77187 3.31927 4.70808
# Velocity P-wave (km/s) = 7.05389 4.71201 5.99835
#
# Compressibility (1/GPa) = 0.08653357
#
# Stress axis : x y z
#
# Youngs Moduli (GPa) = 30.06059 85.67893 78.30055
#
# Poissons Ratio (x) = -0.57534 -0.48434
# Poissons Ratio (y) = -0.20186 -0.11836
# Poissons Ratio (z) = -0.18594 -0.12952
#
# Static dielectric constant tensor:
#      x y z
#    x 1.797620 0.000000 0.000510 
#    y 0.000000 1.763090 0.000000 
#    z 0.000510 0.000000 1.799460 
# 
# From -- ./inp_files/21996.got.cif
#   From: 2010.05.17/outbox.cif.g08.bks.cpg/sg11_11_cif.got.tgz:21996.got - 2010.06.03 12:22:45.
