data_PCOD9166769
_publ_section_title
;
Structure prediction by ZEFSAII (Michael W. Deem and Ramdas Pophale) SiO2 
 PCOD9166769
Probable space group: P 21/M
;
_chemical_formula_sum "Si O2"
_cell_formula_units_Z 30
_cell_length_a 10.968599
_cell_length_b 19.627519
_cell_length_c 13.623827
_cell_angle_alpha 90.000000
_cell_angle_beta 29.779618
_cell_angle_gamma 90.000000
_cell_volume 1456.731292
_symmetry_space_group_name_H-M "P 21/M"
_symmetry_group_IT_number 11
_symmetry_cell_setting 'monoclinic'
loop_
_space_group_symop_operation_xyz
x,y,z
-x,1/2+y,-z
-x,-y,-z
x,1/2-y,z
loop_
_atom_site_type_symbol
_atom_site_label
_atom_site_fract_x
_atom_site_fract_y
_atom_site_fract_z
Si Si1 0.775767 0.670960 0.201307
Si Si2 0.583392 0.567630 0.495894
Si Si3 0.714227 0.750000 0.885546
Si Si4 0.299734 0.617809 0.877806
Si Si5 0.680246 0.618100 0.049529
Si Si6 0.108258 0.514520 0.170899
Si Si7 0.790081 0.822787 0.628261
Si Si8 0.174392 0.941305 0.334736
O O1 0.700175 0.750000 0.251187
O O2 0.634901 0.627525 0.382306
O O3 0.736618 0.635721 0.123085
O O4 0.062381 0.664776 0.029856
O O5 0.500000 0.500000 0.500000
O O6 0.387681 0.591348 0.711606
O O7 0.835596 0.545069 0.372337
O O8 0.760364 0.808050 0.764854
O O9 0.673486 0.688827 0.994968
O O10 0.529613 0.653883 0.768259
O O11 0.223013 0.554600 0.999207
O O12 0.420697 0.578213 0.220446
O O13 0.875886 0.565152 0.865669
O O14 0.241182 0.535013 0.178442
O O15 0.856147 0.750000 0.535197
O O16 0.002973 0.875043 0.455475
O O17 0.000000 0.000000 0.500000
#
# Coordination Sequence:
#
# PCOD9166769 Si02
#       8
#     4   4   2   4   4   4   4   4
#     4  11  26  45  69 106 141 185 231 283 360 429
#     4  11  24  44  73 103 137 181 238 294 350 411
#     4  10  24  44  66  98 142 188 232 282 364 420
#     4  11  22  48  70 102 136 179 235 299 344 415
#     4  12  24  45  68 100 150 185 228 286 353 433
#     4  11  24  43  73 102 136 183 240 289 350 410
#     4  10  23  42  67  99 131 177 235 286 351 403
#     4  12  25  43  71 103 140 181 239 289 344 419
#
# _framework density 20.594052000000001
#
# number of rings (size 3 to 8) (size 9 to 14) (size 15 to 20)
#    0.400    0.533    2.000    4.800    2.800    3.200 
#    2.400    0.000    0.000    0.000    0.000    0.000 
#    0.000    0.000    0.000    0.000    0.000    0.000 
#
# Total GULP energy -167176.513173 kJ/mol
# GULP energy per Si atom -5572.550439 kJ/mol
# Density = 2.054718 g / cm^3
# Si number density = 20.594052 Si / 1000 Ang^3
#
#
#
# Elastic Constant Matrix: (Units=GPa)
#
#
# Indices 1 2 3 4 5 6 
#
# 1 64.9635 1.9887 14.5149 0.0000 5.0322 0.0000
# 2 1.9887 105.7970 4.4446 0.0000 7.1775 0.0000
# 3 14.5149 4.4446 52.9877 0.0000 21.4301 0.0000
# 4 0.0000 0.0000 0.0000 18.3935 0.0000 13.4829
# 5 5.0322 7.1775 21.4301 0.0000 28.5731 0.0000
# 6 0.0000 0.0000 0.0000 13.4829 0.0000 25.5492
#
#
#
# Elastic Compliance Matrix: (Units=1/GPa)
#
#
# Indices 1 2 3 4 5 6 
#
# 1 0.016409 -0.000157 -0.004778 0.000000 0.000733 0.000000
# 2 -0.000157 0.009620 0.000290 0.000000 -0.002606 0.000000
# 3 -0.004778 0.000290 0.028487 0.000000 -0.020597 0.000000
# 4 0.000000 0.000000 0.000000 0.088666 0.000000 -0.046791
# 5 0.000733 -0.002606 -0.020597 0.000000 0.050971 0.000000
# 6 0.000000 0.000000 0.000000 -0.046791 0.000000 0.063833
#
#
# Mechanical properties :
#
#
# Convention : Reuss Voigt Hill
#
# Bulk Modulus (GPa) = 22.11178 29.51607 25.81392
# Shear Modulus (GPa) = 17.70839 28.02316 22.86578
#
# Velocity S-wave (km/s) = 2.93555 3.69282 3.33575
# Velocity P-wave (km/s) = 4.71701 5.70491 5.23432
#
# Compressibility (1/GPa) = 0.04522477
#
# Stress axis : x y z
#
# Youngs Moduli (GPa) = 60.94259 103.95386 35.10379
#
# Poissons Ratio (x) = 0.01637 0.16774
# Poissons Ratio (y) = 0.00960 -0.01019
# Poissons Ratio (z) = 0.29120 -0.03019
#
# Static dielectric constant tensor:
#      x y z
#    x 2.133820 0.000000 -0.453070 
#    y 0.000000 1.713550 0.000000 
#    z -0.453070 0.000000 2.201700 
# 
# From -- ./inp_files/50592.got.cif
#   From: 2010.05.17/outbox.cif.g08.bks.cpg/sg11_26_cif.got.tgz:50592.got - 2010.06.03 12:22:45.
