data_PCOD9166023
_publ_section_title
;
Structure prediction by ZEFSAII (Michael W. Deem and Ramdas Pophale) SiO2 
 PCOD9166023
Probable space group: P 21/M
;
_chemical_formula_sum "Si O2"
_cell_formula_units_Z 20
_cell_length_a 9.685277
_cell_length_b 21.266398
_cell_length_c 5.431815
_cell_angle_alpha 90.000000
_cell_angle_beta 114.375040
_cell_angle_gamma 90.000000
_cell_volume 1019.070596
_symmetry_space_group_name_H-M "P 21/M"
_symmetry_group_IT_number 11
_symmetry_cell_setting 'monoclinic'
loop_
_space_group_symop_operation_xyz
x,y,z
-x,1/2+y,-z
-x,-y,-z
x,1/2-y,z
loop_
_atom_site_type_symbol
_atom_site_label
_atom_site_fract_x
_atom_site_fract_y
_atom_site_fract_z
Si Si1 0.191226 0.562906 0.740451
Si Si2 0.602790 0.677915 0.370200
Si Si3 0.365727 0.486255 0.209192
Si Si4 0.538687 0.369441 0.216523
Si Si5 0.154915 0.070176 0.433172
O O1 0.285140 0.610984 0.642723
O O2 0.181780 0.492868 0.615397
O O3 0.023143 0.583347 0.685674
O O4 0.300240 0.550039 0.052198
O O5 0.651643 0.750000 0.433682
O O6 0.521519 0.657067 0.566975
O O7 0.743636 0.630529 0.430119
O O8 0.498481 0.672128 0.049538
O O9 0.500000 0.500000 0.500000
O O10 0.447094 0.434873 0.099836
O O11 0.220064 0.452043 0.218915
#
# Coordination Sequence:
#
# PCOD9166023 Si02
#       5
#     4   4   4   4   4
#     4  11  20  36  58  98 125 151 196 257 333 364
#     4  11  24  44  62  85 118 172 219 252 296 369
#     4  11  19  34  57  91 130 161 194 248 313 383
#     4  11  22  38  65  89 120 158 209 257 305 364
#     4  10  22  35  59  91 129 157 193 257 315 381
#
# _framework density 19.625724999999999
#
# number of rings (size 3 to 8) (size 9 to 14) (size 15 to 20)
#    0.000    1.200    4.000    4.200    0.000    0.000 
#    0.000    2.000    0.000    0.000    0.000    0.000 
#    0.000    0.000    0.000    0.000    0.000    0.000 
#
# Total GULP energy -111544.604977 kJ/mol
# GULP energy per Si atom -5577.230249 kJ/mol
# Density = 1.958106 g / cm^3
# Si number density = 19.625725 Si / 1000 Ang^3
#
#
#
# Elastic Constant Matrix: (Units=GPa)
#
#
# Indices 1 2 3 4 5 6 
#
# 1 187.6795 49.1864 43.1336 0.0000 6.8783 0.0000
# 2 49.1864 98.2858 23.4150 0.0000 1.8019 0.0000
# 3 43.1336 23.4150 79.2575 0.0000 -0.2620 0.0000
# 4 0.0000 0.0000 0.0000 22.8506 0.0000 -2.6476
# 5 6.8783 1.8019 -0.2620 0.0000 13.4098 0.0000
# 6 0.0000 0.0000 0.0000 -2.6476 0.0000 16.2075
#
#
#
# Elastic Compliance Matrix: (Units=1/GPa)
#
#
# Indices 1 2 3 4 5 6 
#
# 1 0.006815 -0.002653 -0.002936 0.000000 -0.003197 0.000000
# 2 -0.002653 0.012009 -0.002105 0.000000 -0.000294 0.000000
# 3 -0.002936 -0.002105 0.014844 0.000000 0.002079 0.000000
# 4 0.000000 0.000000 0.000000 0.044607 0.000000 0.007287
# 5 -0.003197 -0.000294 0.002079 0.000000 0.076292 0.000000
# 6 0.000000 0.000000 0.000000 0.007287 0.000000 0.062890
#
#
# Mechanical properties :
#
#
# Convention : Reuss Voigt Hill
#
# Bulk Modulus (GPa) = 54.70328 66.29921 60.50124
# Shear Modulus (GPa) = 20.92594 27.12610 24.02602
#
# Velocity S-wave (km/s) = 3.26889 3.72179 3.50267
# Velocity P-wave (km/s) = 6.49471 7.23354 6.87406
#
# Compressibility (1/GPa) = 0.01828044
#
# Stress axis : x y z
#
# Youngs Moduli (GPa) = 146.72776 83.27221 67.36869
#
# Poissons Ratio (x) = 0.22089 0.19779
# Poissons Ratio (y) = 0.38922 0.14182
# Poissons Ratio (z) = 0.43079 0.17530
#
# Static dielectric constant tensor:
#      x y z
#    x 1.693360 0.000000 -0.035280 
#    y 0.000000 1.693430 0.000000 
#    z -0.035280 0.000000 1.808830 
# 
# From -- ./inp_files/2126.got.cif
#   From: 2010.05.17/outbox.cif.g08.bks.cpg/sg11_2_cif.got.tgz:2126.got - 2010.06.03 12:22:45.
