data_PCOD9166236
_publ_section_title
;
Structure prediction by ZEFSAII (Michael W. Deem and Ramdas Pophale) SiO2 
 PCOD9166236
Probable space group: P 21/M
;
_chemical_formula_sum "Si O2"
_cell_formula_units_Z 26
_cell_length_a 5.075897
_cell_length_b 7.868876
_cell_length_c 29.383886
_cell_angle_alpha 90.000000
_cell_angle_beta 69.065021
_cell_angle_gamma 90.000000
_cell_volume 1096.163501
_symmetry_space_group_name_H-M "P 21/M"
_symmetry_group_IT_number 11
_symmetry_cell_setting 'monoclinic'
loop_
_space_group_symop_operation_xyz
x,y,z
-x,1/2+y,-z
-x,-y,-z
x,1/2-y,z
loop_
_atom_site_type_symbol
_atom_site_label
_atom_site_fract_x
_atom_site_fract_y
_atom_site_fract_z
Si Si1 0.493942 0.447515 0.219078
Si Si2 0.840802 0.043344 0.614257
Si Si3 0.280303 0.941183 0.051651
Si Si4 0.706015 0.062051 0.302972
Si Si5 0.454380 0.452603 0.554928
Si Si6 0.338074 0.556416 0.893443
Si Si7 0.918580 0.250000 0.721500
O O1 0.385889 0.250000 0.224812
O O2 0.712354 0.451633 0.247650
O O3 0.631995 0.482668 0.161775
O O4 0.278726 0.597839 0.244171
O O5 0.829093 0.250000 0.622502
O O6 0.707636 0.003109 0.572933
O O7 0.159107 0.978562 0.592433
O O8 0.621877 0.962259 0.662961
O O9 0.194788 0.750000 0.046406
O O10 0.451411 0.950028 0.088304
O O11 0.987400 0.040984 0.072160
O O12 0.500000 0.000000 0.000000
O O13 0.798461 0.250000 0.311216
O O14 0.869637 0.899984 0.311276
O O15 0.500000 0.500000 0.500000
O O16 0.427358 0.250000 0.557855
O O17 0.431325 0.750000 0.894725
#
# Coordination Sequence:
#
# PCOD9166236 Si02
#       7
#     4   4   4   4   4   4   2
#     4  10  26  44  66 100 139 182 228 283 344 411
#     4  10  22  40  63  92 129 176 221 275 342 406
#     4  12  26  45  71 102 137 179 230 284 346 413
#     4  11  25  43  67 101 135 182 232 283 341 412
#     4  10  22  39  63  91 127 169 221 276 339 405
#     4  11  25  46  71 100 139 180 228 285 344 409
#     4  12  24  42  72  94 142 178 236 280 350 396
#
# _framework density 23.719090000000001
#
# number of rings (size 3 to 8) (size 9 to 14) (size 15 to 20)
#    0.000    1.231    0.769    3.692    6.462    1.231 
#    0.000    0.000    0.000    0.000    0.000    0.000 
#    0.000    0.000    0.000    0.000    0.000    0.000 
#
# Total GULP energy -145032.955203 kJ/mol
# GULP energy per Si atom -5578.190585 kJ/mol
# Density = 2.366510 g / cm^3
# Si number density = 23.719090 Si / 1000 Ang^3
#
#
#
# Elastic Constant Matrix: (Units=GPa)
#
#
# Indices 1 2 3 4 5 6 
#
# 1 55.3489 28.1687 1.7682 0.0000 -13.0395 0.0000
# 2 28.1687 136.5368 30.2510 0.0000 -5.5263 0.0000
# 3 1.7682 30.2510 61.4983 0.0000 7.8425 0.0000
# 4 0.0000 0.0000 0.0000 71.2653 0.0000 -18.6849
# 5 -13.0395 -5.5263 7.8425 0.0000 39.0586 0.0000
# 6 0.0000 0.0000 0.0000 -18.6849 0.0000 32.9875
#
#
#
# Elastic Compliance Matrix: (Units=1/GPa)
#
#
# Indices 1 2 3 4 5 6 
#
# 1 0.021816 -0.004392 0.000702 0.000000 0.006521 0.000000
# 2 -0.004392 0.009264 -0.004527 0.000000 0.000753 0.000000
# 3 0.000702 -0.004527 0.019005 0.000000 -0.004222 0.000000
# 4 0.000000 0.000000 0.000000 0.016479 0.000000 0.009334
# 5 0.006521 0.000753 -0.004222 0.000000 0.028734 0.000000
# 6 0.000000 0.000000 0.000000 0.009334 0.000000 0.035602
#
#
# Mechanical properties :
#
#
# Convention : Reuss Voigt Hill
#
# Bulk Modulus (GPa) = 29.71663 41.52887 35.62275
# Shear Modulus (GPa) = 31.53540 41.54201 36.53871
#
# Velocity S-wave (km/s) = 3.65024 4.18953 3.92915
# Velocity P-wave (km/s) = 5.50649 6.39918 5.96955
#
# Compressibility (1/GPa) = 0.03365119
#
# Stress axis : x y z
#
# Youngs Moduli (GPa) = 45.83693 107.94915 52.61644
#
# Poissons Ratio (x) = 0.47417 -0.03693
# Poissons Ratio (y) = 0.20134 0.23817
# Poissons Ratio (z) = -0.03217 0.48863
#
# Static dielectric constant tensor:
#      x y z
#    x 2.276730 0.000000 -0.133010 
#    y 0.000000 1.881800 0.000000 
#    z -0.133010 0.000000 1.988030 
# 
# From -- ./inp_files/72520.got.cif
#   From: 2010.05.17/outbox.cif.g08.bks.cpg/sg11_37_cif.got.tgz:72520.got - 2010.06.03 12:22:45.
