data_PCOD9166518
_publ_section_title
;
Structure prediction by ZEFSAII (Michael W. Deem and Ramdas Pophale) SiO2 
 PCOD9166518
Probable space group: P 21/M
;
_chemical_formula_sum "Si O2"
_cell_formula_units_Z 30
_cell_length_a 14.604326
_cell_length_b 9.234052
_cell_length_c 22.744114
_cell_angle_alpha 90.000000
_cell_angle_beta 149.512482
_cell_angle_gamma 90.000000
_cell_volume 1556.148626
_symmetry_space_group_name_H-M "P 21/M"
_symmetry_group_IT_number 11
_symmetry_cell_setting 'monoclinic'
loop_
_space_group_symop_operation_xyz
x,y,z
-x,1/2+y,-z
-x,-y,-z
x,1/2-y,z
loop_
_atom_site_type_symbol
_atom_site_label
_atom_site_fract_x
_atom_site_fract_y
_atom_site_fract_z
Si Si1 0.351849 0.925082 0.315797
Si Si2 0.771390 0.575569 0.541057
Si Si3 0.334678 0.528289 0.982176
Si Si4 0.547378 0.086209 0.825242
Si Si5 0.842006 0.923072 0.448014
Si Si6 0.922151 0.924680 0.747537
Si Si7 0.192856 0.423415 0.112306
Si Si8 0.475408 0.750000 0.964207
O O1 0.332384 0.750000 0.301244
O O2 0.563726 0.959701 0.440757
O O3 0.228445 0.991714 0.298547
O O4 0.289069 0.003602 0.221574
O O5 0.778947 0.750000 0.541419
O O6 0.826512 0.522509 0.506839
O O7 0.896435 0.533541 0.664789
O O8 0.368170 0.627064 0.944059
O O9 0.122190 0.534550 0.878863
O O10 0.442896 0.583356 0.099164
O O11 0.411794 0.374289 0.008525
O O12 0.596759 0.250000 0.832430
O O13 0.349362 0.054745 0.690163
O O14 0.686321 0.970545 0.876257
O O15 0.874924 0.750000 0.467235
O O16 0.000000 0.000000 0.500000
O O17 0.898538 0.750000 0.740210
O O18 0.177851 0.250000 0.109697
O O19 0.000000 0.500000 0.000000
#
# Coordination Sequence:
#
# PCOD9166518 Si02
#       8
#     4   4   4   4   4   4   4   2
#     4  11  22  41  66  92 132 170 210 263 324 384
#     4   9  20  41  63  90 129 171 213 260 320 378
#     4  11  23  43  64  94 126 164 214 262 327 378
#     4  11  22  42  67  92 132 169 209 267 324 383
#     4  10  22  42  64  93 127 171 215 265 320 380
#     4  11  22  39  65  95 128 168 217 266 321 385
#     4  12  25  40  65  97 130 170 214 261 322 388
#     4  10  24  42  64  88 128 168 208 264 320 378
#
# _framework density 19.278364
#
# number of rings (size 3 to 8) (size 9 to 14) (size 15 to 20)
#    0.000    1.333    2.667    2.800    1.867    2.667 
#    2.400    1.333    0.000    0.000    0.000    0.000 
#    0.000    0.000    0.000    0.000    0.000    0.000 
#
# Total GULP energy -167012.832215 kJ/mol
# GULP energy per Si atom -5567.094407 kJ/mol
# Density = 1.923449 g / cm^3
# Si number density = 19.278364 Si / 1000 Ang^3
#
#
#
# Elastic Constant Matrix: (Units=GPa)
#
#
# Indices 1 2 3 4 5 6 
#
# 1 91.8464 48.3550 15.6727 0.0000 13.4680 0.0000
# 2 48.3550 69.3408 21.4163 0.0000 8.5413 0.0000
# 3 15.6727 21.4163 43.2972 0.0000 -12.9645 0.0000
# 4 0.0000 0.0000 0.0000 10.7441 0.0000 -1.9512
# 5 13.4680 8.5413 -12.9645 0.0000 21.7666 0.0000
# 6 0.0000 0.0000 0.0000 -1.9512 0.0000 14.1226
#
#
#
# Elastic Compliance Matrix: (Units=1/GPa)
#
#
# Indices 1 2 3 4 5 6 
#
# 1 0.018601 -0.010224 -0.004772 0.000000 -0.010339 0.000000
# 2 -0.010224 0.027244 -0.013487 0.000000 -0.012398 0.000000
# 3 -0.004772 -0.013487 0.041336 0.000000 0.032865 0.000000
# 4 0.000000 0.000000 0.000000 0.095470 0.000000 0.013190
# 5 -0.010339 -0.012398 0.032865 0.000000 0.076779 0.000000
# 6 0.000000 0.000000 0.000000 0.013190 0.000000 0.072631
#
#
# Mechanical properties :
#
#
# Convention : Reuss Voigt Hill
#
# Bulk Modulus (GPa) = 33.09713 41.70806 37.40260
# Shear Modulus (GPa) = 12.52824 17.26267 14.89546
#
# Velocity S-wave (km/s) = 2.55200 2.99564 2.78268
# Velocity P-wave (km/s) = 5.08811 5.80058 5.45599
#
# Compressibility (1/GPa) = 0.03021410
#
# Stress axis : x y z
#
# Youngs Moduli (GPa) = 53.76115 36.70536 24.19223
#
# Poissons Ratio (x) = 0.37527 0.11544
# Poissons Ratio (y) = 0.54965 0.32629
# Poissons Ratio (z) = 0.25655 0.49506
#
# Static dielectric constant tensor:
#      x y z
#    x 1.692840 0.000000 -0.014140 
#    y 0.000000 1.634370 0.000000 
#    z -0.014140 0.000000 1.690880 
# 
# From -- ./inp_files/49256.got.cif
#   From: 2010.05.17/outbox.cif.g08.bks.cpg/sg11_25_cif.got.tgz:49256.got - 2010.06.03 12:22:45.
