data_PCOD9166976
_publ_section_title
;
Structure prediction by ZEFSAII (Michael W. Deem and Ramdas Pophale) SiO2 
 PCOD9166976
Probable space group: P 21/M
;
_chemical_formula_sum "Si O2"
_cell_formula_units_Z 20
_cell_length_a 7.805976
_cell_length_b 22.956601
_cell_length_c 7.133056
_cell_angle_alpha 90.000000
_cell_angle_beta 141.702123
_cell_angle_gamma 90.000000
_cell_volume 792.185582
_symmetry_space_group_name_H-M "P 21/M"
_symmetry_group_IT_number 11
_symmetry_cell_setting 'monoclinic'
loop_
_space_group_symop_operation_xyz
x,y,z
-x,1/2+y,-z
-x,-y,-z
x,1/2-y,z
loop_
_atom_site_type_symbol
_atom_site_label
_atom_site_fract_x
_atom_site_fract_y
_atom_site_fract_z
Si Si1 0.660878 0.043375 0.769818
Si Si2 0.112504 0.815601 0.787450
Si Si3 0.093960 0.053365 0.448034
Si Si4 0.889918 0.345607 0.783578
Si Si5 0.433225 0.186610 0.100105
O O1 0.424782 0.055809 0.722291
O O2 0.728292 0.096231 0.692178
O O3 0.500000 0.000000 0.500000
O O4 0.942965 0.034093 0.124666
O O5 0.012354 0.750000 0.643039
O O6 0.428790 0.817862 0.984831
O O7 0.996220 0.877961 0.611398
O O8 0.082359 0.817354 0.986438
O O9 0.000000 0.000000 0.500000
O O10 0.692953 0.315285 0.463896
O O11 0.192515 0.356350 0.957011
O O12 0.297709 0.250000 0.005728
#
# Coordination Sequence:
#
# PCOD9166976 Si02
#       5
#     4   4   4   4   4
#     4  11  25  47  71 105 141 194 241 300 377 434
#     4  10  24  47  74 107 149 192 247 307 369 442
#     4  11  25  47  74 109 146 194 246 307 375 433
#     4  11  24  45  71 103 146 184 243 302 363 438
#     4  11  24  42  71 105 139 191 240 298 373 433
#
# _framework density 25.246611000000001
#
# number of rings (size 3 to 8) (size 9 to 14) (size 15 to 20)
#    0.000    1.200    0.000    5.400    2.800    4.800 
#    0.000   11.000    0.000    0.000    0.000    0.000 
#    0.000    0.000    0.000    0.000    0.000    0.000 
#
# Total GULP energy -111679.587119 kJ/mol
# GULP energy per Si atom -5583.979356 kJ/mol
# Density = 2.518915 g / cm^3
# Si number density = 25.246611 Si / 1000 Ang^3
#
#
#
# Elastic Constant Matrix: (Units=GPa)
#
#
# Indices 1 2 3 4 5 6 
#
# 1 120.9130 4.5381 25.2154 0.0000 13.9239 0.0000
# 2 4.5381 122.1459 10.4568 0.0000 -18.9855 0.0000
# 3 25.2154 10.4568 119.4413 0.0000 3.3600 0.0000
# 4 0.0000 0.0000 0.0000 30.6085 0.0000 16.0670
# 5 13.9239 -18.9855 3.3600 0.0000 52.8675 0.0000
# 6 0.0000 0.0000 0.0000 16.0670 0.0000 -22.5142
#
#
#
# Elastic Compliance Matrix: (Units=1/GPa)
#
#
# Indices 1 2 3 4 5 6 
#
# 1 0.008942 -0.000561 -0.001770 0.000000 -0.002444 0.000000
# 2 -0.000561 0.008793 -0.000746 0.000000 0.003353 0.000000
# 3 -0.001770 -0.000746 0.008821 0.000000 -0.000362 0.000000
# 4 0.000000 0.000000 0.000000 0.023767 0.000000 0.016961
# 5 -0.002444 0.003353 -0.000362 0.000000 0.020786 0.000000
# 6 0.000000 0.000000 0.000000 0.016961 0.000000 -0.032312
#
#
# Mechanical properties :
#
#
# Convention : Reuss Voigt Hill
#
# Bulk Modulus (GPa) = 49.01082 49.21341 49.11211
# Shear Modulus (GPa) = 96.61697 33.67837 65.14767
#
# Velocity S-wave (km/s) = 6.19293 3.65633 5.08533
# Velocity P-wave (km/s) = 8.40187 6.11231 7.34683
#
# Compressibility (1/GPa) = 0.02040366
#
# Stress axis : x y z
#
# Youngs Moduli (GPa) = 111.83202 113.73068 113.36007
#
# Poissons Ratio (x) = 0.06375 0.20064
# Poissons Ratio (y) = 0.06269 0.08454
# Poissons Ratio (z) = 0.19793 0.08481
#
# Static dielectric constant tensor:
#      x y z
#    x 2.015380 0.000000 -0.033680 
#    y 0.000000 2.224810 0.000000 
#    z -0.033680 0.000000 1.896100 
# 
# From -- ./inp_files/14973.got.cif
#   From: 2010.05.17/outbox.cif.g08.bks.cpg/sg11_8_cif.got.tgz:14973.got - 2010.06.03 12:22:45.
