data_PCOD9166349
_publ_section_title
;
Structure prediction by ZEFSAII (Michael W. Deem and Ramdas Pophale) SiO2 
 PCOD9166349
Probable space group: P 21/M
;
_chemical_formula_sum "Si O2"
_cell_formula_units_Z 26
_cell_length_a 9.699761
_cell_length_b 19.081715
_cell_length_c 9.414601
_cell_angle_alpha 90.000000
_cell_angle_beta 135.921287
_cell_angle_gamma 90.000000
_cell_volume 1212.184189
_symmetry_space_group_name_H-M "P 21/M"
_symmetry_group_IT_number 11
_symmetry_cell_setting 'monoclinic'
loop_
_space_group_symop_operation_xyz
x,y,z
-x,1/2+y,-z
-x,-y,-z
x,1/2-y,z
loop_
_atom_site_type_symbol
_atom_site_label
_atom_site_fract_x
_atom_site_fract_y
_atom_site_fract_z
Si Si1 0.445244 0.949615 0.254678
Si Si2 0.455245 0.898408 0.705302
Si Si3 0.375190 0.380574 0.870164
Si Si4 0.959960 0.417591 0.451559
Si Si5 0.359188 0.169549 0.407815
Si Si6 0.626865 0.250000 0.939571
Si Si7 0.918666 0.122690 0.090789
O O1 0.518390 0.940873 0.145469
O O2 0.558874 0.887059 0.419654
O O3 0.510327 0.026982 0.346542
O O4 0.209593 0.935881 0.086750
O O5 0.237666 0.896284 0.611424
O O6 0.504135 0.838458 0.629034
O O7 0.603279 0.894860 0.947947
O O8 0.149216 0.377793 0.653804
O O9 0.491455 0.310988 0.914910
O O10 0.940682 0.400927 0.271043
O O11 0.000000 0.500000 0.500000
O O12 0.363640 0.250000 0.468220
O O13 0.136546 0.145807 0.203486
O O14 0.774956 0.189245 0.984956
#
# Coordination Sequence:
#
# PCOD9166349 Si02
#       7
#     4   4   4   4   4   2   4
#     4  11  23  43  72  99 130 180 229 271 325 415
#     4  12  25  44  67 105 144 168 219 292 344 388
#     4  11  23  40  72 101 132 170 228 279 331 396
#     4  12  22  40  71 104 130 174 224 279 338 398
#     4  12  28  44  66  96 139 180 223 279 343 399
#     4  10  22  40  64  98 130 174 230 272 324 396
#     4  11  23  41  70  94 130 178 233 270 329 405
#
# _framework density 21.448885000000001
#
# number of rings (size 3 to 8) (size 9 to 14) (size 15 to 20)
#    0.000    0.615    6.923    1.846    5.385    2.462 
#    1.385    0.000    0.000    0.000    0.000    0.000 
#    0.000    0.000    0.000    0.000    0.000    0.000 
#
# Total GULP energy -144880.195181 kJ/mol
# GULP energy per Si atom -5572.315199 kJ/mol
# Density = 2.140007 g / cm^3
# Si number density = 21.448885 Si / 1000 Ang^3
#
#
#
# Elastic Constant Matrix: (Units=GPa)
#
#
# Indices 1 2 3 4 5 6 
#
# 1 79.7652 12.0401 5.5171 0.0000 16.7434 0.0000
# 2 12.0401 68.2080 -7.1918 0.0000 3.4491 0.0000
# 3 5.5171 -7.1918 50.9205 0.0000 22.8848 0.0000
# 4 0.0000 0.0000 0.0000 4.8325 0.0000 -0.3977
# 5 16.7434 3.4491 22.8848 0.0000 38.2685 0.0000
# 6 0.0000 0.0000 0.0000 -0.3977 0.0000 30.8762
#
#
#
# Elastic Compliance Matrix: (Units=1/GPa)
#
#
# Indices 1 2 3 4 5 6 
#
# 1 0.014175 -0.002034 0.001206 0.000000 -0.006740 0.000000
# 2 -0.002034 0.015537 0.003616 0.000000 -0.002673 0.000000
# 3 0.001206 0.003616 0.027901 0.000000 -0.017538 0.000000
# 4 0.000000 0.000000 0.000000 0.207150 0.000000 0.002668
# 5 -0.006740 -0.002673 -0.017538 0.000000 0.039809 0.000000
# 6 0.000000 0.000000 0.000000 0.002668 0.000000 0.032422
#
#
# Mechanical properties :
#
#
# Convention : Reuss Voigt Hill
#
# Bulk Modulus (GPa) = 15.82605 24.40273 20.11439
# Shear Modulus (GPa) = 14.18520 27.36400 20.77460
#
# Velocity S-wave (km/s) = 2.57446 3.57568 3.11555
# Velocity P-wave (km/s) = 4.02885 5.33377 4.72656
#
# Compressibility (1/GPa) = 0.06318695
#
# Stress axis : x y z
#
# Youngs Moduli (GPa) = 70.54584 64.36446 35.84160
#
# Poissons Ratio (x) = 0.13093 -0.04322
# Poissons Ratio (y) = 0.14351 -0.12960
# Poissons Ratio (z) = -0.08506 -0.23273
#
# Static dielectric constant tensor:
#      x y z
#    x 1.769830 0.000000 -0.010680 
#    y 0.000000 1.786730 0.000000 
#    z -0.010680 0.000000 1.830510 
# 
# From -- ./inp_files/14574.got.cif
#   From: 2010.05.17/outbox.cif.g08.bks.cpg/sg11_8_cif.got.tgz:14574.got - 2010.06.03 12:22:45.
