data_PCOD9166101
_publ_section_title
;
Structure prediction by ZEFSAII (Michael W. Deem and Ramdas Pophale) SiO2 
 PCOD9166101
Probable space group: P 21/M
;
_chemical_formula_sum "Si O2"
_cell_formula_units_Z 28
_cell_length_a 11.313776
_cell_length_b 7.748221
_cell_length_c 15.158492
_cell_angle_alpha 90.000000
_cell_angle_beta 112.352106
_cell_angle_gamma 90.000000
_cell_volume 1228.976467
_symmetry_space_group_name_H-M "P 21/M"
_symmetry_group_IT_number 11
_symmetry_cell_setting 'monoclinic'
loop_
_space_group_symop_operation_xyz
x,y,z
-x,1/2+y,-z
-x,-y,-z
x,1/2-y,z
loop_
_atom_site_type_symbol
_atom_site_label
_atom_site_fract_x
_atom_site_fract_y
_atom_site_fract_z
Si Si1 0.850633 0.457703 0.442324
Si Si2 0.799480 0.448422 0.750083
Si Si3 0.677833 0.461120 0.238617
Si Si4 0.673490 0.446628 0.039995
Si Si5 0.043839 0.458069 0.914171
Si Si6 0.599455 0.949350 0.829215
Si Si7 0.348829 0.958431 0.461641
O O1 0.844010 0.250000 0.440640
O O2 0.795438 0.518616 0.331975
O O3 0.745166 0.517216 0.485167
O O4 0.000000 0.500000 0.500000
O O5 0.824750 0.250000 0.733156
O O6 0.711389 0.451533 0.812042
O O7 0.719378 0.524538 0.647066
O O8 0.935930 0.522768 0.815752
O O9 0.682468 0.250000 0.234525
O O10 0.669255 0.526388 0.136229
O O11 0.540745 0.505737 0.241886
O O12 0.625708 0.250000 0.028848
O O13 0.823006 0.451050 0.062375
O O14 0.608419 0.535201 0.937594
O O15 0.059153 0.250000 0.910582
O O16 0.000000 0.500000 0.000000
O O17 0.617138 0.750000 0.810760
O O18 0.345265 0.750000 0.462880
O O19 0.500000 0.000000 0.500000
#
# Coordination Sequence:
#
# PCOD9166101 Si02
#       7
#     4   4   4   4   4   4   4
#     4  10  22  42  64  89 122 159 202 253 303 359
#     4  10  22  38  58  85 120 155 190 240 299 349
#     4   9  21  39  59  84 117 155 194 239 292 348
#     4  11  22  37  57  83 119 156 192 239 290 348
#     4  11  22  37  57  83 117 154 195 241 291 347
#     4  11  21  37  61  88 116 153 197 239 290 353
#     4  10  22  41  65  92 123 159 202 255 307 360
#
# _framework density 22.783187000000002
#
# number of rings (size 3 to 8) (size 9 to 14) (size 15 to 20)
#    0.000    1.714    1.429    2.571    2.000    2.857 
#    0.000    4.286    0.000    0.000    0.000    0.000 
#    0.000    0.000    0.000    0.000    0.000    0.000 
#
# Total GULP energy -156354.338966 kJ/mol
# GULP energy per Si atom -5584.083535 kJ/mol
# Density = 2.273133 g / cm^3
# Si number density = 22.783187 Si / 1000 Ang^3
#
#
#
# Elastic Constant Matrix: (Units=GPa)
#
#
# Indices 1 2 3 4 5 6 
#
# 1 117.0662 -4.6830 48.0816 0.0000 21.9363 0.0000
# 2 -4.6830 44.1858 -6.3999 0.0000 0.1382 0.0000
# 3 48.0816 -6.3999 124.1216 0.0000 24.9594 0.0000
# 4 0.0000 0.0000 0.0000 16.7621 0.0000 11.3301
# 5 21.9363 0.1382 24.9594 0.0000 46.4198 0.0000
# 6 0.0000 0.0000 0.0000 11.3301 0.0000 16.2805
#
#
#
# Elastic Compliance Matrix: (Units=1/GPa)
#
#
# Indices 1 2 3 4 5 6 
#
# 1 0.010565 0.000633 -0.003426 0.000000 -0.003153 0.000000
# 2 0.000633 0.022865 0.001130 0.000000 -0.000975 0.000000
# 3 -0.003426 0.001130 0.010222 0.000000 -0.003881 0.000000
# 4 0.000000 0.000000 0.000000 0.112650 0.000000 -0.078397
# 5 -0.003153 -0.000975 -0.003881 0.000000 0.025122 0.000000
# 6 0.000000 0.000000 0.000000 -0.078397 0.000000 0.115982
#
#
# Mechanical properties :
#
#
# Convention : Reuss Voigt Hill
#
# Bulk Modulus (GPa) = 24.79725 39.93011 32.36368
# Shear Modulus (GPa) = 15.91463 32.45080 24.18272
#
# Velocity S-wave (km/s) = 2.64583 3.77813 3.26149
# Velocity P-wave (km/s) = 4.49906 6.04950 5.33095
#
# Compressibility (1/GPa) = 0.04032705
#
# Stress axis : x y z
#
# Youngs Moduli (GPa) = 94.64807 43.73405 97.82379
#
# Poissons Ratio (x) = -0.02770 0.33516
# Poissons Ratio (y) = -0.05995 -0.11051
# Poissons Ratio (z) = 0.32428 -0.04940
#
# Static dielectric constant tensor:
#      x y z
#    x 1.842150 0.000000 -0.016220 
#    y 0.000000 1.868450 0.000000 
#    z -0.016220 0.000000 1.874580 
# 
# From -- ./inp_files/49473.got.cif
#   From: 2010.05.17/outbox.cif.g08.bks.cpg/sg11_25_cif.got.tgz:49473.got - 2010.06.03 12:22:45.
