data_PCOD9166685
_publ_section_title
;
Structure prediction by ZEFSAII (Michael W. Deem and Ramdas Pophale) SiO2 
 PCOD9166685
Probable space group: P 21/M
;
_chemical_formula_sum "Si O2"
_cell_formula_units_Z 32
_cell_length_a 15.217366
_cell_length_b 13.852636
_cell_length_c 20.738668
_cell_angle_alpha 90.000000
_cell_angle_beta 159.288837
_cell_angle_gamma 90.000000
_cell_volume 1546.091305
_symmetry_space_group_name_H-M "P 21/M"
_symmetry_group_IT_number 11
_symmetry_cell_setting 'monoclinic'
loop_
_space_group_symop_operation_xyz
x,y,z
-x,1/2+y,-z
-x,-y,-z
x,1/2-y,z
loop_
_atom_site_type_symbol
_atom_site_label
_atom_site_fract_x
_atom_site_fract_y
_atom_site_fract_z
Si Si1 0.252311 0.559505 0.816745
Si Si2 0.998439 0.564613 0.892059
Si Si3 0.879015 0.141762 0.801173
Si Si4 0.465658 0.861397 0.557124
Si Si5 0.715140 0.032515 0.298423
Si Si6 0.728054 0.039736 0.449941
Si Si7 0.402937 0.642501 0.262633
Si Si8 0.320145 0.860822 0.998977
O O1 0.288618 0.597686 0.768610
O O2 0.234312 0.629041 0.865801
O O3 0.019099 0.486226 0.655818
O O4 0.500000 0.500000 0.000000
O O5 0.052506 0.450125 0.932366
O O6 0.706472 0.578043 0.702171
O O7 0.095508 0.608864 0.891981
O O8 0.146837 0.618983 0.049948
O O9 0.988413 0.250000 0.879749
O O10 0.751446 0.126941 0.644417
O O11 0.663666 0.138631 0.707747
O O12 0.542995 0.750000 0.609486
O O13 0.365189 0.891392 0.557689
O O14 0.660034 0.074147 0.331283
O O15 0.536987 0.939248 0.163526
O O16 0.000000 0.000000 0.500000
O O17 0.593206 0.937509 0.370110
O O18 0.487935 0.750000 0.304486
O O19 0.394768 0.750000 0.063104
#
# Coordination Sequence:
#
# PCOD9166685 Si02
#       8
#     4   4   4   4   4   4   4   4
#     4   9  21  41  63  90 122 159 211 270 334 380
#     4  12  22  39  61  93 134 173 208 259 317 374
#     4  10  23  40  59  86 126 175 216 258 305 370
#     4  11  24  40  59  91 131 172 219 259 311 381
#     4   9  20  41  64  85 120 163 210 264 330 375
#     4  11  21  39  64  89 126 175 211 261 326 383
#     4  11  23  37  58  92 129 169 216 261 310 371
#     4  11  22  37  64  98 127 164 211 262 321 384
#
# _framework density 20.697354000000001
#
# number of rings (size 3 to 8) (size 9 to 14) (size 15 to 20)
#    0.000    1.500    2.500    2.625    1.750    0.500 
#    0.000    8.125    0.000    7.500    0.000    0.000 
#    0.000    0.000    0.000    0.000    0.000    0.000 
#
# Total GULP energy -178624.389452 kJ/mol
# GULP energy per Si atom -5582.012170 kJ/mol
# Density = 2.065025 g / cm^3
# Si number density = 20.697354 Si / 1000 Ang^3
#
#
#
# Elastic Constant Matrix: (Units=GPa)
#
#
# Indices 1 2 3 4 5 6 
#
# 1 163.2810 18.2538 16.4096 0.0000 -22.5313 0.0000
# 2 18.2538 48.5154 -7.2927 0.0000 -1.7023 0.0000
# 3 16.4096 -7.2927 36.4100 0.0000 1.7165 0.0000
# 4 0.0000 0.0000 0.0000 13.8403 0.0000 -12.1337
# 5 -22.5313 -1.7023 1.7165 0.0000 29.0633 0.0000
# 6 0.0000 0.0000 0.0000 -12.1337 0.0000 -20.1731
#
#
#
# Elastic Compliance Matrix: (Units=1/GPa)
#
#
# Indices 1 2 3 4 5 6 
#
# 1 0.007797 -0.003393 -0.004482 0.000000 0.006111 0.000000
# 2 -0.003393 0.022757 0.006166 0.000000 -0.001662 0.000000
# 3 -0.004482 0.006166 0.030953 0.000000 -0.004942 0.000000
# 4 0.000000 0.000000 0.000000 0.047307 0.000000 -0.028454
# 5 0.006111 -0.001662 -0.004942 0.000000 0.039340 0.000000
# 6 0.000000 0.000000 0.000000 -0.028454 0.000000 -0.032456
#
#
# Mechanical properties :
#
#
# Convention : Reuss Voigt Hill
#
# Bulk Modulus (GPa) = 17.21502 33.66087 25.43794
# Shear Modulus (GPa) = 36.10644 19.26846 27.68745
#
# Velocity S-wave (km/s) = 4.18125 3.05448 3.66147
# Velocity P-wave (km/s) = 5.62548 5.36083 5.49474
#
# Compressibility (1/GPa) = 0.05808882
#
# Stress axis : x y z
#
# Youngs Moduli (GPa) = 128.24776 43.94223 32.30722
#
# Poissons Ratio (x) = 0.14910 0.14480
# Poissons Ratio (y) = 0.43515 -0.19920
# Poissons Ratio (z) = 0.57479 -0.27093
#
# Static dielectric constant tensor:
#      x y z
#    x 1.779250 0.000000 -0.035960 
#    y 0.000000 1.751300 0.000000 
#    z -0.035960 0.000000 1.715300 
# 
# From -- ./inp_files/65796.got.cif
#   From: 2010.05.17/outbox.cif.g08.bks.cpg/sg11_33_cif.got.tgz:65796.got - 2010.06.03 12:22:45.
