data_PCOD9166517
_publ_section_title
;
Structure prediction by ZEFSAII (Michael W. Deem and Ramdas Pophale) SiO2 
 PCOD9166517
Probable space group: P 21/M
;
_chemical_formula_sum "Si O2"
_cell_formula_units_Z 24
_cell_length_a 15.718173
_cell_length_b 17.213569
_cell_length_c 10.731515
_cell_angle_alpha 90.000000
_cell_angle_beta 23.170549
_cell_angle_gamma 90.000000
_cell_volume 1142.470504
_symmetry_space_group_name_H-M "P 21/M"
_symmetry_group_IT_number 11
_symmetry_cell_setting 'monoclinic'
loop_
_space_group_symop_operation_xyz
x,y,z
-x,1/2+y,-z
-x,-y,-z
x,1/2-y,z
loop_
_atom_site_type_symbol
_atom_site_label
_atom_site_fract_x
_atom_site_fract_y
_atom_site_fract_z
Si Si1 0.025511 0.750000 0.717760
Si Si2 0.139048 0.075012 0.262132
Si Si3 0.954902 0.250000 0.887001
Si Si4 0.721725 0.869049 0.412723
Si Si5 0.992067 0.750000 0.483674
Si Si6 0.445539 0.496405 0.216885
Si Si7 0.543500 0.750000 0.456274
Si Si8 0.988002 0.084760 0.183839
O O1 0.114166 0.750000 0.456553
O O2 0.090767 0.674445 0.707872
O O3 0.757324 0.750000 0.078072
O O4 0.103537 0.160530 0.372206
O O5 0.091497 0.079428 0.180375
O O6 0.385713 0.051240 0.944083
O O7 0.000000 0.000000 0.500000
O O8 0.098680 0.321243 0.749870
O O9 0.944540 0.250000 0.748815
O O10 0.699882 0.250000 0.268826
O O11 0.585987 0.820280 0.494758
O O12 0.554545 0.910028 0.729477
O O13 0.850919 0.925947 0.146628
O O14 0.206522 0.526441 0.557769
O O15 0.500000 0.500000 0.000000
#
# Coordination Sequence:
#
# PCOD9166517 Si02
#       8
#     2   4   2   4   2   4   2   4
#     4   8  19  41  63  92 124 164 217 269 329 390
#     4  11  24  43  67  97 134 172 223 277 329 398
#     4  11  23  40  68  92 134 171 219 278 324 394
#     4  10  24  41  59 100 129 168 224 269 331 396
#     4  10  23  41  65  96 127 172 222 270 335 395
#     4  12  24  39  65  92 131 174 216 270 337 397
#     4   9  21  40  66  90 129 171 216 275 330 397
#     4  10  22  42  64  90 133 166 216 276 322 398
#
# _framework density 21.007106
#
# number of rings (size 3 to 8) (size 9 to 14) (size 15 to 20)
#    0.000    1.667    1.667    2.000    2.333    5.333 
#    0.000    0.833    0.000    0.000    0.000    0.000 
#    0.000    0.000    0.000    0.000    0.000    0.000 
#
# Total GULP energy -133610.392186 kJ/mol
# GULP energy per Si atom -5567.099674 kJ/mol
# Density = 2.095929 g / cm^3
# Si number density = 21.007106 Si / 1000 Ang^3
#
#
#
# Elastic Constant Matrix: (Units=GPa)
#
#
# Indices 1 2 3 4 5 6 
#
# 1 87.4089 24.6381 31.2448 0.0000 14.9046 0.0000
# 2 24.6381 77.5803 21.9128 0.0000 9.1673 0.0000
# 3 31.2448 21.9128 47.8306 0.0000 14.5767 0.0000
# 4 0.0000 0.0000 0.0000 17.8906 0.0000 11.3021
# 5 14.9046 9.1673 14.5767 0.0000 42.8364 0.0000
# 6 0.0000 0.0000 0.0000 11.3021 0.0000 27.1842
#
#
#
# Elastic Compliance Matrix: (Units=1/GPa)
#
#
# Indices 1 2 3 4 5 6 
#
# 1 0.015440 -0.002286 -0.008424 0.000000 -0.002016 0.000000
# 2 -0.002286 0.015180 -0.005259 0.000000 -0.000664 0.000000
# 3 -0.008424 -0.005259 0.030775 0.000000 -0.006416 0.000000
# 4 0.000000 0.000000 0.000000 0.075805 0.000000 -0.031517
# 5 -0.002016 -0.000664 -0.006416 0.000000 0.026371 0.000000
# 6 0.000000 0.000000 0.000000 -0.031517 0.000000 0.049890
#
#
# Mechanical properties :
#
#
# Convention : Reuss Voigt Hill
#
# Bulk Modulus (GPa) = 33.94850 40.93458 37.44154
# Shear Modulus (GPa) = 19.59117 26.58386 23.08751
#
# Velocity S-wave (km/s) = 3.05716 3.56120 3.31876
# Velocity P-wave (km/s) = 5.35324 6.03638 5.70505
#
# Compressibility (1/GPa) = 0.02945638
#
# Stress axis : x y z
#
# Youngs Moduli (GPa) = 64.76741 65.87790 32.49430
#
# Poissons Ratio (x) = 0.15058 0.27374
# Poissons Ratio (y) = 0.14804 0.17088
# Poissons Ratio (z) = 0.54562 0.34645
#
# Static dielectric constant tensor:
#      x y z
#    x 1.816580 0.000000 0.062210 
#    y 0.000000 1.828710 0.000000 
#    z 0.062210 0.000000 1.795800 
# 
# From -- ./inp_files/41910.got.cif
#   From: 2010.05.17/outbox.cif.g08.bks.cpg/sg11_21_cif.got.tgz:41910.got - 2010.06.03 12:22:45.
