data_PCOD9166544
_publ_section_title
;
Structure prediction by ZEFSAII (Michael W. Deem and Ramdas Pophale) SiO2 
 PCOD9166544
Probable space group: P 21/M
;
_chemical_formula_sum "Si O2"
_cell_formula_units_Z 20
_cell_length_a 5.431246
_cell_length_b 14.817772
_cell_length_c 11.431138
_cell_angle_alpha 90.000000
_cell_angle_beta 86.388435
_cell_angle_gamma 90.000000
_cell_volume 918.139132
_symmetry_space_group_name_H-M "P 21/M"
_symmetry_group_IT_number 11
_symmetry_cell_setting 'monoclinic'
loop_
_space_group_symop_operation_xyz
x,y,z
-x,1/2+y,-z
-x,-y,-z
x,1/2-y,z
loop_
_atom_site_type_symbol
_atom_site_label
_atom_site_fract_x
_atom_site_fract_y
_atom_site_fract_z
Si Si1 0.432149 0.603989 0.026685
Si Si2 0.310321 0.578744 0.475793
Si Si3 0.944712 0.482912 0.306689
Si Si4 0.596226 0.650618 0.265850
Si Si5 0.939583 0.650193 0.896115
O O1 0.179161 0.629009 0.968790
O O2 0.681676 0.650947 0.972525
O O3 0.500000 0.500000 0.000000
O O4 0.413612 0.631647 0.162972
O O5 0.500000 0.500000 0.500000
O O6 0.186121 0.592382 0.605597
O O7 0.458091 0.650428 0.395083
O O8 0.118824 0.536493 0.390048
O O9 0.768370 0.561614 0.261820
O O10 0.072652 0.428539 0.199737
O O11 0.713257 0.750000 0.246403
O O12 0.975998 0.750000 0.843299
#
# Coordination Sequence:
#
# PCOD9166544 Si02
#       5
#     4   4   4   4   4
#     4  12  25  46  69 100 140 183 223 279 340 402
#     4   9  21  42  64  92 124 168 225 272 338 394
#     4  10  22  42  67  92 131 175 219 279 337 399
#     4  11  23  39  65  97 132 173 223 274 331 402
#     4  12  26  44  69 104 139 179 229 276 335 407
#
# _framework density 21.783189
#
# number of rings (size 3 to 8) (size 9 to 14) (size 15 to 20)
#    0.000    1.200    2.000    3.600    5.600    1.600 
#    0.000    8.000    0.000    0.000    0.000    0.000 
#    0.000    0.000    0.000    0.000    0.000    0.000 
#
# Total GULP energy -111592.150611 kJ/mol
# GULP energy per Si atom -5579.607531 kJ/mol
# Density = 2.173361 g / cm^3
# Si number density = 21.783189 Si / 1000 Ang^3
#
#
#
# Elastic Constant Matrix: (Units=GPa)
#
#
# Indices 1 2 3 4 5 6 
#
# 1 62.3311 -7.3360 7.9203 0.0000 2.0200 0.0000
# 2 -7.3360 124.6176 17.7644 0.0000 -7.7598 0.0000
# 3 7.9203 17.7644 83.8387 0.0000 -8.3404 0.0000
# 4 0.0000 0.0000 0.0000 24.0098 0.0000 -5.8513
# 5 2.0200 -7.7598 -8.3404 0.0000 35.5824 0.0000
# 6 0.0000 0.0000 0.0000 -5.8513 0.0000 119.6559
#
#
#
# Elastic Compliance Matrix: (Units=1/GPa)
#
#
# Indices 1 2 3 4 5 6 
#
# 1 0.016461 0.001172 -0.001916 0.000000 -0.001128 0.000000
# 2 0.001172 0.008429 -0.001762 0.000000 0.001359 0.000000
# 3 -0.001916 -0.001762 0.012752 0.000000 0.002714 0.000000
# 4 0.000000 0.000000 0.000000 0.042152 0.000000 0.002061
# 5 -0.001128 0.001359 0.002714 0.000000 0.029100 0.000000
# 6 0.000000 0.000000 0.000000 0.002061 0.000000 0.008458
#
#
# Mechanical properties :
#
#
# Convention : Reuss Voigt Hill
#
# Bulk Modulus (GPa) = 30.64504 34.16496 32.40500
# Shear Modulus (GPa) = 37.52612 52.67887 45.10249
#
# Velocity S-wave (km/s) = 4.15506 4.92298 4.55523
# Velocity P-wave (km/s) = 6.09246 6.93055 6.52497
#
# Compressibility (1/GPa) = 0.03263171
#
# Stress axis : x y z
#
# Youngs Moduli (GPa) = 60.74875 118.63436 78.42004
#
# Poissons Ratio (x) = -0.13903 0.15022
# Poissons Ratio (y) = -0.07119 0.13814
# Poissons Ratio (z) = 0.11637 0.20898
#
# Static dielectric constant tensor:
#      x y z
#    x 1.731690 0.000000 -0.208590 
#    y 0.000000 1.827210 0.000000 
#    z -0.208590 0.000000 1.636410 
# 
# From -- ./inp_files/4251.got.cif
#   From: 2010.05.17/outbox.cif.g08.bks.cpg/sg11_3_cif.got.tgz:4251.got - 2010.06.03 12:22:45.
