data_PCOD9166765
_publ_section_title
;
Structure prediction by ZEFSAII (Michael W. Deem and Ramdas Pophale) SiO2 
 PCOD9166765
Probable space group: P 21/M
;
_chemical_formula_sum "Si O2"
_cell_formula_units_Z 24
_cell_length_a 9.614301
_cell_length_b 15.011863
_cell_length_c 14.767378
_cell_angle_alpha 90.000000
_cell_angle_beta 36.275960
_cell_angle_gamma 90.000000
_cell_volume 1261.069150
_symmetry_space_group_name_H-M "P 21/M"
_symmetry_group_IT_number 11
_symmetry_cell_setting 'monoclinic'
loop_
_space_group_symop_operation_xyz
x,y,z
-x,1/2+y,-z
-x,-y,-z
x,1/2-y,z
loop_
_atom_site_type_symbol
_atom_site_label
_atom_site_fract_x
_atom_site_fract_y
_atom_site_fract_z
Si Si1 0.254959 0.510919 0.080512
Si Si2 0.077243 0.649289 0.678978
Si Si3 0.281383 0.004181 0.860182
Si Si4 0.487493 0.916111 0.576072
Si Si5 0.697762 0.142922 0.633105
Si Si6 0.014132 0.644667 0.336439
O O1 0.094909 0.423535 0.185495
O O2 0.128456 0.593922 0.192646
O O3 0.500000 0.500000 0.000000
O O4 0.313633 0.526725 0.945608
O O5 0.978442 0.750000 0.727575
O O6 0.314079 0.649565 0.614349
O O7 0.158026 0.621717 0.534887
O O8 0.445260 0.093172 0.766217
O O9 0.371609 0.945212 0.730565
O O10 0.000000 0.000000 0.000000
O O11 0.740831 0.879639 0.470777
O O12 0.500000 0.000000 0.500000
O O13 0.664085 0.250000 0.651933
O O14 0.854539 0.117034 0.638782
O O15 0.043222 0.750000 0.314511
#
# Coordination Sequence:
#
# PCOD9166765 Si02
#       6
#     4   4   4   4   4   4
#     4  12  25  41  66  95 130 172 207 264 327 384
#     4  11  24  44  68  94 126 171 220 263 316 383
#     4  12  23  41  63  94 128 166 214 257 325 385
#     4  12  22  42  69  93 125 169 216 265 318 379
#     4  10  23  42  67  94 125 170 221 266 313 378
#     4  11  24  44  66  95 130 171 219 267 316 379
#
# _framework density 19.031469999999999
#
# number of rings (size 3 to 8) (size 9 to 14) (size 15 to 20)
#    0.000    0.667    6.667    0.500    2.333    2.667 
#    0.000    1.667    0.000    0.000    0.000    0.000 
#    0.000    0.000    0.000    0.000    0.000    0.000 
#
# Total GULP energy -133912.335553 kJ/mol
# GULP energy per Si atom -5579.680648 kJ/mol
# Density = 1.898815 g / cm^3
# Si number density = 19.031470 Si / 1000 Ang^3
#
#
#
# Elastic Constant Matrix: (Units=GPa)
#
#
# Indices 1 2 3 4 5 6 
#
# 1 111.6493 25.2050 39.6364 0.0000 13.7991 0.0000
# 2 25.2050 72.8024 36.3017 0.0000 6.3741 0.0000
# 3 39.6364 36.3017 116.1451 0.0000 16.8420 0.0000
# 4 0.0000 0.0000 0.0000 9.9070 0.0000 -6.8804
# 5 13.7991 6.3741 16.8420 0.0000 56.2915 0.0000
# 6 0.0000 0.0000 0.0000 -6.8804 0.0000 30.9117
#
#
#
# Elastic Compliance Matrix: (Units=1/GPa)
#
#
# Indices 1 2 3 4 5 6 
#
# 1 0.010603 -0.002183 -0.002713 0.000000 -0.001540 0.000000
# 2 -0.002183 0.016727 -0.004480 0.000000 -0.000018 0.000000
# 3 -0.002713 -0.004480 0.011254 0.000000 -0.002195 0.000000
# 4 0.000000 0.000000 0.000000 0.119396 0.000000 0.026575
# 5 -0.001540 -0.000018 -0.002195 0.000000 0.018801 0.000000
# 6 0.000000 0.000000 0.000000 0.026575 0.000000 0.038265
#
#
# Mechanical properties :
#
#
# Convention : Reuss Voigt Hill
#
# Bulk Modulus (GPa) = 50.42427 55.87587 53.15007
# Shear Modulus (GPa) = 20.79777 32.71896 26.75836
#
# Velocity S-wave (km/s) = 3.30935 4.15083 3.75374
# Velocity P-wave (km/s) = 6.41523 7.23850 6.83926
#
# Compressibility (1/GPa) = 0.01983172
#
# Stress axis : x y z
#
# Youngs Moduli (GPa) = 94.31392 59.78206 88.85491
#
# Poissons Ratio (x) = 0.13053 0.24103
# Poissons Ratio (y) = 0.20592 0.39811
# Poissons Ratio (z) = 0.25584 0.26785
#
# Static dielectric constant tensor:
#      x y z
#    x 1.714860 0.000000 -0.317810 
#    y 0.000000 1.651200 0.000000 
#    z -0.317810 0.000000 2.389100 
# 
# From -- ./inp_files/21977.got.cif
#   From: 2010.05.17/outbox.cif.g08.bks.cpg/sg11_11_cif.got.tgz:21977.got - 2010.06.03 12:22:45.
