data_PCOD9166553
_publ_section_title
;
Structure prediction by ZEFSAII (Michael W. Deem and Ramdas Pophale) SiO2 
 PCOD9166553
Probable space group: P 21/M
;
_chemical_formula_sum "Si O2"
_cell_formula_units_Z 28
_cell_length_a 11.495937
_cell_length_b 21.202723
_cell_length_c 5.533790
_cell_angle_alpha 90.000000
_cell_angle_beta 65.201928
_cell_angle_gamma 90.000000
_cell_volume 1224.460685
_symmetry_space_group_name_H-M "P 21/M"
_symmetry_group_IT_number 11
_symmetry_cell_setting 'monoclinic'
loop_
_space_group_symop_operation_xyz
x,y,z
-x,1/2+y,-z
-x,-y,-z
x,1/2-y,z
loop_
_atom_site_type_symbol
_atom_site_label
_atom_site_fract_x
_atom_site_fract_y
_atom_site_fract_z
Si Si1 0.305797 0.322385 0.000335
Si Si2 0.250844 0.604392 0.855435
Si Si3 0.969653 0.068822 0.625402
Si Si4 0.853695 0.321636 0.435733
Si Si5 0.417075 0.633772 0.100887
Si Si6 0.768647 0.887263 0.442678
Si Si7 0.388577 0.988813 0.403242
O O1 0.275017 0.250000 0.976924
O O2 0.457401 0.331214 0.921559
O O3 0.270932 0.360863 0.786146
O O4 0.242255 0.342503 0.311806
O O5 0.167090 0.568355 0.124458
O O6 0.383067 0.631113 0.847498
O O7 0.168806 0.662142 0.824995
O O8 0.280218 0.553614 0.627317
O O9 0.949931 0.125591 0.451905
O O10 0.086153 0.088043 0.696443
O O11 0.000000 0.000000 0.500000
O O12 0.892282 0.250000 0.445929
O O13 0.711643 0.334737 0.674134
O O14 0.432768 0.560035 0.160125
O O15 0.676168 0.945263 0.598154
O O16 0.500000 0.000000 0.500000
#
# Coordination Sequence:
#
# PCOD9166553 Si02
#       7
#     4   4   4   4   4   4   4
#     4  12  28  48  69 101 145 195 240 286 353 434
#     4  10  23  41  69 102 136 179 238 296 365 424
#     4  11  26  46  71 101 138 187 241 306 359 429
#     4  10  23  42  67 101 135 180 236 296 358 425
#     4  10  22  42  69 102 138 179 230 297 357 435
#     4  12  28  46  72 104 142 191 237 297 358 431
#     4  11  22  40  69 107 141 176 229 296 372 429
#
# _framework density 22.867211999999999
#
# number of rings (size 3 to 8) (size 9 to 14) (size 15 to 20)
#    0.000    1.143    1.429    4.286    8.000    6.286 
#    0.000    0.000    0.000    0.000    0.000    0.000 
#    0.000    0.000    0.000    0.000    0.000    0.000 
#
# Total GULP energy -156472.687286 kJ/mol
# GULP energy per Si atom -5588.310260 kJ/mol
# Density = 2.281517 g / cm^3
# Si number density = 22.867212 Si / 1000 Ang^3
#
#
#
# Elastic Constant Matrix: (Units=GPa)
#
#
# Indices 1 2 3 4 5 6 
#
# 1 114.2826 24.6727 3.9038 0.0000 13.3928 0.0000
# 2 24.6727 141.6835 14.8599 0.0000 17.8500 0.0000
# 3 3.9038 14.8599 55.0360 0.0000 11.5530 0.0000
# 4 0.0000 0.0000 0.0000 27.6106 0.0000 1.4923
# 5 13.3928 17.8500 11.5530 0.0000 29.6374 0.0000
# 6 0.0000 0.0000 0.0000 1.4923 0.0000 24.5332
#
#
#
# Elastic Compliance Matrix: (Units=1/GPa)
#
#
# Indices 1 2 3 4 5 6 
#
# 1 0.009432 -0.001223 0.000437 0.000000 -0.003696 0.000000
# 2 -0.001223 0.007869 -0.001262 0.000000 -0.003695 0.000000
# 3 0.000437 -0.001262 0.019998 0.000000 -0.007233 0.000000
# 4 0.000000 0.000000 0.000000 0.036337 0.000000 -0.002210
# 5 -0.003696 -0.003695 -0.007233 0.000000 0.040456 0.000000
# 6 0.000000 0.000000 0.000000 -0.002210 0.000000 0.040896
#
#
# Mechanical properties :
#
#
# Convention : Reuss Voigt Hill
#
# Bulk Modulus (GPa) = 30.11759 44.20833 37.16296
# Shear Modulus (GPa) = 29.38550 34.19397 31.78973
#
# Velocity S-wave (km/s) = 3.58865 3.87114 3.73257
# Velocity P-wave (km/s) = 5.51094 6.27340 5.90449
#
# Compressibility (1/GPa) = 0.03320319
#
# Stress axis : x y z
#
# Youngs Moduli (GPa) = 106.01688 127.08474 50.00500
#
# Poissons Ratio (x) = 0.15539 -0.02185
# Poissons Ratio (y) = 0.12963 0.06312
# Poissons Ratio (z) = -0.04633 0.16042
#
# Static dielectric constant tensor:
#      x y z
#    x 1.865650 0.000000 0.019320 
#    y 0.000000 1.863370 0.000000 
#    z 0.019320 0.000000 1.959710 
# 
# From -- ./inp_files/5042.got.cif
#   From: 2010.05.17/outbox.cif.g08.bks.cpg/sg11_3_cif.got.tgz:5042.got - 2010.06.03 12:22:45.
