data_PCOD9166370
_publ_section_title
;
Structure prediction by ZEFSAII (Michael W. Deem and Ramdas Pophale) SiO2 
 PCOD9166370
Probable space group: P 21/M
;
_chemical_formula_sum "Si O2"
_cell_formula_units_Z 28
_cell_length_a 5.257052
_cell_length_b 17.317760
_cell_length_c 13.347674
_cell_angle_alpha 90.000000
_cell_angle_beta 103.246723
_cell_angle_gamma 90.000000
_cell_volume 1182.844123
_symmetry_space_group_name_H-M "P 21/M"
_symmetry_group_IT_number 11
_symmetry_cell_setting 'monoclinic'
loop_
_space_group_symop_operation_xyz
x,y,z
-x,1/2+y,-z
-x,-y,-z
x,1/2-y,z
loop_
_atom_site_type_symbol
_atom_site_label
_atom_site_fract_x
_atom_site_fract_y
_atom_site_fract_z
Si Si1 0.386192 0.086952 0.982727
Si Si2 0.349902 0.391426 0.206176
Si Si3 0.473966 0.250000 0.987329
Si Si4 0.206261 0.659371 0.384504
Si Si5 0.953768 0.750000 0.875203
Si Si6 0.247354 0.090157 0.515635
Si Si7 0.802643 0.046493 0.344457
Si Si8 0.042155 0.951634 0.198536
O O1 0.473773 0.165659 0.931038
O O2 0.091513 0.074824 0.916093
O O3 0.438340 0.114899 0.099583
O O4 0.500000 0.000000 0.000000
O O5 0.135116 0.325086 0.194837
O O6 0.596660 0.387731 0.300926
O O7 0.232687 0.476939 0.200544
O O8 0.210967 0.250000 0.033918
O O9 0.744833 0.250000 0.072146
O O10 0.197702 0.750000 0.368662
O O11 0.481577 0.634481 0.457956
O O12 0.173332 0.614442 0.276536
O O13 0.967224 0.632761 0.433775
O O14 0.092135 0.075789 0.398539
O O15 0.287501 0.006419 0.570947
O O16 0.820885 0.989619 0.250700
#
# Coordination Sequence:
#
# PCOD9166370 Si02
#       8
#     4   4   2   4   2   4   4   4
#     4  11  22  41  68  97 139 180 229 277 332 404
#     4  11  22  42  65  97 135 178 227 276 333 400
#     4  10  24  44  62  94 130 181 221 278 332 382
#     4  11  24  44  68  99 137 173 223 281 336 401
#     4  10  24  42  64  86 134 173 219 282 328 384
#     4  10  23  43  67  95 133 172 220 277 343 396
#     4  10  22  40  67  97 127 173 223 277 333 405
#     4  11  23  39  69 100 130 181 224 274 334 403
#
# _framework density 23.671758000000001
#
# number of rings (size 3 to 8) (size 9 to 14) (size 15 to 20)
#    0.000    1.429    2.857    1.714    5.000    2.857 
#    2.571    0.000    1.571    0.000    0.000    0.000 
#    0.000    0.000    0.000    0.000    0.000    0.000 
#
# Total GULP energy -156398.675183 kJ/mol
# GULP energy per Si atom -5585.666971 kJ/mol
# Density = 2.361788 g / cm^3
# Si number density = 23.671758 Si / 1000 Ang^3
#
#
#
# Elastic Constant Matrix: (Units=GPa)
#
#
# Indices 1 2 3 4 5 6 
#
# 1 96.2106 33.5528 30.2201 0.0000 24.3117 0.0000
# 2 33.5528 160.2765 16.3007 0.0000 21.6113 0.0000
# 3 30.2201 16.3007 83.8770 0.0000 37.9293 0.0000
# 4 0.0000 0.0000 0.0000 30.5919 0.0000 5.7849
# 5 24.3117 21.6113 37.9293 0.0000 36.4153 0.0000
# 6 0.0000 0.0000 0.0000 5.7849 0.0000 31.2190
#
#
#
# Elastic Compliance Matrix: (Units=1/GPa)
#
#
# Indices 1 2 3 4 5 6 
#
# 1 0.013027 -0.001761 -0.001684 0.000000 -0.005898 0.000000
# 2 -0.001761 0.007060 0.001182 0.000000 -0.004246 0.000000
# 3 -0.001684 0.001182 0.022889 0.000000 -0.023417 0.000000
# 4 0.000000 0.000000 0.000000 0.033875 0.000000 -0.006277
# 5 -0.005898 -0.004246 -0.023417 0.000000 0.058310 0.000000
# 6 0.000000 0.000000 0.000000 -0.006277 0.000000 0.033195
#
#
# Mechanical properties :
#
#
# Convention : Reuss Voigt Hill
#
# Bulk Modulus (GPa) = 26.00722 55.61237 40.80979
# Shear Modulus (GPa) = 26.92543 36.99795 31.96169
#
# Velocity S-wave (km/s) = 3.37627 3.95771 3.67850
# Velocity P-wave (km/s) = 5.11951 6.66549 5.94299
#
# Compressibility (1/GPa) = 0.03845087
#
# Stress axis : x y z
#
# Youngs Moduli (GPa) = 76.76168 141.64187 43.68974
#
# Poissons Ratio (x) = 0.24937 0.07359
# Poissons Ratio (y) = 0.13515 -0.05165
# Poissons Ratio (z) = 0.12929 -0.16746
#
# Static dielectric constant tensor:
#      x y z
#    x 1.943660 0.000000 -0.078180 
#    y 0.000000 1.872830 0.000000 
#    z -0.078180 0.000000 1.934840 
# 
# From -- ./inp_files/45902.got.cif
#   From: 2010.05.17/outbox.cif.g08.bks.cpg/sg11_23_cif.got.tgz:45902.got - 2010.06.03 12:22:45.
