data_PCOD9166424
_publ_section_title
;
Structure prediction by ZEFSAII (Michael W. Deem and Ramdas Pophale) SiO2 
 PCOD9166424
Probable space group: P 21/M
;
_chemical_formula_sum "Si O2"
_cell_formula_units_Z 28
_cell_length_a 21.039089
_cell_length_b 8.373072
_cell_length_c 9.495106
_cell_angle_alpha 90.000000
_cell_angle_beta 126.550969
_cell_angle_gamma 90.000000
_cell_volume 1343.705687
_symmetry_space_group_name_H-M "P 21/M"
_symmetry_group_IT_number 11
_symmetry_cell_setting 'monoclinic'
loop_
_space_group_symop_operation_xyz
x,y,z
-x,1/2+y,-z
-x,-y,-z
x,1/2-y,z
loop_
_atom_site_type_symbol
_atom_site_label
_atom_site_fract_x
_atom_site_fract_y
_atom_site_fract_z
Si Si1 0.925664 0.063713 0.313834
Si Si2 0.190413 0.057416 0.438646
Si Si3 0.625589 0.063170 0.810982
Si Si4 0.014067 0.561513 0.174337
Si Si5 0.482243 0.443663 0.818085
Si Si6 0.758958 0.563883 0.185139
Si Si7 0.331964 0.441922 0.442341
O O1 0.912349 0.250000 0.325576
O O2 0.847547 0.966404 0.247754
O O3 0.000000 0.000000 0.500000
O O4 0.953420 0.033654 0.192256
O O5 0.177694 0.250000 0.415349
O O6 0.238323 0.024706 0.645719
O O7 0.245261 0.004571 0.380664
O O8 0.105008 0.976515 0.333276
O O9 0.612887 0.250000 0.769246
O O10 0.549315 0.000643 0.795702
O O11 0.644258 0.987773 0.684254
O O12 0.698840 0.036503 0.012744
O O13 0.999636 0.750000 0.169289
O O14 0.000000 0.500000 0.000000
O O15 0.483375 0.250000 0.822211
O O16 0.398480 0.496339 0.641925
O O17 0.500000 0.500000 0.000000
O O18 0.737788 0.750000 0.141947
O O19 0.330409 0.250000 0.447479
#
# Coordination Sequence:
#
# PCOD9166424 Si02
#       7
#     4   4   4   4   4   4   4
#     4  12  24  42  66  95 127 164 214 266 319 378
#     4  10  22  41  64  90 122 161 213 266 315 374
#     4  11  24  40  61  94 131 164 207 260 314 373
#     4  12  26  43  65  91 126 169 213 264 322 379
#     4  10  22  41  66  95 126 165 209 257 310 371
#     4  11  23  41  66  92 124 168 213 259 317 376
#     4  10  22  41  64  91 126 167 211 257 311 374
#
# _framework density 20.837893999999999
#
# number of rings (size 3 to 8) (size 9 to 14) (size 15 to 20)
#    0.000    1.143    1.429    4.714    2.000    4.000 
#    0.000    0.000    0.000    0.000    0.000    0.000 
#    0.000    0.000    0.000    0.000    0.000    0.000 
#
# Total GULP energy -156584.768496 kJ/mol
# GULP energy per Si atom -5592.313161 kJ/mol
# Density = 2.079047 g / cm^3
# Si number density = 20.837894 Si / 1000 Ang^3
#
#
#
# Elastic Constant Matrix: (Units=GPa)
#
#
# Indices 1 2 3 4 5 6 
#
# 1 107.0851 -4.1043 -3.1429 0.0000 -12.1532 0.0000
# 2 -4.1043 26.6966 1.5893 0.0000 -4.1434 0.0000
# 3 -3.1429 1.5893 40.2166 0.0000 -10.1325 0.0000
# 4 0.0000 0.0000 0.0000 31.7643 0.0000 -4.5111
# 5 -12.1532 -4.1434 -10.1325 0.0000 39.9064 0.0000
# 6 0.0000 0.0000 0.0000 -4.5111 0.0000 26.9627
#
#
#
# Elastic Compliance Matrix: (Units=1/GPa)
#
#
# Indices 1 2 3 4 5 6 
#
# 1 0.009872 0.001984 0.001605 0.000000 0.003620 0.000000
# 2 0.001984 0.038481 -0.000221 0.000000 0.004544 0.000000
# 3 0.001605 -0.000221 0.026834 0.000000 0.007279 0.000000
# 4 0.000000 0.000000 0.000000 0.032248 0.000000 0.005395
# 5 0.003620 0.004544 0.007279 0.000000 0.028481 0.000000
# 6 0.000000 0.000000 0.000000 0.005395 0.000000 0.037991
#
#
# Mechanical properties :
#
#
# Convention : Reuss Voigt Hill
#
# Bulk Modulus (GPa) = 12.20641 18.07580 15.14110
# Shear Modulus (GPa) = 25.70975 31.70376 28.70675
#
# Velocity S-wave (km/s) = 3.51636 3.90480 3.71566
# Velocity P-wave (km/s) = 4.72830 5.38733 5.06854
#
# Compressibility (1/GPa) = 0.08192419
#
# Stress axis : x y z
#
# Youngs Moduli (GPa) = 101.29272 25.98658 37.26681
#
# Poissons Ratio (x) = -0.05156 -0.05982
# Poissons Ratio (y) = -0.20097 0.00823
# Poissons Ratio (z) = -0.16260 0.00574
#
# Static dielectric constant tensor:
#      x y z
#    x 1.769690 0.000000 -0.019920 
#    y 0.000000 1.710360 0.000000 
#    z -0.019920 0.000000 1.737570 
# 
# From -- ./inp_files/26204.got.cif
#   From: 2010.05.17/outbox.cif.g08.bks.cpg/sg11_14_cif.got.tgz:26204.got - 2010.06.03 12:22:45.
