data_PCOD9166406
_publ_section_title
;
Structure prediction by ZEFSAII (Michael W. Deem and Ramdas Pophale) SiO2 
 PCOD9166406
Probable space group: P 21/M
;
_chemical_formula_sum "Si O2"
_cell_formula_units_Z 28
_cell_length_a 27.927292
_cell_length_b 8.064336
_cell_length_c 9.515281
_cell_angle_alpha 90.000000
_cell_angle_beta 36.983119
_cell_angle_gamma 90.000000
_cell_volume 1289.176048
_symmetry_space_group_name_H-M "P 21/M"
_symmetry_group_IT_number 11
_symmetry_cell_setting 'monoclinic'
loop_
_space_group_symop_operation_xyz
x,y,z
-x,1/2+y,-z
-x,-y,-z
x,1/2-y,z
loop_
_atom_site_type_symbol
_atom_site_label
_atom_site_fract_x
_atom_site_fract_y
_atom_site_fract_z
Si Si1 0.196744 0.449920 0.348716
Si Si2 0.077193 0.441186 0.233646
Si Si3 0.245149 0.939341 0.933444
Si Si4 0.380600 0.056739 0.418939
Si Si5 0.330183 0.051346 0.233455
Si Si6 0.520414 0.449528 0.292841
Si Si7 0.015163 0.449039 0.806080
O O1 0.195111 0.250000 0.356569
O O2 0.241847 0.503446 0.102118
O O3 0.245849 0.510195 0.369555
O O4 0.104976 0.504617 0.556745
O O5 0.093783 0.250000 0.229181
O O6 0.155383 0.542552 0.087714
O O7 0.050440 0.465124 0.136833
O O8 0.000000 0.500000 0.500000
O O9 0.271871 0.750000 0.863467
O O10 0.303722 0.043442 0.698540
O O11 0.400018 0.250000 0.349598
O O12 0.359584 0.983101 0.315171
O O13 0.453831 0.986707 0.337920
O O14 0.322189 0.250000 0.268446
O O15 0.395971 0.015039 0.961074
O O16 0.500000 0.500000 0.500000
O O17 0.521383 0.250000 0.286959
O O18 0.010236 0.250000 0.798834
O O19 0.000000 0.500000 0.000000
#
# Coordination Sequence:
#
# PCOD9166406 Si02
#       7
#     4   4   4   4   4   4   4
#     4  10  22  41  63  88 122 165 209 256 314 376
#     4  12  24  42  66  92 124 165 213 264 318 375
#     4  12  25  40  63  94 125 163 210 259 315 372
#     4  10  23  42  64  91 126 165 205 254 313 373
#     4  10  22  41  65  92 123 163 206 253 313 370
#     4  11  23  40  64  94 126 165 207 252 307 367
#     4  11  24  41  63  93 127 167 213 262 319 378
#
# _framework density 21.719301000000002
#
# number of rings (size 3 to 8) (size 9 to 14) (size 15 to 20)
#    0.000    1.143    1.429    4.714    2.000    6.286 
#    0.000    0.000    0.000    0.000    0.000    0.000 
#    0.000    0.000    0.000    0.000    0.000    0.000 
#
# Total GULP energy -156591.642070 kJ/mol
# GULP energy per Si atom -5592.558645 kJ/mol
# Density = 2.166987 g / cm^3
# Si number density = 21.719301 Si / 1000 Ang^3
#
#
#
# Elastic Constant Matrix: (Units=GPa)
#
#
# Indices 1 2 3 4 5 6 
#
# 1 138.8008 -2.0508 8.6858 0.0000 5.7999 0.0000
# 2 -2.0508 30.1422 -18.4130 0.0000 0.3093 0.0000
# 3 8.6858 -18.4130 40.0868 0.0000 7.8550 0.0000
# 4 0.0000 0.0000 0.0000 27.1998 0.0000 1.9402
# 5 5.7999 0.3093 7.8550 0.0000 41.9408 0.0000
# 6 0.0000 0.0000 0.0000 1.9402 0.0000 24.7230
#
#
#
# Elastic Compliance Matrix: (Units=1/GPa)
#
#
# Indices 1 2 3 4 5 6 
#
# 1 0.007332 -0.000531 -0.001697 0.000000 -0.000692 0.000000
# 2 -0.000531 0.046976 0.022575 0.000000 -0.004501 0.000000
# 3 -0.001697 0.022575 0.037028 0.000000 -0.006867 0.000000
# 4 0.000000 0.000000 0.000000 0.036972 0.000000 -0.002901
# 5 -0.000692 -0.004501 -0.006867 0.000000 0.025258 0.000000
# 6 0.000000 0.000000 0.000000 -0.002901 0.000000 0.040676
#
#
# Mechanical properties :
#
#
# Convention : Reuss Voigt Hill
#
# Bulk Modulus (GPa) = 7.57397 20.60820 14.09108
# Shear Modulus (GPa) = 25.30903 33.49324 29.40114
#
# Velocity S-wave (km/s) = 3.41732 3.93121 3.68324
# Velocity P-wave (km/s) = 4.36641 5.48771 4.95886
#
# Compressibility (1/GPa) = 0.13203118
#
# Stress axis : x y z
#
# Youngs Moduli (GPa) = 136.39162 21.28729 27.00644
#
# Poissons Ratio (x) = 0.01129 0.04582
# Poissons Ratio (y) = 0.07236 -0.60966
# Poissons Ratio (z) = 0.23141 -0.48055
#
# Static dielectric constant tensor:
#      x y z
#    x 1.816030 0.000000 -0.018510 
#    y 0.000000 1.796240 0.000000 
#    z -0.018510 0.000000 1.722930 
# 
# From -- ./inp_files/28439.got.cif
#   From: 2010.05.17/outbox.cif.g08.bks.cpg/sg11_15_cif.got.tgz:28439.got - 2010.06.03 12:22:45.
