data_PCOD9166731
_publ_section_title
;
Structure prediction by ZEFSAII (Michael W. Deem and Ramdas Pophale) SiO2 
 PCOD9166731
Probable space group: P 21/M
;
_chemical_formula_sum "Si O2"
_cell_formula_units_Z 12
_cell_length_a 7.175315
_cell_length_b 13.730185
_cell_length_c 7.174539
_cell_angle_alpha 90.000000
_cell_angle_beta 140.371146
_cell_angle_gamma 90.000000
_cell_volume 450.820861
_symmetry_space_group_name_H-M "P 21/M"
_symmetry_group_IT_number 11
_symmetry_cell_setting 'monoclinic'
loop_
_space_group_symop_operation_xyz
x,y,z
-x,1/2+y,-z
-x,-y,-z
x,1/2-y,z
loop_
_atom_site_type_symbol
_atom_site_label
_atom_site_fract_x
_atom_site_fract_y
_atom_site_fract_z
Si Si1 0.583390 0.140078 0.427967
Si Si2 0.906761 0.555885 0.688609
Si Si3 0.523306 0.636562 0.093359
O O1 0.694462 0.250000 0.544115
O O2 0.299595 0.119245 0.334865
O O3 0.814511 0.055263 0.650243
O O4 0.497048 0.130915 0.144358
O O5 0.804383 0.588497 0.402934
O O6 0.243470 0.582236 0.963778
O O7 0.514405 0.750000 0.137127
#
# Coordination Sequence:
#
# PCOD9166731 Si02
#       3
#     4   4   4
#     4  10  23  41  65  94 124 164 209 253 307 368
#     4  11  24  43  64  91 128 163 204 257 308 363
#     4  11  23  41  65  93 126 163 205 253 307 367
#
# _framework density 26.618110999999999
#
# number of rings (size 3 to 8) (size 9 to 14) (size 15 to 20)
#    0.000    1.333    0.000    5.000    0.000    8.000 
#    0.000   11.667    0.000    0.000    0.000    0.000 
#    0.000    0.000    0.000    0.000    0.000    0.000 
#
# Total GULP energy -67503.093283 kJ/mol
# GULP energy per Si atom -5625.257774 kJ/mol
# Density = 2.655753 g / cm^3
# Si number density = 26.618111 Si / 1000 Ang^3
#
#
#
# Elastic Constant Matrix: (Units=GPa)
#
#
# Indices 1 2 3 4 5 6 
#
# 1 125.4037 24.1987 18.2080 0.0000 -8.4533 0.0000
# 2 24.1987 235.4347 34.0502 0.0000 -1.8679 0.0000
# 3 18.2080 34.0502 95.8820 0.0000 11.6847 0.0000
# 4 0.0000 0.0000 0.0000 32.1003 0.0000 -12.5877
# 5 -8.4533 -1.8679 11.6847 0.0000 37.6327 0.0000
# 6 0.0000 0.0000 0.0000 -12.5877 0.0000 27.9319
#
#
#
# Elastic Compliance Matrix: (Units=1/GPa)
#
#
# Indices 1 2 3 4 5 6 
#
# 1 0.008499 -0.000610 -0.001690 0.000000 0.002404 0.000000
# 2 -0.000610 0.004541 -0.001567 0.000000 0.000575 0.000000
# 3 -0.001690 -0.001567 0.011810 0.000000 -0.004124 0.000000
# 4 0.000000 0.000000 0.000000 0.037839 0.000000 0.017053
# 5 0.002404 0.000575 -0.004124 0.000000 0.028422 0.000000
# 6 0.000000 0.000000 0.000000 0.017053 0.000000 0.043486
#
#
# Mechanical properties :
#
#
# Convention : Reuss Voigt Hill
#
# Bulk Modulus (GPa) = 58.42613 67.73715 63.08164
# Shear Modulus (GPa) = 33.77525 44.88389 39.32957
#
# Velocity S-wave (km/s) = 3.56600 4.11081 3.84806
# Velocity P-wave (km/s) = 6.24120 6.93071 6.59497
#
# Compressibility (1/GPa) = 0.01711563
#
# Stress axis : x y z
#
# Youngs Moduli (GPa) = 117.65498 220.19870 84.67724
#
# Poissons Ratio (x) = 0.13433 0.14313
# Poissons Ratio (y) = 0.07178 0.13269
# Poissons Ratio (z) = 0.19888 0.34504
#
# Static dielectric constant tensor:
#      x y z
#    x 2.047450 0.000000 -0.071900 
#    y 0.000000 2.042540 0.000000 
#    z -0.071900 0.000000 2.021580 
# 
# From -- ./inp_files/11633.got.cif
#   From: 2010.05.17/outbox.cif.g08.bks.cpg/sg11_6_cif.got.tgz:11633.got - 2010.06.03 12:22:45.
