data_PCOD9166272
_publ_section_title
;
Structure prediction by ZEFSAII (Michael W. Deem and Ramdas Pophale) SiO2 
 PCOD9166272
Probable space group: P 21/M
;
_chemical_formula_sum "Si O2"
_cell_formula_units_Z 32
_cell_length_a 15.974983
_cell_length_b 8.493360
_cell_length_c 11.144593
_cell_angle_alpha 90.000000
_cell_angle_beta 86.090277
_cell_angle_gamma 90.000000
_cell_volume 1508.593555
_symmetry_space_group_name_H-M "P 21/M"
_symmetry_group_IT_number 11
_symmetry_cell_setting 'monoclinic'
loop_
_space_group_symop_operation_xyz
x,y,z
-x,1/2+y,-z
-x,-y,-z
x,1/2-y,z
loop_
_atom_site_type_symbol
_atom_site_label
_atom_site_fract_x
_atom_site_fract_y
_atom_site_fract_z
Si Si1 0.593725 0.571212 0.999340
Si Si2 0.231750 0.436606 0.479961
Si Si3 0.758330 0.567165 0.107811
Si Si4 0.351172 0.427406 0.277765
Si Si5 0.940965 0.062347 0.397027
Si Si6 0.491359 0.430000 0.632261
Si Si7 0.324627 0.932569 0.675194
Si Si8 0.059288 0.937621 0.886149
O O1 0.582740 0.750000 0.048713
O O2 0.635053 0.579612 0.864253
O O3 0.500000 0.500000 0.000000
O O4 0.672131 0.494666 0.062666
O O5 0.222886 0.250000 0.499497
O O6 0.258422 0.460990 0.338166
O O7 0.151195 0.520155 0.543399
O O8 0.311183 0.512067 0.540573
O O9 0.764935 0.750000 0.071470
O O10 0.738151 0.546824 0.249465
O O11 0.846373 0.482750 0.082051
O O12 0.372536 0.250000 0.322940
O O13 0.420282 0.550347 0.313126
O O14 0.951017 0.250000 0.391271
O O15 0.952866 0.006857 0.254581
O O16 0.000000 0.000000 0.500000
O O17 0.500000 0.500000 0.500000
O O18 0.463722 0.250000 0.631928
O O19 0.419822 0.532930 0.702549
O O20 0.303172 0.750000 0.692737
O O21 0.050348 0.750000 0.882942
O O22 0.000000 0.000000 0.000000
#
# Coordination Sequence:
#
# PCOD9166272 Si02
#       8
#     4   4   4   4   4   4   4   4
#     4  10  23  42  63  91 128 174 224 276 331 393
#     4  11  22  38  64  93 125 165 209 259 324 392
#     4  11  23  41  67  96 129 172 221 272 331 398
#     4  10  22  40  60  87 126 166 211 267 325 388
#     4  11  25  45  70 101 139 177 222 277 344 414
#     4  12  23  35  54  84 120 161 208 258 316 378
#     4  12  23  37  59  88 124 163 210 262 313 376
#     4  11  25  45  71 104 140 180 230 287 346 416
#
# _framework density 21.211808999999999
#
# number of rings (size 3 to 8) (size 9 to 14) (size 15 to 20)
#    0.000    1.000    2.500    4.500    0.000    6.500 
#    0.000    2.500    0.000    0.000    0.000    0.000 
#    0.000    0.000    0.000    0.000    0.000    0.000 
#
# Total GULP energy -178357.402279 kJ/mol
# GULP energy per Si atom -5573.668821 kJ/mol
# Density = 2.116353 g / cm^3
# Si number density = 21.211809 Si / 1000 Ang^3
#
#
#
# Elastic Constant Matrix: (Units=GPa)
#
#
# Indices 1 2 3 4 5 6 
#
# 1 133.8190 20.0909 65.0659 0.0000 -11.6431 0.0000
# 2 20.0909 59.7042 23.0862 0.0000 0.8384 0.0000
# 3 65.0659 23.0862 109.7352 0.0000 -18.5584 0.0000
# 4 0.0000 0.0000 0.0000 22.3199 0.0000 1.1536
# 5 -11.6431 0.8384 -18.5584 0.0000 41.1711 0.0000
# 6 0.0000 0.0000 0.0000 1.1536 0.0000 33.4942
#
#
#
# Elastic Compliance Matrix: (Units=1/GPa)
#
#
# Indices 1 2 3 4 5 6 
#
# 1 0.010587 -0.001265 -0.005955 0.000000 0.000336 0.000000
# 2 -0.001265 0.018582 -0.003555 0.000000 -0.002338 0.000000
# 3 -0.005955 -0.003555 0.014202 0.000000 0.004790 0.000000
# 4 0.000000 0.000000 0.000000 0.044883 0.000000 -0.001546
# 5 0.000336 -0.002338 0.004790 0.000000 0.026591 0.000000
# 6 0.000000 0.000000 0.000000 -0.001546 0.000000 0.029909
#
#
# Mechanical properties :
#
#
# Convention : Reuss Voigt Hill
#
# Bulk Modulus (GPa) = 45.82478 57.74937 51.78707
# Shear Modulus (GPa) = 28.80574 32.39806 30.60190
#
# Velocity S-wave (km/s) = 3.68911 3.91238 3.80239
# Velocity P-wave (km/s) = 6.30844 6.90603 6.61398
#
# Compressibility (1/GPa) = 0.02182226
#
# Stress axis : x y z
#
# Youngs Moduli (GPa) = 94.45401 53.81464 70.41505
#
# Poissons Ratio (x) = 0.06807 0.41930
# Poissons Ratio (y) = 0.11947 0.25032
# Poissons Ratio (z) = 0.56244 0.19130
#
# Static dielectric constant tensor:
#      x y z
#    x 1.787980 0.000000 0.014010 
#    y 0.000000 1.760850 0.000000 
#    z 0.014010 0.000000 1.846030 
# 
# From -- ./inp_files/38192.got.cif
#   From: 2010.05.17/outbox.cif.g08.bks.cpg/sg11_20_cif.got.tgz:38192.got - 2010.06.03 12:22:45.
