data_PCOD9166880
_publ_section_title
;
Structure prediction by ZEFSAII (Michael W. Deem and Ramdas Pophale) SiO2 
 PCOD9166880
Probable space group: P 21/M
;
_chemical_formula_sum "Si O2"
_cell_formula_units_Z 16
_cell_length_a 5.349557
_cell_length_b 27.254706
_cell_length_c 5.371379
_cell_angle_alpha 90.000000
_cell_angle_beta 121.580321
_cell_angle_gamma 90.000000
_cell_volume 667.171107
_symmetry_space_group_name_H-M "P 21/M"
_symmetry_group_IT_number 11
_symmetry_cell_setting 'monoclinic'
loop_
_space_group_symop_operation_xyz
x,y,z
-x,1/2+y,-z
-x,-y,-z
x,1/2-y,z
loop_
_atom_site_type_symbol
_atom_site_label
_atom_site_fract_x
_atom_site_fract_y
_atom_site_fract_z
Si Si1 0.665949 0.017894 0.838185
Si Si2 0.599340 0.109977 0.521028
Si Si3 0.434487 0.807740 0.177459
Si Si4 0.975875 0.864367 0.619645
O O1 0.651288 0.076532 0.788707
O O2 0.500000 0.000000 0.500000
O O3 0.500000 0.000000 0.000000
O O4 0.000000 0.000000 0.000000
O O5 0.824841 0.096892 0.423958
O O6 0.249594 0.110603 0.301133
O O7 0.666175 0.167035 0.616455
O O8 0.468657 0.750000 0.201469
O O9 0.191634 0.825491 0.857505
O O10 0.744444 0.836353 0.316988
#
# Coordination Sequence:
#
# PCOD9166880 Si02
#       4
#     4   4   4   4
#     4  12  28  46  77 107 144 187 243 295 361 427
#     4  10  26  44  70  95 141 174 231 281 354 406
#     4  10  24  42  66  96 132 176 227 279 342 412
#     4  10  24  40  66  93 134 172 222 275 346 403
#
# _framework density 23.981857000000002
#
# number of rings (size 3 to 8) (size 9 to 14) (size 15 to 20)
#    1.500    0.000    0.000    3.000   10.500    2.000 
#    0.000    0.000    0.000    0.000    0.000    0.000 
#    0.000    0.000    0.000    0.000    0.000    0.000 
#
# Total GULP energy -89225.765426 kJ/mol
# GULP energy per Si atom -5576.610339 kJ/mol
# Density = 2.392727 g / cm^3
# Si number density = 23.981857 Si / 1000 Ang^3
#
#
#
# Elastic Constant Matrix: (Units=GPa)
#
#
# Indices 1 2 3 4 5 6 
#
# 1 189.6828 26.8182 74.0324 0.0000 28.7147 0.0000
# 2 26.8182 100.4524 25.5303 0.0000 17.7878 0.0000
# 3 74.0324 25.5303 134.2788 0.0000 29.6484 0.0000
# 4 0.0000 0.0000 0.0000 42.3926 0.0000 0.0288
# 5 28.7147 17.7878 29.6484 0.0000 41.5200 0.0000
# 6 0.0000 0.0000 0.0000 0.0288 0.0000 19.6840
#
#
#
# Elastic Compliance Matrix: (Units=1/GPa)
#
#
# Indices 1 2 3 4 5 6 
#
# 1 0.006958 -0.000643 -0.003220 0.000000 -0.002237 0.000000
# 2 -0.000643 0.011003 -0.000944 0.000000 -0.003595 0.000000
# 3 -0.003220 -0.000944 0.010472 0.000000 -0.004847 0.000000
# 4 0.000000 0.000000 0.000000 0.023589 0.000000 -0.000035
# 5 -0.002237 -0.003595 -0.004847 0.000000 0.030633 0.000000
# 6 0.000000 0.000000 0.000000 -0.000035 0.000000 0.050803
#
#
# Mechanical properties :
#
#
# Convention : Reuss Voigt Hill
#
# Bulk Modulus (GPa) = 53.13509 75.24176 64.18842
# Shear Modulus (GPa) = 33.47937 40.58819 37.03378
#
# Velocity S-wave (km/s) = 3.74040 4.11841 3.93395
# Velocity P-wave (km/s) = 6.39207 7.35239 6.88898
#
# Compressibility (1/GPa) = 0.01881995
#
# Stress axis : x y z
#
# Youngs Moduli (GPa) = 143.71163 90.88319 95.49210
#
# Poissons Ratio (x) = 0.05845 0.30749
# Poissons Ratio (y) = 0.09242 0.09011
# Poissons Ratio (z) = 0.46277 0.08576
#
# Static dielectric constant tensor:
#      x y z
#    x 2.024720 0.000000 -0.023000 
#    y 0.000000 2.014710 0.000000 
#    z -0.023000 0.000000 1.945710 
# 
# From -- ./inp_files/592.got.cif
#   From: 2010.05.17/outbox.cif.g08.bks.cpg/sg11_1_cif.got.tgz:592.got - 2010.06.03 12:22:45.
