data_PCOD9166242
_publ_section_title
;
Structure prediction by ZEFSAII (Michael W. Deem and Ramdas Pophale) SiO2 
 PCOD9166242
Probable space group: P 21/M
;
_chemical_formula_sum "Si O2"
_cell_formula_units_Z 28
_cell_length_a 18.743835
_cell_length_b 13.490183
_cell_length_c 5.922618
_cell_angle_alpha 90.000000
_cell_angle_beta 118.027305
_cell_angle_gamma 90.000000
_cell_volume 1321.949401
_symmetry_space_group_name_H-M "P 21/M"
_symmetry_group_IT_number 11
_symmetry_cell_setting 'monoclinic'
loop_
_space_group_symop_operation_xyz
x,y,z
-x,1/2+y,-z
-x,-y,-z
x,1/2-y,z
loop_
_atom_site_type_symbol
_atom_site_label
_atom_site_fract_x
_atom_site_fract_y
_atom_site_fract_z
Si Si1 0.125438 0.456797 0.760673
Si Si2 0.690903 0.556277 0.025973
Si Si3 0.666897 0.136503 0.674047
Si Si4 0.509946 0.250000 0.828459
Si Si5 0.418580 0.250000 0.198118
Si Si6 0.156448 0.854608 0.125251
Si Si7 0.972856 0.427657 0.761367
Si Si8 0.579862 0.064300 0.137120
O O1 0.078713 0.503796 0.481926
O O2 0.056112 0.389343 0.773688
O O3 0.214121 0.416935 0.831937
O O4 0.140981 0.550895 0.946889
O O5 0.677797 0.460711 0.844149
O O6 0.636552 0.650502 0.880249
O O7 0.654321 0.509755 0.201002
O O8 0.662341 0.250000 0.755461
O O9 0.751212 0.138775 0.656797
O O10 0.593257 0.115349 0.397305
O O11 0.465838 0.250000 0.515485
O O12 0.564375 0.151896 0.935750
O O13 0.458686 0.250000 0.997466
O O14 0.148539 0.750000 0.984213
O O15 0.091518 0.854824 0.226361
O O16 0.000000 0.500000 0.000000
O O17 0.500000 0.000000 0.000000
#
# Coordination Sequence:
#
# PCOD9166242 Si02
#       8
#     4   4   4   2   2   4   4   4
#     4   9  19  37  59  88 122 165 216 263 335 393
#     4  11  25  42  68  94 134 183 230 284 347 415
#     4  10  22  39  63  99 136 168 226 287 354 414
#     4  12  28  46  72  98 137 178 238 291 356 412
#     4  12  28  52  68 100 143 186 242 293 338 422
#     4   9  18  33  55  88 124 161 203 269 328 398
#     4   9  17  34  60  84 120 164 207 267 322 395
#     4  12  24  40  65  95 130 177 222 284 347 417
#
# _framework density 21.180841000000001
#
# number of rings (size 3 to 8) (size 9 to 14) (size 15 to 20)
#    0.000    1.714    2.143    1.714    3.000    1.714 
#    1.286    0.000    6.286    0.000    0.000    0.000 
#    0.000    0.000    0.000    0.000    0.000    0.000 
#
# Total GULP energy -155870.760530 kJ/mol
# GULP energy per Si atom -5566.812876 kJ/mol
# Density = 2.113263 g / cm^3
# Si number density = 21.180841 Si / 1000 Ang^3
#
#
#
# Elastic Constant Matrix: (Units=GPa)
#
#
# Indices 1 2 3 4 5 6 
#
# 1 126.4052 24.6372 23.3507 0.0000 10.3665 0.0000
# 2 24.6372 89.2556 5.8061 0.0000 3.5869 0.0000
# 3 23.3507 5.8061 82.3398 0.0000 10.3913 0.0000
# 4 0.0000 0.0000 0.0000 2.7484 0.0000 -1.7684
# 5 10.3665 3.5869 10.3913 0.0000 20.8060 0.0000
# 6 0.0000 0.0000 0.0000 -1.7684 0.0000 24.0560
#
#
#
# Elastic Compliance Matrix: (Units=1/GPa)
#
#
# Indices 1 2 3 4 5 6 
#
# 1 0.008966 -0.002221 -0.001996 0.000000 -0.003087 0.000000
# 2 -0.002221 0.011859 -0.000094 0.000000 -0.000891 0.000000
# 3 -0.001996 -0.000094 0.013437 0.000000 -0.005700 0.000000
# 4 0.000000 0.000000 0.000000 0.381918 0.000000 0.028076
# 5 -0.003087 -0.000891 -0.005700 0.000000 0.052602 0.000000
# 6 0.000000 0.000000 0.000000 0.028076 0.000000 0.043634
#
#
# Mechanical properties :
#
#
# Convention : Reuss Voigt Hill
#
# Bulk Modulus (GPa) = 39.00307 45.06541 42.03424
# Shear Modulus (GPa) = 9.44137 25.80251 17.62194
#
# Velocity S-wave (km/s) = 2.11357 3.49406 2.88753
# Velocity P-wave (km/s) = 4.94070 6.13193 5.56827
#
# Compressibility (1/GPa) = 0.02563901
#
# Stress axis : x y z
#
# Youngs Moduli (GPa) = 111.53340 84.32604 74.42180
#
# Poissons Ratio (x) = 0.18728 0.14858
# Poissons Ratio (y) = 0.24771 0.00699
# Poissons Ratio (z) = 0.22267 0.00792
#
# Static dielectric constant tensor:
#      x y z
#    x 1.904290 0.000000 -0.046720 
#    y 0.000000 1.728020 0.000000 
#    z -0.046720 0.000000 1.759610 
# 
# From -- ./inp_files/8162.got.cif
#   From: 2010.05.17/outbox.cif.g08.bks.cpg/sg11_5_cif.got.tgz:8162.got - 2010.06.03 12:22:45.
