data_PCOD9166946
_publ_section_title
;
Structure prediction by ZEFSAII (Michael W. Deem and Ramdas Pophale) SiO2 
 PCOD9166946
Probable space group: P 21/M
;
_chemical_formula_sum "Si O2"
_cell_formula_units_Z 22
_cell_length_a 8.339473
_cell_length_b 20.636133
_cell_length_c 5.301853
_cell_angle_alpha 90.000000
_cell_angle_beta 98.475487
_cell_angle_gamma 90.000000
_cell_volume 902.455078
_symmetry_space_group_name_H-M "P 21/M"
_symmetry_group_IT_number 11
_symmetry_cell_setting 'monoclinic'
loop_
_space_group_symop_operation_xyz
x,y,z
-x,1/2+y,-z
-x,-y,-z
x,1/2-y,z
loop_
_atom_site_type_symbol
_atom_site_label
_atom_site_fract_x
_atom_site_fract_y
_atom_site_fract_z
Si Si1 0.769789 0.824441 0.822429
Si Si2 0.819546 0.373548 0.871531
Si Si3 0.180677 0.750000 0.839253
Si Si4 0.405657 0.849801 0.573757
Si Si5 0.662475 0.478141 0.183948
Si Si6 0.867364 0.895934 0.349885
O O1 0.814691 0.750000 0.796332
O O2 0.580959 0.828695 0.699221
O O3 0.854328 0.868129 0.627382
O O4 0.789048 0.850578 0.111785
O O5 0.648644 0.344637 0.727660
O O6 0.944709 0.398552 0.688661
O O7 0.895475 0.308945 0.006356
O O8 0.776530 0.434624 0.030908
O O9 0.275912 0.806736 0.694613
O O10 0.392632 0.926490 0.620901
O O11 0.766986 0.537773 0.308723
O O12 0.500000 0.500000 0.000000
#
# Coordination Sequence:
#
# PCOD9166946 Si02
#       6
#     4   4   2   4   4   4
#     4  12  28  47  74 107 146 189 244 297 359 429
#     4  11  27  43  73 104 145 191 240 297 366 433
#     4  10  24  44  70 104 144 182 248 292 366 418
#     4  11  24  44  76 101 140 193 244 298 353 435
#     4  11  24  47  73 103 143 188 247 295 361 427
#     4  12  29  47  73 108 150 189 235 305 365 433
#
# _framework density 24.377945
#
# number of rings (size 3 to 8) (size 9 to 14) (size 15 to 20)
#    0.000    0.727    2.727    2.727   12.727    2.182 
#    0.000    0.000    0.000    0.000    0.000    0.000 
#    0.000    0.000    0.000    0.000    0.000    0.000 
#
# Total GULP energy -122671.704442 kJ/mol
# GULP energy per Si atom -5575.986566 kJ/mol
# Density = 2.432246 g / cm^3
# Si number density = 24.377945 Si / 1000 Ang^3
#
#
#
# Elastic Constant Matrix: (Units=GPa)
#
#
# Indices 1 2 3 4 5 6 
#
# 1 51.1405 21.6174 5.9635 0.0000 17.1432 0.0000
# 2 21.6174 183.3836 23.7995 0.0000 4.8494 0.0000
# 3 5.9635 23.7995 56.7122 0.0000 17.2125 0.0000
# 4 0.0000 0.0000 0.0000 -4.5054 0.0000 6.4302
# 5 17.1432 4.8494 17.2125 0.0000 45.8579 0.0000
# 6 0.0000 0.0000 0.0000 6.4302 0.0000 54.1501
#
#
#
# Elastic Compliance Matrix: (Units=1/GPa)
#
#
# Indices 1 2 3 4 5 6 
#
# 1 0.023576 -0.002723 0.001412 0.000000 -0.009055 0.000000
# 2 -0.002723 0.006086 -0.002688 0.000000 0.001383 0.000000
# 3 0.001412 -0.002688 0.021089 0.000000 -0.008159 0.000000
# 4 0.000000 0.000000 0.000000 -0.189790 0.000000 0.022537
# 5 -0.009055 0.001383 -0.008159 0.000000 0.028108 0.000000
# 6 0.000000 0.000000 0.000000 0.022537 0.000000 0.015791
#
#
# Mechanical properties :
#
#
# Convention : Reuss Voigt Hill
#
# Bulk Modulus (GPa) = 23.38977 43.77745 33.58361
# Shear Modulus (GPa) = -68.59495 35.09091 -16.75202
#
# Velocity S-wave (km/s) = -5.31029 3.79813 -2.62425
# Velocity P-wave (km/s) = 5.28994 6.10174 2.15031
#
# Compressibility (1/GPa) = 0.04275374
#
# Stress axis : x y z
#
# Youngs Moduli (GPa) = 42.41619 164.30488 47.41900
#
# Poissons Ratio (x) = 0.44739 -0.06695
# Poissons Ratio (y) = 0.11550 0.12744
# Poissons Ratio (z) = -0.05989 0.44158
#
# Static dielectric constant tensor:
#      x y z
#    x 2.087650 0.000000 0.067150 
#    y 0.000000 1.908780 0.000000 
#    z 0.067150 0.000000 2.008910 
# 
# From -- ./inp_files/2406.got.cif
#   From: 2010.05.17/outbox.cif.g08.bks.cpg/sg11_2_cif.got.tgz:2406.got - 2010.06.03 12:22:45.
