data_PCOD9166639
_publ_section_title
;
Structure prediction by ZEFSAII (Michael W. Deem and Ramdas Pophale) SiO2 
 PCOD9166639
Probable space group: P 21/M
;
_chemical_formula_sum "Si O2"
_cell_formula_units_Z 16
_cell_length_a 6.948773
_cell_length_b 12.033023
_cell_length_c 9.043785
_cell_angle_alpha 90.000000
_cell_angle_beta 90.576508
_cell_angle_gamma 90.000000
_cell_volume 756.155500
_symmetry_space_group_name_H-M "P 21/M"
_symmetry_group_IT_number 11
_symmetry_cell_setting 'monoclinic'
loop_
_space_group_symop_operation_xyz
x,y,z
-x,1/2+y,-z
-x,-y,-z
x,1/2-y,z
loop_
_atom_site_type_symbol
_atom_site_label
_atom_site_fract_x
_atom_site_fract_y
_atom_site_fract_z
Si Si1 0.386761 0.122740 0.342613
Si Si2 0.276963 0.446808 0.666971
Si Si3 0.470096 0.626480 0.072475
Si Si4 0.101863 0.982954 0.158561
O O1 0.429365 0.250000 0.331978
O O2 0.413894 0.944477 0.668706
O O3 0.234522 0.083616 0.217995
O O4 0.294556 0.098598 0.502187
O O5 0.378856 0.372734 0.792697
O O6 0.061631 0.464870 0.720769
O O7 0.483574 0.750000 0.997762
O O8 0.255430 0.615316 0.137224
O O9 0.500000 0.500000 0.000000
O O10 0.000000 0.000000 0.000000
#
# Coordination Sequence:
#
# PCOD9166639 Si02
#       4
#     4   4   4   4
#     4  10  23  41  67  96 129 176 226 277 336 407
#     4  10  22  45  65  94 135 173 222 278 342 397
#     4  11  24  42  66  97 135 177 224 277 338 403
#     4  11  23  43  63  98 133 173 221 281 338 406
#
# _framework density 21.159668
#
# number of rings (size 3 to 8) (size 9 to 14) (size 15 to 20)
#    0.000    1.500    2.500    1.500    0.000    8.000 
#    0.000    0.000    0.000    0.000    0.000    0.000 
#    0.000    0.000    0.000    0.000    0.000    0.000 
#
# Total GULP energy -89200.742563 kJ/mol
# GULP energy per Si atom -5575.046410 kJ/mol
# Density = 2.111151 g / cm^3
# Si number density = 21.159668 Si / 1000 Ang^3
#
#
#
# Elastic Constant Matrix: (Units=GPa)
#
#
# Indices 1 2 3 4 5 6 
#
# 1 104.6702 26.8299 8.5143 0.0000 -34.6664 0.0000
# 2 26.8299 168.2110 42.8314 0.0000 -14.6316 0.0000
# 3 8.5143 42.8314 93.5428 0.0000 -12.0162 0.0000
# 4 0.0000 0.0000 0.0000 14.4425 0.0000 0.8012
# 5 -34.6664 -14.6316 -12.0162 0.0000 47.9422 0.0000
# 6 0.0000 0.0000 0.0000 0.8012 0.0000 -13.3268
#
#
#
# Elastic Compliance Matrix: (Units=1/GPa)
#
#
# Indices 1 2 3 4 5 6 
#
# 1 0.012856 -0.001430 0.000643 0.000000 0.009021 0.000000
# 2 -0.001430 0.006971 -0.003018 0.000000 0.000337 0.000000
# 3 0.000643 -0.003018 0.012353 0.000000 0.002640 0.000000
# 4 0.000000 0.000000 0.000000 0.069010 0.000000 0.004149
# 5 0.009021 0.000337 0.002640 0.000000 0.028146 0.000000
# 6 0.000000 0.000000 0.000000 0.004149 0.000000 -0.074788
#
#
# Mechanical properties :
#
#
# Convention : Reuss Voigt Hill
#
# Bulk Modulus (GPa) = 40.70039 58.08614 49.39326
# Shear Modulus (GPa) = 71.07621 29.02813 50.05217
#
# Velocity S-wave (km/s) = 5.80201 3.70788 4.86887
# Velocity P-wave (km/s) = 8.01006 6.77068 7.41631
#
# Compressibility (1/GPa) = 0.02456979
#
# Stress axis : x y z
#
# Youngs Moduli (GPa) = 77.78752 143.45480 80.95243
#
# Poissons Ratio (x) = 0.20509 -0.05207
# Poissons Ratio (y) = 0.11121 0.24434
# Poissons Ratio (z) = -0.05004 0.43300
#
# Static dielectric constant tensor:
#      x y z
#    x 1.801060 0.000000 -0.024590 
#    y 0.000000 0.861700 0.000000 
#    z -0.024590 0.000000 1.815350 
# 
# From -- ./inp_files/11574.got.cif
#   From: 2010.05.17/outbox.cif.g08.bks.cpg/sg11_6_cif.got.tgz:11574.got - 2010.06.03 12:22:45.
