data_PCOD9166756
_publ_section_title
;
Structure prediction by ZEFSAII (Michael W. Deem and Ramdas Pophale) SiO2 
 PCOD9166756
Probable space group: P 21/M
;
_chemical_formula_sum "Si O2"
_cell_formula_units_Z 20
_cell_length_a 8.012899
_cell_length_b 8.872044
_cell_length_c 18.833263
_cell_angle_alpha 90.000000
_cell_angle_beta 129.566869
_cell_angle_gamma 90.000000
_cell_volume 1032.111610
_symmetry_space_group_name_H-M "P 21/M"
_symmetry_group_IT_number 11
_symmetry_cell_setting 'monoclinic'
loop_
_space_group_symop_operation_xyz
x,y,z
-x,1/2+y,-z
-x,-y,-z
x,1/2-y,z
loop_
_atom_site_type_symbol
_atom_site_label
_atom_site_fract_x
_atom_site_fract_y
_atom_site_fract_z
Si Si1 0.791779 0.930635 0.905545
Si Si2 0.349086 0.069335 0.289236
Si Si3 0.996487 0.070959 0.708350
Si Si4 0.850090 0.068854 0.398454
Si Si5 0.431439 0.070249 0.906653
O O1 0.794112 0.750000 0.913201
O O2 0.774364 0.968172 0.817684
O O3 0.582532 0.997104 0.887829
O O4 0.000000 0.000000 0.000000
O O5 0.339126 0.250000 0.296111
O O6 0.599812 0.027018 0.346030
O O7 0.227723 0.990314 0.321106
O O8 0.985238 0.250000 0.694053
O O9 0.184155 0.040490 0.817487
O O10 0.070577 0.992810 0.655805
O O11 0.862982 0.250000 0.401908
O O12 0.000000 0.000000 0.500000
O O13 0.464493 0.250000 0.917511
O O14 0.500000 0.000000 0.000000
#
# Coordination Sequence:
#
# PCOD9166756 Si02
#       5
#     4   4   4   4   4
#     4  11  22  38  60  90 127 170 215 263 318 380
#     4  10  23  42  65  92 127 170 212 260 320 383
#     4  11  24  41  65  96 129 168 214 266 319 379
#     4  11  24  45  70  96 127 167 214 268 326 384
#     4  11  23  38  59  90 128 171 216 264 318 379
#
# _framework density 19.377749999999999
#
# number of rings (size 3 to 8) (size 9 to 14) (size 15 to 20)
#    0.000    1.200    2.000    3.600    0.000    9.600 
#    0.000    0.000    0.000    0.000    0.000    0.000 
#    0.000    0.000    0.000    0.000    0.000    0.000 
#
# Total GULP energy -111857.924824 kJ/mol
# GULP energy per Si atom -5592.896241 kJ/mol
# Density = 1.933365 g / cm^3
# Si number density = 19.377750 Si / 1000 Ang^3
#
#
#
# Elastic Constant Matrix: (Units=GPa)
#
#
# Indices 1 2 3 4 5 6 
#
# 1 176.3240 68.6312 64.7421 0.0000 -2.7886 0.0000
# 2 68.6312 64.5808 63.4460 0.0000 -1.7299 0.0000
# 3 64.7421 63.4460 123.5622 0.0000 2.9136 0.0000
# 4 0.0000 0.0000 0.0000 33.6915 0.0000 -3.1080
# 5 -2.7886 -1.7299 2.9136 0.0000 26.3701 0.0000
# 6 0.0000 0.0000 0.0000 -3.1080 0.0000 37.1429
#
#
#
# Elastic Compliance Matrix: (Units=1/GPa)
#
#
# Indices 1 2 3 4 5 6 
#
# 1 0.009685 -0.010682 0.000403 0.000000 0.000279 0.000000
# 2 -0.010682 0.043418 -0.016782 0.000000 0.003573 0.000000
# 3 0.000403 -0.016782 0.016567 0.000000 -0.002889 0.000000
# 4 0.000000 0.000000 0.000000 0.029912 0.000000 0.002503
# 5 0.000279 0.003573 -0.002889 0.000000 0.038505 0.000000
# 6 0.000000 0.000000 0.000000 0.002503 0.000000 0.027132
#
#
# Mechanical properties :
#
#
# Convention : Reuss Voigt Hill
#
# Bulk Modulus (GPa) = 64.30551 84.23396 74.26973
# Shear Modulus (GPa) = 22.26941 30.61744 26.44343
#
# Velocity S-wave (km/s) = 3.39370 3.97927 3.69810
# Velocity P-wave (km/s) = 6.97234 8.04218 7.52629
#
# Compressibility (1/GPa) = 0.01555077
#
# Stress axis : x y z
#
# Youngs Moduli (GPa) = 103.24940 23.03167 60.36155
#
# Poissons Ratio (x) = 0.24601 -0.02435
# Poissons Ratio (y) = 1.10286 1.01297
# Poissons Ratio (z) = -0.04165 0.38651
#
# Static dielectric constant tensor:
#      x y z
#    x 1.655020 0.000000 0.010790 
#    y 0.000000 1.644810 0.000000 
#    z 0.010790 0.000000 1.673830 
# 
# From -- ./inp_files/57567.got.cif
#   From: 2010.05.17/outbox.cif.g08.bks.cpg/sg11_29_cif.got.tgz:57567.got - 2010.06.03 12:22:45.
