data_PCOD9166797
_publ_section_title
;
Structure prediction by ZEFSAII (Michael W. Deem and Ramdas Pophale) SiO2 
 PCOD9166797
Probable space group: P 21/M
;
_chemical_formula_sum "Si O2"
_cell_formula_units_Z 32
_cell_length_a 12.594618
_cell_length_b 8.462768
_cell_length_c 28.985785
_cell_angle_alpha 90.000000
_cell_angle_beta 30.140152
_cell_angle_gamma 90.000000
_cell_volume 1551.269805
_symmetry_space_group_name_H-M "P 21/M"
_symmetry_group_IT_number 11
_symmetry_cell_setting 'monoclinic'
loop_
_space_group_symop_operation_xyz
x,y,z
-x,1/2+y,-z
-x,-y,-z
x,1/2-y,z
loop_
_atom_site_type_symbol
_atom_site_label
_atom_site_fract_x
_atom_site_fract_y
_atom_site_fract_z
Si Si1 0.939251 0.932073 0.473273
Si Si2 0.064705 0.939080 0.026556
Si Si3 0.315026 0.063735 0.760729
Si Si4 0.496641 0.564078 0.150602
Si Si5 0.359898 0.069059 0.294083
Si Si6 0.250814 0.563533 0.683381
Si Si7 0.321844 0.935283 0.507060
Si Si8 0.051798 0.059037 0.282738
O O1 0.875168 0.750000 0.499326
O O2 0.160862 0.954127 0.363532
O O3 0.000000 0.000000 0.500000
O O4 0.767638 0.033622 0.510708
O O5 0.083623 0.750000 0.017462
O O6 0.885216 0.976872 0.131706
O O7 0.289636 0.014384 0.955475
O O8 0.000000 0.000000 0.000000
O O9 0.360344 0.250000 0.749181
O O10 0.511749 0.967952 0.707929
O O11 0.270891 0.025205 0.724233
O O12 0.501715 0.750000 0.158397
O O13 0.502682 0.467245 0.196312
O O14 0.277319 0.517527 0.208519
O O15 0.286028 0.250000 0.321209
O O16 0.248626 0.750000 0.693276
O O17 0.456445 0.525156 0.574784
O O18 0.044228 0.521840 0.731289
O O19 0.357600 0.750000 0.501386
O O20 0.133240 0.989354 0.611687
O O21 0.073662 0.250000 0.279004
#
# Coordination Sequence:
#
# PCOD9166797 Si02
#       8
#     4   4   4   4   4   4   4   4
#     4  12  24  38  56  84 123 165 209 255 309 373
#     4  11  23  40  66  95 128 164 206 257 312 377
#     4  11  24  42  64  93 127 165 209 257 313 377
#     4  12  24  39  64  96 127 160 204 255 312 374
#     4  12  23  38  61  88 124 164 203 253 312 371
#     4  11  24  42  64  92 126 167 212 262 314 369
#     4  11  22  39  63  90 123 165 211 261 310 367
#     4  10  23  43  66  91 125 168 215 261 311 367
#
# _framework density 20.628263
#
# number of rings (size 3 to 8) (size 9 to 14) (size 15 to 20)
#    0.000    0.750    2.500    6.000    0.000    3.000 
#    0.000    0.625    0.000    0.000    0.000    0.000 
#    0.000    0.000    0.000    0.000    0.000    0.000 
#
# Total GULP energy -179044.743581 kJ/mol
# GULP energy per Si atom -5595.148237 kJ/mol
# Density = 2.058131 g / cm^3
# Si number density = 20.628263 Si / 1000 Ang^3
#
#
#
# Elastic Constant Matrix: (Units=GPa)
#
#
# Indices 1 2 3 4 5 6 
#
# 1 94.0001 12.1984 22.5636 0.0000 -15.4003 0.0000
# 2 12.1984 53.6679 14.5922 0.0000 -1.8893 0.0000
# 3 22.5636 14.5922 83.7831 0.0000 -13.3448 0.0000
# 4 0.0000 0.0000 0.0000 30.9632 0.0000 -2.4305
# 5 -15.4003 -1.8893 -13.3448 0.0000 29.3014 0.0000
# 6 0.0000 0.0000 0.0000 -2.4305 0.0000 24.8968
#
#
#
# Elastic Compliance Matrix: (Units=1/GPa)
#
#
# Indices 1 2 3 4 5 6 
#
# 1 0.012286 -0.002033 -0.002099 0.000000 0.005370 0.000000
# 2 -0.002033 0.019898 -0.003110 0.000000 -0.001201 0.000000
# 3 -0.002099 -0.003110 0.013839 0.000000 0.004999 0.000000
# 4 0.000000 0.000000 0.000000 0.032546 0.000000 0.003177
# 5 0.005370 -0.001201 0.004999 0.000000 0.039150 0.000000
# 6 0.000000 0.000000 0.000000 0.003177 0.000000 0.040476
#
#
# Mechanical properties :
#
#
# Convention : Reuss Voigt Hill
#
# Bulk Modulus (GPa) = 31.70609 36.68441 34.19525
# Shear Modulus (GPa) = 27.29401 29.17209 28.23305
#
# Velocity S-wave (km/s) = 3.64144 3.76464 3.70355
# Velocity P-wave (km/s) = 5.75184 6.05961 5.90773
#
# Compressibility (1/GPa) = 0.03153969
#
# Stress axis : x y z
#
# Youngs Moduli (GPa) = 81.39503 50.25557 72.26107
#
# Poissons Ratio (x) = 0.10215 0.15170
# Poissons Ratio (y) = 0.16545 0.22470
# Poissons Ratio (z) = 0.17087 0.15627
#
# Static dielectric constant tensor:
#      x y z
#    x 1.745160 0.000000 0.020680 
#    y 0.000000 1.652330 0.000000 
#    z 0.020680 0.000000 1.782100 
# 
# From -- ./inp_files/73109.got.cif
#   From: 2010.05.17/outbox.cif.g08.bks.cpg/sg11_37_cif.got.tgz:73109.got - 2010.06.03 12:22:45.
