data_PCOD9166447
_publ_section_title
;
Structure prediction by ZEFSAII (Michael W. Deem and Ramdas Pophale) SiO2 
 PCOD9166447
Probable space group: P 21/M
;
_chemical_formula_sum "Si O2"
_cell_formula_units_Z 20
_cell_length_a 9.064224
_cell_length_b 23.709962
_cell_length_c 7.953574
_cell_angle_alpha 90.000000
_cell_angle_beta 149.862498
_cell_angle_gamma 90.000000
_cell_volume 858.210955
_symmetry_space_group_name_H-M "P 21/M"
_symmetry_group_IT_number 11
_symmetry_cell_setting 'monoclinic'
loop_
_space_group_symop_operation_xyz
x,y,z
-x,1/2+y,-z
-x,-y,-z
x,1/2-y,z
loop_
_atom_site_type_symbol
_atom_site_label
_atom_site_fract_x
_atom_site_fract_y
_atom_site_fract_z
Si Si1 0.272496 0.591155 0.437581
Si Si2 0.290299 0.813749 0.843668
Si Si3 0.033711 0.982522 0.727389
Si Si4 0.471649 0.091665 0.678835
Si Si5 0.774858 0.644979 0.114886
O O1 0.092498 0.533971 0.288068
O O2 0.433374 0.595794 0.419888
O O3 0.017111 0.639104 0.205954
O O4 0.534193 0.596173 0.835548
O O5 0.210938 0.750000 0.816013
O O6 0.010339 0.848151 0.497179
O O7 0.438658 0.852206 0.132479
O O8 0.531230 0.809783 0.929798
O O9 0.861082 0.926895 0.620477
O O10 0.000000 0.000000 0.500000
O O11 0.363921 0.963135 0.083184
#
# Coordination Sequence:
#
# PCOD9166447 Si02
#       5
#     4   4   4   4   4
#     4  11  22  41  63  96 133 164 205 262 320 383
#     4  11  23  43  64  87 118 162 214 267 317 374
#     4  12  23  38  62  96 134 174 211 250 312 388
#     4  12  24  39  63  95 130 168 211 263 317 374
#     4  10  22  41  65  88 119 162 208 254 311 379
#
# _framework density 23.304292
#
# number of rings (size 3 to 8) (size 9 to 14) (size 15 to 20)
#    0.000    0.800    0.000    9.600    0.000    0.000 
#    0.000    6.000    0.000    0.000    0.000    0.000 
#    0.000    0.000    0.000    0.000    0.000    0.000 
#
# Total GULP energy -111433.436017 kJ/mol
# GULP energy per Si atom -5571.671801 kJ/mol
# Density = 2.325125 g / cm^3
# Si number density = 23.304292 Si / 1000 Ang^3
#
#
#
# Elastic Constant Matrix: (Units=GPa)
#
#
# Indices 1 2 3 4 5 6 
#
# 1 111.2173 51.7125 10.4130 0.0000 13.9895 0.0000
# 2 51.7125 92.0038 6.2187 0.0000 -16.4072 0.0000
# 3 10.4130 6.2187 82.7135 0.0000 13.2829 0.0000
# 4 0.0000 0.0000 0.0000 -5.5719 0.0000 4.9667
# 5 13.9895 -16.4072 13.2829 0.0000 33.7608 0.0000
# 6 0.0000 0.0000 0.0000 4.9667 0.0000 20.5827
#
#
#
# Elastic Compliance Matrix: (Units=1/GPa)
#
#
# Indices 1 2 3 4 5 6 
#
# 1 0.015510 -0.010921 0.000804 0.000000 -0.012050 0.000000
# 2 -0.010921 0.019891 -0.002562 0.000000 0.015200 0.000000
# 3 0.000804 -0.002562 0.013273 0.000000 -0.006800 0.000000
# 4 0.000000 0.000000 0.000000 -0.147703 0.000000 0.035641
# 5 -0.012050 0.015200 -0.006800 0.000000 0.044676 0.000000
# 6 0.000000 0.000000 0.000000 0.035641 0.000000 0.039984
#
#
# Mechanical properties :
#
#
# Convention : Reuss Voigt Hill
#
# Bulk Modulus (GPa) = 42.88758 46.95813 44.92285
# Shear Modulus (GPa) = 266.50187 24.26035 145.38111
#
# Velocity S-wave (km/s) = 10.70540 3.22999 7.90691
# Velocity P-wave (km/s) = 13.08628 5.83988 10.13299
#
# Compressibility (1/GPa) = 0.02331677
#
# Stress axis : x y z
#
# Youngs Moduli (GPa) = 64.47541 50.27353 75.33873
#
# Poissons Ratio (x) = 0.54903 -0.06055
# Poissons Ratio (y) = 0.70413 0.19299
# Poissons Ratio (z) = -0.05182 0.12878
#
# Static dielectric constant tensor:
#      x y z
#    x 1.876430 0.000000 -0.019220 
#    y 0.000000 1.908340 0.000000 
#    z -0.019220 0.000000 1.893100 
# 
# From -- ./inp_files/14972.got.cif
#   From: 2010.05.17/outbox.cif.g08.bks.cpg/sg11_8_cif.got.tgz:14972.got - 2010.06.03 12:22:45.
