data_PCOD9166158
_publ_section_title
;
Structure prediction by ZEFSAII (Michael W. Deem and Ramdas Pophale) SiO2 
 PCOD9166158
Probable space group: P 21/M
;
_chemical_formula_sum "Si O2"
_cell_formula_units_Z 32
_cell_length_a 23.749353
_cell_length_b 8.715143
_cell_length_c 14.777331
_cell_angle_alpha 90.000000
_cell_angle_beta 149.482681
_cell_angle_gamma 90.000000
_cell_volume 1553.152003
_symmetry_space_group_name_H-M "P 21/M"
_symmetry_group_IT_number 11
_symmetry_cell_setting 'monoclinic'
loop_
_space_group_symop_operation_xyz
x,y,z
-x,1/2+y,-z
-x,-y,-z
x,1/2-y,z
loop_
_atom_site_type_symbol
_atom_site_label
_atom_site_fract_x
_atom_site_fract_y
_atom_site_fract_z
Si Si1 0.102013 0.566059 0.087616
Si Si2 0.333032 0.925120 0.451703
Si Si3 0.221935 0.065690 0.942570
Si Si4 0.026309 0.435314 0.795437
Si Si5 0.439621 0.069900 0.754799
Si Si6 0.383879 0.924734 0.314468
Si Si7 0.230362 0.934240 0.574712
Si Si8 0.319250 0.434827 0.883219
O O1 0.100747 0.750000 0.079477
O O2 0.207884 0.525010 0.296024
O O3 0.091343 0.496479 0.972956
O O4 0.000000 0.500000 0.000000
O O5 0.354908 0.750000 0.512409
O O6 0.329940 0.923237 0.339117
O O7 0.419439 0.033384 0.620657
O O8 0.221938 0.250000 0.941277
O O9 0.311921 0.012396 0.141103
O O10 0.100473 0.016030 0.811083
O O11 0.261910 0.016170 0.898544
O O12 0.026005 0.250000 0.797456
O O13 0.897327 0.484410 0.619878
O O14 0.450835 0.250000 0.787343
O O15 0.328872 0.006523 0.650453
O O16 0.551667 0.984306 0.938779
O O17 0.398073 0.750000 0.303501
O O18 0.500000 0.000000 0.500000
O O19 0.235095 0.750000 0.570805
O O20 0.259406 0.984301 0.716818
O O21 0.312461 0.250000 0.865596
#
# Coordination Sequence:
#
# PCOD9166158 Si02
#       8
#     4   4   4   4   4   4   4   4
#     4  11  22  37  58  87 122 162 204 249 300 359
#     4  10  22  39  57  84 123 161 197 240 300 360
#     4  10  22  41  64  91 126 165 207 256 311 370
#     4  10  22  41  64  91 126 165 207 256 311 370
#     4  12  25  41  64  94 125 161 209 262 313 376
#     4  11  22  37  58  87 122 162 204 249 300 359
#     4  11  24  43  66  92 124 163 206 260 319 375
#     4  11  24  43  66  92 124 163 206 260 319 375
#
# _framework density 20.603262999999998
#
# number of rings (size 3 to 8) (size 9 to 14) (size 15 to 20)
#    0.000    1.250    1.250    4.500    0.000   10.500 
#    0.000    0.000    0.000    0.000    0.000    0.000 
#    0.000    0.000    0.000    0.000    0.000    0.000 
#
# Total GULP energy -178735.512905 kJ/mol
# GULP energy per Si atom -5585.484778 kJ/mol
# Density = 2.055637 g / cm^3
# Si number density = 20.603263 Si / 1000 Ang^3
#
#
#
# Elastic Constant Matrix: (Units=GPa)
#
#
# Indices 1 2 3 4 5 6 
#
# 1 87.9636 11.5018 18.7972 0.0000 2.2039 0.0000
# 2 11.5018 25.3610 6.8994 0.0000 5.8738 0.0000
# 3 18.7972 6.8994 79.8133 0.0000 7.0670 0.0000
# 4 0.0000 0.0000 0.0000 27.0676 0.0000 -8.8783
# 5 2.2039 5.8738 7.0670 0.0000 37.4194 0.0000
# 6 0.0000 0.0000 0.0000 -8.8783 0.0000 26.8923
#
#
#
# Elastic Compliance Matrix: (Units=1/GPa)
#
#
# Indices 1 2 3 4 5 6 
#
# 1 0.012574 -0.005132 -0.002566 0.000000 0.000550 0.000000
# 2 -0.005132 0.043741 -0.002025 0.000000 -0.006181 0.000000
# 3 -0.002566 -0.002025 0.013493 0.000000 -0.002079 0.000000
# 4 0.000000 0.000000 0.000000 0.041431 0.000000 0.013678
# 5 0.000550 -0.006181 -0.002079 0.000000 0.028055 0.000000
# 6 0.000000 0.000000 0.000000 0.013678 0.000000 0.041701
#
#
# Mechanical properties :
#
#
# Convention : Reuss Voigt Hill
#
# Bulk Modulus (GPa) = 19.85673 29.72608 24.79140
# Shear Modulus (GPa) = 23.01730 28.67182 25.84456
#
# Velocity S-wave (km/s) = 3.34603 3.73448 3.54558
# Velocity P-wave (km/s) = 4.95848 5.74929 5.36846
#
# Compressibility (1/GPa) = 0.05036077
#
# Stress axis : x y z
#
# Youngs Moduli (GPa) = 79.52915 22.86203 74.11339
#
# Poissons Ratio (x) = 0.11732 0.19021
# Poissons Ratio (y) = 0.40812 0.15009
# Poissons Ratio (z) = 0.20411 0.04630
#
# Static dielectric constant tensor:
#      x y z
#    x 1.914580 0.000000 0.073790 
#    y 0.000000 1.688370 0.000000 
#    z 0.073790 0.000000 1.777870 
# 
# From -- ./inp_files/55655.got.cif
#   From: 2010.05.17/outbox.cif.g08.bks.cpg/sg11_28_cif.got.tgz:55655.got - 2010.06.03 12:22:45.
