data_PCOD9166697
_publ_section_title
;
Structure prediction by ZEFSAII (Michael W. Deem and Ramdas Pophale) SiO2 
 PCOD9166697
Probable space group: P 21/M
;
_chemical_formula_sum "Si O2"
_cell_formula_units_Z 28
_cell_length_a 8.430861
_cell_length_b 15.021670
_cell_length_c 19.234424
_cell_angle_alpha 90.000000
_cell_angle_beta 32.863845
_cell_angle_gamma 90.000000
_cell_volume 1321.857850
_symmetry_space_group_name_H-M "P 21/M"
_symmetry_group_IT_number 11
_symmetry_cell_setting 'monoclinic'
loop_
_space_group_symop_operation_xyz
x,y,z
-x,1/2+y,-z
-x,-y,-z
x,1/2-y,z
loop_
_atom_site_type_symbol
_atom_site_label
_atom_site_fract_x
_atom_site_fract_y
_atom_site_fract_z
Si Si1 0.064412 0.149426 0.979854
Si Si2 0.567398 0.578652 0.763087
Si Si3 0.465523 0.988145 0.593855
Si Si4 0.525667 0.142099 0.935862
Si Si5 0.484095 0.605099 0.299794
Si Si6 0.830984 0.843284 0.532323
Si Si7 0.173313 0.045623 0.186052
O O1 0.962150 0.250000 0.028034
O O2 0.296008 0.130458 0.956440
O O3 0.239667 0.144251 0.842737
O O4 0.771363 0.091998 0.091180
O O5 0.576686 0.485469 0.719904
O O6 0.689203 0.646142 0.660718
O O7 0.765142 0.576653 0.758460
O O8 0.460073 0.077524 0.641476
O O9 0.500000 0.000000 0.500000
O O10 0.721659 0.926187 0.528107
O O11 0.154292 0.941448 0.719888
O O12 0.599028 0.250000 0.911479
O O13 0.762187 0.061926 0.838164
O O14 0.374978 0.105663 0.061731
O O15 0.180037 0.655972 0.407947
O O16 0.732012 0.750000 0.536954
#
# Coordination Sequence:
#
# PCOD9166697 Si02
#       7
#     4   4   4   4   4   4   4
#     4  11  23  40  64  96 129 168 221 278 326 382
#     4  11  22  40  67  93 128 172 221 264 327 402
#     4  11  24  43  66  94 128 176 215 264 332 407
#     4  10  23  40  62  92 133 174 216 269 332 398
#     4  11  22  41  68  92 125 169 221 271 322 395
#     4  11  24  44  68  95 127 172 225 279 328 389
#     4  11  23  40  65  96 133 176 215 264 337 399
#
# _framework density 21.182307000000002
#
# number of rings (size 3 to 8) (size 9 to 14) (size 15 to 20)
#    0.000    1.143    1.429    6.429    4.000    2.857 
#    0.000    3.571    0.000    0.000    0.000    0.000 
#    0.000    0.000    0.000    0.000    0.000    0.000 
#
# Total GULP energy -156305.376156 kJ/mol
# GULP energy per Si atom -5582.334863 kJ/mol
# Density = 2.113410 g / cm^3
# Si number density = 21.182307 Si / 1000 Ang^3
#
#
#
# Elastic Constant Matrix: (Units=GPa)
#
#
# Indices 1 2 3 4 5 6 
#
# 1 85.6722 24.2922 25.3663 0.0000 13.5037 0.0000
# 2 24.2922 88.2732 24.5712 0.0000 5.3420 0.0000
# 3 25.3663 24.5712 103.1235 0.0000 -2.7956 0.0000
# 4 0.0000 0.0000 0.0000 103.7049 0.0000 50.3996
# 5 13.5037 5.3420 -2.7956 0.0000 38.1974 0.0000
# 6 0.0000 0.0000 0.0000 50.3996 0.0000 4.1085
#
#
#
# Elastic Compliance Matrix: (Units=1/GPa)
#
#
# Indices 1 2 3 4 5 6 
#
# 1 0.014084 -0.002768 -0.002935 0.000000 -0.004807 0.000000
# 2 -0.002768 0.012818 -0.002400 0.000000 -0.000990 0.000000
# 3 -0.002935 -0.002400 0.011050 0.000000 0.002182 0.000000
# 4 0.000000 0.000000 0.000000 -0.001943 0.000000 0.023840
# 5 -0.004807 -0.000990 0.002182 0.000000 0.028177 0.000000
# 6 0.000000 0.000000 0.000000 0.023840 0.000000 -0.049055
#
#
# Mechanical properties :
#
#
# Convention : Reuss Voigt Hill
#
# Bulk Modulus (GPa) = 45.98594 47.28093 46.63344
# Shear Modulus (GPa) = 129.58079 42.72477 86.15278
#
# Velocity S-wave (km/s) = 7.82987 4.49598 6.38438
# Velocity P-wave (km/s) = 10.17346 7.02290 8.74129
#
# Compressibility (1/GPa) = 0.02174578
#
# Stress axis : x y z
#
# Youngs Moduli (GPa) = 71.00295 78.01426 90.49652
#
# Poissons Ratio (x) = 0.21594 0.26562
# Poissons Ratio (y) = 0.19653 0.21721
# Poissons Ratio (z) = 0.20841 0.18725
#
# Static dielectric constant tensor:
#      x y z
#    x 1.731060 0.000000 -0.004070 
#    y 0.000000 1.786200 0.000000 
#    z -0.004070 0.000000 1.811000 
# 
# From -- ./inp_files/63870.got.cif
#   From: 2010.05.17/outbox.cif.g08.bks.cpg/sg11_32_cif.got.tgz:63870.got - 2010.06.03 12:22:45.
