data_PCOD9166554
_publ_section_title
;
Structure prediction by ZEFSAII (Michael W. Deem and Ramdas Pophale) SiO2 
 PCOD9166554
Probable space group: P 21/M
;
_chemical_formula_sum "Si O2"
_cell_formula_units_Z 18
_cell_length_a 6.974542
_cell_length_b 8.543110
_cell_length_c 19.748410
_cell_angle_alpha 90.000000
_cell_angle_beta 39.064926
_cell_angle_gamma 90.000000
_cell_volume 741.553789
_symmetry_space_group_name_H-M "P 21/M"
_symmetry_group_IT_number 11
_symmetry_cell_setting 'monoclinic'
loop_
_space_group_symop_operation_xyz
x,y,z
-x,1/2+y,-z
-x,-y,-z
x,1/2-y,z
loop_
_atom_site_type_symbol
_atom_site_label
_atom_site_fract_x
_atom_site_fract_y
_atom_site_fract_z
Si Si1 0.333926 0.750000 0.074726
Si Si2 0.024769 0.750000 0.876230
Si Si3 0.568561 0.073477 0.408808
Si Si4 0.434841 0.434073 0.729772
Si Si5 0.269108 0.996464 0.210596
Si Si6 0.234079 0.750000 0.955988
O O1 0.272903 0.610073 0.142760
O O2 0.676136 0.750000 0.949211
O O3 0.145206 0.750000 0.057320
O O4 0.206136 0.588099 0.807612
O O5 0.972718 0.750000 0.972241
O O6 0.455258 0.250000 0.437549
O O7 0.936969 0.071689 0.302766
O O8 0.500000 0.000000 0.500000
O O9 0.443064 0.982616 0.377819
O O10 0.349372 0.250000 0.742959
O O11 0.657557 0.432676 0.734115
O O12 0.555295 0.105264 0.118584
#
# Coordination Sequence:
#
# PCOD9166554 Si02
#       6
#     2   2   4   4   4   2
#     4  12  24  42  66 103 143 189 241 288 346 412
#     4  10  24  44  67 104 144 192 243 284 349 412
#     4  12  27  48  77 106 137 183 236 298 365 427
#     4  11  24  47  74 104 147 190 234 294 352 422
#     4  11  25  46  67 102 145 185 235 291 354 414
#     4  10  22  42  69  95 139 191 230 288 337 408
#
# _framework density 24.273358000000002
#
# number of rings (size 3 to 8) (size 9 to 14) (size 15 to 20)
#    0.000    0.889    3.333    2.667    3.111    6.222 
#    2.000    0.000    0.000    0.000    0.000    0.000 
#    0.000    0.000    0.000    0.000    0.000    0.000 
#
# Total GULP energy -100483.813624 kJ/mol
# GULP energy per Si atom -5582.434090 kJ/mol
# Density = 2.421811 g / cm^3
# Si number density = 24.273358 Si / 1000 Ang^3
#
#
#
# Elastic Constant Matrix: (Units=GPa)
#
#
# Indices 1 2 3 4 5 6 
#
# 1 96.7245 34.3756 52.9774 0.0000 63.3043 0.0000
# 2 34.3756 158.7322 30.8249 0.0000 31.4933 0.0000
# 3 52.9774 30.8249 88.0500 0.0000 56.4568 0.0000
# 4 0.0000 0.0000 0.0000 -219.0826 0.0000 89.2744
# 5 63.3043 31.4933 56.4568 0.0000 62.8994 0.0000
# 6 0.0000 0.0000 0.0000 89.2744 0.0000 10.3851
#
#
#
# Elastic Compliance Matrix: (Units=1/GPa)
#
#
# Indices 1 2 3 4 5 6 
#
# 1 0.030715 -0.000633 0.003201 0.000000 -0.033470 0.000000
# 2 -0.000633 0.007016 -0.000545 0.000000 -0.002387 0.000000
# 3 0.003201 -0.000545 0.027122 0.000000 -0.027293 0.000000
# 4 0.000000 0.000000 0.000000 -0.001014 0.000000 0.008714
# 5 -0.033470 -0.002387 -0.027293 0.000000 0.075276 0.000000
# 6 0.000000 0.000000 0.000000 0.008714 0.000000 0.021384
#
#
# Mechanical properties :
#
#
# Convention : Reuss Voigt Hill
#
# Bulk Modulus (GPa) = 14.51377 64.42916 39.47147
# Shear Modulus (GPa) = 27.86756 -14.13770 6.86493
#
# Velocity S-wave (km/s) = 3.39200 -2.41599 1.68354
# Velocity P-wave (km/s) = 4.61878 4.33798 4.48058
#
# Compressibility (1/GPa) = 0.06890010
#
# Stress axis : x y z
#
# Youngs Moduli (GPa) = 32.55689 142.52324 36.87085
#
# Poissons Ratio (x) = 0.09021 -0.11804
# Poissons Ratio (y) = 0.02061 0.02010
# Poissons Ratio (z) = -0.10423 0.07770
#
# Static dielectric constant tensor:
#      x y z
#    x 1.951060 0.000000 0.000120 
#    y 0.000000 2.032180 0.000000 
#    z 0.000120 0.000000 1.890620 
# 
# From -- ./inp_files/63031.got.cif
#   From: 2010.05.17/outbox.cif.g08.bks.cpg/sg11_32_cif.got.tgz:63031.got - 2010.06.03 12:22:45.
