data_PCOD9166234
_publ_section_title
;
Structure prediction by ZEFSAII (Michael W. Deem and Ramdas Pophale) SiO2 
 PCOD9166234
Probable space group: P 21/M
;
_chemical_formula_sum "Si O2"
_cell_formula_units_Z 26
_cell_length_a 12.142040
_cell_length_b 21.547211
_cell_length_c 6.834628
_cell_angle_alpha 90.000000
_cell_angle_beta 53.430680
_cell_angle_gamma 90.000000
_cell_volume 1436.107774
_symmetry_space_group_name_H-M "P 21/M"
_symmetry_group_IT_number 11
_symmetry_cell_setting 'monoclinic'
loop_
_space_group_symop_operation_xyz
x,y,z
-x,1/2+y,-z
-x,-y,-z
x,1/2-y,z
loop_
_atom_site_type_symbol
_atom_site_label
_atom_site_fract_x
_atom_site_fract_y
_atom_site_fract_z
Si Si1 0.483076 0.648265 0.921283
Si Si2 0.608211 0.250000 0.698466
Si Si3 0.749361 0.577877 0.551703
Si Si4 0.997543 0.884143 0.558061
Si Si5 0.664280 0.250000 0.181187
Si Si6 0.126587 0.464237 0.971878
Si Si7 0.890623 0.250000 0.639853
Si Si8 0.267676 0.960328 0.167704
O O1 0.468253 0.688971 0.135424
O O2 0.395575 0.585341 0.018933
O O3 0.638113 0.630964 0.707120
O O4 0.411295 0.690851 0.833455
O O5 0.639137 0.250000 0.437535
O O6 0.755424 0.250000 0.648523
O O7 0.776081 0.562734 0.298566
O O8 0.702603 0.516111 0.715268
O O9 0.893833 0.595008 0.498022
O O10 0.026180 0.811702 0.499180
O O11 0.140645 0.920024 0.382490
O O12 0.932551 0.909226 0.828482
O O13 0.821032 0.250000 0.931491
O O14 0.212184 0.509740 0.024303
O O15 0.000000 0.500000 0.000000
#
# Coordination Sequence:
#
# PCOD9166234 Si02
#       8
#     4   2   4   4   2   4   2   4
#     4  10  23  41  59  89 123 153 200 249 297 353
#     4  10  22  41  64  82 116 162 194 243 301 346
#     4  11  23  38  59  89 123 158 194 246 303 355
#     4  11  21  39  61  87 121 156 200 245 300 353
#     4  10  22  39  63  85 117 157 201 246 297 358
#     4  11  21  35  62  90 121 160 193 245 303 349
#     4  10  22  40  61  91 115 153 205 255 288 354
#     4  11  20  38  62  87 120 157 197 245 298 362
#
# _framework density 18.104492
#
# number of rings (size 3 to 8) (size 9 to 14) (size 15 to 20)
#    0.000    1.538    6.154    1.385    0.000    8.000 
#    0.000    1.538    0.000    0.000    0.000    0.000 
#    0.000    0.000    0.000    0.000    0.000    0.000 
#
# Total GULP energy -145094.995567 kJ/mol
# GULP energy per Si atom -5580.576753 kJ/mol
# Density = 1.806329 g / cm^3
# Si number density = 18.104492 Si / 1000 Ang^3
#
#
#
# Elastic Constant Matrix: (Units=GPa)
#
#
# Indices 1 2 3 4 5 6 
#
# 1 19.7770 6.8773 23.8166 0.0000 -0.2781 0.0000
# 2 6.8773 106.2550 41.2780 0.0000 6.5590 0.0000
# 3 23.8166 41.2780 110.4496 0.0000 29.4487 0.0000
# 4 0.0000 0.0000 0.0000 112.6903 0.0000 -166.9718
# 5 -0.2781 6.5590 29.4487 0.0000 27.8091 0.0000
# 6 0.0000 0.0000 0.0000 -166.9718 0.0000 288.7720
#
#
#
# Elastic Compliance Matrix: (Units=1/GPa)
#
#
# Indices 1 2 3 4 5 6 
#
# 1 0.081277 0.003167 -0.026095 0.000000 0.027700 0.000000
# 2 0.003167 0.011255 -0.005838 0.000000 0.003560 0.000000
# 3 -0.026095 -0.005838 0.023082 0.000000 -0.023327 0.000000
# 4 0.000000 0.000000 0.000000 0.061939 0.000000 0.035814
# 5 0.027700 0.003560 -0.023327 0.000000 0.060100 0.000000
# 6 0.000000 0.000000 0.000000 0.035814 0.000000 0.024171
#
#
# Mechanical properties :
#
#
# Convention : Reuss Voigt Hill
#
# Bulk Modulus (GPa) = 17.21707 42.26949 29.74328
# Shear Modulus (GPa) = 14.76157 96.82157 55.79157
#
# Velocity S-wave (km/s) = 2.85854 7.32089 5.55728
# Velocity P-wave (km/s) = 4.51945 9.73955 7.59224
#
# Compressibility (1/GPa) = 0.05808191
#
# Stress axis : x y z
#
# Youngs Moduli (GPa) = 12.30353 88.85246 43.32304
#
# Poissons Ratio (x) = -0.28139 1.13052
# Poissons Ratio (y) = -0.03896 0.25292
# Poissons Ratio (z) = 0.32106 0.51873
#
# Static dielectric constant tensor:
#      x y z
#    x 1.595470 0.000000 -0.000880 
#    y 0.000000 1.640790 0.000000 
#    z -0.000880 0.000000 1.623510 
# 
# From -- ./inp_files/5007.got.cif
#   From: 2010.05.17/outbox.cif.g08.bks.cpg/sg11_3_cif.got.tgz:5007.got - 2010.06.03 12:22:45.
