data_PCOD9166204
_publ_section_title
;
Structure prediction by ZEFSAII (Michael W. Deem and Ramdas Pophale) SiO2 
 PCOD9166204
Probable space group: P 21/M
;
_chemical_formula_sum "Si O2"
_cell_formula_units_Z 24
_cell_length_a 13.382807
_cell_length_b 13.821609
_cell_length_c 10.630917
_cell_angle_alpha 90.000000
_cell_angle_beta 151.161089
_cell_angle_gamma 90.000000
_cell_volume 948.500674
_symmetry_space_group_name_H-M "P 21/M"
_symmetry_group_IT_number 11
_symmetry_cell_setting 'monoclinic'
loop_
_space_group_symop_operation_xyz
x,y,z
-x,1/2+y,-z
-x,-y,-z
x,1/2-y,z
loop_
_atom_site_type_symbol
_atom_site_label
_atom_site_fract_x
_atom_site_fract_y
_atom_site_fract_z
Si Si1 0.836901 0.003780 0.071583
Si Si2 0.448266 0.136461 0.382700
Si Si3 0.849628 0.360197 0.707313
Si Si4 0.555379 0.355348 0.138261
Si Si5 0.457544 0.134999 0.672296
Si Si6 0.223474 0.042487 0.655899
O O1 0.989951 0.019716 0.358855
O O2 0.695365 0.099823 0.924523
O O3 0.000292 0.949452 0.156191
O O4 0.653312 0.927898 0.836918
O O5 0.416453 0.250000 0.322634
O O6 0.696952 0.121487 0.654933
O O7 0.368338 0.112641 0.434076
O O8 0.941059 0.250000 0.818345
O O9 0.685228 0.353588 0.410464
O O10 0.579669 0.250000 0.107740
O O11 0.670936 0.440722 0.194483
O O12 0.311623 0.383196 0.857979
O O13 0.444753 0.250000 0.673465
O O14 0.330230 0.083789 0.643695
#
# Coordination Sequence:
#
# PCOD9166204 Si02
#       6
#     4   4   4   4   4   4
#     4  11  21  37  61  88 115 152 200 244 291 351
#     4  10  22  40  61  88 123 158 195 244 300 358
#     4   9  19  37  61  89 119 152 194 243 295 353
#     4   9  18  37  62  86 118 158 196 242 300 356
#     4  11  25  41  57  84 123 163 201 246 300 355
#     4  10  22  39  61  88 120 158 200 247 301 356
#
# _framework density 25.303091999999999
#
# number of rings (size 3 to 8) (size 9 to 14) (size 15 to 20)
#    0.000    2.000    0.000    3.500    0.000    4.667 
#    0.000   17.500    0.000   14.000    0.000    0.000 
#    0.000    0.000    0.000    0.000    0.000    0.000 
#
# Total GULP energy -133715.382791 kJ/mol
# GULP energy per Si atom -5571.474283 kJ/mol
# Density = 2.524550 g / cm^3
# Si number density = 25.303092 Si / 1000 Ang^3
#
#
#
# Elastic Constant Matrix: (Units=GPa)
#
#
# Indices 1 2 3 4 5 6 
#
# 1 96.2895 25.7877 19.4646 0.0000 -7.3707 0.0000
# 2 25.7877 155.4078 31.9877 0.0000 10.8795 0.0000
# 3 19.4646 31.9877 111.9838 0.0000 7.8976 0.0000
# 4 0.0000 0.0000 0.0000 0.9070 0.0000 9.0105
# 5 -7.3707 10.8795 7.8976 0.0000 46.9168 0.0000
# 6 0.0000 0.0000 0.0000 9.0105 0.0000 19.3035
#
#
#
# Elastic Compliance Matrix: (Units=1/GPa)
#
#
# Indices 1 2 3 4 5 6 
#
# 1 0.011369 -0.001718 -0.001659 0.000000 0.002464 0.000000
# 2 -0.001718 0.007172 -0.001633 0.000000 -0.001658 0.000000
# 3 -0.001659 -0.001633 0.009793 0.000000 -0.001530 0.000000
# 4 0.000000 0.000000 0.000000 -0.303126 0.000000 0.141493
# 5 0.002464 -0.001658 -0.001530 0.000000 0.022343 0.000000
# 6 0.000000 0.000000 0.000000 0.141493 0.000000 -0.014242
#
#
# Mechanical properties :
#
#
# Convention : Reuss Voigt Hill
#
# Bulk Modulus (GPa) = 54.60319 57.57347 56.08833
# Shear Modulus (GPa) = -19.95485 32.52151 6.28333
#
# Velocity S-wave (km/s) = -2.81131 3.58897 1.57753
# Velocity P-wave (km/s) = 3.32995 6.32275 5.05301
#
# Compressibility (1/GPa) = 0.01831395
#
# Stress axis : x y z
#
# Youngs Moduli (GPa) = 87.95579 139.43295 102.11670
#
# Poissons Ratio (x) = 0.23948 0.16945
# Poissons Ratio (y) = 0.15107 0.16677
# Poissons Ratio (z) = 0.14595 0.22772
#
# Static dielectric constant tensor:
#      x y z
#    x 2.112960 0.000000 -0.016190 
#    y 0.000000 1.964070 0.000000 
#    z -0.016190 0.000000 2.041720 
# 
# From -- ./inp_files/39725.got.cif
#   From: 2010.05.17/outbox.cif.g08.bks.cpg/sg11_20_cif.got.tgz:39725.got - 2010.06.03 12:22:45.
