data_PCOD9166848
_publ_section_title
;
Structure prediction by ZEFSAII (Michael W. Deem and Ramdas Pophale) SiO2 
 PCOD9166848
Probable space group: P 21/M
;
_chemical_formula_sum "Si O2"
_cell_formula_units_Z 24
_cell_length_a 5.215725
_cell_length_b 16.692487
_cell_length_c 11.801700
_cell_angle_alpha 90.000000
_cell_angle_beta 94.253861
_cell_angle_gamma 90.000000
_cell_volume 1024.665826
_symmetry_space_group_name_H-M "P 21/M"
_symmetry_group_IT_number 11
_symmetry_cell_setting 'monoclinic'
loop_
_space_group_symop_operation_xyz
x,y,z
-x,1/2+y,-z
-x,-y,-z
x,1/2-y,z
loop_
_atom_site_type_symbol
_atom_site_label
_atom_site_fract_x
_atom_site_fract_y
_atom_site_fract_z
Si Si1 0.840341 0.092272 0.111289
Si Si2 0.645741 0.154455 0.795340
Si Si3 0.007548 0.903291 0.630813
Si Si4 0.233218 0.250000 0.297610
Si Si5 0.823158 0.908367 0.074581
Si Si6 0.696153 0.250000 0.143975
Si Si7 0.696896 0.441428 0.570755
O O1 0.673673 0.169181 0.071902
O O2 0.839274 0.097377 0.246767
O O3 0.112735 0.105962 0.056342
O O4 0.761294 0.002963 0.078936
O O5 0.686901 0.250000 0.786670
O O6 0.901296 0.112910 0.857485
O O7 0.602117 0.112302 0.671268
O O8 0.394084 0.136468 0.862183
O O9 0.800627 0.832061 0.633956
O O10 0.170527 0.889988 0.523459
O O11 0.897743 0.992911 0.623518
O O12 0.493181 0.250000 0.237152
O O13 0.987515 0.250000 0.203635
O O14 0.500000 0.500000 0.500000
#
# Coordination Sequence:
#
# PCOD9166848 Si02
#       7
#     4   4   4   2   4   2   4
#     4  10  23  46  74 106 145 186 245 296 378 425
#     4  12  28  49  75 106 149 193 249 294 367 443
#     4  10  23  45  67 102 140 179 239 298 361 428
#     4  10  24  40  66 100 135 177 228 290 359 415
#     4  11  26  47  76 105 143 196 238 304 360 451
#     4  10  24  38  68 102 141 181 226 304 349 435
#     4  11  25  45  74 100 142 196 237 306 358 432
#
# _framework density 23.422270999999999
#
# number of rings (size 3 to 8) (size 9 to 14) (size 15 to 20)
#    0.000    1.333    1.667    1.500   12.833    5.333 
#    1.500    0.000    0.000    0.000    0.000    0.000 
#    0.000    0.000    0.000    0.000    0.000    0.000 
#
# Total GULP energy -134118.841752 kJ/mol
# GULP energy per Si atom -5588.285073 kJ/mol
# Density = 2.336896 g / cm^3
# Si number density = 23.422271 Si / 1000 Ang^3
#
#
#
# Elastic Constant Matrix: (Units=GPa)
#
#
# Indices 1 2 3 4 5 6 
#
# 1 94.5307 39.6207 40.9716 0.0000 -13.2436 0.0000
# 2 39.6207 149.6958 56.9216 0.0000 -29.3145 0.0000
# 3 40.9716 56.9216 126.6393 0.0000 -25.1776 0.0000
# 4 0.0000 0.0000 0.0000 24.3437 0.0000 -27.0024
# 5 -13.2436 -29.3145 -25.1776 0.0000 36.4030 0.0000
# 6 0.0000 0.0000 0.0000 -27.0024 0.0000 24.6885
#
#
#
# Elastic Compliance Matrix: (Units=1/GPa)
#
#
# Indices 1 2 3 4 5 6 
#
# 1 0.012902 -0.002073 -0.003062 0.000000 0.000907 0.000000
# 2 -0.002073 0.009121 -0.002456 0.000000 0.004892 0.000000
# 3 -0.003062 -0.002456 0.010871 0.000000 0.004427 0.000000
# 4 0.000000 0.000000 0.000000 -0.192694 0.000000 -0.210754
# 5 0.000907 0.004892 0.004427 0.000000 0.034801 0.000000
# 6 0.000000 0.000000 0.000000 -0.210754 0.000000 -0.190003
#
#
# Mechanical properties :
#
#
# Convention : Reuss Voigt Hill
#
# Bulk Modulus (GPa) = 56.46209 71.76596 64.11403
# Shear Modulus (GPa) = -17.01168 32.64383 7.81607
#
# Velocity S-wave (km/s) = -2.69793 3.73729 1.82873
# Velocity P-wave (km/s) = 3.80176 7.02351 5.64726
#
# Compressibility (1/GPa) = 0.01771100
#
# Stress axis : x y z
#
# Youngs Moduli (GPa) = 77.51008 109.63913 91.98468
#
# Poissons Ratio (x) = 0.22726 0.28167
# Poissons Ratio (y) = 0.16066 0.22596
# Poissons Ratio (z) = 0.23734 0.26932
#
# Static dielectric constant tensor:
#      x y z
#    x 1.923850 0.000000 0.070960 
#    y 0.000000 1.962110 0.000000 
#    z 0.070960 0.000000 1.944960 
# 
# From -- ./inp_files/29788.got.cif
#   From: 2010.05.17/outbox.cif.g08.bks.cpg/sg11_15_cif.got.tgz:29788.got - 2010.06.03 12:22:45.
