data_PCOD9166220
_publ_section_title
;
Structure prediction by ZEFSAII (Michael W. Deem and Ramdas Pophale) SiO2 
 PCOD9166220
Probable space group: P 21/M
;
_chemical_formula_sum "Si O2"
_cell_formula_units_Z 20
_cell_length_a 9.675451
_cell_length_b 11.576986
_cell_length_c 9.675494
_cell_angle_alpha 90.000000
_cell_angle_beta 132.353876
_cell_angle_gamma 90.000000
_cell_volume 800.908851
_symmetry_space_group_name_H-M "P 21/M"
_symmetry_group_IT_number 11
_symmetry_cell_setting 'monoclinic'
loop_
_space_group_symop_operation_xyz
x,y,z
-x,1/2+y,-z
-x,-y,-z
x,1/2-y,z
loop_
_atom_site_type_symbol
_atom_site_label
_atom_site_fract_x
_atom_site_fract_y
_atom_site_fract_z
Si Si1 0.522184 0.250000 0.781218
Si Si2 0.839224 0.750000 0.368105
Si Si3 0.631893 0.250000 0.160774
Si Si4 0.383899 0.502726 0.214686
Si Si5 0.196095 0.000000 0.803908
Si Si6 0.785314 0.002725 0.616100
Si Si7 0.781216 0.250000 0.522181
O O1 0.300966 0.250000 0.593136
O O2 0.637625 0.140585 0.812684
O O3 0.501894 0.250000 0.935148
O O4 0.808487 0.617387 0.288599
O O5 0.064851 0.750000 0.498107
O O6 0.711398 0.382613 0.191511
O O7 0.593134 0.250000 0.300963
O O8 0.275307 0.456412 0.275307
O O9 0.604153 0.500001 0.395847
O O10 0.304513 0.460831 0.016227
O O11 0.983775 0.960832 0.695491
O O12 0.812680 0.140585 0.637620
#
# Coordination Sequence:
#
# PCOD9166220 Si02
#       7
#     2   2   2   4   4   4   2
#     4  10  23  38  59  89 126 158 205 259 302 368
#     4  10  24  38  63  93 123 166 201 255 312 358
#     4  10  24  38  63  93 123 166 201 255 312 358
#     4  10  22  39  62  88 120 162 206 256 307 362
#     4  10  23  42  62  94 123 162 208 252 308 364
#     4  10  22  39  62  88 120 162 206 256 307 362
#     4  10  23  38  59  89 126 158 205 259 302 368
#
# _framework density 24.971630000000001
#
# number of rings (size 3 to 8) (size 9 to 14) (size 15 to 20)
#    0.000    2.000    0.000    1.200    8.400    3.200 
#    0.000    5.000    0.000    0.000    0.000    0.000 
#    0.000    0.000    0.000    0.000    0.000    0.000 
#
# Total GULP energy -111346.836836 kJ/mol
# GULP energy per Si atom -5567.341842 kJ/mol
# Density = 2.491479 g / cm^3
# Si number density = 24.971630 Si / 1000 Ang^3
#
#
#
# Elastic Constant Matrix: (Units=GPa)
#
#
# Indices 1 2 3 4 5 6 
#
# 1 104.8530 0.7529 33.3917 0.0000 -4.0045 0.0000
# 2 0.7529 80.4696 7.8618 0.0000 2.9835 0.0000
# 3 33.3917 7.8618 69.3066 0.0000 -10.9080 0.0000
# 4 0.0000 0.0000 0.0000 23.7180 0.0000 7.9225
# 5 -4.0045 2.9835 -10.9080 0.0000 28.0626 0.0000
# 6 0.0000 0.0000 0.0000 7.9225 0.0000 4.8361
#
#
#
# Elastic Compliance Matrix: (Units=1/GPa)
#
#
# Indices 1 2 3 4 5 6 
#
# 1 0.011290 0.000463 -0.005588 0.000000 -0.000610 0.000000
# 2 0.000463 0.012693 -0.001986 0.000000 -0.002056 0.000000
# 3 -0.005588 -0.001986 0.018378 0.000000 0.006557 0.000000
# 4 0.000000 0.000000 0.000000 0.093116 0.000000 -0.152543
# 5 -0.000610 -0.002056 0.006557 0.000000 0.038315 0.000000
# 6 0.000000 0.000000 0.000000 -0.152543 0.000000 0.456673
#
#
# Mechanical properties :
#
#
# Convention : Reuss Voigt Hill
#
# Bulk Modulus (GPa) = 35.53865 37.62690 36.58278
# Shear Modulus (GPa) = 7.64447 25.49818 16.57133
#
# Velocity S-wave (km/s) = 1.75154 3.19891 2.57885
# Velocity P-wave (km/s) = 4.28405 5.36140 4.85271
#
# Compressibility (1/GPa) = 0.02813838
#
# Stress axis : x y z
#
# Youngs Moduli (GPa) = 88.57291 78.78361 54.41177
#
# Poissons Ratio (x) = -0.03647 0.30406
# Poissons Ratio (y) = -0.04100 0.10808
# Poissons Ratio (z) = 0.49496 0.15650
#
# Static dielectric constant tensor:
#      x y z
#    x 1.994970 0.000000 0.046250 
#    y 0.000000 2.004860 0.000000 
#    z 0.046250 0.000000 2.105200 
# 
# From -- ./inp_files/16625.got.cif
#   From: 2010.05.17/outbox.cif.g08.bks.cpg/sg11_9_cif.got.tgz:16625.got - 2010.06.03 12:22:45.
