data_PCOD9166151
_publ_section_title
;
Structure prediction by ZEFSAII (Michael W. Deem and Ramdas Pophale) SiO2 
 PCOD9166151
Probable space group: P 21/M
;
_chemical_formula_sum "Si O2"
_cell_formula_units_Z 20
_cell_length_a 13.491168
_cell_length_b 9.902721
_cell_length_c 6.696666
_cell_angle_alpha 90.000000
_cell_angle_beta 108.974158
_cell_angle_gamma 90.000000
_cell_volume 846.058114
_symmetry_space_group_name_H-M "P 21/M"
_symmetry_group_IT_number 11
_symmetry_cell_setting 'monoclinic'
loop_
_space_group_symop_operation_xyz
x,y,z
-x,1/2+y,-z
-x,-y,-z
x,1/2-y,z
loop_
_atom_site_type_symbol
_atom_site_label
_atom_site_fract_x
_atom_site_fract_y
_atom_site_fract_z
Si Si1 0.625146 0.542470 0.230283
Si Si2 0.132347 0.750000 0.101938
Si Si3 0.842396 0.012548 0.602596
Si Si4 0.902896 0.750000 0.869255
Si Si5 0.523436 0.750000 0.446254
Si Si6 0.377934 0.750000 0.702074
Si Si7 0.132045 0.750000 0.630304
Si Si8 0.321263 0.250000 0.074826
O O1 0.734836 0.534510 0.426705
O O2 0.545184 0.622456 0.319701
O O3 0.586624 0.389559 0.175636
O O4 0.652040 0.622201 0.047253
O O5 0.134442 0.750000 0.866793
O O6 0.007940 0.750000 0.066837
O O7 0.179432 0.614269 0.226516
O O8 0.905728 0.109979 0.491463
O O9 0.899546 0.882367 0.727639
O O10 0.799041 0.750000 0.935837
O O11 0.415956 0.750000 0.498214
O O12 0.608894 0.750000 0.680713
O O13 0.253736 0.750000 0.642222
#
# Coordination Sequence:
#
# PCOD9166151 Si02
#       8
#     4   2   4   2   2   2   2   2
#     4  10  22  43  64  92 129 169 212 259 319 376
#     4  11  25  44  65  94 129 162 218 259 318 382
#     4  10  22  44  62  93 124 167 208 260 317 370
#     4  12  23  42  66  95 127 171 210 265 312 372
#     4  11  21  42  65  95 128 163 214 263 318 375
#     4  10  22  38  67  94 126 168 208 264 319 369
#     4   9  23  43  63  92 130 165 208 260 315 378
#     4  11  24  41  64  92 130 167 218 259 312 376
#
# _framework density 23.639037999999999
#
# number of rings (size 3 to 8) (size 9 to 14) (size 15 to 20)
#    0.000    1.600    2.000    2.400    5.600    1.600 
#    7.200    9.000    0.000    0.000    0.000    0.000 
#    0.000    0.000    0.000    0.000    0.000    0.000 
#
# Total GULP energy -111905.241751 kJ/mol
# GULP energy per Si atom -5595.262088 kJ/mol
# Density = 2.358523 g / cm^3
# Si number density = 23.639038 Si / 1000 Ang^3
#
#
#
# Elastic Constant Matrix: (Units=GPa)
#
#
# Indices 1 2 3 4 5 6 
#
# 1 104.2003 9.0110 30.9146 0.0000 -4.4013 0.0000
# 2 9.0110 194.2014 59.5920 0.0000 -17.2168 0.0000
# 3 30.9146 59.5920 145.3652 0.0000 -18.1863 0.0000
# 4 0.0000 0.0000 0.0000 13.0444 0.0000 -7.3705
# 5 -4.4013 -17.2168 -18.1863 0.0000 46.1440 0.0000
# 6 0.0000 0.0000 0.0000 -7.3705 0.0000 9.9224
#
#
#
# Elastic Compliance Matrix: (Units=1/GPa)
#
#
# Indices 1 2 3 4 5 6 
#
# 1 0.010253 0.000231 -0.002253 0.000000 0.000176 0.000000
# 2 0.000231 0.005972 -0.002331 0.000000 0.001332 0.000000
# 3 -0.002253 -0.002331 0.008602 0.000000 0.002306 0.000000
# 4 0.000000 0.000000 0.000000 0.132111 0.000000 0.098134
# 5 0.000176 0.001332 0.002306 0.000000 0.023094 0.000000
# 6 0.000000 0.000000 0.000000 0.098134 0.000000 0.173677
#
#
# Mechanical properties :
#
#
# Convention : Reuss Voigt Hill
#
# Bulk Modulus (GPa) = 62.02812 71.42247 66.72530
# Shear Modulus (GPa) = 13.59481 36.77212 25.18346
#
# Velocity S-wave (km/s) = 2.40073 3.94835 3.26749
# Velocity P-wave (km/s) = 5.82935 7.14600 6.52099
#
# Compressibility (1/GPa) = 0.01612172
#
# Stress axis : x y z
#
# Youngs Moduli (GPa) = 97.53395 167.45334 116.24707
#
# Poissons Ratio (x) = -0.03873 0.26193
# Poissons Ratio (y) = -0.02256 0.27094
# Poissons Ratio (z) = 0.21977 0.39029
#
# Static dielectric constant tensor:
#      x y z
#    x 1.900570 0.000000 0.011760 
#    y 0.000000 1.937830 0.000000 
#    z 0.011760 0.000000 1.861310 
# 
# From -- ./inp_files/6098.got.cif
#   From: 2010.05.17/outbox.cif.g08.bks.cpg/sg11_4_cif.got.tgz:6098.got - 2010.06.03 12:22:45.
