data_PCOD9166597
_publ_section_title
;
Structure prediction by ZEFSAII (Michael W. Deem and Ramdas Pophale) SiO2 
 PCOD9166597
Probable space group: P 21/M
;
_chemical_formula_sum "Si O2"
_cell_formula_units_Z 24
_cell_length_a 14.784410
_cell_length_b 16.776331
_cell_length_c 7.981031
_cell_angle_alpha 90.000000
_cell_angle_beta 143.271980
_cell_angle_gamma 90.000000
_cell_volume 1183.787201
_symmetry_space_group_name_H-M "P 21/M"
_symmetry_group_IT_number 11
_symmetry_cell_setting 'monoclinic'
loop_
_space_group_symop_operation_xyz
x,y,z
-x,1/2+y,-z
-x,-y,-z
x,1/2-y,z
loop_
_atom_site_type_symbol
_atom_site_label
_atom_site_fract_x
_atom_site_fract_y
_atom_site_fract_z
Si Si1 0.250367 0.417898 0.027642
Si Si2 0.942343 0.250000 0.904947
Si Si3 0.329320 0.250000 0.999137
Si Si4 0.721357 0.750000 0.469742
Si Si5 0.951186 0.065898 0.785614
Si Si6 0.655309 0.476336 0.140674
Si Si7 0.477455 0.376039 0.626119
Si Si8 0.624991 0.250000 0.603865
O O1 0.266251 0.324799 0.008483
O O2 0.372496 0.434535 0.357736
O O3 0.290443 0.458634 0.912493
O O4 0.085133 0.439355 0.847773
O O5 0.939683 0.161017 0.814912
O O6 0.797152 0.250000 0.809205
O O7 0.102882 0.250000 0.232227
O O8 0.512008 0.250000 0.278567
O O9 0.292849 0.250000 0.750464
O O10 0.640979 0.824593 0.440814
O O11 0.789133 0.042018 0.467889
O O12 0.000000 0.000000 0.000000
O O13 0.500000 0.500000 0.000000
O O14 0.601550 0.405865 0.940114
O O15 0.571857 0.324863 0.633494
#
# Coordination Sequence:
#
# PCOD9166597 Si02
#       8
#     4   2   2   2   4   4   4   2
#     4  11  23  46  69 100 147 189 235 300 364 427
#     4  12  27  45  75  99 144 190 240 293 361 418
#     4  10  23  40  76 100 139 185 250 290 363 428
#     4  11  22  43  71 100 141 186 238 295 362 432
#     4  12  29  48  73 106 150 191 248 297 363 439
#     4  12  27  42  72 106 140 191 240 303 364 429
#     4  10  22  43  68 101 139 184 240 293 362 428
#     4   9  24  40  68 103 136 185 234 306 354 424
#
# _framework density 20.273914000000001
#
# number of rings (size 3 to 8) (size 9 to 14) (size 15 to 20)
#    0.000    1.000    1.667    4.000   11.667    2.000 
#    0.000    0.000    0.000    0.000    0.000    0.000 
#    0.000    0.000    0.000    0.000    0.000    0.000 
#
# Total GULP energy -133923.145938 kJ/mol
# GULP energy per Si atom -5580.131081 kJ/mol
# Density = 2.022777 g / cm^3
# Si number density = 20.273914 Si / 1000 Ang^3
#
#
#
# Elastic Constant Matrix: (Units=GPa)
#
#
# Indices 1 2 3 4 5 6 
#
# 1 125.5868 43.6299 62.9818 0.0000 20.6570 0.0000
# 2 43.6299 78.7708 71.1268 0.0000 -0.0111 0.0000
# 3 62.9818 71.1268 196.8323 0.0000 -1.5687 0.0000
# 4 0.0000 0.0000 0.0000 -90.0596 0.0000 -85.0403
# 5 20.6570 -0.0111 -1.5687 0.0000 49.1728 0.0000
# 6 0.0000 0.0000 0.0000 -85.0403 0.0000 -28.9716
#
#
#
# Elastic Compliance Matrix: (Units=1/GPa)
#
#
# Indices 1 2 3 4 5 6 
#
# 1 0.011324 -0.004403 -0.002071 0.000000 -0.004824 0.000000
# 2 -0.004403 0.020558 -0.006007 0.000000 0.001663 0.000000
# 3 -0.002071 -0.006007 0.007923 0.000000 0.001121 0.000000
# 4 0.000000 0.000000 0.000000 0.006267 0.000000 -0.018396
# 5 -0.004824 0.001663 0.001121 0.000000 0.022399 0.000000
# 6 0.000000 0.000000 0.000000 -0.018396 0.000000 0.019482
#
#
# Mechanical properties :
#
#
# Convention : Reuss Voigt Hill
#
# Bulk Modulus (GPa) = 67.36930 84.07409 75.72169
# Shear Modulus (GPa) = 42.42236 0.92507 21.67372
#
# Velocity S-wave (km/s) = 4.57930 0.67622 3.27317
# Velocity P-wave (km/s) = 7.82699 6.49375 7.19133
#
# Compressibility (1/GPa) = 0.01484356
#
# Stress axis : x y z
#
# Youngs Moduli (GPa) = 88.30504 48.64331 126.22207
#
# Poissons Ratio (x) = 0.21418 0.26139
# Poissons Ratio (y) = 0.38882 0.75816
# Poissons Ratio (z) = 0.18287 0.29218
#
# Static dielectric constant tensor:
#      x y z
#    x 1.754940 0.000000 -0.066610 
#    y 0.000000 1.797770 0.000000 
#    z -0.066610 0.000000 1.732900 
# 
# From -- ./inp_files/22855.got.cif
#   From: 2010.05.17/outbox.cif.g08.bks.cpg/sg11_12_cif.got.tgz:22855.got - 2010.06.03 12:22:45.
