data_PCOD9166820
_publ_section_title
;
Structure prediction by ZEFSAII (Michael W. Deem and Ramdas Pophale) SiO2 
 PCOD9166820
Probable space group: P 21/M
;
_chemical_formula_sum "Si O2"
_cell_formula_units_Z 30
_cell_length_a 5.927177
_cell_length_b 19.518786
_cell_length_c 11.870709
_cell_angle_alpha 90.000000
_cell_angle_beta 89.891481
_cell_angle_gamma 90.000000
_cell_volume 1373.335286
_symmetry_space_group_name_H-M "P 21/M"
_symmetry_group_IT_number 11
_symmetry_cell_setting 'monoclinic'
loop_
_space_group_symop_operation_xyz
x,y,z
-x,1/2+y,-z
-x,-y,-z
x,1/2-y,z
loop_
_atom_site_type_symbol
_atom_site_label
_atom_site_fract_x
_atom_site_fract_y
_atom_site_fract_z
Si Si1 0.092008 0.606081 0.779941
Si Si2 0.949465 0.866360 0.023483
Si Si3 0.669638 0.371090 0.808079
Si Si4 0.135438 0.903947 0.416254
Si Si5 0.644406 0.515735 0.109968
Si Si6 0.390224 0.672879 0.603758
Si Si7 0.235488 0.443498 0.415299
Si Si8 0.351260 0.250000 0.853486
O O1 0.267845 0.551311 0.829195
O O2 0.227163 0.663558 0.711309
O O3 0.937450 0.567350 0.688681
O O4 0.957473 0.633361 0.888420
O O5 0.855200 0.938668 0.068920
O O6 0.787531 0.809530 0.075788
O O7 0.199587 0.857433 0.074899
O O8 0.856634 0.379011 0.711369
O O9 0.521413 0.439375 0.813591
O O10 0.499786 0.309504 0.789176
O O11 0.243561 0.845573 0.493938
O O12 0.894533 0.922334 0.469777
O O13 0.277633 0.975201 0.424397
O O14 0.500000 0.500000 0.000000
O O15 0.482981 0.750000 0.599126
O O16 0.570432 0.611413 0.607135
#
# Coordination Sequence:
#
# PCOD9166820 Si02
#       8
#     4   4   4   4   4   4   4   2
#     4  11  24  41  69 100 138 174 224 277 339 409
#     4  11  24  42  66  98 139 179 224 274 335 407
#     4  11  23  43  68  96 138 178 225 277 341 402
#     4  10  23  43  72  96 133 171 229 289 336 400
#     4  11  23  39  67 105 134 171 223 276 336 398
#     4  11  26  45  67 100 135 179 229 277 343 407
#     4  10  23  44  69 103 130 178 225 283 345 398
#     4  10  26  42  58  94 132 186 232 266 334 398
#
# _framework density 21.844632000000001
#
# number of rings (size 3 to 8) (size 9 to 14) (size 15 to 20)
#    0.000    1.333    1.333    2.800    5.600    6.400 
#    2.400    0.000    0.000    0.000    0.000    0.000 
#    0.000    0.000    0.000    0.000    0.000    0.000 
#
# Total GULP energy -167223.061948 kJ/mol
# GULP energy per Si atom -5574.102065 kJ/mol
# Density = 2.179491 g / cm^3
# Si number density = 21.844632 Si / 1000 Ang^3
#
#
#
# Elastic Constant Matrix: (Units=GPa)
#
#
# Indices 1 2 3 4 5 6 
#
# 1 25.7778 4.7923 17.0745 0.0000 -12.5424 0.0000
# 2 4.7923 95.5636 20.1640 0.0000 -5.1024 0.0000
# 3 17.0745 20.1640 89.3917 0.0000 -24.9928 0.0000
# 4 0.0000 0.0000 0.0000 6.9926 0.0000 -11.1190
# 5 -12.5424 -5.1024 -24.9928 0.0000 34.1221 0.0000
# 6 0.0000 0.0000 0.0000 -11.1190 0.0000 5.1283
#
#
#
# Elastic Compliance Matrix: (Units=1/GPa)
#
#
# Indices 1 2 3 4 5 6 
#
# 1 0.049312 -0.000593 -0.005335 0.000000 0.014130 0.000000
# 2 -0.000593 0.010996 -0.002475 0.000000 -0.000387 0.000000
# 3 -0.005335 -0.002475 0.015231 0.000000 0.008825 0.000000
# 4 0.000000 0.000000 0.000000 -0.058427 0.000000 -0.126680
# 5 0.014130 -0.000387 0.008825 0.000000 0.040907 0.000000
# 6 0.000000 0.000000 0.000000 -0.126680 0.000000 -0.079667
#
#
# Mechanical properties :
#
#
# Convention : Reuss Voigt Hill
#
# Bulk Modulus (GPa) = 17.02606 32.75496 24.89051
# Shear Modulus (GPa) = 339.33845 20.49541 179.91693
#
# Velocity S-wave (km/s) = 12.47714 3.06639 9.08520
# Velocity P-wave (km/s) = 14.67594 5.25015 11.02151
#
# Compressibility (1/GPa) = 0.05873348
#
# Stress axis : x y z
#
# Youngs Moduli (GPa) = 20.27913 90.94571 65.65361
#
# Poissons Ratio (x) = 0.05391 0.35024
# Poissons Ratio (y) = 0.01202 0.16250
# Poissons Ratio (z) = 0.10818 0.22510
#
# Static dielectric constant tensor:
#      x y z
#    x 1.843150 0.000000 -0.001510 
#    y 0.000000 1.756850 0.000000 
#    z -0.001510 0.000000 1.785170 
# 
# From -- ./inp_files/5067.got.cif
#   From: 2010.05.17/outbox.cif.g08.bks.cpg/sg11_3_cif.got.tgz:5067.got - 2010.06.03 12:22:45.
