data_PCOD9166327
_publ_section_title
;
Structure prediction by ZEFSAII (Michael W. Deem and Ramdas Pophale) SiO2 
 PCOD9166327
Probable space group: P 21/M
;
_chemical_formula_sum "Si O2"
_cell_formula_units_Z 28
_cell_length_a 19.484738
_cell_length_b 11.045354
_cell_length_c 11.851084
_cell_angle_alpha 90.000000
_cell_angle_beta 148.496211
_cell_angle_gamma 90.000000
_cell_volume 1332.797752
_symmetry_space_group_name_H-M "P 21/M"
_symmetry_group_IT_number 11
_symmetry_cell_setting 'monoclinic'
loop_
_space_group_symop_operation_xyz
x,y,z
-x,1/2+y,-z
-x,-y,-z
x,1/2-y,z
loop_
_atom_site_type_symbol
_atom_site_label
_atom_site_fract_x
_atom_site_fract_y
_atom_site_fract_z
Si Si1 0.184145 0.613307 0.802558
Si Si2 0.440382 0.478846 0.097692
Si Si3 0.167374 0.882416 0.188048
Si Si4 0.335130 0.114385 0.721587
Si Si5 0.044445 0.116389 0.707083
Si Si6 0.927229 0.979971 0.733153
Si Si7 0.536730 0.387984 0.471654
O O1 0.179517 0.750000 0.845568
O O2 0.137699 0.498033 0.811336
O O3 0.078994 0.612852 0.552279
O O4 0.331513 0.582515 0.968840
O O5 0.573217 0.530494 0.227667
O O6 0.473249 0.411338 0.259618
O O7 0.378501 0.398027 0.911898
O O8 0.165582 0.750000 0.239887
O O9 0.306533 0.895624 0.324173
O O10 0.142452 0.981020 0.249042
O O11 0.047819 0.894725 0.933885
O O12 0.353665 0.250000 0.707129
O O13 0.183299 0.079296 0.498806
O O14 0.106196 0.250000 0.782946
O O15 0.987230 0.093648 0.751003
O O16 0.500000 0.500000 0.500000
O O17 0.504173 0.250000 0.464540
#
# Coordination Sequence:
#
# PCOD9166327 Si02
#       7
#     4   4   4   4   4   4   4
#     4  10  22  40  63  93 133 174 212 263 325 396
#     4  11  23  44  65 101 133 179 218 275 336 405
#     4  10  23  43  66  90 127 173 224 274 327 391
#     4  11  23  39  67 103 137 170 216 277 338 404
#     4  10  22  40  63  94 129 170 216 268 327 391
#     4  11  21  42  65  95 127 168 221 271 337 391
#     4  11  26  48  70  97 134 183 231 276 330 397
#
# _framework density 21.008438999999999
#
# number of rings (size 3 to 8) (size 9 to 14) (size 15 to 20)
#    0.000    1.429    2.857    1.714    2.000    3.429 
#    0.000    0.714    0.000    0.000    0.000    0.000 
#    0.000    0.000    0.000    0.000    0.000    0.000 
#
# Total GULP energy -156359.614303 kJ/mol
# GULP energy per Si atom -5584.271939 kJ/mol
# Density = 2.096062 g / cm^3
# Si number density = 21.008439 Si / 1000 Ang^3
#
#
#
# Elastic Constant Matrix: (Units=GPa)
#
#
# Indices 1 2 3 4 5 6 
#
# 1 65.4859 37.4916 25.4409 0.0000 -3.9664 0.0000
# 2 37.4916 127.2220 28.4731 0.0000 0.7853 0.0000
# 3 25.4409 28.4731 89.4838 0.0000 12.6394 0.0000
# 4 0.0000 0.0000 0.0000 14.7914 0.0000 -0.2102
# 5 -3.9664 0.7853 12.6394 0.0000 23.4740 0.0000
# 6 0.0000 0.0000 0.0000 -0.2102 0.0000 20.0589
#
#
#
# Elastic Compliance Matrix: (Units=1/GPa)
#
#
# Indices 1 2 3 4 5 6 
#
# 1 0.020480 -0.004920 -0.005162 0.000000 0.006405 0.000000
# 2 -0.004920 0.009679 -0.001643 0.000000 -0.000270 0.000000
# 3 -0.005162 -0.001643 0.014374 0.000000 -0.008557 0.000000
# 4 0.000000 0.000000 0.000000 0.067617 0.000000 0.000708
# 5 0.006405 -0.000270 -0.008557 0.000000 0.048299 0.000000
# 6 0.000000 0.000000 0.000000 0.000708 0.000000 0.049861
#
#
# Mechanical properties :
#
#
# Convention : Reuss Voigt Hill
#
# Bulk Modulus (GPa) = 47.42769 51.66698 49.54734
# Shear Modulus (GPa) = 20.76513 24.38392 22.57452
#
# Velocity S-wave (km/s) = 3.14732 3.41056 3.28158
# Velocity P-wave (km/s) = 5.98599 6.33688 6.16393
#
# Compressibility (1/GPa) = 0.02108473
#
# Stress axis : x y z
#
# Youngs Moduli (GPa) = 48.82721 103.31129 69.56891
#
# Poissons Ratio (x) = 0.50826 0.35911
# Poissons Ratio (y) = 0.24022 0.11430
# Poissons Ratio (z) = 0.25204 0.16974
#
# Static dielectric constant tensor:
#      x y z
#    x 1.757370 0.000000 -0.003510 
#    y 0.000000 1.763940 0.000000 
#    z -0.003510 0.000000 1.743640 
# 
# From -- ./inp_files/43244.got.cif
#   From: 2010.05.17/outbox.cif.g08.bks.cpg/sg11_22_cif.got.tgz:43244.got - 2010.06.03 12:22:45.
