data_PCOD9166235
_publ_section_title
;
Structure prediction by ZEFSAII (Michael W. Deem and Ramdas Pophale) SiO2 
 PCOD9166235
Probable space group: P 21/M
;
_chemical_formula_sum "Si O2"
_cell_formula_units_Z 24
_cell_length_a 12.268832
_cell_length_b 23.420510
_cell_length_c 9.770777
_cell_angle_alpha 90.000000
_cell_angle_beta 22.780529
_cell_angle_gamma 90.000000
_cell_volume 1087.092701
_symmetry_space_group_name_H-M "P 21/M"
_symmetry_group_IT_number 11
_symmetry_cell_setting 'monoclinic'
loop_
_space_group_symop_operation_xyz
x,y,z
-x,1/2+y,-z
-x,-y,-z
x,1/2-y,z
loop_
_atom_site_type_symbol
_atom_site_label
_atom_site_fract_x
_atom_site_fract_y
_atom_site_fract_z
Si Si1 0.056765 0.815072 0.433067
Si Si2 0.593676 0.317349 0.715584
Si Si3 0.462242 0.574308 0.381582
Si Si4 0.736007 0.960907 0.787531
Si Si5 0.090388 0.897173 0.164934
Si Si6 0.696955 0.552917 0.404635
O O1 0.150598 0.750000 0.326775
O O2 0.226626 0.842211 0.364003
O O3 0.136601 0.837760 0.189637
O O4 0.729261 0.816366 0.856916
O O5 0.666343 0.250000 0.600804
O O6 0.642169 0.361236 0.532341
O O7 0.647870 0.569461 0.303505
O O8 0.271369 0.515869 0.609911
O O9 0.648827 0.564252 0.031616
O O10 0.840657 0.917822 0.553089
O O11 0.000000 0.000000 0.500000
O O12 0.500000 0.000000 0.000000
O O13 0.947564 0.910820 0.184110
O O14 0.387821 0.930359 0.824713
#
# Coordination Sequence:
#
# PCOD9166235 Si02
#       6
#     4   4   4   4   4   4
#     4  10  22  39  64  93 121 157 207 267 308 351
#     4  10  22  39  63  91 118 159 209 256 307 359
#     4  11  24  43  61  92 131 166 203 261 304 377
#     4  12  23  37  61  93 120 160 209 251 306 360
#     4  12  22  42  60  93 123 160 208 251 303 382
#     4  11  27  39  61  92 133 167 197 247 332 365
#
# _framework density 22.077233
#
# number of rings (size 3 to 8) (size 9 to 14) (size 15 to 20)
#    0.000    1.000    5.000    1.000    2.333    6.667 
#    0.000    1.667    0.000    0.000    0.000    0.000 
#    0.000    0.000    0.000    0.000    0.000    0.000 
#
# Total GULP energy -133832.805194 kJ/mol
# GULP energy per Si atom -5576.366883 kJ/mol
# Density = 2.202698 g / cm^3
# Si number density = 22.077233 Si / 1000 Ang^3
#
#
#
# Elastic Constant Matrix: (Units=GPa)
#
#
# Indices 1 2 3 4 5 6 
#
# 1 133.0684 50.5257 24.1156 0.0000 -2.3566 0.0000
# 2 50.5257 116.4422 12.6276 0.0000 9.1286 0.0000
# 3 24.1156 12.6276 65.9037 0.0000 -6.8479 0.0000
# 4 0.0000 0.0000 0.0000 13.8864 0.0000 6.1704
# 5 -2.3566 9.1286 -6.8479 0.0000 49.5361 0.0000
# 6 0.0000 0.0000 0.0000 6.1704 0.0000 39.8243
#
#
#
# Elastic Compliance Matrix: (Units=1/GPa)
#
#
# Indices 1 2 3 4 5 6 
#
# 1 0.009486 -0.003893 -0.002642 0.000000 0.000803 0.000000
# 2 -0.003893 0.010543 -0.000829 0.000000 -0.002243 0.000000
# 3 -0.002642 -0.000829 0.016540 0.000000 0.002313 0.000000
# 4 0.000000 0.000000 0.000000 0.077338 0.000000 -0.011983
# 5 0.000803 -0.002243 0.002313 0.000000 0.020959 0.000000
# 6 0.000000 0.000000 0.000000 -0.011983 0.000000 0.026967
#
#
# Mechanical properties :
#
#
# Convention : Reuss Voigt Hill
#
# Bulk Modulus (GPa) = 45.78330 54.43911 50.11121
# Shear Modulus (GPa) = 27.19785 35.85905 31.52845
#
# Velocity S-wave (km/s) = 3.51371 4.03458 3.78312
# Velocity P-wave (km/s) = 6.10281 6.81291 6.46762
#
# Compressibility (1/GPa) = 0.02184203
#
# Stress axis : x y z
#
# Youngs Moduli (GPa) = 105.41954 94.85280 60.46125
#
# Poissons Ratio (x) = 0.36922 0.15973
# Poissons Ratio (y) = 0.41035 0.05010
# Poissons Ratio (z) = 0.27849 0.07860
#
# Static dielectric constant tensor:
#      x y z
#    x 1.906840 0.000000 -0.076050 
#    y 0.000000 2.062260 0.000000 
#    z -0.076050 0.000000 1.716630 
# 
# From -- ./inp_files/40177.got.cif
#   From: 2010.05.17/outbox.cif.g08.bks.cpg/sg11_21_cif.got.tgz:40177.got - 2010.06.03 12:22:45.
