data_PCOD9166488
_publ_section_title
;
Structure prediction by ZEFSAII (Michael W. Deem and Ramdas Pophale) SiO2 
 PCOD9166488
Probable space group: P 21/M
;
_chemical_formula_sum "Si O2"
_cell_formula_units_Z 24
_cell_length_a 5.054942
_cell_length_b 14.368778
_cell_length_c 14.649151
_cell_angle_alpha 90.000000
_cell_angle_beta 95.715945
_cell_angle_gamma 90.000000
_cell_volume 1058.726350
_symmetry_space_group_name_H-M "P 21/M"
_symmetry_group_IT_number 11
_symmetry_cell_setting 'monoclinic'
loop_
_space_group_symop_operation_xyz
x,y,z
-x,1/2+y,-z
-x,-y,-z
x,1/2-y,z
loop_
_atom_site_type_symbol
_atom_site_label
_atom_site_fract_x
_atom_site_fract_y
_atom_site_fract_z
Si Si1 0.114612 0.650519 0.665960
Si Si2 0.734777 0.638217 0.144251
Si Si3 0.476992 0.000974 0.268123
Si Si4 0.852066 0.856289 0.853508
Si Si5 0.795252 0.362374 0.964835
Si Si6 0.233042 0.022870 0.437329
O O1 0.229679 0.750000 0.644186
O O2 0.324784 0.568281 0.669668
O O3 0.024313 0.653074 0.767853
O O4 0.854359 0.626049 0.598261
O O5 0.726604 0.750000 0.156787
O O6 0.635793 0.583364 0.229001
O O7 0.511652 0.612988 0.059712
O O8 0.025234 0.612319 0.116934
O O9 0.364068 0.067734 0.183841
O O10 0.260718 0.973453 0.337997
O O11 0.750325 0.750000 0.871611
O O12 0.042686 0.891801 0.940552
O O13 0.799500 0.250000 0.969871
O O14 0.500000 0.000000 0.500000
O O15 0.000000 0.000000 0.500000
#
# Coordination Sequence:
#
# PCOD9166488 Si02
#       6
#     4   4   4   4   4   4
#     4  10  22  41  67  98 130 164 202 256 320 378
#     4  10  23  40  59  85 124 172 217 260 307 356
#     4  11  23  38  68  91 130 163 207 260 317 375
#     4   9  20  36  58  92 128 167 210 256 313 366
#     4   9  20  38  58  83 125 171 216 264 301 354
#     4  11  23  45  68  91 124 160 201 256 317 386
#
# _framework density 22.668745999999999
#
# number of rings (size 3 to 8) (size 9 to 14) (size 15 to 20)
#    0.000    2.000    1.667    0.500    7.000    2.000 
#    0.000    1.667    0.000    1.000    0.000    0.000 
#    0.000    0.000    0.000    0.000    0.000    0.000 
#
# Total GULP energy -133930.365169 kJ/mol
# GULP energy per Si atom -5580.431882 kJ/mol
# Density = 2.261715 g / cm^3
# Si number density = 22.668746 Si / 1000 Ang^3
#
#
#
# Elastic Constant Matrix: (Units=GPa)
#
#
# Indices 1 2 3 4 5 6 
#
# 1 91.4337 15.6541 4.8811 0.0000 9.9899 0.0000
# 2 15.6541 75.8781 28.1249 0.0000 5.3688 0.0000
# 3 4.8811 28.1249 73.4152 0.0000 4.3268 0.0000
# 4 0.0000 0.0000 0.0000 4.4338 0.0000 -0.8622
# 5 9.9899 5.3688 4.3268 0.0000 35.3206 0.0000
# 6 0.0000 0.0000 0.0000 -0.8622 0.0000 27.1345
#
#
#
# Elastic Compliance Matrix: (Units=1/GPa)
#
#
# Indices 1 2 3 4 5 6 
#
# 1 0.011640 -0.002295 0.000281 0.000000 -0.002978 0.000000
# 2 -0.002295 0.015906 -0.005879 0.000000 -0.001048 0.000000
# 3 0.000281 -0.005879 0.015922 0.000000 -0.001136 0.000000
# 4 0.000000 0.000000 0.000000 0.226943 0.000000 0.007211
# 5 -0.002978 -0.001048 -0.001136 0.000000 0.029453 0.000000
# 6 0.000000 0.000000 0.000000 0.007211 0.000000 0.037083
#
#
# Mechanical properties :
#
#
# Convention : Reuss Voigt Hill
#
# Bulk Modulus (GPa) = 36.12541 37.56083 36.84312
# Shear Modulus (GPa) = 13.81370 26.18223 19.99796
#
# Velocity S-wave (km/s) = 2.47122 3.40220 2.97338
# Velocity P-wave (km/s) = 4.91054 5.66028 5.29869
#
# Compressibility (1/GPa) = 0.02768134
#
# Stress axis : x y z
#
# Youngs Moduli (GPa) = 85.90963 62.87031 62.80748
#
# Poissons Ratio (x) = 0.14427 -0.01763
# Poissons Ratio (y) = 0.19714 0.36925
# Poissons Ratio (z) = -0.02412 0.36962
#
# Static dielectric constant tensor:
#      x y z
#    x 1.920920 0.000000 0.003910 
#    y 0.000000 1.883830 0.000000 
#    z 0.003910 0.000000 1.870690 
# 
# From -- ./inp_files/45751.got.cif
#   From: 2010.05.17/outbox.cif.g08.bks.cpg/sg11_23_cif.got.tgz:45751.got - 2010.06.03 12:22:45.
