data_PCOD9166069
_publ_section_title
;
Structure prediction by ZEFSAII (Michael W. Deem and Ramdas Pophale) SiO2 
 PCOD9166069
Probable space group: P 21/M
;
_chemical_formula_sum "Si O2"
_cell_formula_units_Z 28
_cell_length_a 6.476247
_cell_length_b 19.356978
_cell_length_c 10.436772
_cell_angle_alpha 90.000000
_cell_angle_beta 66.473721
_cell_angle_gamma 90.000000
_cell_volume 1199.605029
_symmetry_space_group_name_H-M "P 21/M"
_symmetry_group_IT_number 11
_symmetry_cell_setting 'monoclinic'
loop_
_space_group_symop_operation_xyz
x,y,z
-x,1/2+y,-z
-x,-y,-z
x,1/2-y,z
loop_
_atom_site_type_symbol
_atom_site_label
_atom_site_fract_x
_atom_site_fract_y
_atom_site_fract_z
Si Si1 0.398236 0.585122 0.648980
Si Si2 0.268314 0.455586 0.058267
Si Si3 0.162591 0.176125 0.471260
Si Si4 0.758307 0.328725 0.774582
Si Si5 0.039060 0.075207 0.841004
Si Si6 0.502526 0.432454 0.659494
Si Si7 0.961939 0.828991 0.789284
O O1 0.632841 0.624365 0.590402
O O2 0.456416 0.512620 0.702110
O O3 0.355333 0.570309 0.507117
O O4 0.193736 0.628843 0.759798
O O5 0.248677 0.378819 0.121498
O O6 0.092955 0.507169 0.172586
O O7 0.500000 0.500000 0.000000
O O8 0.153045 0.441789 0.948238
O O9 0.276368 0.250000 0.469000
O O10 0.046333 0.176842 0.361491
O O11 0.961963 0.171228 0.622126
O O12 0.675795 0.250000 0.809666
O O13 0.592264 0.383707 0.749803
O O14 0.861820 0.362354 0.877529
O O15 0.248424 0.093085 0.698993
O O16 0.954217 0.750000 0.843112
#
# Coordination Sequence:
#
# PCOD9166069 Si02
#       7
#     4   4   4   4   4   4   4
#     4  11  22  38  66 103 141 177 227 285 350 441
#     4  11  26  47  72  98 136 182 241 302 345 410
#     4  10  22  37  61  98 141 181 220 282 354 418
#     4  11  24  41  64 101 146 186 232 287 354 430
#     4  11  24  45  68 100 133 184 234 289 351 418
#     4  11  23  38  66 104 139 183 226 285 358 423
#     4  11  24  44  70 101 138 182 230 290 360 424
#
# _framework density 23.341014999999999
#
# number of rings (size 3 to 8) (size 9 to 14) (size 15 to 20)
#    0.000    1.143    4.286    1.286    4.000    2.286 
#    0.000    2.143    0.000    0.000    0.000    0.000 
#    0.000    0.000    0.000    0.000    0.000    0.000 
#
# Total GULP energy -156158.082480 kJ/mol
# GULP energy per Si atom -5577.074374 kJ/mol
# Density = 2.328789 g / cm^3
# Si number density = 23.341015 Si / 1000 Ang^3
#
#
#
# Elastic Constant Matrix: (Units=GPa)
#
#
# Indices 1 2 3 4 5 6 
#
# 1 97.4924 87.1802 19.0490 0.0000 -10.0750 0.0000
# 2 87.1802 183.8768 20.7619 0.0000 -2.0907 0.0000
# 3 19.0490 20.7619 49.3724 0.0000 -3.0895 0.0000
# 4 0.0000 0.0000 0.0000 22.3534 0.0000 -4.1875
# 5 -10.0750 -2.0907 -3.0895 0.0000 22.7082 0.0000
# 6 0.0000 0.0000 0.0000 -4.1875 0.0000 4.6304
#
#
#
# Elastic Compliance Matrix: (Units=1/GPa)
#
#
# Indices 1 2 3 4 5 6 
#
# 1 0.019559 -0.008808 -0.003379 0.000000 0.007407 0.000000
# 2 -0.008808 0.009677 -0.000867 0.000000 -0.003135 0.000000
# 3 -0.003379 -0.000867 0.022011 0.000000 0.001416 0.000000
# 4 0.000000 0.000000 0.000000 0.053861 0.000000 0.048709
# 5 0.007407 -0.003135 0.001416 0.000000 0.047227 0.000000
# 6 0.000000 0.000000 0.000000 0.048709 0.000000 0.260016
#
#
# Mechanical properties :
#
#
# Convention : Reuss Voigt Hill
#
# Bulk Modulus (GPa) = 39.77865 64.96930 52.37398
# Shear Modulus (GPa) = 11.18976 23.52177 17.35577
#
# Velocity S-wave (km/s) = 2.19190 3.17794 2.72981
# Velocity P-wave (km/s) = 4.84616 6.43125 5.69413
#
# Compressibility (1/GPa) = 0.02513911
#
# Stress axis : x y z
#
# Youngs Moduli (GPa) = 51.12793 103.34280 45.43150
#
# Poissons Ratio (x) = 0.91019 0.15351
# Poissons Ratio (y) = 0.45031 0.03940
# Poissons Ratio (z) = 0.17276 0.08961
#
# Static dielectric constant tensor:
#      x y z
#    x 1.900260 0.000000 0.009790 
#    y 0.000000 2.008070 0.000000 
#    z 0.009790 0.000000 1.950720 
# 
# From -- ./inp_files/29965.got.cif
#   From: 2010.05.17/outbox.cif.g08.bks.cpg/sg11_15_cif.got.tgz:29965.got - 2010.06.03 12:22:45.
