data_PCOD9166522
_publ_section_title
;
Structure prediction by ZEFSAII (Michael W. Deem and Ramdas Pophale) SiO2 
 PCOD9166522
Probable space group: P 21/M
;
_chemical_formula_sum "Si O2"
_cell_formula_units_Z 20
_cell_length_a 12.220016
_cell_length_b 8.638465
_cell_length_c 9.817118
_cell_angle_alpha 90.000000
_cell_angle_beta 104.258323
_cell_angle_gamma 90.000000
_cell_volume 1004.392804
_symmetry_space_group_name_H-M "P 21/M"
_symmetry_group_IT_number 11
_symmetry_cell_setting 'monoclinic'
loop_
_space_group_symop_operation_xyz
x,y,z
-x,1/2+y,-z
-x,-y,-z
x,1/2-y,z
loop_
_atom_site_type_symbol
_atom_site_label
_atom_site_fract_x
_atom_site_fract_y
_atom_site_fract_z
Si Si1 0.523775 0.063571 0.656535
Si Si2 0.216847 0.563449 0.216515
Si Si3 0.833732 0.935511 0.088301
Si Si4 0.028511 0.936532 0.359996
Si Si5 0.401615 0.934751 0.873382
O O1 0.516536 0.250000 0.658329
O O2 0.651672 0.018231 0.738290
O O3 0.500000 0.000000 0.500000
O O4 0.435189 0.990269 0.733617
O O5 0.212752 0.750000 0.208099
O O6 0.148219 0.515286 0.330507
O O7 0.158977 0.498920 0.062783
O O8 0.831912 0.750000 0.082446
O O9 0.934339 0.983522 0.220022
O O10 0.716953 0.997486 0.114503
O O11 0.027913 0.750000 0.368538
O O12 0.000000 0.000000 0.500000
O O13 0.398894 0.750000 0.881688
O O14 0.500000 0.000000 0.000000
#
# Coordination Sequence:
#
# PCOD9166522 Si02
#       5
#     4   4   4   4   4
#     4  11  24  41  63  94 131 168 208 255 314 374
#     4  10  22  42  65  90 124 166 210 256 311 372
#     4  11  23  40  65  95 126 163 211 259 310 375
#     4  10  24  43  63  93 126 161 209 260 313 372
#     4  12  24  41  65  94 128 165 209 258 313 374
#
# _framework density 19.912528999999999
#
# number of rings (size 3 to 8) (size 9 to 14) (size 15 to 20)
#    0.000    1.200    2.000    3.600    2.800    3.200 
#    0.000    0.000    0.000    0.000    0.000    0.000 
#    0.000    0.000    0.000    0.000    0.000    0.000 
#
# Total GULP energy -111860.737474 kJ/mol
# GULP energy per Si atom -5593.036874 kJ/mol
# Density = 1.986721 g / cm^3
# Si number density = 19.912529 Si / 1000 Ang^3
#
#
#
# Elastic Constant Matrix: (Units=GPa)
#
#
# Indices 1 2 3 4 5 6 
#
# 1 78.9031 8.8114 15.9886 0.0000 -21.8727 0.0000
# 2 8.8114 20.7182 10.7566 0.0000 2.3857 0.0000
# 3 15.9886 10.7566 118.4356 0.0000 -23.4047 0.0000
# 4 0.0000 0.0000 0.0000 40.9043 0.0000 -5.5103
# 5 -21.8727 2.3857 -23.4047 0.0000 41.2621 0.0000
# 6 0.0000 0.0000 0.0000 -5.5103 0.0000 24.2687
#
#
#
# Elastic Compliance Matrix: (Units=1/GPa)
#
#
# Indices 1 2 3 4 5 6 
#
# 1 0.016046 -0.008082 0.000384 0.000000 0.009191 0.000000
# 2 -0.008082 0.056193 -0.006196 0.000000 -0.011048 0.000000
# 3 0.000384 -0.006196 0.010210 0.000000 0.006353 0.000000
# 4 0.000000 0.000000 0.000000 0.025219 0.000000 0.005726
# 5 0.009191 -0.011048 0.006353 0.000000 0.033350 0.000000
# 6 0.000000 0.000000 0.000000 0.005726 0.000000 0.042505
#
#
# Mechanical properties :
#
#
# Convention : Reuss Voigt Hill
#
# Bulk Modulus (GPa) = 18.29440 32.13000 25.21220
# Shear Modulus (GPa) = 21.78353 33.45371 27.61862
#
# Velocity S-wave (km/s) = 3.31110 4.10327 3.72828
# Velocity P-wave (km/s) = 4.88110 6.21447 5.58770
#
# Compressibility (1/GPa) = 0.05466153
#
# Stress axis : x y z
#
# Youngs Moduli (GPa) = 62.31922 17.79578 97.94602
#
# Poissons Ratio (x) = 0.14383 -0.03763
# Poissons Ratio (y) = 0.50368 0.60684
# Poissons Ratio (z) = -0.02394 0.11026
#
# Static dielectric constant tensor:
#      x y z
#    x 1.704980 0.000000 -0.010210 
#    y 0.000000 1.670760 0.000000 
#    z -0.010210 0.000000 1.681030 
# 
# From -- ./inp_files/15900.got.cif
#   From: 2010.05.17/outbox.cif.g08.bks.cpg/sg11_8_cif.got.tgz:15900.got - 2010.06.03 12:22:45.
