data_PCOD9166651
_publ_section_title
;
Structure prediction by ZEFSAII (Michael W. Deem and Ramdas Pophale) SiO2 
 PCOD9166651
Probable space group: P 21/M
;
_chemical_formula_sum "Si O2"
_cell_formula_units_Z 26
_cell_length_a 10.837878
_cell_length_b 19.960853
_cell_length_c 5.086517
_cell_angle_alpha 90.000000
_cell_angle_beta 72.855451
_cell_angle_gamma 90.000000
_cell_volume 1051.486450
_symmetry_space_group_name_H-M "P 21/M"
_symmetry_group_IT_number 11
_symmetry_cell_setting 'monoclinic'
loop_
_space_group_symop_operation_xyz
x,y,z
-x,1/2+y,-z
-x,-y,-z
x,1/2-y,z
loop_
_atom_site_type_symbol
_atom_site_label
_atom_site_fract_x
_atom_site_fract_y
_atom_site_fract_z
Si Si1 0.237309 0.669793 0.348168
Si Si2 0.878186 0.750000 0.116965
Si Si3 0.655201 0.988011 0.178887
Si Si4 0.736089 0.870751 0.509096
Si Si5 0.919691 0.133976 0.061246
Si Si6 0.909425 0.540528 0.752618
Si Si7 0.515414 0.391975 0.077145
O O1 0.233606 0.750000 0.372085
O O2 0.194130 0.638752 0.652286
O O3 0.134057 0.646463 0.194680
O O4 0.375373 0.647301 0.148829
O O5 0.787571 0.810583 0.299800
O O6 0.980736 0.693335 0.949406
O O7 0.702401 0.941263 0.385655
O O8 0.582435 0.058451 0.248931
O O9 0.784326 0.000119 0.927654
O O10 0.559288 0.940696 0.075919
O O11 0.844794 0.894753 0.647019
O O12 0.600570 0.849510 0.725902
O O13 0.003681 0.068592 0.065533
O O14 0.000000 0.500000 0.500000
#
# Coordination Sequence:
#
# PCOD9166651 Si02
#       7
#     4   2   4   4   4   4   4
#     4  12  26  46  73 107 146 197 239 310 364 444
#     4  12  24  48  70 102 152 188 250 298 380 458
#     4  10  22  46  68 103 140 194 241 317 369 437
#     4  11  25  45  74 103 143 202 242 311 374 443
#     4  12  26  47  72 107 150 191 241 304 378 437
#     4  11  25  43  73 111 143 193 255 308 382 451
#     4  10  25  44  71 103 145 186 256 300 378 436
#
# _framework density 24.726901000000002
#
# number of rings (size 3 to 8) (size 9 to 14) (size 15 to 20)
#    0.000    0.923    3.077    2.308    5.385    1.231 
#    1.385    0.000    0.000    0.000    0.000    0.000 
#    0.000    0.000    0.000    0.000    0.000    0.000 
#
# Total GULP energy -145168.273531 kJ/mol
# GULP energy per Si atom -5583.395136 kJ/mol
# Density = 2.467062 g / cm^3
# Si number density = 24.726901 Si / 1000 Ang^3
#
#
#
# Elastic Constant Matrix: (Units=GPa)
#
#
# Indices 1 2 3 4 5 6 
#
# 1 126.4395 40.4386 37.1895 0.0000 -15.4909 0.0000
# 2 40.4386 88.7768 5.8252 0.0000 -11.2649 0.0000
# 3 37.1895 5.8252 87.1786 0.0000 -33.4660 0.0000
# 4 0.0000 0.0000 0.0000 39.8323 0.0000 -21.7380
# 5 -15.4909 -11.2649 -33.4660 0.0000 60.2695 0.0000
# 6 0.0000 0.0000 0.0000 -21.7380 0.0000 31.3278
#
#
#
# Elastic Compliance Matrix: (Units=1/GPa)
#
#
# Indices 1 2 3 4 5 6 
#
# 1 0.010624 -0.004624 -0.004457 0.000000 -0.000608 0.000000
# 2 -0.004624 0.013551 0.002012 0.000000 0.002461 0.000000
# 3 -0.004457 0.002012 0.016448 0.000000 0.008364 0.000000
# 4 0.000000 0.000000 0.000000 0.040406 0.000000 0.028038
# 5 -0.000608 0.002461 0.008364 0.000000 0.021540 0.000000
# 6 0.000000 0.000000 0.000000 0.028038 0.000000 0.051376
#
#
# Mechanical properties :
#
#
# Convention : Reuss Voigt Hill
#
# Bulk Modulus (GPa) = 37.75639 52.14462 44.95050
# Shear Modulus (GPa) = 28.26276 40.88201 34.57239
#
# Velocity S-wave (km/s) = 3.38449 4.07054 3.74327
# Velocity P-wave (km/s) = 5.52952 6.57468 6.07462
#
# Compressibility (1/GPa) = 0.02648559
#
# Stress axis : x y z
#
# Youngs Moduli (GPa) = 94.12517 73.79609 60.79736
#
# Poissons Ratio (x) = 0.34124 0.27095
# Poissons Ratio (y) = 0.43525 -0.12233
# Poissons Ratio (z) = 0.41948 -0.14848
#
# Static dielectric constant tensor:
#      x y z
#    x 1.966350 0.000000 0.031410 
#    y 0.000000 1.917580 0.000000 
#    z 0.031410 0.000000 2.004620 
# 
# From -- ./inp_files/5001.got.cif
#   From: 2010.05.17/outbox.cif.g08.bks.cpg/sg11_3_cif.got.tgz:5001.got - 2010.06.03 12:22:45.
