data_PCOD9166178
_publ_section_title
;
Structure prediction by ZEFSAII (Michael W. Deem and Ramdas Pophale) SiO2 
 PCOD9166178
Probable space group: P 21/M
;
_chemical_formula_sum "Si O2"
_cell_formula_units_Z 24
_cell_length_a 10.357887
_cell_length_b 14.937546
_cell_length_c 12.969823
_cell_angle_alpha 90.000000
_cell_angle_beta 33.712700
_cell_angle_gamma 90.000000
_cell_volume 1113.781526
_symmetry_space_group_name_H-M "P 21/M"
_symmetry_group_IT_number 11
_symmetry_cell_setting 'monoclinic'
loop_
_space_group_symop_operation_xyz
x,y,z
-x,1/2+y,-z
-x,-y,-z
x,1/2-y,z
loop_
_atom_site_type_symbol
_atom_site_label
_atom_site_fract_x
_atom_site_fract_y
_atom_site_fract_z
Si Si1 0.027503 0.045835 0.730790
Si Si2 0.858312 0.149258 0.343583
Si Si3 0.879012 0.647284 0.540104
Si Si4 0.553601 0.463141 0.152311
Si Si5 0.396360 0.847747 0.288914
Si Si6 0.776950 0.033738 0.214237
O O1 0.083762 0.107978 0.598635
O O2 0.782317 0.072331 0.944384
O O3 0.005772 0.940804 0.712661
O O4 0.224495 0.037382 0.689899
O O5 0.954498 0.250000 0.292389
O O6 0.631166 0.146670 0.568665
O O7 0.814006 0.125557 0.253226
O O8 0.800723 0.750000 0.589768
O O9 0.681180 0.586308 0.722706
O O10 0.130027 0.645138 0.427418
O O11 0.533132 0.569685 0.151627
O O12 0.584112 0.454483 0.255934
O O13 0.488980 0.750000 0.199424
O O14 0.000000 0.000000 0.000000
#
# Coordination Sequence:
#
# PCOD9166178 Si02
#       6
#     4   4   4   4   4   4
#     4   9  21  38  62  86 120 151 194 246 294 350
#     4   9  18  36  61  84 117 157 189 237 295 344
#     4  11  24  41  57  84 123 159 199 250 296 345
#     4  11  20  38  65  84 115 158 198 237 302 351
#     4  10  22  39  59  87 121 153 199 249 292 351
#     4   8  18  36  55  87 121 146 185 246 284 349
#
# _framework density 21.548213000000001
#
# number of rings (size 3 to 8) (size 9 to 14) (size 15 to 20)
#    1.000    1.333    1.667    0.500    0.000    5.333 
#    0.000    5.000    0.000    0.000    0.000    0.000 
#    0.000    0.000    0.000    0.000    0.000    0.000 
#
# Total GULP energy -133652.936966 kJ/mol
# GULP energy per Si atom -5568.872374 kJ/mol
# Density = 2.149917 g / cm^3
# Si number density = 21.548213 Si / 1000 Ang^3
#
#
#
# Elastic Constant Matrix: (Units=GPa)
#
#
# Indices 1 2 3 4 5 6 
#
# 1 55.2396 14.2101 -8.6366 0.0000 -6.1154 0.0000
# 2 14.2101 83.0639 7.0375 0.0000 8.1411 0.0000
# 3 -8.6366 7.0375 41.6351 0.0000 -6.2105 0.0000
# 4 0.0000 0.0000 0.0000 -5.1298 0.0000 -0.3493
# 5 -6.1154 8.1411 -6.2105 0.0000 11.6426 0.0000
# 6 0.0000 0.0000 0.0000 -0.3493 0.0000 27.3426
#
#
#
# Elastic Compliance Matrix: (Units=1/GPa)
#
#
# Indices 1 2 3 4 5 6 
#
# 1 0.023935 -0.007123 0.009547 0.000000 0.022645 0.000000
# 2 -0.007123 0.015635 -0.006855 0.000000 -0.018330 0.000000
# 3 0.009547 -0.006855 0.031094 0.000000 0.026394 0.000000
# 4 0.000000 0.000000 0.000000 -0.194771 0.000000 -0.002488
# 5 0.022645 -0.018330 0.026394 0.000000 0.124683 0.000000
# 6 0.000000 0.000000 0.000000 -0.002488 0.000000 0.036541
#
#
# Mechanical properties :
#
#
# Convention : Reuss Voigt Hill
#
# Bulk Modulus (GPa) = 16.18056 22.79563 19.48809
# Shear Modulus (GPa) = 75.09900 17.92627 46.51264
#
# Velocity S-wave (km/s) = 5.90993 2.88742 4.65105
# Velocity P-wave (km/s) = 7.35493 4.66027 6.15683
#
# Compressibility (1/GPa) = 0.06180257
#
# Stress axis : x y z
#
# Youngs Moduli (GPa) = 41.77996 63.95998 32.16033
#
# Poissons Ratio (x) = 0.45558 -0.30703
# Poissons Ratio (y) = 0.29760 0.22044
# Poissons Ratio (z) = -0.39887 0.43841
#
# Static dielectric constant tensor:
#      x y z
#    x 1.844590 0.000000 0.016520 
#    y 0.000000 1.780270 0.000000 
#    z 0.016520 0.000000 1.775690 
# 
# From -- ./inp_files/50323.got.cif
#   From: 2010.05.17/outbox.cif.g08.bks.cpg/sg11_26_cif.got.tgz:50323.got - 2010.06.03 12:22:45.
