data_PCOD9166438
_publ_section_title
;
Structure prediction by ZEFSAII (Michael W. Deem and Ramdas Pophale) SiO2 
 PCOD9166438
Probable space group: P 21/M
;
_chemical_formula_sum "Si O2"
_cell_formula_units_Z 28
_cell_length_a 12.882391
_cell_length_b 8.774607
_cell_length_c 14.846726
_cell_angle_alpha 90.000000
_cell_angle_beta 58.272837
_cell_angle_gamma 90.000000
_cell_volume 1427.449548
_symmetry_space_group_name_H-M "P 21/M"
_symmetry_group_IT_number 11
_symmetry_cell_setting 'monoclinic'
loop_
_space_group_symop_operation_xyz
x,y,z
-x,1/2+y,-z
-x,-y,-z
x,1/2-y,z
loop_
_atom_site_type_symbol
_atom_site_label
_atom_site_fract_x
_atom_site_fract_y
_atom_site_fract_z
Si Si1 0.004782 0.567263 0.765710
Si Si2 0.455887 0.932195 0.925825
Si Si3 0.804190 0.567827 0.008452
Si Si4 0.223663 0.566782 0.786877
Si Si5 0.917757 0.067800 0.616695
Si Si6 0.496926 0.933029 0.601244
Si Si7 0.640334 0.433071 0.695072
O O1 0.002246 0.750000 0.753454
O O2 0.963537 0.490187 0.692455
O O3 0.138900 0.524704 0.740816
O O4 0.911406 0.530502 0.889435
O O5 0.459310 0.750000 0.925733
O O6 0.319845 0.989032 0.967842
O O7 0.545194 0.994680 0.808190
O O8 0.500000 0.000000 0.000000
O O9 0.788744 0.750000 0.015954
O O10 0.825271 0.510413 0.100167
O O11 0.215373 0.750000 0.801916
O O12 0.364949 0.528050 0.705225
O O13 0.924878 0.250000 0.611124
O O14 0.776980 0.024429 0.662328
O O15 0.000000 0.000000 0.500000
O O16 0.507156 0.750000 0.594822
O O17 0.500000 0.000000 0.500000
O O18 0.602349 0.004404 0.614844
O O19 0.629850 0.250000 0.700989
#
# Coordination Sequence:
#
# PCOD9166438 Si02
#       7
#     4   4   4   4   4   4   4
#     4  10  23  42  64  93 130 169 213 263 312 373
#     4  12  24  39  62  92 128 168 210 260 314 375
#     4  11  22  38  63  95 129 168 211 258 315 377
#     4  10  22  41  64  93 130 170 210 259 318 372
#     4  11  26  45  67  94 125 165 210 262 316 374
#     4  11  24  41  65  96 130 169 212 261 318 378
#     4  11  24  44  67  94 128 164 210 264 317 374
#
# _framework density 19.615404999999999
#
# number of rings (size 3 to 8) (size 9 to 14) (size 15 to 20)
#    0.000    1.143    1.429    4.286    2.000    6.857 
#    0.000    0.000    0.000    0.000    0.000    0.000 
#    0.000    0.000    0.000    0.000    0.000    0.000 
#
# Total GULP energy -156654.138582 kJ/mol
# GULP energy per Si atom -5594.790664 kJ/mol
# Density = 1.957076 g / cm^3
# Si number density = 19.615405 Si / 1000 Ang^3
#
#
#
# Elastic Constant Matrix: (Units=GPa)
#
#
# Indices 1 2 3 4 5 6 
#
# 1 147.8328 42.7865 30.0606 0.0000 20.7584 0.0000
# 2 42.7865 53.8395 31.5893 0.0000 3.4762 0.0000
# 3 30.0606 31.5893 70.6866 0.0000 23.3689 0.0000
# 4 0.0000 0.0000 0.0000 35.7693 0.0000 9.2511
# 5 20.7584 3.4762 23.3689 0.0000 40.2361 0.0000
# 6 0.0000 0.0000 0.0000 9.2511 0.0000 32.9575
#
#
#
# Elastic Compliance Matrix: (Units=1/GPa)
#
#
# Indices 1 2 3 4 5 6 
#
# 1 0.009505 -0.007874 0.001081 0.000000 -0.004851 0.000000
# 2 -0.007874 0.032682 -0.014438 0.000000 0.009625 0.000000
# 3 0.001081 -0.014438 0.024643 0.000000 -0.013623 0.000000
# 4 0.000000 0.000000 0.000000 0.030145 0.000000 -0.008462
# 5 -0.004851 0.009625 -0.013623 0.000000 0.034437 0.000000
# 6 0.000000 0.000000 0.000000 -0.008462 0.000000 0.032717
#
#
# Mechanical properties :
#
#
# Convention : Reuss Voigt Hill
#
# Bulk Modulus (GPa) = 41.04121 53.47020 47.25571
# Shear Modulus (GPa) = 23.28667 32.98743 28.13705
#
# Velocity S-wave (km/s) = 3.44926 4.10531 3.79150
# Velocity P-wave (km/s) = 6.06890 7.05620 6.58109
#
# Compressibility (1/GPa) = 0.02436576
#
# Stress axis : x y z
#
# Youngs Moduli (GPa) = 105.20910 30.59832 40.57871
#
# Poissons Ratio (x) = 0.24094 -0.04385
# Poissons Ratio (y) = 0.82846 0.58589
# Poissons Ratio (z) = -0.11369 0.44179
#
# Static dielectric constant tensor:
#      x y z
#    x 1.671750 0.000000 -0.011660 
#    y 0.000000 1.655280 0.000000 
#    z -0.011660 0.000000 1.652070 
# 
# From -- ./inp_files/49157.got.cif
#   From: 2010.05.17/outbox.cif.g08.bks.cpg/sg11_25_cif.got.tgz:49157.got - 2010.06.03 12:22:45.
