data_PCOD9166754
_publ_section_title
;
Structure prediction by ZEFSAII (Michael W. Deem and Ramdas Pophale) SiO2 
 PCOD9166754
Probable space group: P 21/M
;
_chemical_formula_sum "Si O2"
_cell_formula_units_Z 28
_cell_length_a 9.445230
_cell_length_b 8.957784
_cell_length_c 27.374402
_cell_angle_alpha 90.000000
_cell_angle_beta 38.613720
_cell_angle_gamma 90.000000
_cell_volume 1445.402457
_symmetry_space_group_name_H-M "P 21/M"
_symmetry_group_IT_number 11
_symmetry_cell_setting 'monoclinic'
loop_
_space_group_symop_operation_xyz
x,y,z
-x,1/2+y,-z
-x,-y,-z
x,1/2-y,z
loop_
_atom_site_type_symbol
_atom_site_label
_atom_site_fract_x
_atom_site_fract_y
_atom_site_fract_z
Si Si1 0.666006 0.071657 0.800597
Si Si2 0.216560 0.578125 0.964178
Si Si3 0.693153 0.072498 0.482015
Si Si4 0.184837 0.571022 0.346058
Si Si5 0.031405 0.571869 0.770832
Si Si6 0.525270 0.071419 0.637189
Si Si7 0.256355 0.577551 0.067393
O O1 0.672094 0.250000 0.805267
O O2 0.668304 0.039122 0.742080
O O3 0.446373 0.005266 0.886601
O O4 0.888564 0.999842 0.765000
O O5 0.235988 0.750000 0.943103
O O6 0.179688 0.576822 0.032159
O O7 0.000000 0.500000 0.000000
O O8 0.694004 0.250000 0.473421
O O9 0.636642 0.045190 0.554335
O O10 0.500000 0.000000 0.500000
O O11 0.941278 0.005503 0.405735
O O12 0.150416 0.750000 0.357453
O O13 0.313425 0.526009 0.361135
O O14 0.021180 0.750000 0.770729
O O15 0.287518 0.513790 0.702368
O O16 0.906658 0.512684 0.853031
O O17 0.483579 0.250000 0.653184
O O18 0.273197 0.750000 0.079513
O O19 0.500000 0.500000 0.000000
#
# Coordination Sequence:
#
# PCOD9166754 Si02
#       7
#     4   4   4   4   4   4   4
#     4  11  23  41  64  90 122 164 209 258 312 369
#     4  11  25  42  63  91 125 163 207 258 313 373
#     4  11  23  40  66  95 126 164 205 250 304 364
#     4  10  23  42  65  92 125 162 204 253 309 366
#     4  12  25  40  62  93 125 163 209 258 312 369
#     4  10  23  43  64  91 126 164 204 253 309 367
#     4  11  23  41  65  91 122 163 210 258 310 367
#
# _framework density 19.371769
#
# number of rings (size 3 to 8) (size 9 to 14) (size 15 to 20)
#    0.000    1.143    1.429    4.286    2.000    8.000 
#    0.000    0.000    0.000    0.000    0.000    0.000 
#    0.000    0.000    0.000    0.000    0.000    0.000 
#
# Total GULP energy -156590.681398 kJ/mol
# GULP energy per Si atom -5592.524336 kJ/mol
# Density = 1.932768 g / cm^3
# Si number density = 19.371769 Si / 1000 Ang^3
#
#
#
# Elastic Constant Matrix: (Units=GPa)
#
#
# Indices 1 2 3 4 5 6 
#
# 1 125.9683 40.4183 21.7902 0.0000 5.4058 0.0000
# 2 40.4183 84.1418 31.2745 0.0000 7.2627 0.0000
# 3 21.7902 31.2745 64.0844 0.0000 9.9289 0.0000
# 4 0.0000 0.0000 0.0000 36.6255 0.0000 -6.8096
# 5 5.4058 7.2627 9.9289 0.0000 33.4501 0.0000
# 6 0.0000 0.0000 0.0000 -6.8096 0.0000 31.3490
#
#
#
# Elastic Compliance Matrix: (Units=1/GPa)
#
#
# Indices 1 2 3 4 5 6 
#
# 1 0.009465 -0.004083 -0.001181 0.000000 -0.000293 0.000000
# 2 -0.004083 0.016318 -0.006424 0.000000 -0.000976 0.000000
# 3 -0.001181 -0.006424 0.019806 0.000000 -0.004293 0.000000
# 4 0.000000 0.000000 0.000000 0.028452 0.000000 0.006180
# 5 -0.000293 -0.000976 -0.004293 0.000000 0.031429 0.000000
# 6 0.000000 0.000000 0.000000 0.006180 0.000000 0.033241
#
#
# Mechanical properties :
#
#
# Convention : Reuss Voigt Hill
#
# Bulk Modulus (GPa) = 45.01526 51.24007 48.12767
# Shear Modulus (GPa) = 29.50001 32.33235 30.91618
#
# Velocity S-wave (km/s) = 3.90659 4.08983 3.99926
# Velocity P-wave (km/s) = 6.60580 6.98646 6.79879
#
# Compressibility (1/GPa) = 0.02221469
#
# Stress axis : x y z
#
# Youngs Moduli (GPa) = 105.64960 61.28275 50.48947
#
# Poissons Ratio (x) = 0.25019 0.05961
# Poissons Ratio (y) = 0.43133 0.32434
# Poissons Ratio (z) = 0.12474 0.39368
#
# Static dielectric constant tensor:
#      x y z
#    x 1.674800 0.000000 0.022130 
#    y 0.000000 1.654740 0.000000 
#    z 0.022130 0.000000 1.635410 
# 
# From -- ./inp_files/70825.got.cif
#   From: 2010.05.17/outbox.cif.g08.bks.cpg/sg11_36_cif.got.tgz:70825.got - 2010.06.03 12:22:45.
