data_PCOD9166869
_publ_section_title
;
Structure prediction by ZEFSAII (Michael W. Deem and Ramdas Pophale) SiO2 
 PCOD9166869
Probable space group: P 21/M
;
_chemical_formula_sum "Si O2"
_cell_formula_units_Z 20
_cell_length_a 5.340861
_cell_length_b 15.429613
_cell_length_c 9.053079
_cell_angle_alpha 90.000000
_cell_angle_beta 90.624592
_cell_angle_gamma 90.000000
_cell_volume 745.996540
_symmetry_space_group_name_H-M "P 21/M"
_symmetry_group_IT_number 11
_symmetry_cell_setting 'monoclinic'
loop_
_space_group_symop_operation_xyz
x,y,z
-x,1/2+y,-z
-x,-y,-z
x,1/2-y,z
loop_
_atom_site_type_symbol
_atom_site_label
_atom_site_fract_x
_atom_site_fract_y
_atom_site_fract_z
Si Si1 0.379232 0.904453 0.471481
Si Si2 0.925315 0.010706 0.750480
Si Si3 0.375929 0.346728 0.254020
Si Si4 0.029223 0.750000 0.067191
Si Si5 0.538453 0.750000 0.266688
Si Si6 0.259280 0.584886 0.958722
O O1 0.392137 0.859489 0.630321
O O2 0.526234 0.836749 0.367488
O O3 0.500000 0.000000 0.500000
O O4 0.117435 0.924930 0.385818
O O5 0.826124 0.917201 0.702512
O O6 0.175590 0.989917 0.842903
O O7 0.740431 0.044826 0.878732
O O8 0.285634 0.250000 0.262528
O O9 0.492788 0.369830 0.096765
O O10 0.281433 0.750000 0.169849
O O11 0.784654 0.750000 0.167027
O O12 0.056914 0.662556 0.971902
#
# Coordination Sequence:
#
# PCOD9166869 Si02
#       6
#     4   4   4   2   2   4
#     4  10  23  48  71 105 146 200 248 307 372 449
#     4  10  24  43  67 100 145 191 247 299 377 442
#     4  11  23  41  69 103 148 183 250 304 379 436
#     4  12  28  45  81 108 156 193 254 306 379 449
#     4  12  26  53  73 116 150 205 248 310 377 449
#     4  11  24  42  68 109 137 198 236 315 365 447
#
# _framework density 26.809774000000001
#
# number of rings (size 3 to 8) (size 9 to 14) (size 15 to 20)
#    0.000    1.200    4.000    0.600    4.200    7.200 
#    7.200    0.000    0.000    0.000    0.000    0.000 
#    0.000    0.000    0.000    0.000    0.000    0.000 
#
# Total GULP energy -111947.939273 kJ/mol
# GULP energy per Si atom -5597.396964 kJ/mol
# Density = 2.674875 g / cm^3
# Si number density = 26.809774 Si / 1000 Ang^3
#
#
#
# Elastic Constant Matrix: (Units=GPa)
#
#
# Indices 1 2 3 4 5 6 
#
# 1 105.5106 21.2295 31.2836 0.0000 -0.1061 0.0000
# 2 21.2295 156.7073 17.9182 0.0000 8.6560 0.0000
# 3 31.2836 17.9182 66.4504 0.0000 16.0822 0.0000
# 4 0.0000 0.0000 0.0000 57.4824 0.0000 10.3352
# 5 -0.1061 8.6560 16.0822 0.0000 40.0695 0.0000
# 6 0.0000 0.0000 0.0000 10.3352 0.0000 33.0936
#
#
#
# Elastic Compliance Matrix: (Units=1/GPa)
#
#
# Indices 1 2 3 4 5 6 
#
# 1 0.011375 -0.001030 -0.005691 0.000000 0.002537 0.000000
# 2 -0.001030 0.006700 -0.001075 0.000000 -0.001019 0.000000
# 3 -0.005691 -0.001075 0.019898 0.000000 -0.007769 0.000000
# 4 0.000000 0.000000 0.000000 0.018432 0.000000 -0.005756
# 5 0.002537 -0.001019 -0.007769 0.000000 0.028302 0.000000
# 6 0.000000 0.000000 0.000000 -0.005756 0.000000 0.032015
#
#
# Mechanical properties :
#
#
# Convention : Reuss Voigt Hill
#
# Bulk Modulus (GPa) = 44.68275 52.17011 48.42643
# Shear Modulus (GPa) = 35.77176 43.34491 39.55834
#
# Velocity S-wave (km/s) = 3.65674 4.02525 3.84542
# Velocity P-wave (km/s) = 5.87638 6.41133 6.14967
#
# Compressibility (1/GPa) = 0.02238000
#
# Stress axis : x y z
#
# Youngs Moduli (GPa) = 87.91173 149.25145 50.25549
#
# Poissons Ratio (x) = 0.15379 0.28602
# Poissons Ratio (y) = 0.09058 0.05403
# Poissons Ratio (z) = 0.50033 0.16045
#
# Static dielectric constant tensor:
#      x y z
#    x 2.127970 0.000000 0.079840 
#    y 0.000000 2.069200 0.000000 
#    z 0.079840 0.000000 2.119900 
# 
# From -- ./inp_files/10099.got.cif
#   From: 2010.05.17/outbox.cif.g08.bks.cpg/sg11_6_cif.got.tgz:10099.got - 2010.06.03 12:22:45.
