data_PCOD9166711
_publ_section_title
;
Structure prediction by ZEFSAII (Michael W. Deem and Ramdas Pophale) SiO2 
 PCOD9166711
Probable space group: P 21/M
;
_chemical_formula_sum "Si O2"
_cell_formula_units_Z 14
_cell_length_a 7.132010
_cell_length_b 10.202754
_cell_length_c 7.927572
_cell_angle_alpha 90.000000
_cell_angle_beta 111.609041
_cell_angle_gamma 90.000000
_cell_volume 536.316272
_symmetry_space_group_name_H-M "P 21/M"
_symmetry_group_IT_number 11
_symmetry_cell_setting 'monoclinic'
loop_
_space_group_symop_operation_xyz
x,y,z
-x,1/2+y,-z
-x,-y,-z
x,1/2-y,z
loop_
_atom_site_type_symbol
_atom_site_label
_atom_site_fract_x
_atom_site_fract_y
_atom_site_fract_z
Si Si1 0.497050 0.750000 0.863591
Si Si2 0.372838 0.750000 0.183085
Si Si3 0.959459 0.901490 0.705801
Si Si4 0.656686 0.505620 0.344874
Si Si5 0.061715 0.250000 0.975240
O O1 0.462968 0.873511 0.733573
O O2 0.715602 0.750000 0.024695
O O3 0.342692 0.750000 0.969076
O O4 0.505765 0.624086 0.265964
O O5 0.149912 0.750000 0.190513
O O6 0.972608 0.750000 0.635977
O O7 0.940255 0.873323 0.896507
O O8 0.152124 0.988474 0.719309
O O9 0.767531 0.970716 0.558390
#
# Coordination Sequence:
#
# PCOD9166711 Si02
#       5
#     2   2   4   4   2
#     4  12  24  37  66  91 120 165 198 244 308 358
#     4  12  23  42  61  90 125 161 196 252 298 362
#     4   9  19  41  62  89 117 158 197 255 288 355
#     4  11  21  40  68  86 119 165 203 241 309 348
#     4  10  23  41  59  93 127 152 202 254 296 354
#
# _framework density 26.104001
#
# number of rings (size 3 to 8) (size 9 to 14) (size 15 to 20)
#    0.857    0.571    5.714    0.857    0.000    2.286 
#    0.000    0.000    6.286    0.000    0.000    0.000 
#    0.000    0.000    0.000    0.000    0.000    0.000 
#
# Total GULP energy -78372.081573 kJ/mol
# GULP energy per Si atom -5598.005827 kJ/mol
# Density = 2.604459 g / cm^3
# Si number density = 26.104001 Si / 1000 Ang^3
#
#
#
# Elastic Constant Matrix: (Units=GPa)
#
#
# Indices 1 2 3 4 5 6 
#
# 1 92.6430 17.1437 29.8437 0.0000 32.0618 0.0000
# 2 17.1437 189.2873 83.9117 0.0000 37.4871 0.0000
# 3 29.8437 83.9117 112.6836 0.0000 55.5345 0.0000
# 4 0.0000 0.0000 0.0000 61.0387 0.0000 9.3731
# 5 32.0618 37.4871 55.5345 0.0000 49.1563 0.0000
# 6 0.0000 0.0000 0.0000 9.3731 0.0000 107.4455
#
#
#
# Elastic Compliance Matrix: (Units=1/GPa)
#
#
# Indices 1 2 3 4 5 6 
#
# 1 0.014107 0.000224 0.001616 0.000000 -0.011197 0.000000
# 2 0.000224 0.007933 -0.006573 0.000000 0.001230 0.000000
# 3 0.001616 -0.006573 0.025699 0.000000 -0.025074 0.000000
# 4 0.000000 0.000000 0.000000 0.016605 0.000000 -0.001449
# 5 -0.011197 0.001230 -0.025074 0.000000 0.055036 0.000000
# 6 0.000000 0.000000 0.000000 -0.001449 0.000000 0.009433
#
#
# Mechanical properties :
#
#
# Convention : Reuss Voigt Hill
#
# Bulk Modulus (GPa) = 26.12900 72.93470 49.53185
# Shear Modulus (GPa) = 33.10413 61.10908 47.10661
#
# Velocity S-wave (km/s) = 3.56499 4.84362 4.25264
# Velocity P-wave (km/s) = 5.19392 7.69945 6.56728
#
# Compressibility (1/GPa) = 0.03827165
#
# Stress axis : x y z
#
# Youngs Moduli (GPa) = 70.88472 126.05821 38.91261
#
# Poissons Ratio (x) = -0.02819 -0.06286
# Poissons Ratio (y) = -0.01585 0.25576
# Poissons Ratio (z) = -0.11452 0.82855
#
# Static dielectric constant tensor:
#      x y z
#    x 2.080190 0.000000 0.010130 
#    y 0.000000 2.084980 0.000000 
#    z 0.010130 0.000000 2.006050 
# 
# From -- ./inp_files/11047.got.cif
#   From: 2010.05.17/outbox.cif.g08.bks.cpg/sg11_6_cif.got.tgz:11047.got - 2010.06.03 12:22:45.
