data_PCOD9166652
_publ_section_title
;
Structure prediction by ZEFSAII (Michael W. Deem and Ramdas Pophale) SiO2 
 PCOD9166652
Probable space group: P 21/M
;
_chemical_formula_sum "Si O2"
_cell_formula_units_Z 24
_cell_length_a 8.615191
_cell_length_b 19.957505
_cell_length_c 11.547452
_cell_angle_alpha 90.000000
_cell_angle_beta 26.294298
_cell_angle_gamma 90.000000
_cell_volume 879.515250
_symmetry_space_group_name_H-M "P 21/M"
_symmetry_group_IT_number 11
_symmetry_cell_setting 'monoclinic'
loop_
_space_group_symop_operation_xyz
x,y,z
-x,1/2+y,-z
-x,-y,-z
x,1/2-y,z
loop_
_atom_site_type_symbol
_atom_site_label
_atom_site_fract_x
_atom_site_fract_y
_atom_site_fract_z
Si Si1 0.516305 0.250000 0.988380
Si Si2 0.299330 0.750000 0.406608
Si Si3 0.913874 0.948217 0.191995
Si Si4 0.558886 0.675230 0.557396
Si Si5 0.405260 0.370352 0.219980
Si Si6 0.239319 0.372386 0.913317
Si Si7 0.809777 0.550715 0.830400
O O1 0.598946 0.316516 0.007964
O O2 0.089400 0.250000 0.282977
O O3 0.651589 0.250000 0.766786
O O4 0.493258 0.817823 0.313539
O O5 0.716809 0.886226 0.382836
O O6 0.787970 0.940377 0.144251
O O7 0.898121 0.010289 0.291510
O O8 0.320119 0.925936 0.921460
O O9 0.635127 0.750000 0.464080
O O10 0.698456 0.668075 0.595580
O O11 0.139531 0.663439 0.838586
O O12 0.113721 0.408797 0.338816
O O13 0.318648 0.394943 0.990434
O O14 0.500000 0.500000 0.000000
#
# Coordination Sequence:
#
# PCOD9166652 Si02
#       7
#     2   2   4   4   4   4   4
#     4  12  26  43  70 113 144 197 244 311 375 442
#     4  12  28  43  74 109 152 189 248 313 377 436
#     4  10  25  41  71  98 142 192 236 305 363 447
#     4  11  24  40  66 103 143 186 243 304 369 437
#     4  10  23  42  67 101 142 184 245 298 365 433
#     4  11  24  44  67 102 142 188 241 307 366 444
#     4  10  22  46  69  98 142 189 248 298 368 440
#
# _framework density 27.287759999999999
#
# number of rings (size 3 to 8) (size 9 to 14) (size 15 to 20)
#    0.000    1.333    3.333    0.500    7.000    1.333 
#    0.000    3.333    0.000    0.000    0.000    0.000 
#    0.000    0.000    0.000    0.000    0.000    0.000 
#
# Total GULP energy -134472.933392 kJ/mol
# GULP energy per Si atom -5603.038891 kJ/mol
# Density = 2.722565 g / cm^3
# Si number density = 27.287760 Si / 1000 Ang^3
#
#
#
# Elastic Constant Matrix: (Units=GPa)
#
#
# Indices 1 2 3 4 5 6 
#
# 1 156.3333 42.1652 18.8135 0.0000 21.4399 0.0000
# 2 42.1652 123.8108 3.7617 0.0000 -14.5141 0.0000
# 3 18.8135 3.7617 78.9691 0.0000 -17.3731 0.0000
# 4 0.0000 0.0000 0.0000 39.5487 0.0000 -11.3677
# 5 21.4399 -14.5141 -17.3731 0.0000 35.9276 0.0000
# 6 0.0000 0.0000 0.0000 -11.3677 0.0000 66.4340
#
#
#
# Elastic Compliance Matrix: (Units=1/GPa)
#
#
# Indices 1 2 3 4 5 6 
#
# 1 0.009228 -0.004087 -0.004005 0.000000 -0.009095 0.000000
# 2 -0.004087 0.010299 0.002165 0.000000 0.007647 0.000000
# 3 -0.004005 0.002165 0.015927 0.000000 0.010966 0.000000
# 4 0.000000 0.000000 0.000000 0.026593 0.000000 0.004550
# 5 -0.009095 0.007647 0.010966 0.000000 0.041653 0.000000
# 6 0.000000 0.000000 0.000000 0.004550 0.000000 0.015831
#
#
# Mechanical properties :
#
#
# Convention : Reuss Voigt Hill
#
# Bulk Modulus (GPa) = 42.37035 54.28825 48.32930
# Shear Modulus (GPa) = 35.90633 48.00692 41.95662
#
# Velocity S-wave (km/s) = 3.63139 4.19893 3.92543
# Velocity P-wave (km/s) = 5.75705 6.59135 6.18828
#
# Compressibility (1/GPa) = 0.02360141
#
# Stress axis : x y z
#
# Youngs Moduli (GPa) = 108.36443 97.09277 62.78819
#
# Poissons Ratio (x) = 0.39684 0.25144
# Poissons Ratio (y) = 0.44291 -0.13596
# Poissons Ratio (z) = 0.43395 -0.21025
#
# Static dielectric constant tensor:
#      x y z
#    x 2.149880 0.000000 -0.011500 
#    y 0.000000 2.110420 0.000000 
#    z -0.011500 0.000000 2.126150 
# 
# From -- ./inp_files/33025.got.cif
#   From: 2010.05.17/outbox.cif.g08.bks.cpg/sg11_17_cif.got.tgz:33025.got - 2010.06.03 12:22:45.
