data_PCOD9166267
_publ_section_title
;
Structure prediction by ZEFSAII (Michael W. Deem and Ramdas Pophale) SiO2 
 PCOD9166267
Probable space group: P 21/M
;
_chemical_formula_sum "Si O2"
_cell_formula_units_Z 28
_cell_length_a 29.354235
_cell_length_b 8.720943
_cell_length_c 9.142184
_cell_angle_alpha 90.000000
_cell_angle_beta 38.951690
_cell_angle_gamma 90.000000
_cell_volume 1471.307292
_symmetry_space_group_name_H-M "P 21/M"
_symmetry_group_IT_number 11
_symmetry_cell_setting 'monoclinic'
loop_
_space_group_symop_operation_xyz
x,y,z
-x,1/2+y,-z
-x,-y,-z
x,1/2-y,z
loop_
_atom_site_type_symbol
_atom_site_label
_atom_site_fract_x
_atom_site_fract_y
_atom_site_fract_z
Si Si1 0.359622 0.565209 0.520851
Si Si2 0.930051 0.565243 0.093250
Si Si3 0.928937 0.565546 0.755829
Si Si4 0.354136 0.564815 0.194001
Si Si5 0.211335 0.565825 0.056537
Si Si6 0.784296 0.565849 0.628015
Si Si7 0.498240 0.066352 0.341401
O O1 0.366373 0.750000 0.510708
O O2 0.356848 0.520293 0.357570
O O3 0.428095 0.493212 0.430956
O O4 0.285095 0.522510 0.787841
O O5 0.933689 0.750000 0.088024
O O6 0.928385 0.518281 0.927611
O O7 0.856619 0.518466 0.359522
O O8 0.000000 0.500000 0.000000
O O9 0.929942 0.750000 0.746164
O O10 0.857756 0.503662 0.853050
O O11 0.000000 0.500000 0.500000
O O12 0.347018 0.750000 0.204286
O O13 0.286144 0.490519 0.282855
O O14 0.428744 0.521449 0.927358
O O15 0.205797 0.750000 0.070829
O O16 0.214545 0.505345 0.213659
O O17 0.783633 0.750000 0.640559
O O18 0.496183 0.250000 0.353922
O O19 0.500000 0.000000 0.500000
#
# Coordination Sequence:
#
# PCOD9166267 Si02
#       7
#     4   4   4   4   4   4   4
#     4  10  22  40  61  85 116 152 193 239 289 342
#     4  10  23  40  59  85 116 150 190 234 282 336
#     4  11  23  40  61  87 118 152 192 238 286 340
#     4  10  22  40  60  85 116 152 192 237 288 343
#     4  11  23  39  60  87 117 152 192 237 288 342
#     4  11  23  39  60  87 117 152 193 237 284 340
#     4  11  23  38  59  86 117 152 193 238 287 343
#
# _framework density 19.030695999999999
#
# number of rings (size 3 to 8) (size 9 to 14) (size 15 to 20)
#    0.000    1.429    0.000    4.714    0.000   10.857 
#    0.000    0.000    0.000    0.000    0.000    0.000 
#    0.000    0.000    0.000    0.000    0.000    0.000 
#
# Total GULP energy -156629.811584 kJ/mol
# GULP energy per Si atom -5593.921842 kJ/mol
# Density = 1.898738 g / cm^3
# Si number density = 19.030696 Si / 1000 Ang^3
#
#
#
# Elastic Constant Matrix: (Units=GPa)
#
#
# Indices 1 2 3 4 5 6 
#
# 1 232.4143 60.4079 144.6144 0.0000 -0.4798 0.0000
# 2 60.4079 40.5320 65.5200 0.0000 -1.2978 0.0000
# 3 144.6144 65.5200 236.3265 0.0000 1.6294 0.0000
# 4 0.0000 0.0000 0.0000 30.9580 0.0000 -4.4953
# 5 -0.4798 -1.2978 1.6294 0.0000 46.1101 0.0000
# 6 0.0000 0.0000 0.0000 -4.4953 0.0000 43.6696
#
#
#
# Elastic Compliance Matrix: (Units=1/GPa)
#
#
# Indices 1 2 3 4 5 6 
#
# 1 0.007970 -0.007240 -0.002870 0.000000 -0.000019 0.000000
# 2 -0.007240 0.051419 -0.009837 0.000000 0.001720 0.000000
# 3 -0.002870 -0.009837 0.008719 0.000000 -0.000615 0.000000
# 4 0.000000 0.000000 0.000000 0.032792 0.000000 0.003376
# 5 -0.000019 0.001720 -0.000615 0.000000 0.021757 0.000000
# 6 0.000000 0.000000 0.000000 0.003376 0.000000 0.023247
#
#
# Mechanical properties :
#
#
# Convention : Reuss Voigt Hill
#
# Bulk Modulus (GPa) = 35.44296 116.70639 76.07467
# Shear Modulus (GPa) = 25.61447 40.06291 32.83869
#
# Velocity S-wave (km/s) = 3.67271 4.59319 4.15850
# Velocity P-wave (km/s) = 6.05389 9.46511 7.94474
#
# Compressibility (1/GPa) = 0.02821435
#
# Stress axis : x y z
#
# Youngs Moduli (GPa) = 125.47033 19.44805 114.69298
#
# Poissons Ratio (x) = 0.14081 0.32913
# Poissons Ratio (y) = 0.90843 1.12824
# Poissons Ratio (z) = 0.36005 0.19131
#
# Static dielectric constant tensor:
#      x y z
#    x 1.606940 0.000000 0.010780 
#    y 0.000000 1.645310 0.000000 
#    z 0.010780 0.000000 1.641250 
# 
# From -- ./inp_files/28258.got.cif
#   From: 2010.05.17/outbox.cif.g08.bks.cpg/sg11_15_cif.got.tgz:28258.got - 2010.06.03 12:22:45.
