data_PCOD9166467
_publ_section_title
;
Structure prediction by ZEFSAII (Michael W. Deem and Ramdas Pophale) SiO2 
 PCOD9166467
Probable space group: P 21/M
;
_chemical_formula_sum "Si O2"
_cell_formula_units_Z 24
_cell_length_a 9.656928
_cell_length_b 8.861101
_cell_length_c 12.736036
_cell_angle_alpha 90.000000
_cell_angle_beta 78.154865
_cell_angle_gamma 90.000000
_cell_volume 1066.628554
_symmetry_space_group_name_H-M "P 21/M"
_symmetry_group_IT_number 11
_symmetry_cell_setting 'monoclinic'
loop_
_space_group_symop_operation_xyz
x,y,z
-x,1/2+y,-z
-x,-y,-z
x,1/2-y,z
loop_
_atom_site_type_symbol
_atom_site_label
_atom_site_fract_x
_atom_site_fract_y
_atom_site_fract_z
Si Si1 0.727650 0.924157 0.265178
Si Si2 0.353068 0.425370 0.488397
Si Si3 0.980635 0.928846 0.808989
Si Si4 0.725415 0.075370 0.936164
Si Si5 0.888986 0.431079 0.600841
Si Si6 0.492032 0.925600 0.836398
O O1 0.721334 0.750000 0.232776
O O2 0.738042 0.928579 0.389488
O O3 0.584595 0.007025 0.252509
O O4 0.863593 0.006132 0.196651
O O5 0.500000 0.500000 0.500000
O O6 0.372394 0.250000 0.455825
O O7 0.265021 0.514314 0.414767
O O8 0.987289 0.750000 0.797434
O O9 0.866526 0.977133 0.913501
O O10 0.925573 0.002853 0.709066
O O11 0.763201 0.250000 0.915731
O O12 0.625192 0.018108 0.857417
O O13 0.628224 0.061604 0.054157
O O14 0.897798 0.250000 0.600160
O O15 0.000000 0.500000 0.500000
O O16 0.529137 0.750000 0.818935
#
# Coordination Sequence:
#
# PCOD9166467 Si02
#       6
#     4   4   4   4   4   4
#     4  11  24  42  64  91 127 166 207 258 314 369
#     4  11  25  43  64  92 127 168 210 257 310 366
#     4  12  25  41  65  94 125 165 211 258 309 370
#     4  10  22  42  66  93 126 164 207 256 311 372
#     4  12  24  42  66  92 127 167 207 255 308 368
#     4  10  22  41  66  94 126 164 207 256 311 372
#
# _framework density 22.500805
#
# number of rings (size 3 to 8) (size 9 to 14) (size 15 to 20)
#    0.000    1.000    1.667    5.000    2.333    4.667 
#    0.000    0.000    0.000    0.000    0.000    0.000 
#    0.000    0.000    0.000    0.000    0.000    0.000 
#
# Total GULP energy -134456.184292 kJ/mol
# GULP energy per Si atom -5602.341012 kJ/mol
# Density = 2.244959 g / cm^3
# Si number density = 22.500805 Si / 1000 Ang^3
#
#
#
# Elastic Constant Matrix: (Units=GPa)
#
#
# Indices 1 2 3 4 5 6 
#
# 1 87.0230 5.0146 -4.2118 0.0000 -0.6507 0.0000
# 2 5.0146 123.9727 6.5030 0.0000 -1.6103 0.0000
# 3 -4.2118 6.5030 46.8123 0.0000 3.1510 0.0000
# 4 0.0000 0.0000 0.0000 28.0566 0.0000 -0.6993
# 5 -0.6507 -1.6103 3.1510 0.0000 39.7718 0.0000
# 6 0.0000 0.0000 0.0000 -0.6993 0.0000 40.1453
#
#
#
# Elastic Compliance Matrix: (Units=1/GPa)
#
#
# Indices 1 2 3 4 5 6 
#
# 1 0.011576 -0.000525 0.001109 0.000000 0.000080 0.000000
# 2 -0.000525 0.008156 -0.001208 0.000000 0.000417 0.000000
# 3 0.001109 -0.001208 0.021748 0.000000 -0.001754 0.000000
# 4 0.000000 0.000000 0.000000 0.035658 0.000000 0.000621
# 5 0.000080 0.000417 -0.001754 0.000000 0.025301 0.000000
# 6 0.000000 0.000000 0.000000 0.000621 0.000000 0.024920
#
#
# Mechanical properties :
#
#
# Convention : Reuss Voigt Hill
#
# Bulk Modulus (GPa) = 24.85688 30.26886 27.56287
# Shear Modulus (GPa) = 35.20685 38.29490 36.75087
#
# Velocity S-wave (km/s) = 3.95991 4.12993 4.04581
# Velocity P-wave (km/s) = 5.65499 6.01858 5.83962
#
# Compressibility (1/GPa) = 0.04023030
#
# Stress axis : x y z
#
# Youngs Moduli (GPa) = 86.38735 122.60384 45.98211
#
# Poissons Ratio (x) = 0.06441 -0.05100
# Poissons Ratio (y) = 0.04539 0.05557
# Poissons Ratio (z) = -0.09581 0.14816
#
# Static dielectric constant tensor:
#      x y z
#    x 1.806430 0.000000 -0.032670 
#    y 0.000000 1.746430 0.000000 
#    z -0.032670 0.000000 1.888390 
# 
# From -- ./inp_files/46488.got.cif
#   From: 2010.05.17/outbox.cif.g08.bks.cpg/sg11_24_cif.got.tgz:46488.got - 2010.06.03 12:22:45.
