data_PCOD9166426
_publ_section_title
;
Structure prediction by ZEFSAII (Michael W. Deem and Ramdas Pophale) SiO2 
 PCOD9166426
Probable space group: P 21/M
;
_chemical_formula_sum "Si O2"
_cell_formula_units_Z 20
_cell_length_a 13.401134
_cell_length_b 11.352330
_cell_length_c 5.247861
_cell_angle_alpha 90.000000
_cell_angle_beta 114.713145
_cell_angle_gamma 90.000000
_cell_volume 725.256916
_symmetry_space_group_name_H-M "P 21/M"
_symmetry_group_IT_number 11
_symmetry_cell_setting 'monoclinic'
loop_
_space_group_symop_operation_xyz
x,y,z
-x,1/2+y,-z
-x,-y,-z
x,1/2-y,z
loop_
_atom_site_type_symbol
_atom_site_label
_atom_site_fract_x
_atom_site_fract_y
_atom_site_fract_z
Si Si1 0.920501 0.066168 0.103047
Si Si2 0.773749 0.250000 0.676601
Si Si3 0.657300 0.889539 0.573071
Si Si4 0.143286 0.378379 0.584050
Si Si5 0.512439 0.111604 0.224039
Si Si6 0.368472 0.750000 0.977932
O O1 0.013179 0.126750 0.378942
O O2 0.847708 0.983662 0.205770
O O3 0.848337 0.141357 0.835122
O O4 0.000000 0.000000 0.000000
O O5 0.728896 0.250000 0.341155
O O6 0.687182 0.250000 0.813892
O O7 0.630710 0.750000 0.476999
O O8 0.778414 0.897728 0.578380
O O9 0.612949 0.898527 0.819028
O O10 0.592863 0.008356 0.405706
O O11 0.172781 0.250000 0.727579
O O12 0.534327 0.250000 0.323925
O O13 0.554837 0.134590 0.981503
#
# Coordination Sequence:
#
# PCOD9166426 Si02
#       6
#     4   2   4   4   4   2
#     4  11  26  38  63  91 129 177 227 277 332 398
#     4  12  26  44  69  97 134 170 230 278 326 395
#     4   9  16  32  61  92 125 174 205 274 330 400
#     4  10  22  41  64  90 131 172 220 275 342 399
#     4   8  17  33  62  93 126 164 220 265 323 397
#     4  10  24  42  71  95 132 172 224 276 332 387
#
# _framework density 27.576436999999999
#
# number of rings (size 3 to 8) (size 9 to 14) (size 15 to 20)
#    0.600    1.600    1.000    1.200    9.800    0.000 
#    0.000    0.000    4.400    3.600    0.000    0.000 
#    0.000    0.000    0.000    0.000    0.000    0.000 
#
# Total GULP energy -111442.672167 kJ/mol
# GULP energy per Si atom -5572.133608 kJ/mol
# Density = 2.751367 g / cm^3
# Si number density = 27.576437 Si / 1000 Ang^3
#
#
#
# Elastic Constant Matrix: (Units=GPa)
#
#
# Indices 1 2 3 4 5 6 
#
# 1 178.2956 66.6888 44.3794 0.0000 -21.4540 0.0000
# 2 66.6888 170.9065 51.6716 0.0000 -3.6285 0.0000
# 3 44.3794 51.6716 92.3266 0.0000 8.2752 0.0000
# 4 0.0000 0.0000 0.0000 55.9119 0.0000 26.9253
# 5 -21.4540 -3.6285 8.2752 0.0000 45.3483 0.0000
# 6 0.0000 0.0000 0.0000 26.9253 0.0000 109.2054
#
#
#
# Elastic Compliance Matrix: (Units=1/GPa)
#
#
# Indices 1 2 3 4 5 6 
#
# 1 0.007539 -0.001994 -0.002860 0.000000 0.003929 0.000000
# 2 -0.001994 0.007647 -0.003346 0.000000 0.000279 0.000000
# 3 -0.002860 -0.003346 0.014461 0.000000 -0.004260 0.000000
# 4 0.000000 0.000000 0.000000 0.020295 0.000000 -0.005004
# 5 0.003929 0.000279 -0.004260 0.000000 0.024710 0.000000
# 6 0.000000 0.000000 0.000000 -0.005004 0.000000 0.010391
#
#
# Mechanical properties :
#
#
# Convention : Reuss Voigt Hill
#
# Bulk Modulus (GPa) = 75.49476 85.22314 80.35895
# Shear Modulus (GPa) = 47.23310 60.67905 53.95607
#
# Velocity S-wave (km/s) = 4.14310 4.69593 4.42815
# Velocity P-wave (km/s) = 7.09387 7.77005 7.43965
#
# Compressibility (1/GPa) = 0.01324595
#
# Stress axis : x y z
#
# Youngs Moduli (GPa) = 132.64218 130.77493 69.15342
#
# Poissons Ratio (x) = 0.26071 0.19780
# Poissons Ratio (y) = 0.26444 0.23141
# Poissons Ratio (z) = 0.37940 0.43762
#
# Static dielectric constant tensor:
#      x y z
#    x 2.178010 0.000000 0.027880 
#    y 0.000000 2.316210 0.000000 
#    z 0.027880 0.000000 2.862680 
# 
# From -- ./inp_files/6212.got.cif
#   From: 2010.05.17/outbox.cif.g08.bks.cpg/sg11_4_cif.got.tgz:6212.got - 2010.06.03 12:22:45.
