data_PCOD9166086
_publ_section_title
;
Structure prediction by ZEFSAII (Michael W. Deem and Ramdas Pophale) SiO2 
 PCOD9166086
Probable space group: P 21/M
;
_chemical_formula_sum "Si O2"
_cell_formula_units_Z 28
_cell_length_a 7.225828
_cell_length_b 10.143265
_cell_length_c 28.404354
_cell_angle_alpha 90.000000
_cell_angle_beta 136.681297
_cell_angle_gamma 90.000000
_cell_volume 1428.268311
_symmetry_space_group_name_H-M "P 21/M"
_symmetry_group_IT_number 11
_symmetry_cell_setting 'monoclinic'
loop_
_space_group_symop_operation_xyz
x,y,z
-x,1/2+y,-z
-x,-y,-z
x,1/2-y,z
loop_
_atom_site_type_symbol
_atom_site_label
_atom_site_fract_x
_atom_site_fract_y
_atom_site_fract_z
Si Si1 0.825507 0.096447 0.158969
Si Si2 0.764344 0.596109 0.940609
Si Si3 0.857072 0.398797 0.534804
Si Si4 0.534392 0.101555 0.571897
Si Si5 0.906442 0.100340 0.723922
Si Si6 0.373946 0.099306 0.690358
Si Si7 0.348068 0.402908 0.190797
O O1 0.833076 0.250000 0.175249
O O2 0.520609 0.070198 0.086051
O O3 0.058456 0.078345 0.163258
O O4 0.894668 0.001937 0.215234
O O5 0.837876 0.750000 0.961142
O O6 0.698913 0.577287 0.873155
O O7 0.000000 0.500000 0.000000
O O8 0.885676 0.250000 0.520903
O O9 0.716449 0.502751 0.474261
O O10 0.651500 0.389597 0.541090
O O11 0.135042 0.442256 0.610902
O O12 0.460383 0.250000 0.573690
O O13 0.781321 0.058808 0.650875
O O14 0.013291 0.250000 0.740884
O O15 0.645611 0.103219 0.709831
O O16 0.310903 0.250000 0.693888
O O17 0.441055 0.001960 0.745641
O O18 0.429055 0.250000 0.213440
#
# Coordination Sequence:
#
# PCOD9166086 Si02
#       7
#     4   4   4   4   4   4   4
#     4   9  19  36  55  77 107 138 169 209 254 300
#     4  10  22  38  56  82 109 136 171 206 247 302
#     4   9  18  31  45  65  95 130 167 209 255 301
#     4   9  18  31  45  65  95 130 167 209 255 301
#     4   9  18  32  50  73  99 129 169 213 255 301
#     4   9  18  32  50  73  99 129 169 213 255 301
#     4   9  19  36  55  77 107 138 169 209 254 300
#
# _framework density 19.60416
#
# number of rings (size 3 to 8) (size 9 to 14) (size 15 to 20)
#    0.000    2.857    0.000    0.000    2.000    3.429 
#    0.000    0.000    0.000    0.000    0.000    0.000 
#    0.000    0.000    0.000    0.000    0.000    0.000 
#
# Total GULP energy -156200.797511 kJ/mol
# GULP energy per Si atom -5578.599911 kJ/mol
# Density = 1.955954 g / cm^3
# Si number density = 19.604160 Si / 1000 Ang^3
#
#
#
# Elastic Constant Matrix: (Units=GPa)
#
#
# Indices 1 2 3 4 5 6 
#
# 1 47.6812 18.1116 13.0472 0.0000 10.5763 0.0000
# 2 18.1116 70.2134 63.2167 0.0000 23.4362 0.0000
# 3 13.0472 63.2167 80.1587 0.0000 27.1095 0.0000
# 4 0.0000 0.0000 0.0000 43.6133 0.0000 3.4411
# 5 10.5763 23.4362 27.1095 0.0000 32.5550 0.0000
# 6 0.0000 0.0000 0.0000 3.4411 0.0000 10.4348
#
#
#
# Elastic Compliance Matrix: (Units=1/GPa)
#
#
# Indices 1 2 3 4 5 6 
#
# 1 0.024209 -0.008735 0.004846 0.000000 -0.005613 0.000000
# 2 -0.008735 0.052713 -0.039361 0.000000 -0.002333 0.000000
# 3 0.004846 -0.039361 0.046880 0.000000 -0.012277 0.000000
# 4 0.000000 0.000000 0.000000 0.023541 0.000000 -0.007763
# 5 -0.005613 -0.002333 -0.012277 0.000000 0.044444 0.000000
# 6 0.000000 0.000000 0.000000 -0.007763 0.000000 0.098394
#
#
# Mechanical properties :
#
#
# Convention : Reuss Voigt Hill
#
# Bulk Modulus (GPa) = 26.80696 42.97825 34.89260
# Shear Modulus (GPa) = 12.84971 24.23246 18.54108
#
# Velocity S-wave (km/s) = 2.56297 3.51962 3.07868
# Velocity P-wave (km/s) = 4.73943 6.20383 5.52041
#
# Compressibility (1/GPa) = 0.03730375
#
# Stress axis : x y z
#
# Youngs Moduli (GPa) = 41.30629 18.97079 21.33101
#
# Poissons Ratio (x) = 0.16571 -0.10338
# Poissons Ratio (y) = 0.36081 0.83960
# Poissons Ratio (z) = -0.20019 0.74670
#
# Static dielectric constant tensor:
#      x y z
#    x 1.757100 0.000000 -0.001890 
#    y 0.000000 1.690210 0.000000 
#    z -0.001890 0.000000 1.646560 
# 
# From -- ./inp_files/25564.got.cif
#   From: 2010.05.17/outbox.cif.g08.bks.cpg/sg11_13_cif.got.tgz:25564.got - 2010.06.03 12:22:45.
