data_PCOD9166861
_publ_section_title
;
Structure prediction by ZEFSAII (Michael W. Deem and Ramdas Pophale) SiO2 
 PCOD9166861
Probable space group: P 21/M
;
_chemical_formula_sum "Si O2"
_cell_formula_units_Z 18
_cell_length_a 18.064357
_cell_length_b 10.002848
_cell_length_c 4.925389
_cell_angle_alpha 90.000000
_cell_angle_beta 59.031598
_cell_angle_gamma 90.000000
_cell_volume 763.125788
_symmetry_space_group_name_H-M "P 21/M"
_symmetry_group_IT_number 11
_symmetry_cell_setting 'monoclinic'
loop_
_space_group_symop_operation_xyz
x,y,z
-x,1/2+y,-z
-x,-y,-z
x,1/2-y,z
loop_
_atom_site_type_symbol
_atom_site_label
_atom_site_fract_x
_atom_site_fract_y
_atom_site_fract_z
Si Si1 0.902110 0.494332 0.779689
Si Si2 0.658224 0.531136 0.446789
Si Si3 0.190611 0.898526 0.544162
Si Si4 0.471457 0.250000 0.091255
Si Si5 0.780167 0.750000 0.976305
Si Si6 0.585118 0.250000 0.375734
O O1 0.845361 0.401959 0.689202
O O2 0.855795 0.635509 0.831710
O O3 0.000000 0.500000 0.500000
O O4 0.887406 0.443601 0.112032
O O5 0.731204 0.497407 0.534213
O O6 0.581956 0.617144 0.727496
O O7 0.630811 0.390636 0.364149
O O8 0.706077 0.632681 0.154199
O O9 0.219286 0.750000 0.559216
O O10 0.557458 0.250000 0.114305
O O11 0.499370 0.250000 0.726481
#
# Coordination Sequence:
#
# PCOD9166861 Si02
#       6
#     4   4   4   2   2   2
#     4  11  25  44  69 103 139 180 232 289 349 408
#     4  10  23  46  69 101 143 182 235 285 340 434
#     4  11  24  44  70 100 136 186 231 282 349 411
#     4  11  26  42  70 101 141 180 231 286 354 406
#     4   9  24  44  70 101 136 188 226 280 351 406
#     4  12  24  44  68 104 137 182 229 288 353 406
#
# _framework density 23.587199999999999
#
# number of rings (size 3 to 8) (size 9 to 14) (size 15 to 20)
#    0.000    1.333    1.111    2.667    3.111   13.333 
#    0.000    0.000    0.000    0.000    0.000    0.000 
#    0.000    0.000    0.000    0.000    0.000    0.000 
#
# Total GULP energy -100222.282914 kJ/mol
# GULP energy per Si atom -5567.904606 kJ/mol
# Density = 2.353351 g / cm^3
# Si number density = 23.587200 Si / 1000 Ang^3
#
#
#
# Elastic Constant Matrix: (Units=GPa)
#
#
# Indices 1 2 3 4 5 6 
#
# 1 65.6719 29.0097 8.6855 0.0000 -14.7621 0.0000
# 2 29.0097 187.0996 36.5534 0.0000 -21.9949 0.0000
# 3 8.6855 36.5534 63.2501 0.0000 -15.5316 0.0000
# 4 0.0000 0.0000 0.0000 32.7478 0.0000 -19.8204
# 5 -14.7621 -21.9949 -15.5316 0.0000 35.1827 0.0000
# 6 0.0000 0.0000 0.0000 -19.8204 0.0000 15.0511
#
#
#
# Elastic Compliance Matrix: (Units=1/GPa)
#
#
# Indices 1 2 3 4 5 6 
#
# 1 0.017481 -0.002041 0.000299 0.000000 0.006191 0.000000
# 2 -0.002041 0.006466 -0.002999 0.000000 0.001862 0.000000
# 3 0.000299 -0.002999 0.019149 0.000000 0.006704 0.000000
# 4 0.000000 0.000000 0.000000 0.150448 0.000000 0.198120
# 5 0.006191 0.001862 0.006704 0.000000 0.035144 0.000000
# 6 0.000000 0.000000 0.000000 0.198120 0.000000 0.327339
#
#
# Mechanical properties :
#
#
# Convention : Reuss Voigt Hill
#
# Bulk Modulus (GPa) = 29.75011 51.61319 40.68165
# Shear Modulus (GPa) = 8.66982 32.71452 20.69217
#
# Velocity S-wave (km/s) = 1.91928 3.72823 2.96508
# Velocity P-wave (km/s) = 4.18948 6.36100 5.38582
#
# Compressibility (1/GPa) = 0.03361332
#
# Stress axis : x y z
#
# Youngs Moduli (GPa) = 57.20541 154.65323 52.22281
#
# Poissons Ratio (x) = 0.31566 -0.01563
# Poissons Ratio (y) = 0.11676 0.15664
# Poissons Ratio (z) = -0.01712 0.46387
#
# Static dielectric constant tensor:
#      x y z
#    x 1.872610 0.000000 0.013000 
#    y 0.000000 1.953160 0.000000 
#    z 0.013000 0.000000 1.905880 
# 
# From -- ./inp_files/7438.got.cif
#   From: 2010.05.17/outbox.cif.g08.bks.cpg/sg11_4_cif.got.tgz:7438.got - 2010.06.03 12:22:45.
