data_PCOD9166914
_publ_section_title
;
Structure prediction by ZEFSAII (Michael W. Deem and Ramdas Pophale) SiO2 
 PCOD9166914
Probable space group: P 21/M
;
_chemical_formula_sum "Si O2"
_cell_formula_units_Z 22
_cell_length_a 6.615299
_cell_length_b 12.197674
_cell_length_c 13.656991
_cell_angle_alpha 90.000000
_cell_angle_beta 103.751026
_cell_angle_gamma 90.000000
_cell_volume 1070.414096
_symmetry_space_group_name_H-M "P 21/M"
_symmetry_group_IT_number 11
_symmetry_cell_setting 'monoclinic'
loop_
_space_group_symop_operation_xyz
x,y,z
-x,1/2+y,-z
-x,-y,-z
x,1/2-y,z
loop_
_atom_site_type_symbol
_atom_site_label
_atom_site_fract_x
_atom_site_fract_y
_atom_site_fract_z
Si Si1 0.587745 0.623486 0.121139
Si Si2 0.443040 0.464783 0.602879
Si Si3 0.778283 0.546815 0.942088
Si Si4 0.065866 0.446004 0.681177
Si Si5 0.723202 0.250000 0.650409
Si Si6 0.239364 0.124908 0.273422
O O1 0.544604 0.750000 0.138399
O O2 0.377423 0.553074 0.101840
O O3 0.762505 0.578019 0.214715
O O4 0.677015 0.610209 0.021578
O O5 0.500000 0.500000 0.500000
O O6 0.199795 0.458324 0.598376
O O7 0.545750 0.347754 0.637059
O O8 0.547824 0.559828 0.680555
O O9 0.801326 0.617726 0.847223
O O10 0.000000 0.500000 0.000000
O O11 0.903881 0.346569 0.662125
O O12 0.939561 0.555439 0.693547
O O13 0.250220 0.250000 0.307705
#
# Coordination Sequence:
#
# PCOD9166914 Si02
#       6
#     4   4   4   4   2   4
#     4  11  23  39  68  97 130 176 219 276 334 398
#     4  11  26  47  68 100 138 176 223 285 348 398
#     4  11  23  43  62  97 136 173 224 266 336 397
#     4  11  22  45  69  99 132 173 228 278 337 400
#     4  10  24  42  76 100 128 170 226 286 334 406
#     4  11  25  44  67  98 135 181 226 278 333 408
#
# _framework density 20.552795
#
# number of rings (size 3 to 8) (size 9 to 14) (size 15 to 20)
#    0.000    1.091    4.545    1.091    1.273    5.091 
#    3.273    0.000    0.000    0.000    0.000    0.000 
#    0.000    0.000    0.000    0.000    0.000    0.000 
#
# Total GULP energy -122533.937329 kJ/mol
# GULP energy per Si atom -5569.724424 kJ/mol
# Density = 2.050602 g / cm^3
# Si number density = 20.552795 Si / 1000 Ang^3
#
#
#
# Elastic Constant Matrix: (Units=GPa)
#
#
# Indices 1 2 3 4 5 6 
#
# 1 124.9890 55.7212 5.3518 0.0000 -11.4637 0.0000
# 2 55.7212 193.5924 12.2295 0.0000 -3.4518 0.0000
# 3 5.3518 12.2295 57.5614 0.0000 -16.4266 0.0000
# 4 0.0000 0.0000 0.0000 10.5494 0.0000 7.3395
# 5 -11.4637 -3.4518 -16.4266 0.0000 28.8115 0.0000
# 6 0.0000 0.0000 0.0000 7.3395 0.0000 15.8700
#
#
#
# Elastic Compliance Matrix: (Units=1/GPa)
#
#
# Indices 1 2 3 4 5 6 
#
# 1 0.009543 -0.002728 0.000815 0.000000 0.003935 0.000000
# 2 -0.002728 0.006016 -0.001348 0.000000 -0.001133 0.000000
# 3 0.000815 -0.001348 0.021056 0.000000 0.012168 0.000000
# 4 0.000000 0.000000 0.000000 0.139762 0.000000 -0.064637
# 5 0.003935 -0.001133 0.012168 0.000000 0.043075 0.000000
# 6 0.000000 0.000000 0.000000 -0.064637 0.000000 0.092905
#
#
# Mechanical properties :
#
#
# Convention : Reuss Voigt Hill
#
# Bulk Modulus (GPa) = 33.23034 58.08309 45.65671
# Shear Modulus (GPa) = 15.20177 31.23554 23.21865
#
# Velocity S-wave (km/s) = 2.72259 3.90265 3.36476
# Velocity P-wave (km/s) = 5.10752 6.97348 6.11212
#
# Compressibility (1/GPa) = 0.03009298
#
# Stress axis : x y z
#
# Youngs Moduli (GPa) = 104.79008 166.23337 47.49327
#
# Poissons Ratio (x) = 0.45349 -0.03872
# Poissons Ratio (y) = 0.28587 0.06401
# Poissons Ratio (z) = -0.08543 0.22405
#
# Static dielectric constant tensor:
#      x y z
#    x 1.720620 0.000000 -0.033780 
#    y 0.000000 1.690640 0.000000 
#    z -0.033780 0.000000 1.827550 
# 
# From -- ./inp_files/6208.got.cif
#   From: 2010.05.17/outbox.cif.g08.bks.cpg/sg11_4_cif.got.tgz:6208.got - 2010.06.03 12:22:45.
