data_PCOD9166223
_publ_section_title
;
Structure prediction by ZEFSAII (Michael W. Deem and Ramdas Pophale) SiO2 
 PCOD9166223
Probable space group: P 21/M
;
_chemical_formula_sum "Si O2"
_cell_formula_units_Z 28
_cell_length_a 21.454142
_cell_length_b 8.531984
_cell_length_c 14.518443
_cell_angle_alpha 90.000000
_cell_angle_beta 32.740970
_cell_angle_gamma 90.000000
_cell_volume 1437.313710
_symmetry_space_group_name_H-M "P 21/M"
_symmetry_group_IT_number 11
_symmetry_cell_setting 'monoclinic'
loop_
_space_group_symop_operation_xyz
x,y,z
-x,1/2+y,-z
-x,-y,-z
x,1/2-y,z
loop_
_atom_site_type_symbol
_atom_site_label
_atom_site_fract_x
_atom_site_fract_y
_atom_site_fract_z
Si Si1 0.027501 0.063503 0.864156
Si Si2 0.164635 0.061864 0.037331
Si Si3 0.276562 0.560560 0.577998
Si Si4 0.368885 0.938272 0.663372
Si Si5 0.667321 0.560744 0.843731
Si Si6 0.424044 0.938448 0.226226
Si Si7 0.885485 0.560491 0.691002
O O1 0.016242 0.250000 0.876983
O O2 0.159259 0.012497 0.685239
O O3 0.937018 0.993401 0.904341
O O4 0.000000 0.000000 0.000000
O O5 0.170124 0.250000 0.029551
O O6 0.134573 0.009376 0.178561
O O7 0.286734 0.998871 0.847321
O O8 0.264389 0.750000 0.592416
O O9 0.306555 0.513122 0.644910
O O10 0.379735 0.514748 0.381345
O O11 0.371983 0.750000 0.661869
O O12 0.500000 0.000000 0.500000
O O13 0.666082 0.750000 0.842534
O O14 0.660119 0.498361 0.749166
O O15 0.778018 0.509057 0.762310
O O16 0.551368 0.506490 0.040153
O O17 0.425057 0.750000 0.222497
O O18 0.888249 0.750000 0.688366
O O19 0.000000 0.500000 0.500000
#
# Coordination Sequence:
#
# PCOD9166223 Si02
#       7
#     4   4   4   4   4   4   4
#     4  12  24  40  63  89 122 159 200 251 305 363
#     4  11  24  43  66  91 123 165 210 258 315 374
#     4  10  22  39  62  90 121 159 203 248 305 367
#     4  11  24  41  64  93 128 168 209 256 308 371
#     4   9  19  38  60  85 116 153 198 248 302 357
#     4   9  19  36  61  87 116 153 195 246 301 360
#     4  10  24  42  63  88 121 163 207 255 309 369
#
# _framework density 19.480786999999999
#
# number of rings (size 3 to 8) (size 9 to 14) (size 15 to 20)
#    0.000    1.714    1.429    2.143    4.000    2.857 
#    0.000    0.000    0.000    0.000    0.000    0.000 
#    0.000    0.000    0.000    0.000    0.000    0.000 
#
# Total GULP energy -156419.109405 kJ/mol
# GULP energy per Si atom -5586.396764 kJ/mol
# Density = 1.943645 g / cm^3
# Si number density = 19.480787 Si / 1000 Ang^3
#
#
#
# Elastic Constant Matrix: (Units=GPa)
#
#
# Indices 1 2 3 4 5 6 
#
# 1 119.4733 20.4682 78.6899 0.0000 -3.1614 0.0000
# 2 20.4682 35.9919 29.3439 0.0000 0.7253 0.0000
# 3 78.6899 29.3439 135.1825 0.0000 9.0484 0.0000
# 4 0.0000 0.0000 0.0000 33.4788 0.0000 -2.5000
# 5 -3.1614 0.7253 9.0484 0.0000 39.3830 0.0000
# 6 0.0000 0.0000 0.0000 -2.5000 0.0000 29.5062
#
#
#
# Elastic Compliance Matrix: (Units=1/GPa)
#
#
# Indices 1 2 3 4 5 6 
#
# 1 0.013985 -0.001474 -0.008021 0.000000 0.002993 0.000000
# 2 -0.001474 0.033959 -0.006565 0.000000 0.000765 0.000000
# 3 -0.008021 -0.006565 0.013738 0.000000 -0.003679 0.000000
# 4 0.000000 0.000000 0.000000 0.030060 0.000000 0.002547
# 5 0.002993 0.000765 -0.003679 0.000000 0.026463 0.000000
# 6 0.000000 0.000000 0.000000 0.002547 0.000000 0.034107
#
#
# Mechanical properties :
#
#
# Convention : Reuss Voigt Hill
#
# Bulk Modulus (GPa) = 33.82677 60.85019 47.33848
# Shear Modulus (GPa) = 25.73556 31.28332 28.50944
#
# Velocity S-wave (km/s) = 3.63860 4.01166 3.82968
# Velocity P-wave (km/s) = 5.92068 7.26372 6.62632
#
# Compressibility (1/GPa) = 0.02956238
#
# Stress axis : x y z
#
# Youngs Moduli (GPa) = 71.50728 29.44738 72.79301
#
# Poissons Ratio (x) = 0.04340 0.58386
# Poissons Ratio (y) = 0.10539 0.47786
# Poissons Ratio (z) = 0.57355 0.19331
#
# Static dielectric constant tensor:
#      x y z
#    x 1.652580 0.000000 0.010450 
#    y 0.000000 1.668220 0.000000 
#    z 0.010450 0.000000 1.676080 
# 
# From -- ./inp_files/54508.got.cif
#   From: 2010.05.17/outbox.cif.g08.bks.cpg/sg11_28_cif.got.tgz:54508.got - 2010.06.03 12:22:45.
