data_PCOD9166344
_publ_section_title
;
Structure prediction by ZEFSAII (Michael W. Deem and Ramdas Pophale) SiO2 
 PCOD9166344
Probable space group: P 21/M
;
_chemical_formula_sum "Si O2"
_cell_formula_units_Z 28
_cell_length_a 19.800247
_cell_length_b 8.603672
_cell_length_c 14.491327
_cell_angle_alpha 90.000000
_cell_angle_beta 146.563788
_cell_angle_gamma 90.000000
_cell_volume 1360.256239
_symmetry_space_group_name_H-M "P 21/M"
_symmetry_group_IT_number 11
_symmetry_cell_setting 'monoclinic'
loop_
_space_group_symop_operation_xyz
x,y,z
-x,1/2+y,-z
-x,-y,-z
x,1/2-y,z
loop_
_atom_site_type_symbol
_atom_site_label
_atom_site_fract_x
_atom_site_fract_y
_atom_site_fract_z
Si Si1 0.439261 0.061615 0.708833
Si Si2 0.600933 0.064159 0.543046
Si Si3 0.292420 0.935057 0.997271
Si Si4 0.235917 0.066714 0.124124
Si Si5 0.180832 0.435328 0.471313
Si Si6 0.029638 0.434805 0.634615
Si Si7 0.989038 0.564873 0.884987
O O1 0.436836 0.250000 0.701804
O O2 0.322201 0.011321 0.636379
O O3 0.418233 0.999418 0.581199
O O4 0.576677 0.015917 0.896957
O O5 0.597867 0.250000 0.538594
O O6 0.276048 0.997856 0.268007
O O7 0.500000 0.000000 0.500000
O O8 0.280610 0.750000 0.976074
O O9 0.166393 0.008753 0.817938
O O10 0.303495 0.982328 0.117424
O O11 0.258166 0.250000 0.146869
O O12 0.094337 0.025463 0.949790
O O13 0.177238 0.250000 0.483908
O O14 0.079905 0.509208 0.422966
O O15 0.134749 0.460878 0.313404
O O16 0.030573 0.250000 0.635443
O O17 0.000000 0.500000 0.500000
O O18 0.012861 0.750000 0.912258
O O19 0.000000 0.500000 0.000000
#
# Coordination Sequence:
#
# PCOD9166344 Si02
#       7
#     4   4   4   4   4   4   4
#     4  10  22  40  64  94 132 174 215 265 327 388
#     4  12  23  35  54  83 125 175 228 275 322 381
#     4  11  22  40  66  95 129 166 210 261 320 387
#     4  12  23  36  56  84 122 167 221 271 320 378
#     4  10  22  42  66  95 132 171 213 268 330 391
#     4  12  26  46  74 102 129 165 214 271 333 399
#     4  11  22  36  58  87 128 173 218 269 322 382
#
# _framework density 20.584354999999999
#
# number of rings (size 3 to 8) (size 9 to 14) (size 15 to 20)
#    0.000    0.857    2.857    5.571    0.000    2.857 
#    0.000    0.714    0.000    0.000    0.000    0.000 
#    0.000    0.000    0.000    0.000    0.000    0.000 
#
# Total GULP energy -156445.310022 kJ/mol
# GULP energy per Si atom -5587.332501 kJ/mol
# Density = 2.053750 g / cm^3
# Si number density = 20.584355 Si / 1000 Ang^3
#
#
#
# Elastic Constant Matrix: (Units=GPa)
#
#
# Indices 1 2 3 4 5 6 
#
# 1 112.7609 39.6871 77.2220 0.0000 23.7875 0.0000
# 2 39.6871 66.8745 43.5813 0.0000 13.2217 0.0000
# 3 77.2220 43.5813 128.9370 0.0000 28.0070 0.0000
# 4 0.0000 0.0000 0.0000 22.3026 0.0000 -6.9272
# 5 23.7875 13.2217 28.0070 0.0000 41.8269 0.0000
# 6 0.0000 0.0000 0.0000 -6.9272 0.0000 25.7765
#
#
#
# Elastic Compliance Matrix: (Units=1/GPa)
#
#
# Indices 1 2 3 4 5 6 
#
# 1 0.016143 -0.004008 -0.007717 0.000000 -0.002747 0.000000
# 2 -0.004008 0.020319 -0.004175 0.000000 -0.001348 0.000000
# 3 -0.007717 -0.004175 0.014684 0.000000 -0.004124 0.000000
# 4 0.000000 0.000000 0.000000 0.048921 0.000000 0.013147
# 5 -0.002747 -0.001348 -0.004124 0.000000 0.028658 0.000000
# 6 0.000000 0.000000 0.000000 0.013147 0.000000 0.042328
#
#
# Mechanical properties :
#
#
# Convention : Reuss Voigt Hill
#
# Bulk Modulus (GPa) = 51.68684 69.95035 60.81860
# Shear Modulus (GPa) = 23.88882 27.85334 25.87108
#
# Velocity S-wave (km/s) = 3.41036 3.68248 3.54903
# Velocity P-wave (km/s) = 6.37743 7.22059 6.81207
#
# Compressibility (1/GPa) = 0.01934728
#
# Stress axis : x y z
#
# Youngs Moduli (GPa) = 61.94511 49.21465 68.09953
#
# Poissons Ratio (x) = 0.19726 0.52553
# Poissons Ratio (y) = 0.24829 0.28428
# Poissons Ratio (z) = 0.47803 0.20545
#
# Static dielectric constant tensor:
#      x y z
#    x 1.728020 0.000000 0.038020 
#    y 0.000000 1.687930 0.000000 
#    z 0.038020 0.000000 1.712500 
# 
# From -- ./inp_files/54627.got.cif
#   From: 2010.05.17/outbox.cif.g08.bks.cpg/sg11_28_cif.got.tgz:54627.got - 2010.06.03 12:22:45.
