data_PCOD9166588
_publ_section_title
;
Structure prediction by ZEFSAII (Michael W. Deem and Ramdas Pophale) SiO2 
 PCOD9166588
Probable space group: P 21/M
;
_chemical_formula_sum "Si O2"
_cell_formula_units_Z 14
_cell_length_a 4.826935
_cell_length_b 17.588768
_cell_length_c 6.990012
_cell_angle_alpha 90.000000
_cell_angle_beta 71.320647
_cell_angle_gamma 90.000000
_cell_volume 562.191319
_symmetry_space_group_name_H-M "P 21/M"
_symmetry_group_IT_number 11
_symmetry_cell_setting 'monoclinic'
loop_
_space_group_symop_operation_xyz
x,y,z
-x,1/2+y,-z
-x,-y,-z
x,1/2-y,z
loop_
_atom_site_type_symbol
_atom_site_label
_atom_site_fract_x
_atom_site_fract_y
_atom_site_fract_z
Si Si1 0.902212 0.612802 0.594377
Si Si2 0.272007 0.250000 0.091547
Si Si3 0.690488 0.463345 0.226213
Si Si4 0.357036 0.889080 0.164343
O O1 0.047478 0.544106 0.683723
O O2 0.097462 0.629703 0.367573
O O3 0.886566 0.683654 0.741333
O O4 0.572263 0.587151 0.626453
O O5 0.451675 0.316530 0.934036
O O6 0.562537 0.545311 0.206766
O O7 0.763929 0.423182 0.008939
#
# Coordination Sequence:
#
# PCOD9166588 Si02
#       4
#     4   2   4   4
#     4  11  23  43  64  93 126 164 208 257 311 369
#     4  10  24  40  62  94 128 166 208 248 314 378
#     4  10  24  41  67  96 120 161 217 254 308 371
#     4  10  22  43  66  92 128 164 204 264 308 363
#
# _framework density 24.902553000000001
#
# number of rings (size 3 to 8) (size 9 to 14) (size 15 to 20)
#    0.000    1.714    0.000    2.571    0.000   19.429 
#    0.000    5.714    0.000    0.000    0.000    0.000 
#    0.000    0.000    0.000    0.000    0.000    0.000 
#
# Total GULP energy -78048.919125 kJ/mol
# GULP energy per Si atom -5574.922795 kJ/mol
# Density = 2.484587 g / cm^3
# Si number density = 24.902553 Si / 1000 Ang^3
#
#
#
# Elastic Constant Matrix: (Units=GPa)
#
#
# Indices 1 2 3 4 5 6 
#
# 1 75.6842 2.0856 26.6163 0.0000 3.4440 0.0000
# 2 2.0856 133.4493 77.5411 0.0000 -13.7354 0.0000
# 3 26.6163 77.5411 304.5258 0.0000 -28.7462 0.0000
# 4 0.0000 0.0000 0.0000 27.0551 0.0000 1.3470
# 5 3.4440 -13.7354 -28.7462 0.0000 43.7052 0.0000
# 6 0.0000 0.0000 0.0000 1.3470 0.0000 -23.9399
#
#
#
# Elastic Compliance Matrix: (Units=1/GPa)
#
#
# Indices 1 2 3 4 5 6 
#
# 1 0.013818 0.000461 -0.001508 0.000000 -0.001936 0.000000
# 2 0.000461 0.008888 -0.002179 0.000000 0.001324 0.000000
# 3 -0.001508 -0.002179 0.004176 0.000000 0.002181 0.000000
# 4 0.000000 0.000000 0.000000 0.036858 0.000000 0.002074
# 5 -0.001936 0.001324 0.002181 0.000000 0.024884 0.000000
# 6 0.000000 0.000000 0.000000 0.002074 0.000000 -0.041655
#
#
# Mechanical properties :
#
#
# Convention : Reuss Voigt Hill
#
# Bulk Modulus (GPa) = 48.94249 80.68280 64.81264
# Shear Modulus (GPa) = 83.01195 36.52517 59.76856
#
# Velocity S-wave (km/s) = 5.77989 3.83394 4.90439
# Velocity P-wave (km/s) = 8.01493 7.21585 7.62586
#
# Compressibility (1/GPa) = 0.02043214
#
# Stress axis : x y z
#
# Youngs Moduli (GPa) = 72.36690 112.50601 239.45334
#
# Poissons Ratio (x) = -0.05186 0.36106
# Poissons Ratio (y) = -0.03336 0.52166
# Poissons Ratio (z) = 0.10912 0.24510
#
# Static dielectric constant tensor:
#      x y z
#    x 1.972310 0.000000 0.007970 
#    y 0.000000 1.867990 0.000000 
#    z 0.007970 0.000000 1.992900 
# 
# From -- ./inp_files/1577.got.cif
#   From: 2010.05.17/outbox.cif.g08.bks.cpg/sg11_1_cif.got.tgz:1577.got - 2010.06.03 12:22:45.
