data_PCOD9166072
_publ_section_title
;
Structure prediction by ZEFSAII (Michael W. Deem and Ramdas Pophale) SiO2 
 PCOD9166072
Probable space group: P 21/M
;
_chemical_formula_sum "Si O2"
_cell_formula_units_Z 24
_cell_length_a 23.679712
_cell_length_b 9.140224
_cell_length_c 10.393634
_cell_angle_alpha 90.000000
_cell_angle_beta 41.014524
_cell_angle_gamma 90.000000
_cell_volume 1476.284987
_symmetry_space_group_name_H-M "P 21/M"
_symmetry_group_IT_number 11
_symmetry_cell_setting 'monoclinic'
loop_
_space_group_symop_operation_xyz
x,y,z
-x,1/2+y,-z
-x,-y,-z
x,1/2-y,z
loop_
_atom_site_type_symbol
_atom_site_label
_atom_site_fract_x
_atom_site_fract_y
_atom_site_fract_z
Si Si1 0.399806 0.076574 0.030884
Si Si2 0.958776 0.425906 0.447405
Si Si3 0.223727 0.576723 0.641177
Si Si4 0.586989 0.424573 0.714698
Si Si5 0.944209 0.575284 0.984166
Si Si6 0.772426 0.424889 0.672720
O O1 0.386963 0.250000 0.051882
O O2 0.408123 0.018001 0.163062
O O3 0.314446 0.998770 0.126289
O O4 0.494561 0.044838 0.809195
O O5 0.959299 0.250000 0.461005
O O6 0.859954 0.471444 0.591831
O O7 0.000000 0.500000 0.500000
O O8 0.013261 0.461039 0.225840
O O9 0.205906 0.750000 0.686752
O O10 0.322742 0.548427 0.511383
O O11 0.152434 0.484034 0.836357
O O12 0.218392 0.544134 0.496583
O O13 0.587384 0.250000 0.747699
O O14 0.947088 0.750000 0.995446
O O15 0.000000 0.500000 0.000000
O O16 0.763805 0.250000 0.697988
#
# Coordination Sequence:
#
# PCOD9166072 Si02
#       6
#     4   4   4   4   4   4
#     4   9  15  23  39  64  90 122 162 195 230 284
#     4  10  22  38  52  70  98 130 165 204 247 291
#     4   9  16  29  47  68  96 129 160 194 241 289
#     4   8  15  26  38  58  95 129 152 191 242 282
#     4  11  21  34  51  73  99 128 163 203 244 290
#     4   9  17  31  46  64  96 130 156 195 246 288
#
# _framework density 16.257024000000001
#
# number of rings (size 3 to 8) (size 9 to 14) (size 15 to 20)
#    0.000    2.667    1.667    2.000    0.000    5.333 
#    0.000    0.000    0.000    0.000    0.000    1.167 
#    0.000    0.000    0.000    0.000    0.000    0.000 
#
# Total GULP energy -133627.622891 kJ/mol
# GULP energy per Si atom -5567.817620 kJ/mol
# Density = 1.622002 g / cm^3
# Si number density = 16.257024 Si / 1000 Ang^3
#
#
#
# Elastic Constant Matrix: (Units=GPa)
#
#
# Indices 1 2 3 4 5 6 
#
# 1 114.7471 44.5871 78.8894 0.0000 -34.4780 0.0000
# 2 44.5871 35.3102 46.1581 0.0000 -13.5965 0.0000
# 3 78.8894 46.1581 93.8540 0.0000 -33.3229 0.0000
# 4 0.0000 0.0000 0.0000 26.6749 0.0000 -7.3263
# 5 -34.4780 -13.5965 -33.3229 0.0000 35.6245 0.0000
# 6 0.0000 0.0000 0.0000 -7.3263 0.0000 26.3003
#
#
#
# Elastic Compliance Matrix: (Units=1/GPa)
#
#
# Indices 1 2 3 4 5 6 
#
# 1 0.023155 -0.012345 -0.010643 0.000000 0.007743 0.000000
# 2 -0.012345 0.088003 -0.037762 0.000000 -0.013683 0.000000
# 3 -0.010643 -0.037762 0.044016 0.000000 0.016460 0.000000
# 4 0.000000 0.000000 0.000000 0.040594 0.000000 0.011308
# 5 0.007743 -0.013683 0.016460 0.000000 0.045740 0.000000
# 6 0.000000 0.000000 0.000000 0.011308 0.000000 0.041172
#
#
# Mechanical properties :
#
#
# Convention : Reuss Voigt Hill
#
# Bulk Modulus (GPa) = 29.69500 64.79782 47.24641
# Shear Modulus (GPa) = 12.03646 22.67173 17.35409
#
# Velocity S-wave (km/s) = 2.72395 3.73846 3.27078
# Velocity P-wave (km/s) = 5.31026 7.65373 6.58705
#
# Compressibility (1/GPa) = 0.03367570
#
# Stress axis : x y z
#
# Youngs Moduli (GPa) = 43.18704 11.36326 22.71878
#
# Poissons Ratio (x) = 0.14028 0.24179
# Poissons Ratio (y) = 0.53313 0.85791
# Poissons Ratio (z) = 0.45962 0.42910
#
# Static dielectric constant tensor:
#      x y z
#    x 1.558680 0.000000 -0.052320 
#    y 0.000000 1.540670 0.000000 
#    z -0.052320 0.000000 1.554710 
# 
# From -- ./inp_files/25724.got.cif
#   From: 2010.05.17/outbox.cif.g08.bks.cpg/sg11_13_cif.got.tgz:25724.got - 2010.06.03 12:22:45.
