data_PCOD9166360
_publ_section_title
;
Structure prediction by ZEFSAII (Michael W. Deem and Ramdas Pophale) SiO2 
 PCOD9166360
Probable space group: P 21/M
;
_chemical_formula_sum "Si O2"
_cell_formula_units_Z 20
_cell_length_a 16.789901
_cell_length_b 9.914034
_cell_length_c 13.678756
_cell_angle_alpha 90.000000
_cell_angle_beta 21.421974
_cell_angle_gamma 90.000000
_cell_volume 831.603187
_symmetry_space_group_name_H-M "P 21/M"
_symmetry_group_IT_number 11
_symmetry_cell_setting 'monoclinic'
loop_
_space_group_symop_operation_xyz
x,y,z
-x,1/2+y,-z
-x,-y,-z
x,1/2-y,z
loop_
_atom_site_type_symbol
_atom_site_label
_atom_site_fract_x
_atom_site_fract_y
_atom_site_fract_z
Si Si1 0.177669 0.096199 0.248205
Si Si2 0.000000 0.989630 0.750000
Si Si3 0.552044 0.396980 0.306425
Si Si4 0.822331 0.096199 0.251795
Si Si5 0.447956 0.103021 0.193576
O O1 0.170264 0.250000 0.289769
O O2 0.120952 0.092027 0.197132
O O3 0.000000 0.000000 0.500000
O O4 0.408074 0.023344 0.004772
O O5 0.120953 0.907974 0.697130
O O6 0.190518 0.077107 0.481915
O O7 0.809482 0.077106 0.018085
O O8 0.489335 0.250000 0.419784
O O9 0.408074 0.523343 0.504773
O O10 0.499999 0.389378 0.250002
O O11 0.829736 0.250000 0.210231
O O12 0.000000 0.000000 0.000000
O O13 0.510668 0.250000 0.080214
#
# Coordination Sequence:
#
# PCOD9166360 Si02
#       5
#     4   4   4   4   4
#     4  11  24  41  62  90 123 159 202 250 299 356
#     4  10  22  40  66  90 120 160 200 246 302 356
#     4   9  19  37  62  91 121 156 200 247 297 356
#     4  11  24  41  62  90 123 159 202 250 299 356
#     4   9  19  37  62  91 121 156 200 247 297 356
#
# _framework density 24.049932999999999
#
# number of rings (size 3 to 8) (size 9 to 14) (size 15 to 20)
#    0.000    2.000    0.000    2.400    0.000   15.200 
#    0.000    0.000    0.000    0.000    0.000    0.000 
#    0.000    0.000    0.000    0.000    0.000    0.000 
#
# Total GULP energy -111855.719084 kJ/mol
# GULP energy per Si atom -5592.785954 kJ/mol
# Density = 2.399519 g / cm^3
# Si number density = 24.049933 Si / 1000 Ang^3
#
#
#
# Elastic Constant Matrix: (Units=GPa)
#
#
# Indices 1 2 3 4 5 6 
#
# 1 120.6707 18.2846 -4.5115 0.0000 -19.2251 0.0000
# 2 18.2846 258.8650 95.0798 0.0000 -1.7221 0.0000
# 3 -4.5115 95.0798 149.5213 0.0000 -20.3564 0.0000
# 4 0.0000 0.0000 0.0000 30.0293 0.0000 10.8103
# 5 -19.2251 -1.7221 -20.3564 0.0000 36.4286 0.0000
# 6 0.0000 0.0000 0.0000 10.8103 0.0000 12.1918
#
#
#
# Elastic Compliance Matrix: (Units=1/GPa)
#
#
# Indices 1 2 3 4 5 6 
#
# 1 0.009535 -0.001360 0.001980 0.000000 0.006074 0.000000
# 2 -0.001360 0.005331 -0.003782 0.000000 -0.002579 0.000000
# 3 0.001980 -0.003782 0.010034 0.000000 0.006473 0.000000
# 4 0.000000 0.000000 0.000000 0.048914 0.000000 -0.043372
# 5 0.006074 -0.002579 0.006473 0.000000 0.034152 0.000000
# 6 0.000000 0.000000 0.000000 -0.043372 0.000000 0.120479
#
#
# Mechanical properties :
#
#
# Convention : Reuss Voigt Hill
#
# Bulk Modulus (GPa) = 53.83782 82.97365 68.40573
# Shear Modulus (GPa) = 20.75014 43.74355 32.24684
#
# Velocity S-wave (km/s) = 2.94052 4.26944 3.66571
# Velocity P-wave (km/s) = 5.82781 7.67331 6.81333
#
# Compressibility (1/GPa) = 0.01857430
#
# Stress axis : x y z
#
# Youngs Moduli (GPa) = 104.87901 187.57768 99.66020
#
# Poissons Ratio (x) = 0.25513 -0.19728
# Poissons Ratio (y) = 0.14265 0.37694
# Poissons Ratio (z) = -0.20761 0.70946
#
# Static dielectric constant tensor:
#      x y z
#    x 2.030810 0.000000 0.032750 
#    y 0.000000 1.873880 0.000000 
#    z 0.032750 0.000000 1.891510 
# 
# From -- ./inp_files/53490.got.cif
#   From: 2010.05.17/outbox.cif.g08.bks.cpg/sg11_27_cif.got.tgz:53490.got - 2010.06.03 12:22:45.
