data_PCOD9166303
_publ_section_title
;
Structure prediction by ZEFSAII (Michael W. Deem and Ramdas Pophale) SiO2 
 PCOD9166303
Probable space group: P 21/M
;
_chemical_formula_sum "Si O2"
_cell_formula_units_Z 32
_cell_length_a 14.765288
_cell_length_b 13.215914
_cell_length_c 20.674478
_cell_angle_alpha 90.000000
_cell_angle_beta 161.277478
_cell_angle_gamma 90.000000
_cell_volume 1294.967355
_symmetry_space_group_name_H-M "P 21/M"
_symmetry_group_IT_number 11
_symmetry_cell_setting 'monoclinic'
loop_
_space_group_symop_operation_xyz
x,y,z
-x,1/2+y,-z
-x,-y,-z
x,1/2-y,z
loop_
_atom_site_type_symbol
_atom_site_label
_atom_site_fract_x
_atom_site_fract_y
_atom_site_fract_z
Si Si1 0.930683 0.630420 0.426853
Si Si2 0.152193 0.359540 0.143617
Si Si3 0.694281 0.128990 0.049810
Si Si4 0.931581 0.571544 0.182152
Si Si5 0.293156 0.560857 0.314694
Si Si6 0.301826 0.629692 0.795774
Si Si7 0.318534 0.921593 0.569129
Si Si8 0.503061 0.856307 0.334162
O O1 0.902520 0.750000 0.419680
O O2 0.073776 0.588218 0.589585
O O3 0.151401 0.616490 0.517787
O O4 0.616970 0.603829 0.189055
O O5 0.224695 0.250000 0.224867
O O6 0.174578 0.468231 0.192374
O O7 0.375976 0.371512 0.236319
O O8 0.824070 0.352962 0.906034
O O9 0.743928 0.250000 0.076252
O O10 0.905562 0.051029 0.158582
O O11 0.715005 0.099317 0.140045
O O12 0.061404 0.611461 0.203392
O O13 0.135080 0.597798 0.379919
O O14 0.617576 0.607612 0.984675
O O15 0.500000 0.500000 0.500000
O O16 0.475489 0.632243 0.392387
O O17 0.274209 0.750000 0.778402
O O18 0.362789 0.042582 0.602697
O O19 0.642053 0.750000 0.409179
#
# Coordination Sequence:
#
# PCOD9166303 Si02
#       8
#     4   4   4   4   4   4   4   4
#     4  10  22  41  67  96 128 172 217 267 325 378
#     4  10  22  40  62  88 127 172 212 263 320 377
#     4  10  23  46  66  90 133 170 212 269 322 386
#     4  12  24  39  64  94 125 162 214 265 325 379
#     4  11  22  41  59  92 125 162 209 259 313 384
#     4  10  23  41  65  95 126 166 219 267 320 385
#     4  11  21  39  63  93 129 164 216 264 321 381
#     4  10  23  42  62  88 132 177 214 260 316 382
#
# _framework density 24.711047000000001
#
# number of rings (size 3 to 8) (size 9 to 14) (size 15 to 20)
#    0.000    1.500    3.750    2.250    3.500    3.000 
#    0.000    0.000    0.000    0.000    0.000    0.000 
#    0.000    0.000    0.000    0.000    0.000    0.000 
#
# Total GULP energy -178992.053515 kJ/mol
# GULP energy per Si atom -5593.501672 kJ/mol
# Density = 2.465480 g / cm^3
# Si number density = 24.711047 Si / 1000 Ang^3
#
#
#
# Elastic Constant Matrix: (Units=GPa)
#
#
# Indices 1 2 3 4 5 6 
#
# 1 51.6322 11.1791 25.1934 0.0000 13.1057 0.0000
# 2 11.1791 71.2710 17.4867 0.0000 -12.3674 0.0000
# 3 25.1934 17.4867 120.9070 0.0000 -5.5667 0.0000
# 4 0.0000 0.0000 0.0000 22.8038 0.0000 -4.1777
# 5 13.1057 -12.3674 -5.5667 0.0000 37.0484 0.0000
# 6 0.0000 0.0000 0.0000 -4.1777 0.0000 16.4868
#
#
#
# Elastic Compliance Matrix: (Units=1/GPa)
#
#
# Indices 1 2 3 4 5 6 
#
# 1 0.025885 -0.004778 -0.005234 0.000000 -0.011538 0.000000
# 2 -0.004778 0.016241 -0.001033 0.000000 0.006957 0.000000
# 3 -0.005234 -0.001033 0.009647 0.000000 0.002956 0.000000
# 4 0.000000 0.000000 0.000000 0.045987 0.000000 0.011653
# 5 -0.011538 0.006957 0.002956 0.000000 0.033840 0.000000
# 6 0.000000 0.000000 0.000000 0.011653 0.000000 0.063607
#
#
# Mechanical properties :
#
#
# Convention : Reuss Voigt Hill
#
# Bulk Modulus (GPa) = 33.68953 39.05872 36.37413
# Shear Modulus (GPa) = 22.00793 27.93121 24.96957
#
# Velocity S-wave (km/s) = 2.98755 3.36566 3.18222
# Velocity P-wave (km/s) = 5.05604 5.56274 5.31543
#
# Compressibility (1/GPa) = 0.02968281
#
# Stress axis : x y z
#
# Youngs Moduli (GPa) = 38.63288 61.57252 103.66047
#
# Poissons Ratio (x) = 0.29420 0.54253
# Poissons Ratio (y) = 0.18459 0.10708
# Poissons Ratio (z) = 0.20219 0.06361
#
# Static dielectric constant tensor:
#      x y z
#    x 1.941380 0.000000 -0.029470 
#    y 0.000000 1.987410 0.000000 
#    z -0.029470 0.000000 1.950520 
# 
# From -- ./inp_files/65783.got.cif
#   From: 2010.05.17/outbox.cif.g08.bks.cpg/sg11_33_cif.got.tgz:65783.got - 2010.06.03 12:22:45.
