data_PCOD9166411
_publ_section_title
;
Structure prediction by ZEFSAII (Michael W. Deem and Ramdas Pophale) SiO2 
 PCOD9166411
Probable space group: P 21/M
;
_chemical_formula_sum "Si O2"
_cell_formula_units_Z 32
_cell_length_a 20.300630
_cell_length_b 11.321715
_cell_length_c 19.861437
_cell_angle_alpha 90.000000
_cell_angle_beta 158.864021
_cell_angle_gamma 90.000000
_cell_volume 1646.027746
_symmetry_space_group_name_H-M "P 21/M"
_symmetry_group_IT_number 11
_symmetry_cell_setting 'monoclinic'
loop_
_space_group_symop_operation_xyz
x,y,z
-x,1/2+y,-z
-x,-y,-z
x,1/2-y,z
loop_
_atom_site_type_symbol
_atom_site_label
_atom_site_fract_x
_atom_site_fract_y
_atom_site_fract_z
Si Si1 0.856636 0.888389 0.460421
Si Si2 0.507274 0.382575 0.808841
Si Si3 0.630500 0.884229 0.113758
Si Si4 0.242887 0.112194 0.130670
Si Si5 0.400454 0.460666 0.565820
Si Si6 0.172691 0.039980 0.828448
Si Si7 0.948773 0.114417 0.742634
Si Si8 0.623381 0.883914 0.603452
O O1 0.888826 0.750000 0.506276
O O2 0.675519 0.927108 0.328533
O O3 0.795494 0.897972 0.324633
O O4 0.028564 0.962308 0.648670
O O5 0.539090 0.250000 0.863901
O O6 0.467919 0.382865 0.692137
O O7 0.680227 0.459989 0.992543
O O8 0.551759 0.750000 0.050523
O O9 0.712605 0.888050 0.117203
O O10 0.500000 0.000000 0.000000
O O11 0.268889 0.250000 0.138059
O O12 0.220613 0.105612 0.190471
O O13 0.426874 0.042672 0.288324
O O14 0.076715 0.070391 0.926079
O O15 0.335857 0.394447 0.436650
O O16 0.232685 0.537996 0.432104
O O17 0.060628 0.106314 0.779732
O O18 0.900099 0.250000 0.709989
O O19 0.543952 0.750000 0.538787
O O20 0.500000 0.000000 0.500000
#
# Coordination Sequence:
#
# PCOD9166411 Si02
#       8
#     4   4   4   4   4   4   4   4
#     4  10  22  41  63  90 122 160 204 253 308 369
#     4  11  22  37  60  88 121 159 205 255 308 365
#     4  11  24  43  67  95 127 162 206 255 307 367
#     4   9  19  37  58  84 118 159 202 253 307 362
#     4  11  20  37  59  87 121 160 205 251 308 359
#     4  12  22  41  63  90 120 161 205 253 309 364
#     4  11  23  37  58  88 122 160 206 254 308 368
#     4   9  19  36  62  89 123 162 206 256 308 363
#
# _framework density 19.440743000000001
#
# number of rings (size 3 to 8) (size 9 to 14) (size 15 to 20)
#    0.000    1.500    3.750    1.875    0.000    1.500 
#    0.000    2.500    0.000    0.000    0.000    0.000 
#    0.000    0.000    0.000    0.000    0.000    0.000 
#
# Total GULP energy -178352.787371 kJ/mol
# GULP energy per Si atom -5573.524605 kJ/mol
# Density = 1.939649 g / cm^3
# Si number density = 19.440743 Si / 1000 Ang^3
#
#
#
# Elastic Constant Matrix: (Units=GPa)
#
#
# Indices 1 2 3 4 5 6 
#
# 1 86.1436 13.5070 19.4821 0.0000 -22.8150 0.0000
# 2 13.5070 94.0754 43.5697 0.0000 0.6825 0.0000
# 3 19.4821 43.5697 79.3509 0.0000 -12.6290 0.0000
# 4 0.0000 0.0000 0.0000 14.7614 0.0000 -4.4745
# 5 -22.8150 0.6825 -12.6290 0.0000 31.6928 0.0000
# 6 0.0000 0.0000 0.0000 -4.4745 0.0000 21.5115
#
#
#
# Elastic Compliance Matrix: (Units=1/GPa)
#
#
# Indices 1 2 3 4 5 6 
#
# 1 0.014846 -0.001713 -0.001065 0.000000 0.010300 0.000000
# 2 -0.001713 0.014861 -0.008527 0.000000 -0.004951 0.000000
# 3 -0.001065 -0.008527 0.018635 0.000000 0.006842 0.000000
# 4 0.000000 0.000000 0.000000 0.072303 0.000000 0.015039
# 5 0.010300 -0.004951 0.006842 0.000000 0.041801 0.000000
# 6 0.000000 0.000000 0.000000 0.015039 0.000000 0.049615
#
#
# Mechanical properties :
#
#
# Convention : Reuss Voigt Hill
#
# Bulk Modulus (GPa) = 38.86358 45.85416 42.35887
# Shear Modulus (GPa) = 20.55519 25.79389 23.17454
#
# Velocity S-wave (km/s) = 3.25518 3.64647 3.45637
# Velocity P-wave (km/s) = 5.84487 6.43171 6.14530
#
# Compressibility (1/GPa) = 0.02573103
#
# Stress axis : x y z
#
# Youngs Moduli (GPa) = 67.35896 67.29082 53.66292
#
# Poissons Ratio (x) = 0.11526 0.05716
# Poissons Ratio (y) = 0.11538 0.45759
# Poissons Ratio (z) = 0.07175 0.57380
#
# Static dielectric constant tensor:
#      x y z
#    x 1.717580 0.000000 -0.020740 
#    y 0.000000 1.622570 0.000000 
#    z -0.020740 0.000000 1.650820 
# 
# From -- ./inp_files/66556.got.cif
#   From: 2010.05.17/outbox.cif.g08.bks.cpg/sg11_34_cif.got.tgz:66556.got - 2010.06.03 12:22:45.
