data_PCOD9166640
_publ_section_title
;
Structure prediction by ZEFSAII (Michael W. Deem and Ramdas Pophale) SiO2 
 PCOD9166640
Probable space group: P 21/M
;
_chemical_formula_sum "Si O2"
_cell_formula_units_Z 32
_cell_length_a 12.823155
_cell_length_b 16.212043
_cell_length_c 18.965069
_cell_angle_alpha 90.000000
_cell_angle_beta 21.244840
_cell_angle_gamma 90.000000
_cell_volume 1428.631583
_symmetry_space_group_name_H-M "P 21/M"
_symmetry_group_IT_number 11
_symmetry_cell_setting 'monoclinic'
loop_
_space_group_symop_operation_xyz
x,y,z
-x,1/2+y,-z
-x,-y,-z
x,1/2-y,z
loop_
_atom_site_type_symbol
_atom_site_label
_atom_site_fract_x
_atom_site_fract_y
_atom_site_fract_z
Si Si1 0.512774 0.888764 0.140315
Si Si2 0.018755 0.422186 0.254675
Si Si3 0.601017 0.657129 0.880584
Si Si4 0.413267 0.072896 0.242758
Si Si5 0.936593 0.613943 0.282265
Si Si6 0.933676 0.658989 0.436951
Si Si7 0.466091 0.847894 0.335413
Si Si8 0.015810 0.346646 0.898637
O O1 0.274597 0.846793 0.239566
O O2 0.459740 0.864555 0.255491
O O3 0.455067 0.986800 0.178329
O O4 0.838555 0.878024 0.904447
O O5 0.290653 0.412556 0.135398
O O6 0.939668 0.515226 0.285074
O O7 0.770019 0.385248 0.461814
O O8 0.672212 0.750000 0.858660
O O9 0.724774 0.636971 0.725778
O O10 0.264171 0.647325 0.078856
O O11 0.196803 0.078544 0.443451
O O12 0.721202 0.103088 0.077279
O O13 0.825962 0.650927 0.424662
O O14 0.821286 0.641732 0.279325
O O15 0.838531 0.750000 0.521845
O O16 0.444032 0.750000 0.358311
O O17 0.776485 0.874980 0.170055
O O18 0.948255 0.250000 0.949433
#
# Coordination Sequence:
#
# PCOD9166640 Si02
#       8
#     4   4   4   4   4   4   4   4
#     4  12  24  43  66  99 132 169 213 271 325 386
#     4  12  23  42  67  97 131 173 214 264 326 387
#     4  11  20  35  62  91 130 171 204 253 320 388
#     4  11  22  41  63  96 128 170 213 266 324 386
#     4  11  21  39  61  95 128 163 210 263 322 380
#     4  12  23  36  62  98 133 167 211 264 326 394
#     4  11  27  46  65  92 128 174 223 270 321 385
#     4  10  22  45  66  87 127 172 218 269 319 378
#
# _framework density 22.399056999999999
#
# number of rings (size 3 to 8) (size 9 to 14) (size 15 to 20)
#    0.000    0.750    3.750    6.750    0.000    2.500 
#    2.250    0.000    0.000    0.000    0.000    0.000 
#    0.000    0.000    0.000    0.000    0.000    0.000 
#
# Total GULP energy -178519.900143 kJ/mol
# GULP energy per Si atom -5578.746879 kJ/mol
# Density = 2.234808 g / cm^3
# Si number density = 22.399057 Si / 1000 Ang^3
#
#
#
# Elastic Constant Matrix: (Units=GPa)
#
#
# Indices 1 2 3 4 5 6 
#
# 1 74.2424 -2.4822 18.2539 0.0000 8.3249 0.0000
# 2 -2.4822 60.9111 13.2073 0.0000 -4.8448 0.0000
# 3 18.2539 13.2073 71.6150 0.0000 11.4060 0.0000
# 4 0.0000 0.0000 0.0000 27.5872 0.0000 5.9162
# 5 8.3249 -4.8448 11.4060 0.0000 17.2484 0.0000
# 6 0.0000 0.0000 0.0000 5.9162 0.0000 23.0372
#
#
#
# Elastic Compliance Matrix: (Units=1/GPa)
#
#
# Indices 1 2 3 4 5 6 
#
# 1 0.014820 0.000913 -0.003183 0.000000 -0.004792 0.000000
# 2 0.000913 0.018124 -0.004824 0.000000 0.007840 0.000000
# 3 -0.003183 -0.004824 0.017476 0.000000 -0.011376 0.000000
# 4 0.000000 0.000000 0.000000 0.038361 0.000000 -0.009852
# 5 -0.004792 0.007840 -0.011376 0.000000 0.070014 0.000000
# 6 0.000000 0.000000 0.000000 -0.009852 0.000000 0.045938
#
#
# Mechanical properties :
#
#
# Convention : Reuss Voigt Hill
#
# Bulk Modulus (GPa) = 27.59925 29.41408 28.50666
# Shear Modulus (GPa) = 21.64522 25.42718 23.53620
#
# Velocity S-wave (km/s) = 3.11198 3.37291 3.24507
# Velocity P-wave (km/s) = 5.02603 5.32251 5.17639
#
# Compressibility (1/GPa) = 0.03623287
#
# Stress axis : x y z
#
# Youngs Moduli (GPa) = 67.47773 55.17513 57.22091
#
# Poissons Ratio (x) = -0.05037 0.18211
# Poissons Ratio (y) = -0.06160 0.27602
# Poissons Ratio (z) = 0.21475 0.26616
#
# Static dielectric constant tensor:
#      x y z
#    x 1.873110 0.000000 0.085330 
#    y 0.000000 1.814590 0.000000 
#    z 0.085330 0.000000 1.938390 
# 
# From -- ./inp_files/65746.got.cif
#   From: 2010.05.17/outbox.cif.g08.bks.cpg/sg11_33_cif.got.tgz:65746.got - 2010.06.03 12:22:45.
