data_PCOD9166221
_publ_section_title
;
Structure prediction by ZEFSAII (Michael W. Deem and Ramdas Pophale) SiO2 
 PCOD9166221
Probable space group: P 21/M
;
_chemical_formula_sum "Si O2"
_cell_formula_units_Z 20
_cell_length_a 11.419760
_cell_length_b 13.354991
_cell_length_c 5.767836
_cell_angle_alpha 90.000000
_cell_angle_beta 92.019975
_cell_angle_gamma 90.000000
_cell_volume 879.110617
_symmetry_space_group_name_H-M "P 21/M"
_symmetry_group_IT_number 11
_symmetry_cell_setting 'monoclinic'
loop_
_space_group_symop_operation_xyz
x,y,z
-x,1/2+y,-z
-x,-y,-z
x,1/2-y,z
loop_
_atom_site_type_symbol
_atom_site_label
_atom_site_fract_x
_atom_site_fract_y
_atom_site_fract_z
Si Si1 0.235108 0.858665 0.177745
Si Si2 0.158834 0.060339 0.434333
Si Si3 0.487604 0.367919 0.867426
Si Si4 0.403289 0.364579 0.361553
Si Si5 0.075937 0.555439 0.813584
O O1 0.216188 0.750000 0.288603
O O2 0.371951 0.869203 0.133675
O O3 0.191429 0.952212 0.324669
O O4 0.160491 0.865806 0.937007
O O5 0.262493 0.131168 0.362363
O O6 0.027156 0.094215 0.361798
O O7 0.153705 0.031527 0.702565
O O8 0.449283 0.250000 0.865705
O O9 0.442441 0.408951 0.614830
O O10 0.444215 0.408624 0.115304
O O11 0.447796 0.250000 0.365161
O O12 0.000000 0.500000 0.000000
#
# Coordination Sequence:
#
# PCOD9166221 Si02
#       5
#     4   4   4   4   4
#     4  10  22  39  62  89 125 165 202 252 312 372
#     4  10  22  39  64  88 122 158 211 261 305 374
#     4   9  21  39  60  92 130 165 208 256 306 374
#     4  10  22  40  63  92 128 166 207 259 315 368
#     4   9  21  41  58  85 118 155 204 264 309 362
#
# _framework density 22.750264999999999
#
# number of rings (size 3 to 8) (size 9 to 14) (size 15 to 20)
#    0.000    2.400    0.000    0.000    8.400    3.200 
#    0.000    8.000    0.000    0.000    0.000    0.000 
#    0.000    0.000    0.000    0.000    0.000    0.000 
#
# Total GULP energy -111497.151241 kJ/mol
# GULP energy per Si atom -5574.857562 kJ/mol
# Density = 2.269848 g / cm^3
# Si number density = 22.750265 Si / 1000 Ang^3
#
#
#
# Elastic Constant Matrix: (Units=GPa)
#
#
# Indices 1 2 3 4 5 6 
#
# 1 91.9903 -7.2468 30.7620 0.0000 -1.1934 0.0000
# 2 -7.2468 54.5989 15.4351 0.0000 4.9287 0.0000
# 3 30.7620 15.4351 137.4650 0.0000 -15.6334 0.0000
# 4 0.0000 0.0000 0.0000 18.4823 0.0000 5.9473
# 5 -1.1934 4.9287 -15.6334 0.0000 35.3069 0.0000
# 6 0.0000 0.0000 0.0000 5.9473 0.0000 1.9251
#
#
#
# Elastic Compliance Matrix: (Units=1/GPa)
#
#
# Indices 1 2 3 4 5 6 
#
# 1 0.012117 0.002624 -0.003160 0.000000 -0.001356 0.000000
# 2 0.002624 0.019973 -0.003303 0.000000 -0.004162 0.000000
# 3 -0.003160 -0.003303 0.008838 0.000000 0.004268 0.000000
# 4 0.000000 0.000000 0.000000 9.136913 0.000000-28.226638
# 5 -0.001356 -0.004162 0.004268 0.000000 0.030748 0.000000
# 6 0.000000 0.000000 0.000000-28.226638 0.000000 87.719917
#
#
# Mechanical properties :
#
#
# Convention : Reuss Voigt Hill
#
# Bulk Modulus (GPa) = 30.07617 40.21721 35.14669
# Shear Modulus (GPa) = 0.05157 27.48314 13.76736
#
# Velocity S-wave (km/s) = 0.15073 3.47945 2.46265
# Velocity P-wave (km/s) = 3.64405 5.81878 4.85476
#
# Compressibility (1/GPa) = 0.03324891
#
# Stress axis : x y z
#
# Youngs Moduli (GPa) = 82.53096 50.06707 113.14722
#
# Poissons Ratio (x) = -0.13138 0.35758
# Poissons Ratio (y) = -0.21657 0.37375
# Poissons Ratio (z) = 0.26083 0.16538
#
# Static dielectric constant tensor:
#      x y z
#    x 1.808860 0.000000 0.045920 
#    y 0.000000 1.889750 0.000000 
#    z 0.045920 0.000000 1.955690 
# 
# From -- ./inp_files/4166.got.cif
#   From: 2010.05.17/outbox.cif.g08.bks.cpg/sg11_3_cif.got.tgz:4166.got - 2010.06.03 12:22:45.
