data_PCOD9166194
_publ_section_title
;
Structure prediction by ZEFSAII (Michael W. Deem and Ramdas Pophale) SiO2 
 PCOD9166194
Probable space group: P 21/M
;
_chemical_formula_sum "Si O2"
_cell_formula_units_Z 28
_cell_length_a 17.114934
_cell_length_b 13.539368
_cell_length_c 6.743187
_cell_angle_alpha 90.000000
_cell_angle_beta 58.105014
_cell_angle_gamma 90.000000
_cell_volume 1326.647937
_symmetry_space_group_name_H-M "P 21/M"
_symmetry_group_IT_number 11
_symmetry_cell_setting 'monoclinic'
loop_
_space_group_symop_operation_xyz
x,y,z
-x,1/2+y,-z
-x,-y,-z
x,1/2-y,z
loop_
_atom_site_type_symbol
_atom_site_label
_atom_site_fract_x
_atom_site_fract_y
_atom_site_fract_z
Si Si1 0.778898 0.868424 0.034427
Si Si2 0.020692 0.037157 0.255257
Si Si3 0.664879 0.994846 0.874145
Si Si4 0.432944 0.867389 0.675718
Si Si5 0.629276 0.866174 0.556737
Si Si6 0.290658 0.634374 0.529156
Si Si7 0.910415 0.136588 0.096213
O O1 0.772869 0.750000 0.015436
O O2 0.884061 0.903450 0.898524
O O3 0.729582 0.926565 0.922113
O O4 0.722244 0.892595 0.312496
O O5 0.939893 0.105139 0.277363
O O6 0.000000 0.000000 0.500000
O O7 0.032228 0.936704 0.115683
O O8 0.716319 0.070434 0.658481
O O9 0.614842 0.924858 0.780074
O O10 0.604713 0.062283 0.100962
O O11 0.415068 0.750000 0.740494
O O12 0.542727 0.880253 0.525697
O O13 0.379410 0.890843 0.544087
O O14 0.633861 0.750000 0.597742
O O15 0.296422 0.750000 0.469702
O O16 0.198521 0.621367 0.782232
O O17 0.932223 0.250000 0.029454
#
# Coordination Sequence:
#
# PCOD9166194 Si02
#       7
#     4   4   4   4   4   4   4
#     4  11  25  43  62  88 125 164 201 246 303 366
#     4  11  23  41  65  92 120 156 201 250 304 364
#     4  12  21  36  62  90 119 158 206 252 296 350
#     4  10  22  39  60  89 124 162 205 252 301 353
#     4  10  23  41  59  85 124 166 205 248 299 357
#     4  10  22  40  61  87 121 157 195 247 306 361
#     4  10  22  40  62  90 122 156 197 247 304 363
#
# _framework density 21.105823000000001
#
# number of rings (size 3 to 8) (size 9 to 14) (size 15 to 20)
#    0.000    1.429    0.000    5.143    0.000    5.714 
#    0.000    6.429    0.000    0.000    0.000    0.000 
#    0.000    0.000    0.000    0.000    0.000    0.000 
#
# Total GULP energy -156524.857191 kJ/mol
# GULP energy per Si atom -5590.173471 kJ/mol
# Density = 2.105779 g / cm^3
# Si number density = 21.105823 Si / 1000 Ang^3
#
#
#
# Elastic Constant Matrix: (Units=GPa)
#
#
# Indices 1 2 3 4 5 6 
#
# 1 77.1139 22.0397 5.6853 0.0000 -2.3722 0.0000
# 2 22.0397 123.5643 34.0379 0.0000 0.9412 0.0000
# 3 5.6853 34.0379 71.7959 0.0000 5.9174 0.0000
# 4 0.0000 0.0000 0.0000 35.3964 0.0000 5.4200
# 5 -2.3722 0.9412 5.9174 0.0000 27.6024 0.0000
# 6 0.0000 0.0000 0.0000 5.4200 0.0000 38.0674
#
#
#
# Elastic Compliance Matrix: (Units=1/GPa)
#
#
# Indices 1 2 3 4 5 6 
#
# 1 0.013708 -0.002446 -0.000030 0.000000 0.001268 0.000000
# 2 -0.002446 0.009756 -0.004466 0.000000 0.000414 0.000000
# 3 -0.000030 -0.004466 0.016324 0.000000 -0.003350 0.000000
# 4 0.000000 0.000000 0.000000 0.028881 0.000000 -0.004112
# 5 0.001268 0.000414 -0.003350 0.000000 0.037042 0.000000
# 6 0.000000 0.000000 0.000000 -0.004112 0.000000 0.026855
#
#
# Mechanical properties :
#
#
# Convention : Reuss Voigt Hill
#
# Bulk Modulus (GPa) = 38.60441 43.99999 41.30220
# Shear Modulus (GPa) = 32.24022 34.26065 33.25043
#
# Velocity S-wave (km/s) = 3.91263 4.03336 3.97346
# Velocity P-wave (km/s) = 6.22432 6.52559 6.37673
#
# Compressibility (1/GPa) = 0.02590378
#
# Stress axis : x y z
#
# Youngs Moduli (GPa) = 72.94865 102.49724 61.25911
#
# Poissons Ratio (x) = 0.25075 0.00185
# Poissons Ratio (y) = 0.17846 0.27357
# Poissons Ratio (z) = 0.00220 0.45774
#
# Static dielectric constant tensor:
#      x y z
#    x 1.784780 0.000000 0.016910 
#    y 0.000000 1.776510 0.000000 
#    z 0.016910 0.000000 1.737910 
# 
# From -- ./inp_files/8017.got.cif
#   From: 2010.05.17/outbox.cif.g08.bks.cpg/sg11_5_cif.got.tgz:8017.got - 2010.06.03 12:22:45.
