data_PCOD9166190
_publ_section_title
;
Structure prediction by ZEFSAII (Michael W. Deem and Ramdas Pophale) SiO2 
 PCOD9166190
Probable space group: P 21/M
;
_chemical_formula_sum "Si O2"
_cell_formula_units_Z 20
_cell_length_a 11.956411
_cell_length_b 13.403271
_cell_length_c 8.983190
_cell_angle_alpha 90.000000
_cell_angle_beta 36.873925
_cell_angle_gamma 90.000000
_cell_volume 863.841709
_symmetry_space_group_name_H-M "P 21/M"
_symmetry_group_IT_number 11
_symmetry_cell_setting 'monoclinic'
loop_
_space_group_symop_operation_xyz
x,y,z
-x,1/2+y,-z
-x,-y,-z
x,1/2-y,z
loop_
_atom_site_type_symbol
_atom_site_label
_atom_site_fract_x
_atom_site_fract_y
_atom_site_fract_z
Si Si1 0.483957 0.365867 0.130235
Si Si2 0.182982 0.135239 0.229331
Si Si3 0.321959 0.024549 0.587267
Si Si4 0.889848 0.419774 0.788100
Si Si5 0.036902 0.863086 0.951033
O O1 0.445867 0.250000 0.205661
O O2 0.392210 0.383743 0.066982
O O3 0.392209 0.430890 0.358011
O O4 0.702705 0.384649 0.905976
O O5 0.166729 0.250000 0.192900
O O6 0.058668 0.121597 0.510468
O O7 0.119179 0.040690 0.200398
O O8 0.177044 0.100265 0.820979
O O9 0.500000 0.000000 0.500000
O O10 0.187978 0.929862 0.705136
O O11 0.902678 0.377593 0.940051
O O12 0.050927 0.750000 0.890717
#
# Coordination Sequence:
#
# PCOD9166190 Si02
#       5
#     4   4   4   4   4
#     4  11  21  38  65  90 119 163 205 247 302 363
#     4  10  22  39  60  88 123 161 200 251 305 357
#     4  11  23  38  63  93 121 153 209 258 297 364
#     4  11  21  37  64  91 120 158 207 251 297 366
#     4  11  23  41  64  90 122 164 204 249 310 369
#
# _framework density 23.152391999999999
#
# number of rings (size 3 to 8) (size 9 to 14) (size 15 to 20)
#    0.000    1.200    4.000    3.000    0.000    0.800 
#    0.000    6.000    0.000    0.000    0.000    0.000 
#    0.000    0.000    0.000    0.000    0.000    0.000 
#
# Total GULP energy -111946.255783 kJ/mol
# GULP energy per Si atom -5597.312789 kJ/mol
# Density = 2.309970 g / cm^3
# Si number density = 23.152392 Si / 1000 Ang^3
#
#
#
# Elastic Constant Matrix: (Units=GPa)
#
#
# Indices 1 2 3 4 5 6 
#
# 1 98.7325 16.1811 16.7547 0.0000 -26.5043 0.0000
# 2 16.1811 129.6763 -5.9639 0.0000 -6.6269 0.0000
# 3 16.7547 -5.9639 44.1250 0.0000 -31.5098 0.0000
# 4 0.0000 0.0000 0.0000 12.7271 0.0000 -4.8699
# 5 -26.5043 -6.6269 -31.5098 0.0000 40.0142 0.0000
# 6 0.0000 0.0000 0.0000 -4.8699 0.0000 26.8958
#
#
#
# Elastic Compliance Matrix: (Units=1/GPa)
#
#
# Indices 1 2 3 4 5 6 
#
# 1 0.012567 -0.000968 0.002118 0.000000 0.009831 0.000000
# 2 -0.000968 0.008264 0.004579 0.000000 0.004333 0.000000
# 3 0.002118 0.004579 0.054884 0.000000 0.045381 0.000000
# 4 0.000000 0.000000 0.000000 0.084421 0.000000 0.015286
# 5 0.009831 0.004333 0.045381 0.000000 0.067957 0.000000
# 6 0.000000 0.000000 0.000000 0.015286 0.000000 0.039948
#
#
# Mechanical properties :
#
#
# Convention : Reuss Voigt Hill
#
# Bulk Modulus (GPa) = 11.47148 36.27529 23.87339
# Shear Modulus (GPa) = 17.50446 32.29821 24.90134
#
# Velocity S-wave (km/s) = 2.75263 3.73906 3.28310
# Velocity P-wave (km/s) = 3.88177 5.86027 4.97046
#
# Compressibility (1/GPa) = 0.08717269
#
# Stress axis : x y z
#
# Youngs Moduli (GPa) = 79.57450 121.00147 18.22026
#
# Poissons Ratio (x) = 0.11716 -0.03859
# Poissons Ratio (y) = 0.07705 -0.08343
# Poissons Ratio (z) = -0.16854 -0.55406
#
# Static dielectric constant tensor:
#      x y z
#    x 1.913240 0.000000 -0.014290 
#    y 0.000000 1.889470 0.000000 
#    z -0.014290 0.000000 1.820590 
# 
# From -- ./inp_files/39122.got.cif
#   From: 2010.05.17/outbox.cif.g08.bks.cpg/sg11_20_cif.got.tgz:39122.got - 2010.06.03 12:22:45.
