data_PCOD9166862
_publ_section_title
;
Structure prediction by ZEFSAII (Michael W. Deem and Ramdas Pophale) SiO2 
 PCOD9166862
Probable space group: P 21/M
;
_chemical_formula_sum "Si O2"
_cell_formula_units_Z 16
_cell_length_a 5.511426
_cell_length_b 23.238552
_cell_length_c 5.082780
_cell_angle_alpha 90.000000
_cell_angle_beta 95.923902
_cell_angle_gamma 90.000000
_cell_volume 647.513673
_symmetry_space_group_name_H-M "P 21/M"
_symmetry_group_IT_number 11
_symmetry_cell_setting 'monoclinic'
loop_
_space_group_symop_operation_xyz
x,y,z
-x,1/2+y,-z
-x,-y,-z
x,1/2-y,z
loop_
_atom_site_type_symbol
_atom_site_label
_atom_site_fract_x
_atom_site_fract_y
_atom_site_fract_z
Si Si1 0.385906 0.908357 0.578513
Si Si2 0.200854 0.370559 0.021992
Si Si3 0.977598 0.316927 0.521509
Si Si4 0.283104 0.020436 0.780791
O O1 0.525934 0.881080 0.842470
O O2 0.249473 0.856706 0.422396
O O3 0.590108 0.939830 0.426541
O O4 0.204814 0.960660 0.638355
O O5 0.060299 0.342458 0.250235
O O6 0.115712 0.434941 0.921316
O O7 0.175908 0.329471 0.768763
O O8 0.922897 0.250000 0.495459
O O9 0.500000 0.000000 0.000000
#
# Coordination Sequence:
#
# PCOD9166862 Si02
#       4
#     4   4   4   4
#     4  10  23  46  70 103 139 175 223 288 345 399
#     4  11  24  47  68 100 138 174 227 285 338 402
#     4  12  28  44  67  99 134 186 237 268 333 413
#     4   9  20  43  72 103 137 171 222 284 353 406
#
# _framework density 24.709903000000001
#
# number of rings (size 3 to 8) (size 9 to 14) (size 15 to 20)
#    0.000    1.500    2.500    0.750    7.000    4.000 
#    0.000    0.000    0.000    0.000    0.000    0.000 
#    0.000    0.000    0.000    0.000    0.000    0.000 
#
# Total GULP energy -89498.366060 kJ/mol
# GULP energy per Si atom -5593.647879 kJ/mol
# Density = 2.465366 g / cm^3
# Si number density = 24.709903 Si / 1000 Ang^3
#
#
#
# Elastic Constant Matrix: (Units=GPa)
#
#
# Indices 1 2 3 4 5 6 
#
# 1 56.5990 56.7230 27.7110 0.0000 -8.6018 0.0000
# 2 56.7230 222.2815 58.4531 0.0000 2.1420 0.0000
# 3 27.7110 58.4531 134.3285 0.0000 -8.6271 0.0000
# 4 0.0000 0.0000 0.0000 40.5970 0.0000 4.2273
# 5 -8.6018 2.1420 -8.6271 0.0000 44.0389 0.0000
# 6 0.0000 0.0000 0.0000 4.2273 0.0000 31.9984
#
#
#
# Elastic Compliance Matrix: (Units=1/GPa)
#
#
# Indices 1 2 3 4 5 6 
#
# 1 0.025503 -0.005931 -0.002372 0.000000 0.004805 0.000000
# 2 -0.005931 0.006480 -0.001712 0.000000 -0.001809 0.000000
# 3 -0.002372 -0.001712 0.008765 0.000000 0.001337 0.000000
# 4 0.000000 0.000000 0.000000 0.024976 0.000000 -0.003300
# 5 0.004805 -0.001809 0.001337 0.000000 0.023996 0.000000
# 6 0.000000 0.000000 0.000000 -0.003300 0.000000 0.031687
#
#
# Mechanical properties :
#
#
# Convention : Reuss Voigt Hill
#
# Bulk Modulus (GPa) = 48.26683 77.66479 62.96581
# Shear Modulus (GPa) = 33.70560 41.34832 37.52696
#
# Velocity S-wave (km/s) = 3.69731 4.09510 3.90128
# Velocity P-wave (km/s) = 6.14839 7.33884 6.76983
#
# Compressibility (1/GPa) = 0.02071816
#
# Stress axis : x y z
#
# Youngs Moduli (GPa) = 39.21048 154.32113 114.09291
#
# Poissons Ratio (x) = 0.91523 0.27061
# Poissons Ratio (y) = 0.23255 0.19538
# Poissons Ratio (z) = 0.09300 0.26427
#
# Static dielectric constant tensor:
#      x y z
#    x 2.038170 0.000000 -0.013670 
#    y 0.000000 1.935170 0.000000 
#    z -0.013670 0.000000 2.032250 
# 
# From -- ./inp_files/499.got.cif
#   From: 2010.05.17/outbox.cif.g08.bks.cpg/sg11_1_cif.got.tgz:499.got - 2010.06.03 12:22:45.
