data_PCOD9166540
_publ_section_title
;
Structure prediction by ZEFSAII (Michael W. Deem and Ramdas Pophale) SiO2 
 PCOD9166540
Probable space group: P 21/M
;
_chemical_formula_sum "Si O2"
_cell_formula_units_Z 18
_cell_length_a 14.192337
_cell_length_b 9.126129
_cell_length_c 19.000273
_cell_angle_alpha 90.000000
_cell_angle_beta 161.655517
_cell_angle_gamma 90.000000
_cell_volume 774.529157
_symmetry_space_group_name_H-M "P 21/M"
_symmetry_group_IT_number 11
_symmetry_cell_setting 'monoclinic'
loop_
_space_group_symop_operation_xyz
x,y,z
-x,1/2+y,-z
-x,-y,-z
x,1/2-y,z
loop_
_atom_site_type_symbol
_atom_site_label
_atom_site_fract_x
_atom_site_fract_y
_atom_site_fract_z
Si Si1 0.343178 0.499294 0.015706
Si Si2 0.864000 0.750000 0.694578
Si Si3 0.000000 0.000000 0.000000
Si Si4 0.638726 0.250000 0.301306
Si Si5 0.445761 0.750000 0.264096
Si Si6 0.243460 0.250000 0.667265
Si Si7 0.962964 0.750000 0.276915
Si Si8 0.568950 0.750000 0.633810
O O1 0.074527 0.607429 0.845361
O O2 0.238596 0.393220 0.878886
O O3 0.434829 0.391278 0.144339
O O4 0.623915 0.605792 0.201102
O O5 0.686800 0.750000 0.496759
O O6 0.644188 0.750000 0.604681
O O7 0.716718 0.892380 0.774332
O O8 0.768227 0.111719 0.875519
O O9 0.837904 0.250000 0.512028
O O10 0.887937 0.250000 0.416221
O O11 0.614164 0.750000 0.309296
O O12 0.213108 0.750000 0.392697
#
# Coordination Sequence:
#
# PCOD9166540 Si02
#       8
#     4   2   2   2   2   2   2   2
#     4  10  24  47  69  99 140 179 234 289 345 415
#     4  11  25  45  67 103 142 185 232 289 347 423
#     4  10  22  42  66  96 132 184 224 270 350 408
#     4  11  26  47  72 101 143 182 235 292 348 408
#     4  11  25  43  72 101 141 188 226 284 350 417
#     4  11  25  48  71 103 138 188 231 286 349 414
#     4  11  26  43  70 107 135 188 231 290 348 410
#     4  11  25  40  66 101 137 181 225 287 342 416
#
# _framework density 23.239924999999999
#
# number of rings (size 3 to 8) (size 9 to 14) (size 15 to 20)
#    0.000    1.333    0.000    4.667    9.333    6.222 
#   12.000    0.000    0.000    0.000    0.000    0.000 
#    0.000    0.000    0.000    0.000    0.000    0.000 
#
# Total GULP energy -100270.986822 kJ/mol
# GULP energy per Si atom -5570.610379 kJ/mol
# Density = 2.318703 g / cm^3
# Si number density = 23.239925 Si / 1000 Ang^3
#
#
#
# Elastic Constant Matrix: (Units=GPa)
#
#
# Indices 1 2 3 4 5 6 
#
# 1 106.1208 48.2533 42.1368 0.0000 -5.1601 0.0000
# 2 48.2533 150.1371 49.7829 0.0000 -11.5753 0.0000
# 3 42.1368 49.7829 119.4292 0.0000 -9.7326 0.0000
# 4 0.0000 0.0000 0.0000 247.3883 0.0000 -135.6703
# 5 -5.1601 -11.5753 -9.7326 0.0000 50.6686 0.0000
# 6 0.0000 0.0000 0.0000 -135.6703 0.0000 82.6149
#
#
#
# Elastic Compliance Matrix: (Units=1/GPa)
#
#
# Indices 1 2 3 4 5 6 
#
# 1 0.011908 -0.002825 -0.003025 0.000000 -0.000014 0.000000
# 2 -0.002825 0.008467 -0.002437 0.000000 0.001179 0.000000
# 3 -0.003025 -0.002437 0.010551 0.000000 0.001162 0.000000
# 4 0.000000 0.000000 0.000000 0.040666 0.000000 0.066782
# 5 -0.000014 0.001179 0.001162 0.000000 0.020227 0.000000
# 6 0.000000 0.000000 0.000000 0.066782 0.000000 0.121774
#
#
# Mechanical properties :
#
#
# Convention : Reuss Voigt Hill
#
# Bulk Modulus (GPa) = 69.67305 72.89257 71.28281
# Shear Modulus (GPa) = 21.28093 91.83530 56.55812
#
# Velocity S-wave (km/s) = 3.02935 6.29301 4.93857
# Velocity P-wave (km/s) = 6.50238 9.17801 7.95352
#
# Compressibility (1/GPa) = 0.01435275
#
# Stress axis : x y z
#
# Youngs Moduli (GPa) = 83.97499 118.09914 94.77964
#
# Poissons Ratio (x) = 0.33367 0.28670
# Poissons Ratio (y) = 0.23726 0.23095
# Poissons Ratio (z) = 0.25401 0.28777
#
# Static dielectric constant tensor:
#      x y z
#    x 1.895160 0.000000 -0.030410 
#    y 0.000000 1.879790 0.000000 
#    z -0.030410 0.000000 1.841140 
# 
# From -- ./inp_files/65066.got.cif
#   From: 2010.05.17/outbox.cif.g08.bks.cpg/sg11_33_cif.got.tgz:65066.got - 2010.06.03 12:22:45.
