data_PCOD9166634
_publ_section_title
;
Structure prediction by ZEFSAII (Michael W. Deem and Ramdas Pophale) SiO2 
 PCOD9166634
Probable space group: P 21/M
;
_chemical_formula_sum "Si O2"
_cell_formula_units_Z 30
_cell_length_a 13.655405
_cell_length_b 8.251543
_cell_length_c 11.254077
_cell_angle_alpha 90.000000
_cell_angle_beta 104.613118
_cell_angle_gamma 90.000000
_cell_volume 1227.067854
_symmetry_space_group_name_H-M "P 21/M"
_symmetry_group_IT_number 11
_symmetry_cell_setting 'monoclinic'
loop_
_space_group_symop_operation_xyz
x,y,z
-x,1/2+y,-z
-x,-y,-z
x,1/2-y,z
loop_
_atom_site_type_symbol
_atom_site_label
_atom_site_fract_x
_atom_site_fract_y
_atom_site_fract_z
Si Si1 0.336725 0.574729 0.135540
Si Si2 0.130874 0.433681 0.089686
Si Si3 0.520305 0.750000 0.109904
Si Si4 0.118710 0.931958 0.835158
Si Si5 0.065252 0.564429 0.327009
Si Si6 0.665708 0.436058 0.201263
Si Si7 0.771659 0.566027 0.462388
Si Si8 0.606388 0.061946 0.579627
O O1 0.279933 0.750000 0.125671
O O2 0.252503 0.440340 0.106592
O O3 0.426707 0.609891 0.071966
O O4 0.394170 0.555398 0.278400
O O5 0.096758 0.250000 0.072289
O O6 0.108587 0.502872 0.213190
O O7 0.091219 0.528345 0.962269
O O8 0.600206 0.599839 0.162258
O O9 0.088211 0.750000 0.795311
O O10 0.239102 0.942244 0.859424
O O11 0.054914 0.043469 0.727022
O O12 0.093471 0.750000 0.349289
O O13 0.118039 0.473426 0.451830
O O14 0.620465 0.250000 0.185112
O O15 0.723318 0.455068 0.345813
O O16 0.767724 0.750000 0.419755
O O17 0.696578 0.540942 0.551654
O O18 0.621010 0.250000 0.551331
O O19 0.500000 0.000000 0.500000
#
# Coordination Sequence:
#
# PCOD9166634 Si02
#       8
#     4   4   2   4   4   4   4   4
#     4   9  21  39  61  94 132 174 215 281 333 400
#     4  12  24  42  71 102 140 178 227 283 351 412
#     4  10  22  44  74  94 144 178 236 288 344 406
#     4  11  26  47  73  98 133 179 232 286 344 417
#     4  12  25  43  69 104 141 178 226 282 352 411
#     4  11  25  46  73 100 136 189 236 284 343 413
#     4  12  24  40  65  97 141 183 224 286 340 407
#     4  11  21  34  58  91 131 173 222 269 341 403
#
# _framework density 24.448525
#
# number of rings (size 3 to 8) (size 9 to 14) (size 15 to 20)
#    0.400    0.533    2.000    5.600    1.867    1.600 
#    0.000    0.667    0.000    0.000    0.000    0.000 
#    0.000    0.000    0.000    0.000    0.000    0.000 
#
# Total GULP energy -167231.801660 kJ/mol
# GULP energy per Si atom -5574.393389 kJ/mol
# Density = 2.439288 g / cm^3
# Si number density = 24.448525 Si / 1000 Ang^3
#
#
#
# Elastic Constant Matrix: (Units=GPa)
#
#
# Indices 1 2 3 4 5 6 
#
# 1 84.4756 25.1233 4.8185 0.0000 24.2950 0.0000
# 2 25.1233 137.2527 23.4079 0.0000 5.8861 0.0000
# 3 4.8185 23.4079 66.6031 0.0000 3.1544 0.0000
# 4 0.0000 0.0000 0.0000 -68.7779 0.0000 37.0624
# 5 24.2950 5.8861 3.1544 0.0000 33.9399 0.0000
# 6 0.0000 0.0000 0.0000 37.0624 0.0000 32.7687
#
#
#
# Elastic Compliance Matrix: (Units=1/GPa)
#
#
# Indices 1 2 3 4 5 6 
#
# 1 0.015659 -0.002443 0.000238 0.000000 -0.010808 0.000000
# 2 -0.002443 0.008172 -0.002723 0.000000 0.000585 0.000000
# 3 0.000238 -0.002723 0.016010 0.000000 -0.001186 0.000000
# 4 0.000000 0.000000 0.000000 -0.009034 0.000000 0.010217
# 5 -0.010808 0.000585 -0.001186 0.000000 0.037209 0.000000
# 6 0.000000 0.000000 0.000000 0.010217 0.000000 0.018961
#
#
# Mechanical properties :
#
#
# Convention : Reuss Voigt Hill
#
# Bulk Modulus (GPa) = 33.35086 43.89230 38.62158
# Shear Modulus (GPa) = 46.80326 15.25159 31.02742
#
# Velocity S-wave (km/s) = 4.38009 2.50036 3.56630
# Velocity P-wave (km/s) = 6.26507 5.13105 5.72620
#
# Compressibility (1/GPa) = 0.02998423
#
# Stress axis : x y z
#
# Youngs Moduli (GPa) = 63.86076 122.36282 62.45961
#
# Poissons Ratio (x) = 0.29898 -0.01485
# Poissons Ratio (y) = 0.15603 0.17009
# Poissons Ratio (z) = -0.01518 0.33321
#
# Static dielectric constant tensor:
#      x y z
#    x 1.992130 0.000000 -0.024270 
#    y 0.000000 1.877310 0.000000 
#    z -0.024270 0.000000 2.027320 
# 
# From -- ./inp_files/38367.got.cif
#   From: 2010.05.17/outbox.cif.g08.bks.cpg/sg11_20_cif.got.tgz:38367.got - 2010.06.03 12:22:45.
