data_PCOD9166592
_publ_section_title
;
Structure prediction by ZEFSAII (Michael W. Deem and Ramdas Pophale) SiO2 
 PCOD9166592
Probable space group: P 21/M
;
_chemical_formula_sum "Si O2"
_cell_formula_units_Z 24
_cell_length_a 11.539713
_cell_length_b 15.901251
_cell_length_c 16.752996
_cell_angle_alpha 90.000000
_cell_angle_beta 20.765198
_cell_angle_gamma 90.000000
_cell_volume 1089.890564
_symmetry_space_group_name_H-M "P 21/M"
_symmetry_group_IT_number 11
_symmetry_cell_setting 'monoclinic'
loop_
_space_group_symop_operation_xyz
x,y,z
-x,1/2+y,-z
-x,-y,-z
x,1/2-y,z
loop_
_atom_site_type_symbol
_atom_site_label
_atom_site_fract_x
_atom_site_fract_y
_atom_site_fract_z
Si Si1 0.240227 0.426556 0.146132
Si Si2 0.784126 0.485251 0.562305
Si Si3 0.688403 0.750000 0.097905
Si Si4 0.075901 0.065985 0.079467
Si Si5 0.961541 0.250000 0.972457
Si Si6 0.398739 0.750000 0.120880
Si Si7 0.146288 0.250000 0.668304
Si Si8 0.473424 0.887741 0.660378
O O1 0.063803 0.457400 0.179142
O O2 0.970969 0.417830 0.388319
O O3 0.500000 0.500000 0.000000
O O4 0.413478 0.337300 0.019324
O O5 0.757920 0.569063 0.526984
O O6 0.000000 0.500000 0.500000
O O7 0.417582 0.464508 0.823583
O O8 0.711673 0.750000 0.180641
O O9 0.385587 0.750000 0.228521
O O10 0.891648 0.667091 0.945238
O O11 0.764283 0.044124 0.227452
O O12 0.012889 0.250000 0.844405
O O13 0.744651 0.330109 0.140039
O O14 0.100709 0.750000 0.249220
O O15 0.369569 0.331153 0.509295
#
# Coordination Sequence:
#
# PCOD9166592 Si02
#       8
#     4   4   2   4   2   2   2   4
#     4  11  23  43  66  99 138 177 230 290 340 413
#     4  12  25  39  65  94 132 179 224 276 340 407
#     4   8  19  41  65  92 127 167 217 279 334 399
#     4  10  22  43  67  91 135 174 220 280 339 408
#     4   9  21  42  70  94 132 177 222 279 338 416
#     4  10  23  41  68 103 137 182 225 292 355 408
#     4  11  23  40  73  97 134 178 226 282 351 413
#     4  10  24  43  63 101 136 171 226 284 338 409
#
# _framework density 22.020558999999999
#
# number of rings (size 3 to 8) (size 9 to 14) (size 15 to 20)
#    0.000    1.667    1.667    2.000    4.667    5.333 
#    0.000    0.000    0.000    0.000    0.000    0.000 
#    0.000    0.000    0.000    0.000    0.000    0.000 
#
# Total GULP energy -133909.139183 kJ/mol
# GULP energy per Si atom -5579.547466 kJ/mol
# Density = 2.197044 g / cm^3
# Si number density = 22.020559 Si / 1000 Ang^3
#
#
#
# Elastic Constant Matrix: (Units=GPa)
#
#
# Indices 1 2 3 4 5 6 
#
# 1 153.3453 16.1515 43.6243 0.0000 -16.4053 0.0000
# 2 16.1515 63.6796 2.2234 0.0000 -1.5833 0.0000
# 3 43.6243 2.2234 69.4525 0.0000 -0.2996 0.0000
# 4 0.0000 0.0000 0.0000 17.3590 0.0000 -12.5603
# 5 -16.4053 -1.5833 -0.2996 0.0000 37.9504 0.0000
# 6 0.0000 0.0000 0.0000 -12.5603 0.0000 22.5005
#
#
#
# Elastic Compliance Matrix: (Units=1/GPa)
#
#
# Indices 1 2 3 4 5 6 
#
# 1 0.008629 -0.001912 -0.005343 0.000000 0.003608 0.000000
# 2 -0.001912 0.016161 0.000683 0.000000 -0.000147 0.000000
# 3 -0.005343 0.000683 0.017723 0.000000 -0.002141 0.000000
# 4 0.000000 0.000000 0.000000 0.096641 0.000000 0.053947
# 5 0.003608 -0.000147 -0.002141 0.000000 0.027887 0.000000
# 6 0.000000 0.000000 0.000000 0.053947 0.000000 0.074558
#
#
# Mechanical properties :
#
#
# Convention : Reuss Voigt Hill
#
# Bulk Modulus (GPa) = 34.04986 45.60843 39.82915
# Shear Modulus (GPa) = 18.90122 30.52720 24.71421
#
# Velocity S-wave (km/s) = 2.93293 3.72735 3.35375
# Velocity P-wave (km/s) = 5.19286 6.26745 5.75529
#
# Compressibility (1/GPa) = 0.02936870
#
# Stress axis : x y z
#
# Youngs Moduli (GPa) = 115.89295 61.87688 56.42301
#
# Poissons Ratio (x) = 0.11833 0.30147
# Poissons Ratio (y) = 0.22162 -0.03854
# Poissons Ratio (z) = 0.61922 -0.04227
#
# Static dielectric constant tensor:
#      x y z
#    x 1.848310 0.000000 -0.034140 
#    y 0.000000 1.813820 0.000000 
#    z -0.034140 0.000000 1.828000 
# 
# From -- ./inp_files/59665.got.cif
#   From: 2010.05.17/outbox.cif.g08.bks.cpg/sg11_30_cif.got.tgz:59665.got - 2010.06.03 12:22:45.
