data_PCOD9166958
_publ_section_title
;
Structure prediction by ZEFSAII (Michael W. Deem and Ramdas Pophale) SiO2 
 PCOD9166958
Probable space group: P 21/M
;
_chemical_formula_sum "Si O2"
_cell_formula_units_Z 32
_cell_length_a 11.085323
_cell_length_b 17.049212
_cell_length_c 14.465195
_cell_angle_alpha 90.000000
_cell_angle_beta 150.885874
_cell_angle_gamma 90.000000
_cell_volume 1330.163840
_symmetry_space_group_name_H-M "P 21/M"
_symmetry_group_IT_number 11
_symmetry_cell_setting 'monoclinic'
loop_
_space_group_symop_operation_xyz
x,y,z
-x,1/2+y,-z
-x,-y,-z
x,1/2-y,z
loop_
_atom_site_type_symbol
_atom_site_label
_atom_site_fract_x
_atom_site_fract_y
_atom_site_fract_z
Si Si1 0.799195 0.837880 0.171286
Si Si2 0.688886 0.127430 0.272998
Si Si3 0.971458 0.080666 0.186894
Si Si4 0.461538 0.339066 0.309954
Si Si5 0.599608 0.943818 0.196922
Si Si6 0.047501 0.593433 0.033367
Si Si7 0.230716 0.912362 0.342140
Si Si8 0.196617 0.338171 0.512260
O O1 0.821688 0.750000 0.223961
O O2 0.762413 0.899801 0.229050
O O3 0.028728 0.858175 0.258896
O O4 0.548874 0.842973 0.943030
O O5 0.654315 0.151684 0.355888
O O6 0.937720 0.159464 0.395338
O O7 0.682698 0.033043 0.263726
O O8 0.113863 0.133677 0.355534
O O9 0.934525 0.118232 0.060763
O O10 0.688428 0.060232 0.026966
O O11 0.122253 0.999495 0.279630
O O12 0.456866 0.250000 0.339691
O O13 0.198216 0.364744 0.093371
O O14 0.524027 0.397636 0.435123
O O15 0.633806 0.899188 0.317497
O O16 0.000000 0.500000 0.000000
O O17 0.253015 0.607782 0.248876
O O18 0.298539 0.250000 0.580415
#
# Coordination Sequence:
#
# PCOD9166958 Si02
#       8
#     4   4   4   4   4   4   4   4
#     4  12  22  38  68 100 136 173 214 274 339 392
#     4  12  22  42  68  96 133 175 220 270 335 401
#     4  11  24  44  67  93 129 176 225 268 321 400
#     4  12  25  42  69 104 136 168 216 279 341 390
#     4  12  24  43  67  97 132 179 225 267 323 404
#     4  10  24  45  69  95 129 174 223 270 322 392
#     4  11  23  43  70 100 131 170 220 275 338 395
#     4  12  26  41  62  95 133 174 220 274 333 392
#
# _framework density 24.057185
#
# number of rings (size 3 to 8) (size 9 to 14) (size 15 to 20)
#    0.000    0.500    3.750    5.625    0.000    4.500 
#    0.000    0.000    0.000    0.000    0.000    0.000 
#    0.000    0.000    0.000    0.000    0.000    0.000 
#
# Total GULP energy -179355.036858 kJ/mol
# GULP energy per Si atom -5604.844902 kJ/mol
# Density = 2.400243 g / cm^3
# Si number density = 24.057185 Si / 1000 Ang^3
#
#
#
# Elastic Constant Matrix: (Units=GPa)
#
#
# Indices 1 2 3 4 5 6 
#
# 1 82.9055 16.1937 13.1159 0.0000 -25.8986 0.0000
# 2 16.1937 133.2505 10.2249 0.0000 -7.2368 0.0000
# 3 13.1159 10.2249 84.1932 0.0000 -20.2753 0.0000
# 4 0.0000 0.0000 0.0000 15.1720 0.0000 -8.5832
# 5 -25.8986 -7.2368 -20.2753 0.0000 50.4742 0.0000
# 6 0.0000 0.0000 0.0000 -8.5832 0.0000 -6.7617
#
#
#
# Elastic Compliance Matrix: (Units=1/GPa)
#
#
# Indices 1 2 3 4 5 6 
#
# 1 0.014623 -0.001359 -0.000391 0.000000 0.007151 0.000000
# 2 -0.001359 0.007730 -0.000695 0.000000 0.000132 0.000000
# 3 -0.000391 -0.000695 0.013230 0.000000 0.005014 0.000000
# 4 0.000000 0.000000 0.000000 0.038362 0.000000 -0.048696
# 5 0.007151 0.000132 0.005014 0.000000 0.025515 0.000000
# 6 0.000000 0.000000 0.000000 -0.048696 0.000000 -0.086077
#
#
# Mechanical properties :
#
#
# Convention : Reuss Voigt Hill
#
# Bulk Modulus (GPa) = 32.57980 42.15757 37.36869
# Shear Modulus (GPa) = 175.40884 29.16454 102.28669
#
# Velocity S-wave (km/s) = 8.54819 3.48559 6.52767
# Velocity P-wave (km/s) = 10.53569 5.81043 8.50770
#
# Compressibility (1/GPa) = 0.03069387
#
# Stress axis : x y z
#
# Youngs Moduli (GPa) = 68.38463 129.36093 75.58393
#
# Poissons Ratio (x) = 0.17577 0.02954
# Poissons Ratio (y) = 0.09292 0.05256
# Poissons Ratio (z) = 0.02673 0.08996
#
# Static dielectric constant tensor:
#      x y z
#    x 1.926610 0.000000 -0.006640 
#    y 0.000000 1.843930 0.000000 
#    z -0.006640 0.000000 1.909390 
# 
# From -- ./inp_files/50689.got.cif
#   From: 2010.05.17/outbox.cif.g08.bks.cpg/sg11_26_cif.got.tgz:50689.got - 2010.06.03 12:22:45.
