data_PCOD9166542
_publ_section_title
;
Structure prediction by ZEFSAII (Michael W. Deem and Ramdas Pophale) SiO2 
 PCOD9166542
Probable space group: P 21/M
;
_chemical_formula_sum "Si O2"
_cell_formula_units_Z 26
_cell_length_a 8.042027
_cell_length_b 24.943876
_cell_length_c 6.609606
_cell_angle_alpha 90.000000
_cell_angle_beta 58.113093
_cell_angle_gamma 90.000000
_cell_volume 1125.796781
_symmetry_space_group_name_H-M "P 21/M"
_symmetry_group_IT_number 11
_symmetry_cell_setting 'monoclinic'
loop_
_space_group_symop_operation_xyz
x,y,z
-x,1/2+y,-z
-x,-y,-z
x,1/2-y,z
loop_
_atom_site_type_symbol
_atom_site_label
_atom_site_fract_x
_atom_site_fract_y
_atom_site_fract_z
Si Si1 0.194214 0.250000 0.460730
Si Si2 0.616908 0.341634 0.562322
Si Si3 0.087194 0.026311 0.646269
Si Si4 0.309748 0.365038 0.438678
Si Si5 0.913389 0.250000 0.299517
Si Si6 0.300558 0.510192 0.861614
Si Si7 0.351700 0.250000 0.930333
Si Si8 0.515131 0.913440 0.033301
O O1 0.222366 0.306894 0.545917
O O2 0.985481 0.250000 0.485947
O O3 0.354160 0.250000 0.173818
O O4 0.503332 0.369426 0.451361
O O5 0.789195 0.304593 0.361904
O O6 0.466167 0.299851 0.761831
O O7 0.648761 0.385149 0.721014
O O8 0.165682 0.085863 0.566614
O O9 0.262718 0.993096 0.644973
O O10 0.000000 0.000000 0.500000
O O11 0.906005 0.028148 0.913929
O O12 0.361315 0.369376 0.168054
O O13 0.116238 0.250000 0.045201
O O14 0.353548 0.450420 0.905547
O O15 0.446954 0.548274 0.892279
#
# Coordination Sequence:
#
# PCOD9166542 Si02
#       8
#     2   4   4   4   2   4   2   4
#     4  10  22  42  66  97 129 170 233 273 336 408
#     4  11  22  43  69  94 137 181 215 287 348 392
#     4  11  23  43  67  97 132 179 227 280 340 412
#     4  12  24  42  69  97 134 184 220 284 351 404
#     4   9  22  43  68  95 126 180 229 275 335 412
#     4  10  24  41  64  98 133 175 227 278 341 401
#     4   9  20  43  68  90 137 172 232 280 327 410
#     4  11  22  42  64 100 135 170 227 281 333 414
#
# _framework density 23.094753000000001
#
# number of rings (size 3 to 8) (size 9 to 14) (size 15 to 20)
#    0.462    0.923    4.615    0.923    2.154    1.846 
#    2.769    1.538    0.000    0.000    0.000    0.000 
#    0.000    0.000    0.000    0.000    0.000    0.000 
#
# Total GULP energy -145055.009847 kJ/mol
# GULP energy per Si atom -5579.038840 kJ/mol
# Density = 2.304219 g / cm^3
# Si number density = 23.094753 Si / 1000 Ang^3
#
#
#
# Elastic Constant Matrix: (Units=GPa)
#
#
# Indices 1 2 3 4 5 6 
#
# 1 75.2548 25.3166 13.4344 0.0000 21.0731 0.0000
# 2 25.3166 111.7819 30.9844 0.0000 16.3435 0.0000
# 3 13.4344 30.9844 59.4800 0.0000 18.3303 0.0000
# 4 0.0000 0.0000 0.0000 19.3220 0.0000 13.9549
# 5 21.0731 16.3435 18.3303 0.0000 51.3817 0.0000
# 6 0.0000 0.0000 0.0000 13.9549 0.0000 26.1052
#
#
#
# Elastic Compliance Matrix: (Units=1/GPa)
#
#
# Indices 1 2 3 4 5 6 
#
# 1 0.015795 -0.002638 -0.000512 0.000000 -0.005456 0.000000
# 2 -0.002638 0.011008 -0.004935 0.000000 -0.000659 0.000000
# 3 -0.000512 -0.004935 0.021291 0.000000 -0.005816 0.000000
# 4 0.000000 0.000000 0.000000 0.084301 0.000000 -0.045064
# 5 -0.005456 -0.000659 -0.005816 0.000000 0.023984 0.000000
# 6 0.000000 0.000000 0.000000 -0.045064 0.000000 0.062396
#
#
# Mechanical properties :
#
#
# Convention : Reuss Voigt Hill
#
# Bulk Modulus (GPa) = 31.32452 42.88748 37.10600
# Shear Modulus (GPa) = 20.35941 31.14720 25.75331
#
# Velocity S-wave (km/s) = 2.97233 3.67641 3.34296
# Velocity P-wave (km/s) = 5.03712 6.05242 5.56796
#
# Compressibility (1/GPa) = 0.03192387
#
# Stress axis : x y z
#
# Youngs Moduli (GPa) = 63.31199 90.84540 46.96769
#
# Poissons Ratio (x) = 0.23961 0.02405
# Poissons Ratio (y) = 0.16699 0.23180
# Poissons Ratio (z) = 0.03242 0.44836
#
# Static dielectric constant tensor:
#      x y z
#    x 1.894870 0.000000 0.026150 
#    y 0.000000 1.941340 0.000000 
#    z 0.026150 0.000000 1.913570 
# 
# From -- ./inp_files/2997.got.cif
#   From: 2010.05.17/outbox.cif.g08.bks.cpg/sg11_2_cif.got.tgz:2997.got - 2010.06.03 12:22:45.
