data_PCOD9166402
_publ_section_title
;
Structure prediction by ZEFSAII (Michael W. Deem and Ramdas Pophale) SiO2 
 PCOD9166402
Probable space group: P 21/M
;
_chemical_formula_sum "Si O2"
_cell_formula_units_Z 18
_cell_length_a 8.433967
_cell_length_b 9.874331
_cell_length_c 19.627023
_cell_angle_alpha 90.000000
_cell_angle_beta 147.339723
_cell_angle_gamma 90.000000
_cell_volume 882.087449
_symmetry_space_group_name_H-M "P 21/M"
_symmetry_group_IT_number 11
_symmetry_cell_setting 'monoclinic'
loop_
_space_group_symop_operation_xyz
x,y,z
-x,1/2+y,-z
-x,-y,-z
x,1/2-y,z
loop_
_atom_site_type_symbol
_atom_site_label
_atom_site_fract_x
_atom_site_fract_y
_atom_site_fract_z
Si Si1 0.900883 0.509077 0.324766
Si Si2 0.830021 0.016396 0.144605
Si Si3 0.631950 0.250000 0.525353
Si Si4 0.215363 0.750000 0.272633
Si Si5 0.359756 0.250000 0.698832
Si Si6 0.857582 0.250000 0.404372
Si Si7 0.233196 0.250000 0.251755
O O1 0.832500 0.449276 0.225907
O O2 0.652845 0.615173 0.260296
O O3 0.924651 0.386750 0.386530
O O4 0.181318 0.611370 0.420256
O O5 0.020005 0.122166 0.170221
O O6 0.005893 0.877525 0.203233
O O7 0.500000 0.000000 0.000000
O O8 0.569609 0.250000 0.583578
O O9 0.368586 0.250000 0.377323
O O10 0.385037 0.750000 0.263648
O O11 0.063114 0.250000 0.545344
O O12 0.516503 0.250000 0.305245
#
# Coordination Sequence:
#
# PCOD9166402 Si02
#       7
#     4   4   2   2   2   2   2
#     4  10  22  41  62  91 132 162 200 254 316 367
#     4  11  25  45  64  87 124 172 219 255 293 362
#     4   9  22  39  60  98 124 167 200 255 312 378
#     4  10  23  39  67  91 127 165 208 255 313 366
#     4  11  22  39  61  94 134 157 196 253 332 377
#     4  12  23  37  63 101 132 157 195 256 324 381
#     4  12  24  40  65  94 125 158 215 255 313 368
#
# _framework density 20.406140000000001
#
# number of rings (size 3 to 8) (size 9 to 14) (size 15 to 20)
#    0.000    1.333    2.222    4.000    6.222    1.778 
#    0.000    6.667    0.000    0.000    0.000    0.000 
#    0.000    0.000    0.000    0.000    0.000    0.000 
#
# Total GULP energy -100597.297923 kJ/mol
# GULP energy per Si atom -5588.738773 kJ/mol
# Density = 2.035969 g / cm^3
# Si number density = 20.406140 Si / 1000 Ang^3
#
#
#
# Elastic Constant Matrix: (Units=GPa)
#
#
# Indices 1 2 3 4 5 6 
#
# 1 99.6278 22.2866 13.7306 0.0000 12.2350 0.0000
# 2 22.2866 116.0931 8.0530 0.0000 7.5628 0.0000
# 3 13.7306 8.0530 76.0410 0.0000 21.3394 0.0000
# 4 0.0000 0.0000 0.0000 18.1293 0.0000 -1.6849
# 5 12.2350 7.5628 21.3394 0.0000 24.4438 0.0000
# 6 0.0000 0.0000 0.0000 -1.6849 0.0000 23.9863
#
#
#
# Elastic Compliance Matrix: (Units=1/GPa)
#
#
# Indices 1 2 3 4 5 6 
#
# 1 0.011067 -0.001793 -0.000543 0.000000 -0.004511 0.000000
# 2 -0.001793 0.009084 -0.000134 0.000000 -0.001796 0.000000
# 3 -0.000543 -0.000134 0.017450 0.000000 -0.014921 0.000000
# 4 0.000000 0.000000 0.000000 0.055522 0.000000 0.003900
# 5 -0.004511 -0.001796 -0.014921 0.000000 0.056750 0.000000
# 6 0.000000 0.000000 0.000000 0.003900 0.000000 0.041964
#
#
# Mechanical properties :
#
#
# Convention : Reuss Voigt Hill
#
# Bulk Modulus (GPa) = 30.61669 42.21139 36.41404
# Shear Modulus (GPa) = 24.07725 29.82465 26.95095
#
# Velocity S-wave (km/s) = 3.43870 3.82717 3.63812
# Velocity P-wave (km/s) = 5.54999 6.34509 5.96082
#
# Compressibility (1/GPa) = 0.03266193
#
# Stress axis : x y z
#
# Youngs Moduli (GPa) = 90.35671 110.07999 57.30577
#
# Poissons Ratio (x) = 0.19738 0.03109
# Poissons Ratio (y) = 0.16202 0.00770
# Poissons Ratio (z) = 0.04902 0.01479
#
# Static dielectric constant tensor:
#      x y z
#    x 1.752250 0.000000 -0.002840 
#    y 0.000000 1.715470 0.000000 
#    z -0.002840 0.000000 1.697930 
# 
# From -- ./inp_files/15737.got.cif
#   From: 2010.05.17/outbox.cif.g08.bks.cpg/sg11_8_cif.got.tgz:15737.got - 2010.06.03 12:22:45.
