data_PCOD9166595
_publ_section_title
;
Structure prediction by ZEFSAII (Michael W. Deem and Ramdas Pophale) SiO2 
 PCOD9166595
Probable space group: P 21/M
;
_chemical_formula_sum "Si O2"
_cell_formula_units_Z 28
_cell_length_a 5.409702
_cell_length_b 26.991769
_cell_length_c 9.464418
_cell_angle_alpha 90.000000
_cell_angle_beta 60.011829
_cell_angle_gamma 90.000000
_cell_volume 1196.963726
_symmetry_space_group_name_H-M "P 21/M"
_symmetry_group_IT_number 11
_symmetry_cell_setting 'monoclinic'
loop_
_space_group_symop_operation_xyz
x,y,z
-x,1/2+y,-z
-x,-y,-z
x,1/2-y,z
loop_
_atom_site_type_symbol
_atom_site_label
_atom_site_fract_x
_atom_site_fract_y
_atom_site_fract_z
Si Si1 0.812831 0.155427 0.953560
Si Si2 0.677697 0.696597 0.351199
Si Si3 0.031722 0.392108 0.367845
Si Si4 0.904311 0.549952 0.105062
Si Si5 0.578680 0.160905 0.302516
Si Si6 0.846324 0.002737 0.394306
Si Si7 0.614594 0.390678 0.738178
O O1 0.696094 0.183128 0.123687
O O2 0.604874 0.133579 0.894712
O O3 0.007470 0.190796 0.801300
O O4 0.959768 0.103656 0.968043
O O5 0.556586 0.750000 0.342641
O O6 0.627859 0.691094 0.533022
O O7 0.543900 0.648205 0.319040
O O8 0.849751 0.353640 0.323887
O O9 0.951878 0.443348 0.313637
O O10 0.901181 0.394702 0.564021
O O11 0.364557 0.381498 0.300171
O O12 0.956163 0.538360 0.254811
O O13 0.565291 0.559218 0.196137
O O14 0.000000 0.500000 0.000000
O O15 0.500000 0.000000 0.500000
O O16 0.000000 0.000000 0.500000
#
# Coordination Sequence:
#
# PCOD9166595 Si02
#       7
#     4   4   4   4   4   4   4
#     4  11  24  44  70  98 140 183 228 290 345 417
#     4  10  24  46  71 101 131 173 224 286 357 426
#     4  11  22  44  64  97 132 183 229 280 334 403
#     4  11  25  41  60 100 140 188 235 287 336 409
#     4  11  25  43  73  96 136 175 222 278 344 411
#     4  12  24  38  62  91 129 178 235 277 326 390
#     4  10  22  43  67  94 139 183 230 286 352 408
#
# _framework density 23.392522
#
# number of rings (size 3 to 8) (size 9 to 14) (size 15 to 20)
#    0.000    1.143    2.857    2.571    8.000    1.714 
#    0.000    0.000    0.000    0.000    0.000    0.000 
#    0.000    0.000    0.000    0.000    0.000    0.000 
#
# Total GULP energy -156039.169435 kJ/mol
# GULP energy per Si atom -5572.827480 kJ/mol
# Density = 2.333928 g / cm^3
# Si number density = 23.392522 Si / 1000 Ang^3
#
#
#
# Elastic Constant Matrix: (Units=GPa)
#
#
# Indices 1 2 3 4 5 6 
#
# 1 80.6029 -14.3656 28.8860 0.0000 8.0334 0.0000
# 2 -14.3656 55.9656 20.9128 0.0000 -11.1520 0.0000
# 3 28.8860 20.9128 177.4445 0.0000 20.9531 0.0000
# 4 0.0000 0.0000 0.0000 -5.7042 0.0000 9.4483
# 5 8.0334 -11.1520 20.9531 0.0000 29.3841 0.0000
# 6 0.0000 0.0000 0.0000 9.4483 0.0000 -9.4240
#
#
#
# Elastic Compliance Matrix: (Units=1/GPa)
#
#
# Indices 1 2 3 4 5 6 
#
# 1 0.014286 0.004730 -0.002876 0.000000 -0.000060 0.000000
# 2 0.004730 0.023022 -0.004763 0.000000 0.010841 0.000000
# 3 -0.002876 -0.004763 0.007410 0.000000 -0.006305 0.000000
# 4 0.000000 0.000000 0.000000 0.265359 0.000000 0.266044
# 5 -0.000060 0.010841 -0.006305 0.000000 0.042659 0.000000
# 6 0.000000 0.000000 0.000000 0.266044 0.000000 0.160619
#
#
# Mechanical properties :
#
#
# Convention : Reuss Voigt Hill
#
# Bulk Modulus (GPa) = 25.70757 42.76437 34.23597
# Shear Modulus (GPa) = 9.39601 21.42316 15.40959
#
# Velocity S-wave (km/s) = 2.00634 3.02952 2.56938
# Velocity P-wave (km/s) = 4.04731 5.52795 4.84453
#
# Compressibility (1/GPa) = 0.03889905
#
# Stress axis : x y z
#
# Youngs Moduli (GPa) = 69.99794 43.43584 134.95864
#
# Poissons Ratio (x) = -0.20544 0.38814
# Poissons Ratio (y) = -0.33108 0.64287
# Poissons Ratio (z) = 0.20131 0.20690
#
# Static dielectric constant tensor:
#      x y z
#    x 1.957590 0.000000 -0.043080 
#    y 0.000000 1.946970 0.000000 
#    z -0.043080 0.000000 1.953150 
# 
# From -- ./inp_files/10806.got.cif
#   From: 2010.05.17/outbox.cif.g08.bks.cpg/sg11_6_cif.got.tgz:10806.got - 2010.06.03 12:22:45.
