data_PCOD9166799
_publ_section_title
;
Structure prediction by ZEFSAII (Michael W. Deem and Ramdas Pophale) SiO2 
 PCOD9166799
Probable space group: P 21/M
;
_chemical_formula_sum "Si O2"
_cell_formula_units_Z 28
_cell_length_a 10.043143
_cell_length_b 8.421949
_cell_length_c 22.099623
_cell_angle_alpha 90.000000
_cell_angle_beta 132.455783
_cell_angle_gamma 90.000000
_cell_volume 1379.128972
_symmetry_space_group_name_H-M "P 21/M"
_symmetry_group_IT_number 11
_symmetry_cell_setting 'monoclinic'
loop_
_space_group_symop_operation_xyz
x,y,z
-x,1/2+y,-z
-x,-y,-z
x,1/2-y,z
loop_
_atom_site_type_symbol
_atom_site_label
_atom_site_fract_x
_atom_site_fract_y
_atom_site_fract_z
Si Si1 0.840658 0.438844 0.493938
Si Si2 0.795198 0.059337 0.195580
Si Si3 0.217886 0.439545 0.176983
Si Si4 0.426842 0.940392 0.124337
Si Si5 0.446397 0.938699 0.359374
Si Si6 0.838379 0.057623 0.631897
Si Si7 0.803457 0.442830 0.060681
O O1 0.855359 0.250000 0.500297
O O2 0.641548 0.484793 0.410385
O O3 0.851929 0.498756 0.566850
O O4 0.000000 0.500000 0.500000
O O5 0.790951 0.250000 0.195460
O O6 0.763320 0.003941 0.116597
O O7 0.634582 0.991111 0.186734
O O8 0.988698 0.002045 0.278079
O O9 0.221736 0.250000 0.187204
O O10 0.321811 0.485342 0.148174
O O11 0.316004 0.519757 0.263742
O O12 0.008843 0.489620 0.108734
O O13 0.413462 0.750000 0.123730
O O14 0.332959 0.996866 0.033060
O O15 0.470292 0.750000 0.370232
O O16 0.342610 0.994386 0.388348
O O17 0.839454 0.250000 0.632558
O O18 0.797076 0.250000 0.058976
#
# Coordination Sequence:
#
# PCOD9166799 Si02
#       7
#     4   4   4   4   4   4   4
#     4  11  25  44  67  96 130 164 203 253 307 368
#     4  11  22  39  63  92 124 164 211 258 310 369
#     4  11  22  40  63  91 124 163 210 258 310 371
#     4  11  23  39  59  88 127 167 208 261 316 367
#     4  11  23  42  67  95 125 162 207 254 311 372
#     4  10  23  43  66  93 125 163 208 254 307 368
#     4   9  20  39  62  89 122 161 211 263 311 366
#
# _framework density 20.302669999999999
#
# number of rings (size 3 to 8) (size 9 to 14) (size 15 to 20)
#    0.000    1.429    1.429    3.429    2.000    1.714 
#    0.000    4.286    0.000    0.000    0.000    0.000 
#    0.000    0.000    0.000    0.000    0.000    0.000 
#
# Total GULP energy -156571.283277 kJ/mol
# GULP energy per Si atom -5591.831546 kJ/mol
# Density = 2.025646 g / cm^3
# Si number density = 20.302670 Si / 1000 Ang^3
#
#
#
# Elastic Constant Matrix: (Units=GPa)
#
#
# Indices 1 2 3 4 5 6 
#
# 1 -1641.9907 780.8987-1251.3688 0.0000 2863.7028 0.0000
# 2 780.8987 -312.1648 551.8548 0.0000-1235.4781 0.0000
# 3 -1251.3688 551.8548 -850.4656 0.0000 2056.2426 0.0000
# 4 0.0000 0.0000 0.0000 26.4413 0.0000 -0.7424
# 5 2863.7028-1235.4781 2056.2426 0.0000-4550.4156 0.0000
# 6 0.0000 0.0000 0.0000 -0.7424 0.0000 17.8725
#
#
#
# Elastic Compliance Matrix: (Units=1/GPa)
#
#
# Indices 1 2 3 4 5 6 
#
# 1 0.007407 -0.002236 -0.004200 0.000000 0.003371 0.000000
# 2 -0.002236 0.044626 0.004860 0.000000 -0.011327 0.000000
# 3 -0.004200 0.004860 0.015379 0.000000 0.002987 0.000000
# 4 0.000000 0.000000 0.000000 0.037864 0.000000 0.001573
# 5 0.003371 -0.011327 0.002987 0.000000 0.006327 0.000000
# 6 0.000000 0.000000 0.000000 0.001573 0.000000 0.056017
#
#
# Mechanical properties :
#
#
# Convention : Reuss Voigt Hill
#
# Bulk Modulus (GPa) = 15.56137 -293.53907 -138.98885
# Shear Modulus (GPa) = 26.01571 -1093.62074 -533.80252
#
# Velocity S-wave (km/s) = 3.58354 -23.23420 -16.23247
# Velocity P-wave (km/s) = 4.98033 29.40520 20.49222
#
# Compressibility (1/GPa) = 0.06426168
#
# Stress axis : x y z
#
# Youngs Moduli (GPa) = 134.99970 22.40866 65.02207
#
# Poissons Ratio (x) = 0.05010 0.27306
# Poissons Ratio (y) = 0.30179 -0.31599
# Poissons Ratio (z) = 0.56693 -0.10890
#
# Static dielectric constant tensor:
#      x y z
#    x 1.709390 0.000000 -0.020820 
#    y 0.000000 1.692140 0.000000 
#    z -0.020820 0.000000 1.698290 
# 
# From -- ./inp_files/63390.got.cif
#   From: 2010.05.17/outbox.cif.g08.bks.cpg/sg11_32_cif.got.tgz:63390.got - 2010.06.03 12:22:45.
