data_PCOD9166837
_publ_section_title
;
Structure prediction by ZEFSAII (Michael W. Deem and Ramdas Pophale) SiO2 
 PCOD9166837
Probable space group: P 21/M
;
_chemical_formula_sum "Si O2"
_cell_formula_units_Z 24
_cell_length_a 9.158363
_cell_length_b 21.931587
_cell_length_c 5.335042
_cell_angle_alpha 90.000000
_cell_angle_beta 105.389421
_cell_angle_gamma 90.000000
_cell_volume 1033.160626
_symmetry_space_group_name_H-M "P 21/M"
_symmetry_group_IT_number 11
_symmetry_cell_setting 'monoclinic'
loop_
_space_group_symop_operation_xyz
x,y,z
-x,1/2+y,-z
-x,-y,-z
x,1/2-y,z
loop_
_atom_site_type_symbol
_atom_site_label
_atom_site_fract_x
_atom_site_fract_y
_atom_site_fract_z
Si Si1 0.055730 0.678580 0.369809
Si Si2 0.901184 0.939558 0.482203
Si Si3 0.319881 0.512267 0.890109
Si Si4 0.692995 0.412324 0.633330
Si Si5 0.647756 0.618884 0.582222
Si Si6 0.723344 0.681160 0.102329
O O1 0.072269 0.750000 0.461889
O O2 0.210377 0.650357 0.330485
O O3 0.003489 0.621297 0.522512
O O4 0.904657 0.678995 0.127327
O O5 0.782061 0.930697 0.650844
O O6 0.778385 0.951107 0.202985
O O7 0.000000 0.000000 0.500000
O O8 0.296991 0.551703 0.625538
O O9 0.500000 0.500000 0.000000
O O10 0.259105 0.549485 0.100814
O O11 0.513913 0.403717 0.579934
O O12 0.701015 0.663624 0.383130
O O13 0.632162 0.646289 0.848549
O O14 0.673123 0.750000 0.055959
#
# Coordination Sequence:
#
# PCOD9166837 Si02
#       6
#     4   4   4   4   4   4
#     4  10  25  47  71 105 148 193 243 299 361 434
#     4  11  24  45  75 111 146 190 242 297 364 430
#     4  12  26  45  73 109 146 184 239 301 362 430
#     4  12  26  45  71 107 144 188 234 302 362 426
#     4  11  24  42  69 105 141 186 240 295 358 428
#     4  10  23  44  69  97 139 190 242 293 353 428
#
# _framework density 23.229686999999998
#
# number of rings (size 3 to 8) (size 9 to 14) (size 15 to 20)
#    0.000    1.000    3.333    2.000    4.667    2.667 
#    0.000    4.167    0.000    0.000    0.000    0.000 
#    0.000    0.000    0.000    0.000    0.000    0.000 
#
# Total GULP energy -133764.263418 kJ/mol
# GULP energy per Si atom -5573.510976 kJ/mol
# Density = 2.317681 g / cm^3
# Si number density = 23.229687 Si / 1000 Ang^3
#
#
#
# Elastic Constant Matrix: (Units=GPa)
#
#
# Indices 1 2 3 4 5 6 
#
# 1 102.7928 36.9776 -7.4758 0.0000 4.0199 0.0000
# 2 36.9776 140.7865 26.7639 0.0000 -12.2688 0.0000
# 3 -7.4758 26.7639 96.5488 0.0000 -23.7892 0.0000
# 4 0.0000 0.0000 0.0000 28.4992 0.0000 3.7518
# 5 4.0199 -12.2688 -23.7892 0.0000 17.4580 0.0000
# 6 0.0000 0.0000 0.0000 3.7518 0.0000 29.7172
#
#
#
# Elastic Compliance Matrix: (Units=1/GPa)
#
#
# Indices 1 2 3 4 5 6 
#
# 1 0.011175 -0.003433 0.000886 0.000000 -0.003779 0.000000
# 2 -0.003433 0.008712 -0.001472 0.000000 0.004908 0.000000
# 3 0.000886 -0.001472 0.015851 0.000000 0.020361 0.000000
# 4 0.000000 0.000000 0.000000 0.035682 0.000000 -0.004505
# 5 -0.003779 0.004908 0.020361 0.000000 0.089345 0.000000
# 6 0.000000 0.000000 0.000000 -0.004505 0.000000 0.034219
#
#
# Mechanical properties :
#
#
# Convention : Reuss Voigt Hill
#
# Bulk Modulus (GPa) = 36.09967 50.29551 43.19759
# Shear Modulus (GPa) = 23.55658 34.05903 28.80781
#
# Velocity S-wave (km/s) = 3.18790 3.83323 3.52537
# Velocity P-wave (km/s) = 5.39670 6.42573 5.93356
#
# Compressibility (1/GPa) = 0.02770108
#
# Stress axis : x y z
#
# Youngs Moduli (GPa) = 89.48201 114.78355 63.08794
#
# Poissons Ratio (x) = 0.39404 -0.05589
# Poissons Ratio (y) = 0.30719 0.09284
# Poissons Ratio (z) = -0.07927 0.16892
#
# Static dielectric constant tensor:
#      x y z
#    x 1.959590 0.000000 -0.020740 
#    y 0.000000 2.012220 0.000000 
#    z -0.020740 0.000000 1.871380 
# 
# From -- ./inp_files/2782.got.cif
#   From: 2010.05.17/outbox.cif.g08.bks.cpg/sg11_2_cif.got.tgz:2782.got - 2010.06.03 12:22:45.
