data_PCOD9166311
_publ_section_title
;
Structure prediction by ZEFSAII (Michael W. Deem and Ramdas Pophale) SiO2 
 PCOD9166311
Probable space group: P 21/M
;
_chemical_formula_sum "Si O2"
_cell_formula_units_Z 28
_cell_length_a 15.180751
_cell_length_b 7.902706
_cell_length_c 22.003649
_cell_angle_alpha 90.000000
_cell_angle_beta 28.686233
_cell_angle_gamma 90.000000
_cell_volume 1267.116482
_symmetry_space_group_name_H-M "P 21/M"
_symmetry_group_IT_number 11
_symmetry_cell_setting 'monoclinic'
loop_
_space_group_symop_operation_xyz
x,y,z
-x,1/2+y,-z
-x,-y,-z
x,1/2-y,z
loop_
_atom_site_type_symbol
_atom_site_label
_atom_site_fract_x
_atom_site_fract_y
_atom_site_fract_z
Si Si1 0.263896 0.456307 0.973309
Si Si2 0.440230 0.943696 0.619914
Si Si3 0.889454 0.457755 0.257359
Si Si4 0.554651 0.047971 0.897471
Si Si5 0.051095 0.451427 0.400072
Si Si6 0.165992 0.947565 0.580321
Si Si7 0.213290 0.452996 0.870029
O O1 0.263967 0.250000 0.975213
O O2 0.056975 0.511401 0.114029
O O3 0.403468 0.516804 0.940381
O O4 0.303856 0.502180 0.879705
O O5 0.489496 0.750000 0.576803
O O6 0.310130 0.014539 0.645175
O O7 0.620922 0.038767 0.532191
O O8 0.306275 0.951439 0.758652
O O9 0.882507 0.250000 0.260637
O O10 0.929951 0.517459 0.301098
O O11 0.548217 0.250000 0.900151
O O12 0.753331 0.998417 0.749325
O O13 0.500000 0.000000 0.000000
O O14 0.045591 0.250000 0.404795
O O15 0.000000 0.500000 0.500000
O O16 0.899127 0.520295 0.444112
O O17 0.117737 0.750000 0.607499
O O18 0.232960 0.250000 0.850134
O O19 0.000000 0.500000 0.000000
#
# Coordination Sequence:
#
# PCOD9166311 Si02
#       7
#     4   4   4   4   4   4   4
#     4   9  19  36  61  87 118 160 200 240 301 369
#     4  11  22  36  58  88 123 157 197 249 299 353
#     4   9  17  35  60  87 119 156 196 239 292 360
#     4  11  23  42  69  98 128 166 213 267 323 383
#     4  11  25  45  67  92 126 169 217 271 327 382
#     4  10  22  40  63  85 115 161 206 245 302 372
#     4  11  21  37  59  85 120 160 202 245 296 362
#
# _framework density 22.097417
#
# number of rings (size 3 to 8) (size 9 to 14) (size 15 to 20)
#    0.000    1.714    1.429    3.000    2.000    3.429 
#    0.000    2.857    0.000    0.000    0.000    0.000 
#    0.000    0.000    0.000    0.000    0.000    0.000 
#
# Total GULP energy -156297.962635 kJ/mol
# GULP energy per Si atom -5582.070094 kJ/mol
# Density = 2.204712 g / cm^3
# Si number density = 22.097417 Si / 1000 Ang^3
#
#
#
# Elastic Constant Matrix: (Units=GPa)
#
#
# Indices 1 2 3 4 5 6 
#
# 1 192.2567 17.8429 50.5629 0.0000 16.2506 0.0000
# 2 17.8429 50.7377 6.9325 0.0000 8.4373 0.0000
# 3 50.5629 6.9325 91.0407 0.0000 13.8482 0.0000
# 4 0.0000 0.0000 0.0000 34.5175 0.0000 2.9763
# 5 16.2506 8.4373 13.8482 0.0000 37.1431 0.0000
# 6 0.0000 0.0000 0.0000 2.9763 0.0000 18.0396
#
#
#
# Elastic Compliance Matrix: (Units=1/GPa)
#
#
# Indices 1 2 3 4 5 6 
#
# 1 0.006288 -0.001575 -0.003189 0.000000 -0.001204 0.000000
# 2 -0.001575 0.020948 -0.000107 0.000000 -0.004029 0.000000
# 3 -0.003189 -0.000107 0.013302 0.000000 -0.003540 0.000000
# 4 0.000000 0.000000 0.000000 0.029389 0.000000 -0.004849
# 5 -0.001204 -0.004029 -0.003540 0.000000 0.029685 0.000000
# 6 0.000000 0.000000 0.000000 -0.004849 0.000000 0.056234
#
#
# Mechanical properties :
#
#
# Convention : Reuss Voigt Hill
#
# Bulk Modulus (GPa) = 32.47358 53.85684 43.16521
# Shear Modulus (GPa) = 28.43274 35.18651 31.80962
#
# Velocity S-wave (km/s) = 3.59095 3.99474 3.79821
# Velocity P-wave (km/s) = 5.64985 6.76037 6.22990
#
# Compressibility (1/GPa) = 0.03079426
#
# Stress axis : x y z
#
# Youngs Moduli (GPa) = 159.02995 47.73746 75.17701
#
# Poissons Ratio (x) = 0.07520 0.23976
# Poissons Ratio (y) = 0.25052 0.00807
# Poissons Ratio (z) = 0.50718 0.00512
#
# Static dielectric constant tensor:
#      x y z
#    x 1.850840 0.000000 -0.030580 
#    y 0.000000 1.818400 0.000000 
#    z -0.030580 0.000000 1.352620 
# 
# From -- ./inp_files/65370.got.cif
#   From: 2010.05.17/outbox.cif.g08.bks.cpg/sg11_33_cif.got.tgz:65370.got - 2010.06.03 12:22:45.
