data_PCOD9166919
_publ_section_title
;
Structure prediction by ZEFSAII (Michael W. Deem and Ramdas Pophale) SiO2 
 PCOD9166919
Probable space group: P 21/M
;
_chemical_formula_sum "Si O2"
_cell_formula_units_Z 30
_cell_length_a 11.298880
_cell_length_b 14.261055
_cell_length_c 16.895305
_cell_angle_alpha 90.000000
_cell_angle_beta 31.618782
_cell_angle_gamma 90.000000
_cell_volume 1427.263038
_symmetry_space_group_name_H-M "P 21/M"
_symmetry_group_IT_number 11
_symmetry_cell_setting 'monoclinic'
loop_
_space_group_symop_operation_xyz
x,y,z
-x,1/2+y,-z
-x,-y,-z
x,1/2-y,z
loop_
_atom_site_type_symbol
_atom_site_label
_atom_site_fract_x
_atom_site_fract_y
_atom_site_fract_z
Si Si1 0.117585 0.358494 0.471780
Si Si2 0.837664 0.895246 0.731317
Si Si3 0.352798 0.357029 0.908309
Si Si4 0.569329 0.250000 0.018657
Si Si5 0.816394 0.357726 0.208211
Si Si6 0.503332 0.499556 0.308044
Si Si7 0.694463 0.144926 0.456334
Si Si8 0.722387 0.106470 0.818962
O O1 0.192661 0.250000 0.423440
O O2 0.067461 0.396706 0.412502
O O3 0.305702 0.425865 0.401711
O O4 0.899386 0.361440 0.651446
O O5 0.619103 0.830603 0.851938
O O6 0.042654 0.858541 0.667529
O O7 0.763898 0.996975 0.803288
O O8 0.399102 0.250000 0.855191
O O9 0.451354 0.433109 0.792103
O O10 0.477516 0.369276 0.921142
O O11 0.084394 0.367951 0.067268
O O12 0.740021 0.167480 0.887315
O O13 0.775901 0.250000 0.204044
O O14 0.719087 0.435939 0.205715
O O15 0.692997 0.369444 0.363013
O O16 0.433513 0.566123 0.420853
O O17 0.608446 0.250000 0.523023
#
# Coordination Sequence:
#
# PCOD9166919 Si02
#       8
#     4   4   4   2   4   4   4   4
#     4  12  23  41  62  93 135 170 209 262 323 389
#     4  12  23  41  64  97 130 169 213 259 328 384
#     4  11  22  40  67  92 127 165 217 268 312 374
#     4  12  24  38  62  86 138 168 204 262 302 394
#     4  10  24  43  64  91 123 170 214 264 323 378
#     4  12  23  41  65  95 125 170 212 269 314 383
#     4  11  22  40  67  92 127 165 217 268 312 374
#     4  12  23  41  64  97 130 169 213 259 328 384
#
# _framework density 21.01925
#
# number of rings (size 3 to 8) (size 9 to 14) (size 15 to 20)
#    0.000    0.533    5.333    4.000    1.867    0.000 
#    0.000    0.000    0.000    0.000    0.000    0.000 
#    0.000    0.000    0.000    0.000    0.000    0.000 
#
# Total GULP energy -167324.400853 kJ/mol
# GULP energy per Si atom -5577.480028 kJ/mol
# Density = 2.097141 g / cm^3
# Si number density = 21.019250 Si / 1000 Ang^3
#
#
#
# Elastic Constant Matrix: (Units=GPa)
#
#
# Indices 1 2 3 4 5 6 
#
# 1 28.5132 3.9778 -8.7983 0.0000 -12.5643 0.0000
# 2 3.9778 145.5638 15.1580 0.0000 -6.7263 0.0000
# 3 -8.7983 15.1580 62.7739 0.0000 3.1750 0.0000
# 4 0.0000 0.0000 0.0000 -101.1911 0.0000 -161.4264
# 5 -12.5643 -6.7263 3.1750 0.0000 24.3295 0.0000
# 6 0.0000 0.0000 0.0000 -161.4264 0.0000 -160.7936
#
#
#
# Elastic Compliance Matrix: (Units=1/GPa)
#
#
# Indices 1 2 3 4 5 6 
#
# 1 0.047251 -0.000794 0.005628 0.000000 0.023448 0.000000
# 2 -0.000794 0.007178 -0.001937 0.000000 0.001827 0.000000
# 3 0.005628 -0.001937 0.017180 0.000000 0.000129 0.000000
# 4 0.000000 0.000000 0.000000 0.016428 0.000000 -0.016493
# 5 0.023448 0.001827 0.000129 0.000000 0.053700 0.000000
# 6 0.000000 0.000000 0.000000 -0.016493 0.000000 0.010339
#
#
# Mechanical properties :
#
#
# Convention : Reuss Voigt Hill
#
# Bulk Modulus (GPa) = 12.91912 28.61397 20.76655
# Shear Modulus (GPa) = 29.05594 -32.43014 -1.68710
#
# Velocity S-wave (km/s) = 3.72203 -3.93221 -0.89688
# Velocity P-wave (km/s) = 4.96296 2.64076 2.97131
#
# Compressibility (1/GPa) = 0.07740463
#
# Stress axis : x y z
#
# Youngs Moduli (GPa) = 21.16345 139.32121 58.20646
#
# Poissons Ratio (x) = 0.11060 -0.32761
# Poissons Ratio (y) = 0.01680 0.11274
# Poissons Ratio (z) = -0.11912 0.26985
#
# Static dielectric constant tensor:
#      x y z
#    x 1.777820 0.000000 0.019030 
#    y 0.000000 1.750930 0.000000 
#    z 0.019030 0.000000 1.765270 
# 
# From -- ./inp_files/59388.got.cif
#   From: 2010.05.17/outbox.cif.g08.bks.cpg/sg11_30_cif.got.tgz:59388.got - 2010.06.03 12:22:45.
