data_PCOD9166245
_publ_section_title
;
Structure prediction by ZEFSAII (Michael W. Deem and Ramdas Pophale) SiO2 
 PCOD9166245
Probable space group: P 21/M
;
_chemical_formula_sum "Si O2"
_cell_formula_units_Z 18
_cell_length_a 5.010430
_cell_length_b 7.466670
_cell_length_c 24.132011
_cell_angle_alpha 90.000000
_cell_angle_beta 128.914613
_cell_angle_gamma 90.000000
_cell_volume 702.459642
_symmetry_space_group_name_H-M "P 21/M"
_symmetry_group_IT_number 11
_symmetry_cell_setting 'monoclinic'
loop_
_space_group_symop_operation_xyz
x,y,z
-x,1/2+y,-z
-x,-y,-z
x,1/2-y,z
loop_
_atom_site_type_symbol
_atom_site_label
_atom_site_fract_x
_atom_site_fract_y
_atom_site_fract_z
Si Si1 0.403254 0.533031 0.843382
Si Si2 0.405403 0.750000 0.635933
Si Si3 0.291710 0.453776 0.701514
Si Si4 0.144609 0.963513 0.923272
Si Si5 0.487678 0.959715 0.433410
O O1 0.386301 0.750000 0.840190
O O2 0.325390 0.469514 0.771599
O O3 0.170634 0.467669 0.863525
O O4 0.796433 0.474230 0.906608
O O5 0.510194 0.593819 0.695167
O O6 0.295810 0.592582 0.576423
O O7 0.349993 0.250000 0.691704
O O8 0.901648 0.510111 0.635736
O O9 0.114650 0.750000 0.916048
O O10 0.500000 0.000000 0.000000
O O11 0.542519 0.750000 0.430430
O O12 0.500000 0.000000 0.500000
#
# Coordination Sequence:
#
# PCOD9166245 Si02
#       5
#     4   2   4   4   4
#     4  10  22  40  66  94 135 182 228 284 351 416
#     4  12  24  44  74  92 142 176 228 292 356 414
#     4  11  26  44  67 103 131 180 236 285 350 422
#     4  10  22  39  64  96 133 179 228 281 346 416
#     4  11  25  46  67  99 137 180 231 289 355 423
#
# _framework density 25.624248000000001
#
# number of rings (size 3 to 8) (size 9 to 14) (size 15 to 20)
#    0.000    1.333    2.222    2.000    3.111    2.667 
#    0.000    0.000    0.000    0.000    0.000    0.000 
#    0.000    0.000    0.000    0.000    0.000    0.000 
#
# Total GULP energy -100386.000718 kJ/mol
# GULP energy per Si atom -5577.000040 kJ/mol
# Density = 2.556593 g / cm^3
# Si number density = 25.624248 Si / 1000 Ang^3
#
#
#
# Elastic Constant Matrix: (Units=GPa)
#
#
# Indices 1 2 3 4 5 6 
#
# 1 73.0942 13.9764 -1.3922 0.0000 -8.4620 0.0000
# 2 13.9764 87.9221 -10.4745 0.0000 -15.5888 0.0000
# 3 -1.3922 -10.4745 109.4885 0.0000 -11.8125 0.0000
# 4 0.0000 0.0000 0.0000 42.3682 0.0000 -5.1482
# 5 -8.4620 -15.5888 -11.8125 0.0000 48.4655 0.0000
# 6 0.0000 0.0000 0.0000 -5.1482 0.0000 -19.6495
#
#
#
# Elastic Compliance Matrix: (Units=1/GPa)
#
#
# Indices 1 2 3 4 5 6 
#
# 1 0.014272 -0.001902 0.000208 0.000000 0.001931 0.000000
# 2 -0.001902 0.012600 0.001625 0.000000 0.004117 0.000000
# 3 0.000208 0.001625 0.009604 0.000000 0.002900 0.000000
# 4 0.000000 0.000000 0.000000 0.022874 0.000000 -0.005993
# 5 0.001931 0.004117 0.002900 0.000000 0.023001 0.000000
# 6 0.000000 0.000000 0.000000 -0.005993 0.000000 -0.049322
#
#
# Mechanical properties :
#
#
# Convention : Reuss Voigt Hill
#
# Bulk Modulus (GPa) = 27.51850 30.52491 29.02170
# Shear Modulus (GPa) = 110.42453 32.12986 71.27719
#
# Velocity S-wave (km/s) = 6.57171 3.54487 5.27984
# Velocity P-wave (km/s) = 8.26714 5.35660 6.96559
#
# Compressibility (1/GPa) = 0.03633919
#
# Stress axis : x y z
#
# Youngs Moduli (GPa) = 70.06687 79.36805 104.11913
#
# Poissons Ratio (x) = 0.15093 -0.02164
# Poissons Ratio (y) = 0.13324 -0.16923
# Poissons Ratio (z) = -0.01457 -0.12900
#
# Static dielectric constant tensor:
#      x y z
#    x 2.218540 0.000000 0.078450 
#    y 0.000000 1.971990 0.000000 
#    z 0.078450 0.000000 2.009360 
# 
# From -- ./inp_files/56667.got.cif
#   From: 2010.05.17/outbox.cif.g08.bks.cpg/sg11_29_cif.got.tgz:56667.got - 2010.06.03 12:22:45.
