data_PCOD9166435
_publ_section_title
;
Structure prediction by ZEFSAII (Michael W. Deem and Ramdas Pophale) SiO2 
 PCOD9166435
Probable space group: P 21/M
;
_chemical_formula_sum "Si O2"
_cell_formula_units_Z 32
_cell_length_a 8.964935
_cell_length_b 31.574665
_cell_length_c 10.996833
_cell_angle_alpha 90.000000
_cell_angle_beta 27.128367
_cell_angle_gamma 90.000000
_cell_volume 1419.399501
_symmetry_space_group_name_H-M "P 21/M"
_symmetry_group_IT_number 11
_symmetry_cell_setting 'monoclinic'
loop_
_space_group_symop_operation_xyz
x,y,z
-x,1/2+y,-z
-x,-y,-z
x,1/2-y,z
loop_
_atom_site_type_symbol
_atom_site_label
_atom_site_fract_x
_atom_site_fract_y
_atom_site_fract_z
Si Si1 0.673166 0.065787 0.421393
Si Si2 0.696619 0.525517 0.959922
Si Si3 0.827904 0.877029 0.085385
Si Si4 0.125260 0.915143 0.342015
Si Si5 0.469389 0.457873 0.305910
Si Si6 0.550206 0.700827 0.937572
Si Si7 0.208089 0.835807 0.420646
Si Si8 0.245901 0.869784 0.004501
O O1 0.371302 0.082626 0.717688
O O2 0.529686 0.042985 0.405656
O O3 0.923025 0.037887 0.319949
O O4 0.896604 0.104868 0.206656
O O5 0.489065 0.568923 0.107582
O O6 0.659630 0.495838 0.104590
O O7 0.500000 0.500000 0.000000
O O8 0.551165 0.846319 0.234597
O O9 0.993906 0.856713 0.083562
O O10 0.049864 0.881781 0.502310
O O11 0.102278 0.889043 0.233307
O O12 0.895767 0.955372 0.484363
O O13 0.586873 0.411534 0.173841
O O14 0.515603 0.750000 0.934449
O O15 0.928784 0.689896 0.692401
O O16 0.313453 0.687980 0.220430
O O17 0.458429 0.670120 0.891827
#
# Coordination Sequence:
#
# PCOD9166435 Si02
#       8
#     4   4   4   4   4   4   4   4
#     4  11  25  42  60  91 132 175 221 271 324 370
#     4  12  25  38  61  92 131 176 230 281 324 370
#     4  11  23  42  68  94 127 173 217 261 321 386
#     4  11  21  40  60  94 122 175 218 271 317 385
#     4  11  22  41  59  90 129 175 220 270 325 380
#     4  11  24  44  71 103 132 162 204 263 327 393
#     4  11  23  41  71  96 134 165 214 260 322 387
#     4  10  22  41  64  93 126 168 214 260 321 394
#
# _framework density 22.544746
#
# number of rings (size 3 to 8) (size 9 to 14) (size 15 to 20)
#    0.000    1.000    5.000    1.875    3.500    1.000 
#    0.000    3.750    0.000    0.000    0.000    0.000 
#    0.000    0.000    0.000    0.000    0.000    0.000 
#
# Total GULP energy -178953.944319 kJ/mol
# GULP energy per Si atom -5592.310760 kJ/mol
# Density = 2.249343 g / cm^3
# Si number density = 22.544746 Si / 1000 Ang^3
#
#
#
# Elastic Constant Matrix: (Units=GPa)
#
#
# Indices 1 2 3 4 5 6 
#
# 1 92.8292 21.2832 -1.6568 0.0000 -16.0616 0.0000
# 2 21.2832 88.8821 16.3140 0.0000 -1.2836 0.0000
# 3 -1.6568 16.3140 64.5952 0.0000 -5.7890 0.0000
# 4 0.0000 0.0000 0.0000 31.2762 0.0000 0.1513
# 5 -16.0616 -1.2836 -5.7890 0.0000 36.6857 0.0000
# 6 0.0000 0.0000 0.0000 0.1513 0.0000 17.3506
#
#
#
# Elastic Compliance Matrix: (Units=1/GPa)
#
#
# Indices 1 2 3 4 5 6 
#
# 1 0.012512 -0.003215 0.001637 0.000000 0.005624 0.000000
# 2 -0.003215 0.012624 -0.003406 0.000000 -0.001503 0.000000
# 3 0.001637 -0.003406 0.016672 0.000000 0.003228 0.000000
# 4 0.000000 0.000000 0.000000 0.031975 0.000000 -0.000279
# 5 0.005624 -0.001503 0.003228 0.000000 0.030178 0.000000
# 6 0.000000 0.000000 0.000000 -0.000279 0.000000 0.057637
#
#
# Mechanical properties :
#
#
# Convention : Reuss Voigt Hill
#
# Bulk Modulus (GPa) = 31.40626 35.35413 33.38020
# Shear Modulus (GPa) = 27.44551 31.08691 29.26621
#
# Velocity S-wave (km/s) = 3.49288 3.71738 3.60688
# Velocity P-wave (km/s) = 5.49798 5.84303 5.67313
#
# Compressibility (1/GPa) = 0.03184079
#
# Stress axis : x y z
#
# Youngs Moduli (GPa) = 79.92402 79.21337 59.97927
#
# Poissons Ratio (x) = 0.25469 -0.09818
# Poissons Ratio (y) = 0.25698 0.20426
# Poissons Ratio (z) = -0.13083 0.26976
#
# Static dielectric constant tensor:
#      x y z
#    x 1.859500 0.000000 -0.029550 
#    y 0.000000 1.830590 0.000000 
#    z -0.029550 0.000000 1.948780 
# 
# From -- ./inp_files/19873.got.cif
#   From: 2010.05.17/outbox.cif.g08.bks.cpg/sg11_10_cif.got.tgz:19873.got - 2010.06.03 12:22:45.
