data_PCOD9166333
_publ_section_title
;
Structure prediction by ZEFSAII (Michael W. Deem and Ramdas Pophale) SiO2 
 PCOD9166333
Probable space group: P 21/M
;
_chemical_formula_sum "Si O2"
_cell_formula_units_Z 16
_cell_length_a 6.926543
_cell_length_b 19.346811
_cell_length_c 4.826931
_cell_angle_alpha 90.000000
_cell_angle_beta 105.741076
_cell_angle_gamma 90.000000
_cell_volume 622.582094
_symmetry_space_group_name_H-M "P 21/M"
_symmetry_group_IT_number 11
_symmetry_cell_setting 'monoclinic'
loop_
_space_group_symop_operation_xyz
x,y,z
-x,1/2+y,-z
-x,-y,-z
x,1/2-y,z
loop_
_atom_site_type_symbol
_atom_site_label
_atom_site_fract_x
_atom_site_fract_y
_atom_site_fract_z
Si Si1 0.497570 0.250000 0.818787
Si Si2 0.430467 0.899959 0.996115
Si Si3 0.778431 0.750000 0.785179
Si Si4 0.134312 0.100413 0.118990
Si Si5 0.784497 0.040917 0.608662
O O1 0.426020 0.250000 0.474432
O O2 0.608363 0.320610 0.934787
O O3 0.293085 0.250000 0.923096
O O4 0.278081 0.928609 0.708302
O O5 0.652922 0.901532 0.958465
O O6 0.404207 0.946076 0.258402
O O7 0.885519 0.677536 0.769066
O O8 0.959489 0.082506 0.836061
O O9 0.150263 0.038776 0.348322
#
# Coordination Sequence:
#
# PCOD9166333 Si02
#       5
#     2   4   2   4   4
#     4  10  22  40  64  94 125 166 215 254 310 382
#     4  11  23  42  65  92 130 168 207 263 316 365
#     4  10  22  40  64  88 127 170 201 260 322 366
#     4  10  24  43  64  95 131 165 213 261 313 379
#     4  11  25  40  67  97 124 168 215 258 314 378
#
# _framework density 25.699424
#
# number of rings (size 3 to 8) (size 9 to 14) (size 15 to 20)
#    0.000    1.500    0.000    4.500    0.000   16.000 
#    0.000    0.000    0.000    0.000    0.000    0.000 
#    0.000    0.000    0.000    0.000    0.000    0.000 
#
# Total GULP energy -89785.998886 kJ/mol
# GULP energy per Si atom -5611.624930 kJ/mol
# Density = 2.564093 g / cm^3
# Si number density = 25.699424 Si / 1000 Ang^3
#
#
#
# Elastic Constant Matrix: (Units=GPa)
#
#
# Indices 1 2 3 4 5 6 
#
# 1 73.9631 17.1268 24.6265 0.0000 28.3042 0.0000
# 2 17.1268 272.5133 64.1448 0.0000 11.6710 0.0000
# 3 24.6265 64.1448 149.5938 0.0000 2.3809 0.0000
# 4 0.0000 0.0000 0.0000 33.0394 0.0000 8.3796
# 5 28.3042 11.6710 2.3809 0.0000 34.0894 0.0000
# 6 0.0000 0.0000 0.0000 8.3796 0.0000 25.4571
#
#
#
# Elastic Compliance Matrix: (Units=1/GPa)
#
#
# Indices 1 2 3 4 5 6 
#
# 1 0.021272 0.000190 -0.003305 0.000000 -0.017496 0.000000
# 2 0.000190 0.004139 -0.001783 0.000000 -0.001451 0.000000
# 3 -0.003305 -0.001783 0.007949 0.000000 0.002799 0.000000
# 4 0.000000 0.000000 0.000000 0.033024 0.000000 -0.010870
# 5 -0.017496 -0.001451 0.002799 0.000000 0.044163 0.000000
# 6 0.000000 0.000000 0.000000 -0.010870 0.000000 0.042860
#
#
# Mechanical properties :
#
#
# Convention : Reuss Voigt Hill
#
# Bulk Modulus (GPa) = 42.43623 78.65181 60.54402
# Shear Modulus (GPa) = 29.22984 44.52864 36.87924
#
# Velocity S-wave (km/s) = 3.37616 4.16705 3.79228
# Velocity P-wave (km/s) = 5.63438 7.33644 6.54101
#
# Compressibility (1/GPa) = 0.02356477
#
# Stress axis : x y z
#
# Youngs Moduli (GPa) = 47.00982 241.57803 125.80313
#
# Poissons Ratio (x) = -0.04599 0.41578
# Poissons Ratio (y) = -0.00895 0.22433
# Poissons Ratio (z) = 0.15537 0.43079
#
# Static dielectric constant tensor:
#      x y z
#    x 2.074680 0.000000 -0.018940 
#    y 0.000000 2.019870 0.000000 
#    z -0.018940 0.000000 1.912290 
# 
# From -- ./inp_files/2035.got.cif
#   From: 2010.05.17/outbox.cif.g08.bks.cpg/sg11_2_cif.got.tgz:2035.got - 2010.06.03 12:22:45.
