data_PCOD9166068
_publ_section_title
;
Structure prediction by ZEFSAII (Michael W. Deem and Ramdas Pophale) SiO2 
 PCOD9166068
Probable space group: P 21/M
;
_chemical_formula_sum "Si O2"
_cell_formula_units_Z 28
_cell_length_a 7.757578
_cell_length_b 17.718014
_cell_length_c 15.726386
_cell_angle_alpha 90.000000
_cell_angle_beta 44.831839
_cell_angle_gamma 90.000000
_cell_volume 1523.971124
_symmetry_space_group_name_H-M "P 21/M"
_symmetry_group_IT_number 11
_symmetry_cell_setting 'monoclinic'
loop_
_space_group_symop_operation_xyz
x,y,z
-x,1/2+y,-z
-x,-y,-z
x,1/2-y,z
loop_
_atom_site_type_symbol
_atom_site_label
_atom_site_fract_x
_atom_site_fract_y
_atom_site_fract_z
Si Si1 0.437706 0.837003 0.340935
Si Si2 0.479711 0.161082 0.352894
Si Si3 0.368218 0.057541 0.876215
Si Si4 0.202476 0.164290 0.625769
Si Si5 0.119547 0.980812 0.235374
Si Si6 0.085558 0.939465 0.857304
Si Si7 0.029587 0.074065 0.431030
O O1 0.394006 0.750000 0.334293
O O2 0.520285 0.884553 0.230714
O O3 0.647512 0.840812 0.339238
O O4 0.196094 0.872659 0.466788
O O5 0.483137 0.250000 0.332435
O O6 0.386545 0.151969 0.482494
O O7 0.740531 0.123039 0.245022
O O8 0.277847 0.117428 0.367554
O O9 0.589773 0.028511 0.857125
O O10 0.252131 0.988931 0.862733
O O11 0.146057 0.090886 0.008975
O O12 0.104204 0.250000 0.651709
O O13 0.002350 0.098871 0.696091
O O14 0.023166 0.006286 0.177627
O O15 0.035760 0.043376 0.333247
O O16 0.000000 0.000000 0.500000
#
# Coordination Sequence:
#
# PCOD9166068 Si02
#       7
#     4   4   4   4   4   4   4
#     4  11  22  39  61  91 127 161 202 253 311 369
#     4  11  22  40  60  88 130 163 201 257 311 371
#     4  11  23  41  63  91 118 163 211 253 297 361
#     4  10  22  37  61  95 127 160 199 253 319 373
#     4  12  22  39  67  91 126 158 205 263 307 362
#     4  11  24  41  63  88 122 163 213 248 300 362
#     4  12  21  35  62  96 120 157 205 249 314 369
#
# _framework density 18.373052000000001
#
# number of rings (size 3 to 8) (size 9 to 14) (size 15 to 20)
#    0.000    0.857    5.714    1.714    0.000    3.429 
#    0.000    0.714    0.000    0.000    0.000    0.000 
#    0.000    0.000    0.000    0.000    0.000    0.000 
#
# Total GULP energy -156486.081760 kJ/mol
# GULP energy per Si atom -5588.788634 kJ/mol
# Density = 1.833123 g / cm^3
# Si number density = 18.373052 Si / 1000 Ang^3
#
#
#
# Elastic Constant Matrix: (Units=GPa)
#
#
# Indices 1 2 3 4 5 6 
#
# 1 87.0239 35.5632 40.9316 0.0000 -17.9846 0.0000
# 2 35.5632 78.1541 42.1650 0.0000 -20.2467 0.0000
# 3 40.9316 42.1650 94.7545 0.0000 -21.0827 0.0000
# 4 0.0000 0.0000 0.0000 18.8989 0.0000 -1.6618
# 5 -17.9846 -20.2467 -21.0827 0.0000 27.3711 0.0000
# 6 0.0000 0.0000 0.0000 -1.6618 0.0000 23.9281
#
#
#
# Elastic Compliance Matrix: (Units=1/GPa)
#
#
# Indices 1 2 3 4 5 6 
#
# 1 0.015948 -0.003855 -0.004196 0.000000 0.004396 0.000000
# 2 -0.003855 0.019387 -0.005231 0.000000 0.007778 0.000000
# 3 -0.004196 -0.005231 0.015954 0.000000 0.005662 0.000000
# 4 0.000000 0.000000 0.000000 0.053238 0.000000 0.003697
# 5 0.004396 0.007778 0.005662 0.000000 0.049538 0.000000
# 6 0.000000 0.000000 0.000000 0.003697 0.000000 0.042049
#
#
# Mechanical properties :
#
#
# Convention : Reuss Voigt Hill
#
# Bulk Modulus (GPa) = 40.44430 55.25025 47.84727
# Shear Modulus (GPa) = 21.65264 23.45779 22.55521
#
# Velocity S-wave (km/s) = 3.43665 3.57704 3.50755
# Velocity P-wave (km/s) = 6.14883 6.87000 6.51939
#
# Compressibility (1/GPa) = 0.02472536
#
# Stress axis : x y z
#
# Youngs Moduli (GPa) = 62.70244 51.58218 62.68138
#
# Poissons Ratio (x) = 0.19883 0.26301
# Poissons Ratio (y) = 0.24169 0.32789
# Poissons Ratio (z) = 0.26310 0.26983
#
# Static dielectric constant tensor:
#      x y z
#    x 1.640150 0.000000 0.002720 
#    y 0.000000 1.608610 0.000000 
#    z 0.002720 0.000000 1.621730 
# 
# From -- ./inp_files/58104.got.cif
#   From: 2010.05.17/outbox.cif.g08.bks.cpg/sg11_30_cif.got.tgz:58104.got - 2010.06.03 12:22:45.
