data_PCOD9166753
_publ_section_title
;
Structure prediction by ZEFSAII (Michael W. Deem and Ramdas Pophale) SiO2 
 PCOD9166753
Probable space group: P 21/M
;
_chemical_formula_sum "Si O2"
_cell_formula_units_Z 30
_cell_length_a 9.040053
_cell_length_b 9.027258
_cell_length_c 28.208693
_cell_angle_alpha 90.000000
_cell_angle_beta 41.400962
_cell_angle_gamma 90.000000
_cell_volume 1522.384598
_symmetry_space_group_name_H-M "P 21/M"
_symmetry_group_IT_number 11
_symmetry_cell_setting 'monoclinic'
loop_
_space_group_symop_operation_xyz
x,y,z
-x,1/2+y,-z
-x,-y,-z
x,1/2-y,z
loop_
_atom_site_type_symbol
_atom_site_label
_atom_site_fract_x
_atom_site_fract_y
_atom_site_fract_z
Si Si1 0.335839 0.569733 0.209730
Si Si2 0.517896 0.428954 0.630983
Si Si3 0.044083 0.579172 0.762243
Si Si4 0.327724 0.070710 0.504334
Si Si5 0.142833 0.494740 0.091830
Si Si6 0.817549 0.428923 0.648497
Si Si7 0.494802 0.250000 0.975516
Si Si8 0.845102 0.576415 0.075782
O O1 0.320839 0.750000 0.208891
O O2 0.158555 0.492760 0.218357
O O3 0.278958 0.526666 0.277414
O O4 0.588682 0.524021 0.136552
O O5 0.522858 0.250000 0.625248
O O6 0.616521 0.504922 0.560472
O O7 0.664988 0.475518 0.641115
O O8 0.266109 0.484891 0.699132
O O9 0.078872 0.750000 0.739701
O O10 0.976621 0.572694 0.833517
O O11 0.344667 0.250000 0.500285
O O12 0.075052 0.027651 0.579585
O O13 0.500000 0.000000 0.500000
O O14 0.308438 0.622317 0.070163
O O15 0.957050 0.553417 0.100026
O O16 0.299200 0.378046 0.027127
O O17 0.813858 0.250000 0.649222
O O18 0.838753 0.750000 0.066601
O O19 0.000000 0.500000 0.000000
#
# Coordination Sequence:
#
# PCOD9166753 Si02
#       8
#     4   4   4   4   4   4   2   4
#     4  10  23  42  65  91 120 165 213 260 315 377
#     4  11  23  41  67  94 125 169 212 256 313 377
#     4  12  26  42  63  93 128 163 210 265 316 373
#     4  11  22  39  65  98 134 167 209 259 309 370
#     4  11  24  43  65  93 124 165 211 263 320 380
#     4   9  20  41  66  92 125 162 210 258 309 370
#     4  10  24  40  70  90 124 160 216 262 322 376
#     4  11  26  41  63  91 127 165 211 261 316 377
#
# _framework density 19.705928
#
# number of rings (size 3 to 8) (size 9 to 14) (size 15 to 20)
#    0.000    1.333    1.333    3.200    6.533    2.667 
#    0.000    4.000    0.000    0.000    0.000    0.000 
#    0.000    0.000    0.000    0.000    0.000    0.000 
#
# Total GULP energy -167192.523333 kJ/mol
# GULP energy per Si atom -5573.084111 kJ/mol
# Density = 1.966108 g / cm^3
# Si number density = 19.705928 Si / 1000 Ang^3
#
#
#
# Elastic Constant Matrix: (Units=GPa)
#
#
# Indices 1 2 3 4 5 6 
#
# 1 125.9226 22.7525 103.4808 0.0000 -6.6557 0.0000
# 2 22.7525 78.8513 37.9165 0.0000 -11.5569 0.0000
# 3 103.4808 37.9165 136.8723 0.0000 -18.2457 0.0000
# 4 0.0000 0.0000 0.0000 26.2252 0.0000 -3.3794
# 5 -6.6557 -11.5569 -18.2457 0.0000 39.9482 0.0000
# 6 0.0000 0.0000 0.0000 -3.3794 0.0000 18.2250
#
#
#
# Elastic Compliance Matrix: (Units=1/GPa)
#
#
# Indices 1 2 3 4 5 6 
#
# 1 0.021738 0.001512 -0.017370 0.000000 -0.003874 0.000000
# 2 0.001512 0.014982 -0.004986 0.000000 0.002309 0.000000
# 3 -0.017370 -0.004986 0.022619 0.000000 0.005994 0.000000
# 4 0.000000 0.000000 0.000000 0.039065 0.000000 0.007244
# 5 -0.003874 0.002309 0.005994 0.000000 0.027793 0.000000
# 6 0.000000 0.000000 0.000000 0.007244 0.000000 0.056213
#
#
# Mechanical properties :
#
#
# Convention : Reuss Voigt Hill
#
# Bulk Modulus (GPa) = 56.65366 74.43841 65.54603
# Shear Modulus (GPa) = 21.74118 28.71277 25.22698
#
# Velocity S-wave (km/s) = 3.32517 3.82129 3.58183
# Velocity P-wave (km/s) = 6.59957 7.57141 7.10213
#
# Compressibility (1/GPa) = 0.01765111
#
# Stress axis : x y z
#
# Youngs Moduli (GPa) = 46.00343 66.74847 44.21150
#
# Poissons Ratio (x) = -0.10094 0.76794
# Poissons Ratio (y) = -0.06957 0.22043
# Poissons Ratio (z) = 0.79907 0.33279
#
# Static dielectric constant tensor:
#      x y z
#    x 1.677570 0.000000 0.018600 
#    y 0.000000 1.688850 0.000000 
#    z 0.018600 0.000000 1.676340 
# 
# From -- ./inp_files/70862.got.cif
#   From: 2010.05.17/outbox.cif.g08.bks.cpg/sg11_36_cif.got.tgz:70862.got - 2010.06.03 12:22:45.
