data_PCOD9166057
_publ_section_title
;
Structure prediction by ZEFSAII (Michael W. Deem and Ramdas Pophale) SiO2 
 PCOD9166057
Probable space group: P 21/M
;
_chemical_formula_sum "Si O2"
_cell_formula_units_Z 24
_cell_length_a 5.081966
_cell_length_b 19.552310
_cell_length_c 12.196717
_cell_angle_alpha 90.000000
_cell_angle_beta 66.470715
_cell_angle_gamma 90.000000
_cell_volume 1111.153292
_symmetry_space_group_name_H-M "P 21/M"
_symmetry_group_IT_number 11
_symmetry_cell_setting 'monoclinic'
loop_
_space_group_symop_operation_xyz
x,y,z
-x,1/2+y,-z
-x,-y,-z
x,1/2-y,z
loop_
_atom_site_type_symbol
_atom_site_label
_atom_site_fract_x
_atom_site_fract_y
_atom_site_fract_z
Si Si1 0.335759 0.539410 0.171952
Si Si2 0.235019 0.913659 0.548483
Si Si3 0.097864 0.392137 0.192455
Si Si4 0.702218 0.750000 0.886643
Si Si5 0.054960 0.750000 0.043962
Si Si6 0.141826 0.077455 0.580595
Si Si7 0.043615 0.098517 0.940731
O O1 0.277634 0.459197 0.196126
O O2 0.661618 0.560341 0.138858
O O3 0.108352 0.578411 0.287869
O O4 0.229162 0.561998 0.068765
O O5 0.543827 0.893376 0.449963
O O6 0.175685 0.890963 0.682151
O O7 0.984949 0.890518 0.508773
O O8 0.203853 0.996320 0.553523
O O9 0.269057 0.321621 0.179516
O O10 0.025387 0.400360 0.075755
O O11 0.397519 0.750000 0.998283
O O12 0.960266 0.750000 0.931948
O O13 0.942840 0.676954 0.103135
#
# Coordination Sequence:
#
# PCOD9166057 Si02
#       7
#     4   4   4   2   2   4   4
#     4  11  22  35  59  88 118 147 189 238 281 336
#     4   9  18  32  54  76 108 143 184 227 267 330
#     4  10  22  37  58  87 117 149 189 238 289 337
#     4  10  22  38  56  79 116 155 188 226 285 346
#     4  10  22  40  56  77 114 157 192 220 279 362
#     4   9  18  33  51  79 107 145 183 222 275 323
#     4  11  22  37  58  85 115 148 186 236 292 339
#
# _framework density 21.599178999999999
#
# number of rings (size 3 to 8) (size 9 to 14) (size 15 to 20)
#    0.000    2.000    0.000    4.000    0.000   10.667 
#    0.000    0.000    0.000    6.000    0.000    0.000 
#    0.000    0.000    0.000    0.000    0.000    0.000 
#
# Total GULP energy -134001.971271 kJ/mol
# GULP energy per Si atom -5583.415470 kJ/mol
# Density = 2.155002 g / cm^3
# Si number density = 21.599179 Si / 1000 Ang^3
#
#
#
# Elastic Constant Matrix: (Units=GPa)
#
#
# Indices 1 2 3 4 5 6 
#
# 1 62.5312 6.8297 3.8287 0.0000 -7.0290 0.0000
# 2 6.8297 116.6232 -4.9897 0.0000 -3.2944 0.0000
# 3 3.8287 -4.9897 72.3458 0.0000 -3.7224 0.0000
# 4 0.0000 0.0000 0.0000 9.3370 0.0000 -7.2747
# 5 -7.0290 -3.2944 -3.7224 0.0000 19.1249 0.0000
# 6 0.0000 0.0000 0.0000 -7.2747 0.0000 14.2714
#
#
#
# Elastic Compliance Matrix: (Units=1/GPa)
#
#
# Indices 1 2 3 4 5 6 
#
# 1 0.016787 -0.000844 -0.000643 0.000000 0.005899 0.000000
# 2 -0.000844 0.008692 0.000712 0.000000 0.001326 0.000000
# 3 -0.000643 0.000712 0.014040 0.000000 0.002619 0.000000
# 4 0.000000 0.000000 0.000000 0.177660 0.000000 0.090561
# 5 0.005899 0.001326 0.002619 0.000000 0.055194 0.000000
# 6 0.000000 0.000000 0.000000 0.090561 0.000000 0.116233
#
#
# Mechanical properties :
#
#
# Convention : Reuss Voigt Hill
#
# Bulk Modulus (GPa) = 26.33674 29.20419 27.77047
# Shear Modulus (GPa) = 12.41274 24.93540 18.67407
#
# Velocity S-wave (km/s) = 2.39986 3.40142 2.94355
# Velocity P-wave (km/s) = 4.46083 5.38299 4.94346
#
# Compressibility (1/GPa) = 0.03796977
#
# Stress axis : x y z
#
# Youngs Moduli (GPa) = 59.57103 115.04871 71.22288
#
# Poissons Ratio (x) = 0.09709 0.04580
# Poissons Ratio (y) = 0.05027 -0.05074
# Poissons Ratio (z) = 0.03831 -0.08196
#
# Static dielectric constant tensor:
#      x y z
#    x 1.787090 0.000000 0.020560 
#    y 0.000000 1.803750 0.000000 
#    z 0.020560 0.000000 1.833970 
# 
# From -- ./inp_files/29865.got.cif
#   From: 2010.05.17/outbox.cif.g08.bks.cpg/sg11_15_cif.got.tgz:29865.got - 2010.06.03 12:22:45.
