data_PCOD9166062
_publ_section_title
;
Structure prediction by ZEFSAII (Michael W. Deem and Ramdas Pophale) SiO2 
 PCOD9166062
Probable space group: P 21/M
;
_chemical_formula_sum "Si O2"
_cell_formula_units_Z 26
_cell_length_a 7.365322
_cell_length_b 12.202798
_cell_length_c 23.839063
_cell_angle_alpha 90.000000
_cell_angle_beta 140.569979
_cell_angle_gamma 90.000000
_cell_volume 1360.838541
_symmetry_space_group_name_H-M "P 21/M"
_symmetry_group_IT_number 11
_symmetry_cell_setting 'monoclinic'
loop_
_space_group_symop_operation_xyz
x,y,z
-x,1/2+y,-z
-x,-y,-z
x,1/2-y,z
loop_
_atom_site_type_symbol
_atom_site_label
_atom_site_fract_x
_atom_site_fract_y
_atom_site_fract_z
Si Si1 0.222231 0.481185 0.602718
Si Si2 0.791361 0.481185 0.602718
Si Si3 0.763124 0.505141 0.105250
Si Si4 0.789956 0.119971 0.228329
Si Si5 0.351686 0.119971 0.228329
Si Si6 0.072516 0.250000 0.829006
Si Si7 0.025857 0.750000 0.322722
Si Si8 0.412249 0.250000 0.677278
O O1 0.468801 0.568672 0.676465
O O2 0.349958 0.360080 0.628230
O O3 0.000000 0.500000 0.500000
O O4 0.031549 0.480849 0.612620
O O5 0.500000 0.500000 0.500000
O O6 0.913523 0.568672 0.676465
O O7 0.791194 0.360080 0.628231
O O8 0.711179 0.445969 0.153109
O O9 0.807438 0.634544 0.122975
O O10 0.054364 0.445970 0.153109
O O11 0.500000 0.500000 0.000000
O O12 0.820983 0.250000 0.225127
O O13 0.546638 0.106662 0.218655
O O14 0.304651 0.250000 0.225127
O O15 0.105383 0.250000 0.769800
O O16 0.743617 0.250000 0.769799
O O17 0.787102 0.750000 0.314841
#
# Coordination Sequence:
#
# PCOD9166062 Si02
#       8
#     4   4   4   4   4   2   2   2
#     4  10  22  37  59  91 127 168 216 262 315 379
#     4  10  22  37  59  91 127 168 216 262 315 379
#     4  12  27  44  71 100 128 165 220 275 334 388
#     4  10  23  45  66  92 132 174 213 266 323 388
#     4  10  23  45  66  92 132 174 213 266 323 388
#     4  12  24  42  72  90 126 178 208 276 336 368
#     4  10  22  42  60  87 127 171 217 266 316 386
#     4  10  22  42  60  87 127 171 217 266 316 386
#
# _framework density 19.105867
#
# number of rings (size 3 to 8) (size 9 to 14) (size 15 to 20)
#    0.000    1.538    3.077    0.462    8.615    0.615 
#    0.000    0.000    0.000    0.000    0.000    0.000 
#    0.000    0.000    0.000    0.000    0.000    0.000 
#
# Total GULP energy -145061.482552 kJ/mol
# GULP energy per Si atom -5579.287790 kJ/mol
# Density = 1.906238 g / cm^3
# Si number density = 19.105867 Si / 1000 Ang^3
#
#
#
# Elastic Constant Matrix: (Units=GPa)
#
#
# Indices 1 2 3 4 5 6 
#
# 1 87.0487 52.4124 43.6154 0.0000 0.1472 0.0000
# 2 52.4124 215.9646 119.4886 0.0000 -1.8517 0.0000
# 3 43.6154 119.4886 196.3156 0.0000 -3.1635 0.0000
# 4 0.0000 0.0000 0.0000 29.0168 0.0000 -0.5059
# 5 0.1472 -1.8517 -3.1635 0.0000 19.1423 0.0000
# 6 0.0000 0.0000 0.0000 -0.5059 0.0000 10.7142
#
#
#
# Elastic Compliance Matrix: (Units=1/GPa)
#
#
# Indices 1 2 3 4 5 6 
#
# 1 0.013764 -0.002485 -0.001555 0.000000 -0.000603 0.000000
# 2 -0.002485 0.007430 -0.003969 0.000000 0.000082 0.000000
# 3 -0.001555 -0.003969 0.007870 0.000000 0.000929 0.000000
# 4 0.000000 0.000000 0.000000 0.034491 0.000000 0.001629
# 5 -0.000603 0.000082 0.000929 0.000000 0.052406 0.000000
# 6 0.000000 0.000000 0.000000 0.001629 0.000000 0.093411
#
#
# Mechanical properties :
#
#
# Convention : Reuss Voigt Hill
#
# Bulk Modulus (GPa) = 76.65182 103.37351 90.01267
# Shear Modulus (GPa) = 21.76368 30.69550 26.22959
#
# Velocity S-wave (km/s) = 3.37873 4.01259 3.70923
# Velocity P-wave (km/s) = 7.44498 8.70005 8.09687
#
# Compressibility (1/GPa) = 0.01304600
#
# Stress axis : x y z
#
# Youngs Moduli (GPa) = 72.65125 134.58647 127.06449
#
# Poissons Ratio (x) = 0.33448 0.19760
# Poissons Ratio (y) = 0.18056 0.50431
# Poissons Ratio (z) = 0.11298 0.53417
#
# Static dielectric constant tensor:
#      x y z
#    x 1.689260 0.000000 0.000090 
#    y 0.000000 1.622370 0.000000 
#    z 0.000090 0.000000 1.686100 
# 
# From -- ./inp_files/71074.got.cif
#   From: 2010.05.17/outbox.cif.g08.bks.cpg/sg11_36_cif.got.tgz:71074.got - 2010.06.03 12:22:45.
