data_PCOD9166430
_publ_section_title
;
Structure prediction by ZEFSAII (Michael W. Deem and Ramdas Pophale) SiO2 
 PCOD9166430
Probable space group: P 21/M
;
_chemical_formula_sum "Si O2"
_cell_formula_units_Z 32
_cell_length_a 15.578015
_cell_length_b 18.449657
_cell_length_c 12.583915
_cell_angle_alpha 90.000000
_cell_angle_beta 153.480445
_cell_angle_gamma 90.000000
_cell_volume 1614.881996
_symmetry_space_group_name_H-M "P 21/M"
_symmetry_group_IT_number 11
_symmetry_cell_setting 'monoclinic'
loop_
_space_group_symop_operation_xyz
x,y,z
-x,1/2+y,-z
-x,-y,-z
x,1/2-y,z
loop_
_atom_site_type_symbol
_atom_site_label
_atom_site_fract_x
_atom_site_fract_y
_atom_site_fract_z
Si Si1 0.347181 0.166708 0.548034
Si Si2 0.979408 0.553037 0.875187
Si Si3 0.060178 0.074533 0.808439
Si Si4 0.676734 0.334163 0.346276
Si Si5 0.403487 0.165471 0.242062
Si Si6 0.319626 0.832165 0.249389
Si Si7 0.516295 0.890096 0.078832
Si Si8 0.782222 0.514192 0.226795
O O1 0.276185 0.250000 0.454178
O O2 0.206521 0.104717 0.345517
O O3 0.547781 0.161245 0.707346
O O4 0.391109 0.152504 0.720807
O O5 0.995836 0.498911 0.793742
O O6 0.000000 0.500000 0.000000
O O7 0.156779 0.608158 0.072244
O O8 0.190699 0.057497 0.851354
O O9 0.869528 0.118536 0.566542
O O10 0.207653 0.121273 0.042303
O O11 0.726068 0.250000 0.415848
O O12 0.532392 0.355156 0.282077
O O13 0.574131 0.345024 0.118966
O O14 0.351948 0.250000 0.170735
O O15 0.540019 0.158367 0.494764
O O16 0.240884 0.750000 0.166607
O O17 0.676626 0.940543 0.201345
O O18 0.346036 0.942706 0.931291
O O19 0.000000 0.500000 0.500000
#
# Coordination Sequence:
#
# PCOD9166430 Si02
#       8
#     4   4   4   4   4   4   4   4
#     4  11  25  45  67  95 132 174 218 267 323 389
#     4  12  26  41  67 100 131 166 220 273 331 388
#     4  12  23  39  64  93 130 166 211 267 324 381
#     4  11  23  40  62  92 128 166 213 261 314 379
#     4  10  22  41  64  91 124 166 213 264 320 380
#     4  10  23  45  68  91 127 171 215 265 324 389
#     4  11  23  40  65  92 129 171 213 261 320 381
#     4  11  22  38  61  92 126 167 210 260 315 375
#
# _framework density 19.815688999999999
#
# number of rings (size 3 to 8) (size 9 to 14) (size 15 to 20)
#    0.000    1.000    2.500    4.125    1.750    4.000 
#    0.000    5.000    0.000    0.000    0.000    0.000 
#    0.000    0.000    0.000    0.000    0.000    0.000 
#
# Total GULP energy -178790.953458 kJ/mol
# GULP energy per Si atom -5587.217296 kJ/mol
# Density = 1.977059 g / cm^3
# Si number density = 19.815689 Si / 1000 Ang^3
#
#
#
# Elastic Constant Matrix: (Units=GPa)
#
#
# Indices 1 2 3 4 5 6 
#
# 1 68.6618 37.1070 27.8254 0.0000 -7.4993 0.0000
# 2 37.1070 109.0364 53.8732 0.0000 12.4226 0.0000
# 3 27.8254 53.8732 72.4923 0.0000 5.1394 0.0000
# 4 0.0000 0.0000 0.0000 36.4711 0.0000 7.0551
# 5 -7.4993 12.4226 5.1394 0.0000 29.7211 0.0000
# 6 0.0000 0.0000 0.0000 7.0551 0.0000 34.9845
#
#
#
# Elastic Compliance Matrix: (Units=1/GPa)
#
#
# Indices 1 2 3 4 5 6 
#
# 1 0.020252 -0.005850 -0.004011 0.000000 0.008249 0.000000
# 2 -0.005850 0.016732 -0.009708 0.000000 -0.006791 0.000000
# 3 -0.004011 -0.009708 0.022610 0.000000 -0.000864 0.000000
# 4 0.000000 0.000000 0.000000 0.028532 0.000000 -0.005754
# 5 0.008249 -0.006791 -0.000864 0.000000 0.038715 0.000000
# 6 0.000000 0.000000 0.000000 -0.005754 0.000000 0.029744
#
#
# Mechanical properties :
#
#
# Convention : Reuss Voigt Hill
#
# Bulk Modulus (GPa) = 48.88374 54.20020 51.54197
# Shear Modulus (GPa) = 24.68617 28.99432 26.84024
#
# Velocity S-wave (km/s) = 3.53340 3.82933 3.68434
# Velocity P-wave (km/s) = 6.43190 6.85297 6.64577
#
# Compressibility (1/GPa) = 0.02045670
#
# Stress axis : x y z
#
# Youngs Moduli (GPa) = 49.37753 59.76430 44.22885
#
# Poissons Ratio (x) = 0.34964 0.17739
# Poissons Ratio (y) = 0.28888 0.42936
# Poissons Ratio (z) = 0.19804 0.58018
#
# Static dielectric constant tensor:
#      x y z
#    x 1.620180 0.000000 -0.030840 
#    y 0.000000 1.713100 0.000000 
#    z -0.030840 0.000000 1.723970 
# 
# From -- ./inp_files/40030.got.cif
#   From: 2010.05.17/outbox.cif.g08.bks.cpg/sg11_21_cif.got.tgz:40030.got - 2010.06.03 12:22:45.
