data_PCOD9166819
_publ_section_title
;
Structure prediction by ZEFSAII (Michael W. Deem and Ramdas Pophale) SiO2 
 PCOD9166819
Probable space group: P 21/M
;
_chemical_formula_sum "Si O2"
_cell_formula_units_Z 20
_cell_length_a 9.775231
_cell_length_b 14.404801
_cell_length_c 11.237600
_cell_angle_alpha 90.000000
_cell_angle_beta 152.051682
_cell_angle_gamma 90.000000
_cell_volume 741.616850
_symmetry_space_group_name_H-M "P 21/M"
_symmetry_group_IT_number 11
_symmetry_cell_setting 'monoclinic'
loop_
_space_group_symop_operation_xyz
x,y,z
-x,1/2+y,-z
-x,-y,-z
x,1/2-y,z
loop_
_atom_site_type_symbol
_atom_site_label
_atom_site_fract_x
_atom_site_fract_y
_atom_site_fract_z
Si Si1 0.166558 0.459564 0.740419
Si Si2 0.883538 0.054896 0.061732
Si Si3 0.238957 0.750000 0.301269
Si Si4 0.712017 0.250000 0.941390
Si Si5 0.416816 0.250000 0.124399
Si Si6 0.274702 0.250000 0.777504
Si Si7 0.446708 0.414518 0.327606
O O1 0.031902 0.485182 0.766565
O O2 0.143722 0.349447 0.704935
O O3 0.000000 0.500000 0.500000
O O4 0.500000 0.500000 0.000000
O O5 0.142081 0.073706 0.167395
O O6 0.826328 0.153414 0.078401
O O7 0.595140 0.013566 0.774397
O O8 0.216212 0.750000 0.142115
O O9 0.384931 0.848860 0.447168
O O10 0.933941 0.750000 0.134176
O O11 0.376307 0.250000 0.720267
O O12 0.528124 0.250000 0.075919
O O13 0.485356 0.343229 0.247812
#
# Coordination Sequence:
#
# PCOD9166819 Si02
#       7
#     4   4   2   2   2   2   4
#     4  12  29  51  78 112 156 211 259 315 397 467
#     4  11  23  46  73 103 147 189 257 316 386 452
#     4  11  24  42  76 103 143 192 250 308 390 451
#     4  12  24  43  74 107 147 195 252 312 383 468
#     4  11  21  47  65 106 139 192 237 309 372 457
#     4  12  27  48  75 108 163 199 263 317 391 470
#     4  10  23  43  72 103 141 185 248 317 369 456
#
# _framework density 26.968104
#
# number of rings (size 3 to 8) (size 9 to 14) (size 15 to 20)
#    0.000    0.800    6.000    0.600    2.800    4.000 
#    0.000    0.000    0.000    0.000    0.000    0.000 
#    0.000    0.000    0.000    0.000    0.000    0.000 
#
# Total GULP energy -111617.381188 kJ/mol
# GULP energy per Si atom -5580.869059 kJ/mol
# Density = 2.690672 g / cm^3
# Si number density = 26.968104 Si / 1000 Ang^3
#
#
#
# Elastic Constant Matrix: (Units=GPa)
#
#
# Indices 1 2 3 4 5 6 
#
# 1 108.9830 27.9320 6.2441 0.0000 -6.0555 0.0000
# 2 27.9320 209.2061 12.5799 0.0000 -22.3038 0.0000
# 3 6.2441 12.5799 59.3857 0.0000 -9.2216 0.0000
# 4 0.0000 0.0000 0.0000 27.2800 0.0000 -12.8015
# 5 -6.0555 -22.3038 -9.2216 0.0000 30.3826 0.0000
# 6 0.0000 0.0000 0.0000 -12.8015 0.0000 12.6449
#
#
#
# Elastic Compliance Matrix: (Units=1/GPa)
#
#
# Indices 1 2 3 4 5 6 
#
# 1 0.009554 -0.001145 -0.000626 0.000000 0.000874 0.000000
# 2 -0.001145 0.005339 -0.000459 0.000000 0.003552 0.000000
# 3 -0.000626 -0.000459 0.017768 0.000000 0.004931 0.000000
# 4 0.000000 0.000000 0.000000 0.069833 0.000000 0.070698
# 5 0.000874 0.003552 0.004931 0.000000 0.037192 0.000000
# 6 0.000000 0.000000 0.000000 0.070698 0.000000 0.150657
#
#
# Mechanical properties :
#
#
# Convention : Reuss Voigt Hill
#
# Bulk Modulus (GPa) = 35.46076 52.34299 43.90187
# Shear Modulus (GPa) = 16.43638 36.11608 26.27623
#
# Velocity S-wave (km/s) = 2.47143 3.66350 3.12484
# Velocity P-wave (km/s) = 4.61754 6.11116 5.41609
#
# Compressibility (1/GPa) = 0.02820019
#
# Stress axis : x y z
#
# Youngs Moduli (GPa) = 104.67301 187.29771 56.28134
#
# Poissons Ratio (x) = 0.21441 0.03525
# Poissons Ratio (y) = 0.11982 0.02584
# Poissons Ratio (z) = 0.06556 0.08598
#
# Static dielectric constant tensor:
#      x y z
#    x 2.127750 0.000000 0.052130 
#    y 0.000000 2.084280 0.000000 
#    z 0.052130 0.000000 2.234090 
# 
# From -- ./inp_files/4156.got.cif
#   From: 2010.05.17/outbox.cif.g08.bks.cpg/sg11_3_cif.got.tgz:4156.got - 2010.06.03 12:22:45.
