data_PCOD9166179
_publ_section_title
;
Structure prediction by ZEFSAII (Michael W. Deem and Ramdas Pophale) SiO2 
 PCOD9166179
Probable space group: P 21/M
;
_chemical_formula_sum "Si O2"
_cell_formula_units_Z 32
_cell_length_a 22.414172
_cell_length_b 8.224225
_cell_length_c 13.808073
_cell_angle_alpha 90.000000
_cell_angle_beta 34.337229
_cell_angle_gamma 90.000000
_cell_volume 1435.747742
_symmetry_space_group_name_H-M "P 21/M"
_symmetry_group_IT_number 11
_symmetry_cell_setting 'monoclinic'
loop_
_space_group_symop_operation_xyz
x,y,z
-x,1/2+y,-z
-x,-y,-z
x,1/2-y,z
loop_
_atom_site_type_symbol
_atom_site_label
_atom_site_fract_x
_atom_site_fract_y
_atom_site_fract_z
Si Si1 0.673241 0.938771 0.576170
Si Si2 0.954378 0.946744 0.662960
Si Si3 0.770721 0.065391 0.245578
Si Si4 0.288297 0.442970 0.030062
Si Si5 0.007430 0.944345 0.098965
Si Si6 0.858655 0.434580 0.450121
Si Si7 0.537517 0.940298 0.055874
Si Si8 0.598314 0.067257 0.310001
O O1 0.647962 0.750000 0.612476
O O2 0.731511 0.975925 0.395428
O O3 0.750346 0.978855 0.564088
O O4 0.563497 0.033252 0.737977
O O5 0.952383 0.750000 0.678865
O O6 0.049327 0.009715 0.605384
O O7 0.831719 0.006016 0.829847
O O8 0.000000 0.000000 0.500000
O O9 0.796178 0.250000 0.243222
O O10 0.682288 0.070111 0.283521
O O11 0.871117 0.010552 0.046591
O O12 0.275899 0.250000 0.062699
O O13 0.356902 0.508243 0.030575
O O14 0.358285 0.470787 0.840364
O O15 0.987020 0.750000 0.141284
O O16 0.924643 0.055855 0.263386
O O17 0.000000 0.000000 0.000000
O O18 0.834815 0.250000 0.512461
O O19 0.556560 0.750000 0.018931
O O20 0.500000 0.000000 0.000000
O O21 0.576694 0.250000 0.303983
O O22 0.500000 0.000000 0.500000
#
# Coordination Sequence:
#
# PCOD9166179 Si02
#       8
#     4   4   4   4   4   4   4   4
#     4  12  25  40  63  94 127 168 217 264 316 379
#     4  10  24  44  68  97 128 168 214 267 327 385
#     4  10  22  39  59  87 128 168 208 257 314 371
#     4  10  23  45  68  95 131 169 212 267 323 382
#     4  11  21  35  57  87 122 165 209 254 307 367
#     4  11  23  40  62  92 131 170 212 265 321 378
#     4  11  25  45  69  95 127 163 208 264 324 381
#     4  11  23  39  63  94 128 171 214 259 313 376
#
# _framework density 22.288036000000002
#
# number of rings (size 3 to 8) (size 9 to 14) (size 15 to 20)
#    0.000    1.250    1.250    4.125    1.750    7.000 
#    0.000    0.000    0.000    0.000    0.000    0.000 
#    0.000    0.000    0.000    0.000    0.000    0.000 
#
# Total GULP energy -178377.074152 kJ/mol
# GULP energy per Si atom -5574.283567 kJ/mol
# Density = 2.223731 g / cm^3
# Si number density = 22.288036 Si / 1000 Ang^3
#
#
#
# Elastic Constant Matrix: (Units=GPa)
#
#
# Indices 1 2 3 4 5 6 
#
# 1 108.8996 2.9717 -0.6328 0.0000 -3.5634 0.0000
# 2 2.9717 27.5116 -13.7396 0.0000 -6.9347 0.0000
# 3 -0.6328 -13.7396 45.5379 0.0000 -11.1718 0.0000
# 4 0.0000 0.0000 0.0000 26.9444 0.0000 8.8537
# 5 -3.5634 -6.9347 -11.1718 0.0000 34.8712 0.0000
# 6 0.0000 0.0000 0.0000 8.8537 0.0000 17.2665
#
#
#
# Elastic Compliance Matrix: (Units=1/GPa)
#
#
# Indices 1 2 3 4 5 6 
#
# 1 0.009231 -0.000731 0.000112 0.000000 0.000834 0.000000
# 2 -0.000731 0.049906 0.018954 0.000000 0.015922 0.000000
# 3 0.000112 0.018954 0.031048 0.000000 0.013728 0.000000
# 4 0.000000 0.000000 0.000000 0.044634 0.000000 -0.022887
# 5 0.000834 0.015922 0.013728 0.000000 0.036327 0.000000
# 6 0.000000 0.000000 0.000000 -0.022887 0.000000 0.069651
#
#
# Mechanical properties :
#
#
# Convention : Reuss Voigt Hill
#
# Bulk Modulus (GPa) = 7.88297 17.68307 12.78302
# Shear Modulus (GPa) = 20.29131 28.70640 24.49885
#
# Velocity S-wave (km/s) = 3.02058 3.59273 3.31900
# Velocity P-wave (km/s) = 3.96355 5.01611 4.52057
#
# Compressibility (1/GPa) = 0.12685569
#
# Stress axis : x y z
#
# Youngs Moduli (GPa) = 108.33472 20.03751 32.20841
#
# Poissons Ratio (x) = 0.01464 -0.00362
# Poissons Ratio (y) = 0.07916 -0.61047
# Poissons Ratio (z) = -0.01218 -0.37979
#
# Static dielectric constant tensor:
#      x y z
#    x 1.834890 0.000000 0.015060 
#    y 0.000000 1.844010 0.000000 
#    z 0.015060 0.000000 1.962340 
# 
# From -- ./inp_files/55571.got.cif
#   From: 2010.05.17/outbox.cif.g08.bks.cpg/sg11_28_cif.got.tgz:55571.got - 2010.06.03 12:22:45.
