data_PCOD9166485
_publ_section_title
;
Structure prediction by ZEFSAII (Michael W. Deem and Ramdas Pophale) SiO2 
 PCOD9166485
Probable space group: P 21/M
;
_chemical_formula_sum "Si O2"
_cell_formula_units_Z 28
_cell_length_a 15.826005
_cell_length_b 8.749766
_cell_length_c 11.860498
_cell_angle_alpha 90.000000
_cell_angle_beta 56.351132
_cell_angle_gamma 90.000000
_cell_volume 1367.188100
_symmetry_space_group_name_H-M "P 21/M"
_symmetry_group_IT_number 11
_symmetry_cell_setting 'monoclinic'
loop_
_space_group_symop_operation_xyz
x,y,z
-x,1/2+y,-z
-x,-y,-z
x,1/2-y,z
loop_
_atom_site_type_symbol
_atom_site_label
_atom_site_fract_x
_atom_site_fract_y
_atom_site_fract_z
Si Si1 0.334627 0.927329 0.123158
Si Si2 0.784042 0.567005 0.388946
Si Si3 0.848117 0.567477 0.879540
Si Si4 0.971680 0.933434 0.399011
Si Si5 0.113927 0.566710 0.911504
Si Si6 0.520494 0.925225 0.809589
Si Si7 0.560825 0.429410 0.558205
O O1 0.310093 0.750000 0.165966
O O2 0.239752 0.013725 0.140195
O O3 0.382143 0.011608 0.195418
O O4 0.425049 0.929152 0.964049
O O5 0.782517 0.750000 0.377538
O O6 0.858335 0.530530 0.439048
O O7 0.831253 0.494576 0.240740
O O8 0.671414 0.504510 0.487459
O O9 0.851459 0.750000 0.886500
O O10 0.952240 0.504329 0.749342
O O11 0.833028 0.492831 0.013456
O O12 0.983340 0.750000 0.392257
O O13 0.000000 0.000000 0.500000
O O14 0.110830 0.750000 0.913092
O O15 0.000000 0.500000 0.000000
O O16 0.537000 0.750000 0.762126
O O17 0.502032 0.030419 0.716131
O O18 0.500000 0.500000 0.500000
O O19 0.571792 0.250000 0.534856
#
# Coordination Sequence:
#
# PCOD9166485 Si02
#       7
#     4   4   4   4   4   4   4
#     4  10  22  41  67  97 130 169 216 269 327 387
#     4  11  25  46  70  97 131 175 222 273 333 394
#     4  12  25  41  66  97 133 173 217 267 324 386
#     4  11  25  44  68  97 136 176 221 270 326 395
#     4  12  24  42  67  96 131 169 215 265 321 383
#     4  10  22  43  68  95 130 168 217 271 329 392
#     4  12  27  46  69  96 132 175 223 275 332 396
#
# _framework density 20.479991999999999
#
# number of rings (size 3 to 8) (size 9 to 14) (size 15 to 20)
#    0.000    0.857    1.429    5.571    4.000    3.429 
#    0.000    0.000    0.000    0.000    0.000    0.000 
#    0.000    0.000    0.000    0.000    0.000    0.000 
#
# Total GULP energy -156749.279748 kJ/mol
# GULP energy per Si atom -5598.188562 kJ/mol
# Density = 2.043338 g / cm^3
# Si number density = 20.479992 Si / 1000 Ang^3
#
#
#
# Elastic Constant Matrix: (Units=GPa)
#
#
# Indices 1 2 3 4 5 6 
#
# 1 122.0052 56.5917 12.1649 0.0000 12.8108 0.0000
# 2 56.5917 145.6083 18.8467 0.0000 -1.9942 0.0000
# 3 12.1649 18.8467 43.2872 0.0000 10.6309 0.0000
# 4 0.0000 0.0000 0.0000 37.9855 0.0000 2.1618
# 5 12.8108 -1.9942 10.6309 0.0000 27.6382 0.0000
# 6 0.0000 0.0000 0.0000 2.1618 0.0000 36.0631
#
#
#
# Elastic Compliance Matrix: (Units=1/GPa)
#
#
# Indices 1 2 3 4 5 6 
#
# 1 0.010716 -0.004258 0.000152 0.000000 -0.005333 0.000000
# 2 -0.004258 0.009063 -0.003749 0.000000 0.004069 0.000000
# 3 0.000152 -0.003749 0.027359 0.000000 -0.010865 0.000000
# 4 0.000000 0.000000 0.000000 0.026416 0.000000 -0.001583
# 5 -0.005333 0.004069 -0.010865 0.000000 0.043126 0.000000
# 6 0.000000 0.000000 0.000000 -0.001583 0.000000 0.027824
#
#
# Mechanical properties :
#
#
# Convention : Reuss Voigt Hill
#
# Bulk Modulus (GPa) = 31.81739 54.01192 42.91466
# Shear Modulus (GPa) = 29.29269 35.22386 32.25828
#
# Velocity S-wave (km/s) = 3.78604 4.15169 3.97307
# Velocity P-wave (km/s) = 5.88912 7.02939 6.48437
#
# Compressibility (1/GPa) = 0.03142935
#
# Stress axis : x y z
#
# Youngs Moduli (GPa) = 93.31826 110.33325 36.55051
#
# Poissons Ratio (x) = 0.46975 -0.00555
# Poissons Ratio (y) = 0.39731 0.13703
# Poissons Ratio (z) = -0.01417 0.41364
#
# Static dielectric constant tensor:
#      x y z
#    x 1.719530 0.000000 0.003360 
#    y 0.000000 1.685950 0.000000 
#    z 0.003360 0.000000 1.726070 
# 
# From -- ./inp_files/37897.got.cif
#   From: 2010.05.17/outbox.cif.g08.bks.cpg/sg11_19_cif.got.tgz:37897.got - 2010.06.03 12:22:45.
