data_PCOD9166807
_publ_section_title
;
Structure prediction by ZEFSAII (Michael W. Deem and Ramdas Pophale) SiO2 
 PCOD9166807
Probable space group: P 21/M
;
_chemical_formula_sum "Si O2"
_cell_formula_units_Z 28
_cell_length_a 11.496137
_cell_length_b 14.350135
_cell_length_c 8.908616
_cell_angle_alpha 90.000000
_cell_angle_beta 72.947902
_cell_angle_gamma 90.000000
_cell_volume 1405.055710
_symmetry_space_group_name_H-M "P 21/M"
_symmetry_group_IT_number 11
_symmetry_cell_setting 'monoclinic'
loop_
_space_group_symop_operation_xyz
x,y,z
-x,1/2+y,-z
-x,-y,-z
x,1/2-y,z
loop_
_atom_site_type_symbol
_atom_site_label
_atom_site_fract_x
_atom_site_fract_y
_atom_site_fract_z
Si Si1 0.165084 0.861459 0.794087
Si Si2 0.446281 0.858215 0.152595
Si Si3 0.047099 0.361167 0.894880
Si Si4 0.325306 0.462725 0.310164
Si Si5 0.097118 0.012920 0.593461
Si Si6 0.280579 0.361725 0.012798
Si Si7 0.429679 0.639930 0.799666
O O1 0.162982 0.750000 0.776555
O O2 0.302027 0.891693 0.780472
O O3 0.119706 0.914745 0.665937
O O4 0.073507 0.884213 0.964784
O O5 0.425087 0.750000 0.197932
O O6 0.360375 0.929607 0.270352
O O7 0.589973 0.880418 0.117418
O O8 0.425262 0.871404 0.981903
O O9 0.047843 0.250000 0.867717
O O10 0.053262 0.417018 0.738874
O O11 0.165229 0.383016 0.952829
O O12 0.221955 0.452199 0.472077
O O13 0.281509 0.417970 0.168355
O O14 0.451490 0.412218 0.302663
O O15 0.000000 0.000000 0.500000
O O16 0.279832 0.250000 0.046557
O O17 0.443153 0.750000 0.765826
#
# Coordination Sequence:
#
# PCOD9166807 Si02
#       7
#     4   4   4   4   4   4   4
#     4  10  23  44  67  88 120 164 211 258 301 360
#     4   9  19  34  58  92 123 158 205 246 295 364
#     4  10  23  43  68  89 116 162 210 256 301 356
#     4  11  22  36  62  92 129 164 189 251 318 360
#     4  12  28  41  59  93 129 164 204 253 313 375
#     4   9  18  37  64  92 117 155 209 253 294 355
#     4   9  19  37  64  93 117 157 210 253 300 363
#
# _framework density 19.928034
#
# number of rings (size 3 to 8) (size 9 to 14) (size 15 to 20)
#    0.000    2.000    0.000    4.286    6.000    2.857 
#    0.000    0.000    0.000    0.000    0.000    0.000 
#    0.000    0.000    0.000    0.000    0.000    0.000 
#
# Total GULP energy -156573.841637 kJ/mol
# GULP energy per Si atom -5591.922916 kJ/mol
# Density = 1.988268 g / cm^3
# Si number density = 19.928034 Si / 1000 Ang^3
#
#
#
# Elastic Constant Matrix: (Units=GPa)
#
#
# Indices 1 2 3 4 5 6 
#
# 1 156.5649 56.7259 79.7730 0.0000 5.3809 0.0000
# 2 56.7259 62.7661 40.5455 0.0000 4.8423 0.0000
# 3 79.7730 40.5455 88.2823 0.0000 1.0808 0.0000
# 4 0.0000 0.0000 0.0000 6.7958 0.0000 -4.1757
# 5 5.3809 4.8423 1.0808 0.0000 13.3552 0.0000
# 6 0.0000 0.0000 0.0000 -4.1757 0.0000 28.6650
#
#
#
# Elastic Compliance Matrix: (Units=1/GPa)
#
#
# Indices 1 2 3 4 5 6 
#
# 1 0.013354 -0.005830 -0.009359 0.000000 -0.002509 0.000000
# 2 -0.005830 0.025948 -0.006569 0.000000 -0.006528 0.000000
# 3 -0.009359 -0.006569 0.022748 0.000000 0.004312 0.000000
# 4 0.000000 0.000000 0.000000 0.161615 0.000000 0.023543
# 5 -0.002509 -0.006528 0.004312 0.000000 0.077906 0.000000
# 6 0.000000 0.000000 0.000000 0.023543 0.000000 0.038315
#
#
# Mechanical properties :
#
#
# Convention : Reuss Voigt Hill
#
# Bulk Modulus (GPa) = 53.95298 73.52247 63.73772
# Shear Modulus (GPa) = 12.83431 18.46782 15.65106
#
# Velocity S-wave (km/s) = 2.54053 3.04752 2.80550
# Velocity P-wave (km/s) = 5.97816 7.02547 6.52287
#
# Compressibility (1/GPa) = 0.01853466
#
# Stress axis : x y z
#
# Youngs Moduli (GPa) = 74.88363 38.53812 43.95929
#
# Poissons Ratio (x) = 0.22467 0.41140
# Poissons Ratio (y) = 0.43656 0.28879
# Poissons Ratio (z) = 0.70081 0.25318
#
# Static dielectric constant tensor:
#      x y z
#    x 1.700750 0.000000 -0.005160 
#    y 0.000000 1.716210 0.000000 
#    z -0.005160 0.000000 1.654120 
# 
# From -- ./inp_files/17675.got.cif
#   From: 2010.05.17/outbox.cif.g08.bks.cpg/sg11_9_cif.got.tgz:17675.got - 2010.06.03 12:22:45.
