data_PCOD9166416
_publ_section_title
;
Structure prediction by ZEFSAII (Michael W. Deem and Ramdas Pophale) SiO2 
 PCOD9166416
Probable space group: P 21/M
;
_chemical_formula_sum "Si O2"
_cell_formula_units_Z 16
_cell_length_a 16.928759
_cell_length_b 8.626189
_cell_length_c 7.901600
_cell_angle_alpha 90.000000
_cell_angle_beta 32.213573
_cell_angle_gamma 90.000000
_cell_volume 615.104421
_symmetry_space_group_name_H-M "P 21/M"
_symmetry_group_IT_number 11
_symmetry_cell_setting 'monoclinic'
loop_
_space_group_symop_operation_xyz
x,y,z
-x,1/2+y,-z
-x,-y,-z
x,1/2-y,z
loop_
_atom_site_type_symbol
_atom_site_label
_atom_site_fract_x
_atom_site_fract_y
_atom_site_fract_z
Si Si1 0.856837 0.073919 0.343058
Si Si2 0.900429 0.750000 0.764968
Si Si3 0.714672 0.001167 0.269425
Si Si4 0.747407 0.250000 0.938126
Si Si5 0.731596 0.750000 0.723251
Si Si6 0.516601 0.750000 0.798556
O O1 0.896016 0.250000 0.328604
O O2 0.749815 0.091227 0.376390
O O3 0.796664 0.924241 0.558988
O O4 0.000000 0.000000 0.000000
O O5 0.774156 0.750000 0.844841
O O6 0.070985 0.750000 0.390127
O O7 0.856301 0.898568 0.955464
O O8 0.584364 0.892317 0.570550
O O9 0.691345 0.106382 0.150223
O O10 0.657985 0.250000 0.922343
O O11 0.583902 0.750000 0.867843
#
# Coordination Sequence:
#
# PCOD9166416 Si02
#       6
#     4   2   4   2   2   2
#     4  11  20  37  65  96 129 172 226 281 328 386
#     4  11  24  42  64  95 146 174 212 277 346 400
#     4  10  22  41  63  94 131 173 221 274 334 396
#     4  12  20  38  64 100 124 168 226 276 326 402
#     4  10  22  42  62  98 136 174 220 280 336 400
#     4   9  22  40  68  89 128 172 226 277 324 390
#
# _framework density 26.011845000000001
#
# number of rings (size 3 to 8) (size 9 to 14) (size 15 to 20)
#    0.000    1.500    2.500    3.750    0.000    0.000 
#    2.250    1.250    0.000   18.000    0.000    0.000 
#    0.000    0.000    0.000    0.000    0.000    0.000 
#
# Total GULP energy -89171.775695 kJ/mol
# GULP energy per Si atom -5573.235981 kJ/mol
# Density = 2.595264 g / cm^3
# Si number density = 26.011845 Si / 1000 Ang^3
#
#
#
# Elastic Constant Matrix: (Units=GPa)
#
#
# Indices 1 2 3 4 5 6 
#
# 1 144.2723 35.0068 16.2231 0.0000 7.1483 0.0000
# 2 35.0068 204.1820 31.9297 0.0000 -3.4633 0.0000
# 3 16.2231 31.9297 77.6663 0.0000 -15.0986 0.0000
# 4 0.0000 0.0000 0.0000 -150.6138 0.0000 263.6363
# 5 7.1483 -3.4633 -15.0986 0.0000 35.3655 0.0000
# 6 0.0000 0.0000 0.0000 263.6363 0.0000 -610.2427
#
#
#
# Elastic Compliance Matrix: (Units=1/GPa)
#
#
# Indices 1 2 3 4 5 6 
#
# 1 0.007482 -0.001077 -0.001564 0.000000 -0.002286 0.000000
# 2 -0.001077 0.005395 -0.002015 0.000000 -0.000114 0.000000
# 3 -0.001564 -0.002015 0.015326 0.000000 0.006662 0.000000
# 4 0.000000 0.000000 0.000000 -0.027235 0.000000 -0.011766
# 5 -0.002286 -0.000114 0.006662 0.000000 0.031571 0.000000
# 6 0.000000 0.000000 0.000000 -0.011766 0.000000 -0.006722
#
#
# Mechanical properties :
#
#
# Convention : Reuss Voigt Hill
#
# Bulk Modulus (GPa) = 52.93857 65.82667 59.38262
# Shear Modulus (GPa) = 120.69095 -122.23413 -0.77159
#
# Velocity S-wave (km/s) = 6.81903 -6.86249 -0.54523
# Velocity P-wave (km/s) = 9.07716 6.11803 4.74155
#
# Compressibility (1/GPa) = 0.01888982
#
# Stress axis : x y z
#
# Youngs Moduli (GPa) = 133.65778 185.34125 65.24830
#
# Poissons Ratio (x) = 0.19959 0.10208
# Poissons Ratio (y) = 0.14393 0.13150
# Poissons Ratio (z) = 0.20910 0.37355
#
# Static dielectric constant tensor:
#      x y z
#    x 2.104020 0.000000 -0.095050 
#    y 0.000000 2.071150 0.000000 
#    z -0.095050 0.000000 2.040900 
# 
# From -- ./inp_files/15787.got.cif
#   From: 2010.05.17/outbox.cif.g08.bks.cpg/sg11_8_cif.got.tgz:15787.got - 2010.06.03 12:22:45.
