data_PCOD9166293
_publ_section_title
;
Structure prediction by ZEFSAII (Michael W. Deem and Ramdas Pophale) SiO2 
 PCOD9166293
Probable space group: P 21/M
;
_chemical_formula_sum "Si O2"
_cell_formula_units_Z 30
_cell_length_a 6.781992
_cell_length_b 26.988883
_cell_length_c 9.552669
_cell_angle_alpha 90.000000
_cell_angle_beta 121.233321
_cell_angle_gamma 90.000000
_cell_volume 1495.081791
_symmetry_space_group_name_H-M "P 21/M"
_symmetry_group_IT_number 11
_symmetry_cell_setting 'monoclinic'
loop_
_space_group_symop_operation_xyz
x,y,z
-x,1/2+y,-z
-x,-y,-z
x,1/2-y,z
loop_
_atom_site_type_symbol
_atom_site_label
_atom_site_fract_x
_atom_site_fract_y
_atom_site_fract_z
Si Si1 0.768045 0.750000 0.725889
Si Si2 0.740866 0.129478 0.894644
Si Si3 0.337803 0.909548 0.841986
Si Si4 0.269709 0.511535 0.605039
Si Si5 0.532077 0.079441 0.562898
Si Si6 0.252934 0.163458 0.064065
Si Si7 0.884484 0.652336 0.588218
Si Si8 0.295420 0.307719 0.758879
O O1 0.680608 0.706879 0.805826
O O2 0.863546 0.705403 0.656043
O O3 0.709694 0.106451 0.730802
O O4 0.561152 0.174948 0.839082
O O5 0.668158 0.092698 0.992321
O O6 0.000199 0.145685 0.014707
O O7 0.326139 0.964183 0.774700
O O8 0.563742 0.880670 0.873197
O O9 0.117376 0.877394 0.708041
O O10 0.342894 0.553515 0.519986
O O11 0.408164 0.463006 0.609956
O O12 0.000000 0.500000 0.500000
O O13 0.332754 0.118032 0.446981
O O14 0.232171 0.182657 0.896404
O O15 0.849740 0.661551 0.408739
O O16 0.272794 0.250000 0.719507
#
# Coordination Sequence:
#
# PCOD9166293 Si02
#       8
#     2   4   4   4   4   4   4   4
#     4  12  22  38  66  90 130 172 212 258 316 372
#     4  10  24  41  63  90 133 166 204 269 313 378
#     4  11  24  41  66  94 129 163 213 268 318 377
#     4  11  23  42  72  95 123 165 212 267 326 384
#     4  10  24  44  66  96 127 165 213 265 324 378
#     4  11  24  40  61  91 131 173 208 254 321 377
#     4  11  22  42  64  96 130 165 215 271 309 372
#     4  10  22  40  61  89 126 172 216 255 308 374
#
# _framework density 20.06579
#
# number of rings (size 3 to 8) (size 9 to 14) (size 15 to 20)
#    0.000    1.333    4.000    0.800    2.800    2.133 
#    0.000    1.333    0.000    0.000    0.000    0.000 
#    0.000    0.000    0.000    0.000    0.000    0.000 
#
# Total GULP energy -167079.351767 kJ/mol
# GULP energy per Si atom -5569.311726 kJ/mol
# Density = 2.002012 g / cm^3
# Si number density = 20.065790 Si / 1000 Ang^3
#
#
#
# Elastic Constant Matrix: (Units=GPa)
#
#
# Indices 1 2 3 4 5 6 
#
# 1 50.3315 6.2317 7.4897 0.0000 -0.1794 0.0000
# 2 6.2317 60.5755 -8.1594 0.0000 -2.7632 0.0000
# 3 7.4897 -8.1594 42.3120 0.0000 -2.9559 0.0000
# 4 0.0000 0.0000 0.0000 31.7022 0.0000 -10.9469
# 5 -0.1794 -2.7632 -2.9559 0.0000 26.4567 0.0000
# 6 0.0000 0.0000 0.0000 -10.9469 0.0000 12.4205
#
#
#
# Elastic Compliance Matrix: (Units=1/GPa)
#
#
# Indices 1 2 3 4 5 6 
#
# 1 0.020840 -0.002746 -0.004262 0.000000 -0.000622 0.000000
# 2 -0.002746 0.017433 0.004005 0.000000 0.002250 0.000000
# 3 -0.004262 0.004005 0.025386 0.000000 0.003226 0.000000
# 4 0.000000 0.000000 0.000000 0.045343 0.000000 0.039964
# 5 -0.000622 0.002250 0.003226 0.000000 0.038389 0.000000
# 6 0.000000 0.000000 0.000000 0.039964 0.000000 0.115734
#
#
# Mechanical properties :
#
#
# Convention : Reuss Voigt Hill
#
# Bulk Modulus (GPa) = 17.34527 18.26034 17.80280
# Shear Modulus (GPa) = 17.34006 23.95968 20.64987
#
# Velocity S-wave (km/s) = 2.94285 3.45926 3.21145
# Velocity P-wave (km/s) = 4.49557 5.00752 4.75844
#
# Compressibility (1/GPa) = 0.05765261
#
# Stress axis : x y z
#
# Youngs Moduli (GPa) = 47.98392 57.36261 39.39171
#
# Poissons Ratio (x) = 0.15754 0.16789
# Poissons Ratio (y) = 0.13178 -0.15777
# Poissons Ratio (z) = 0.20451 -0.22974
#
# Static dielectric constant tensor:
#      x y z
#    x 1.677900 0.000000 -0.023770 
#    y 0.000000 1.679250 0.000000 
#    z -0.023770 0.000000 1.743870 
# 
# From -- ./inp_files/10865.got.cif
#   From: 2010.05.17/outbox.cif.g08.bks.cpg/sg11_6_cif.got.tgz:10865.got - 2010.06.03 12:22:45.
