data_PCOD9166889
_publ_section_title
;
Structure prediction by ZEFSAII (Michael W. Deem and Ramdas Pophale) SiO2 
 PCOD9166889
Probable space group: P 21/M
;
_chemical_formula_sum "Si O2"
_cell_formula_units_Z 28
_cell_length_a 9.300940
_cell_length_b 15.091224
_cell_length_c 11.942901
_cell_angle_alpha 90.000000
_cell_angle_beta 56.487450
_cell_angle_gamma 90.000000
_cell_volume 1397.670349
_symmetry_space_group_name_H-M "P 21/M"
_symmetry_group_IT_number 11
_symmetry_cell_setting 'monoclinic'
loop_
_space_group_symop_operation_xyz
x,y,z
-x,1/2+y,-z
-x,-y,-z
x,1/2-y,z
loop_
_atom_site_type_symbol
_atom_site_label
_atom_site_fract_x
_atom_site_fract_y
_atom_site_fract_z
Si Si1 0.921325 0.652762 0.529900
Si Si2 0.251861 0.105243 0.177403
Si Si3 0.737753 0.078336 0.700943
Si Si4 0.178739 0.014473 0.986206
Si Si5 0.564607 0.958454 0.321653
Si Si6 0.354738 0.654456 0.028711
Si Si7 0.431010 0.355375 0.457205
O O1 0.989971 0.750000 0.472324
O O2 0.879243 0.649415 0.679607
O O3 0.738130 0.641554 0.547873
O O4 0.065252 0.587803 0.420870
O O5 0.439202 0.148016 0.078712
O O6 0.293735 0.014059 0.223351
O O7 0.168462 0.081933 0.094511
O O8 0.620631 0.076247 0.641343
O O9 0.684474 0.145623 0.821976
O O10 0.311808 0.049260 0.837127
O O11 0.258010 0.924459 0.005488
O O12 0.000000 0.000000 0.000000
O O13 0.618316 0.894774 0.400092
O O14 0.553404 0.063560 0.360030
O O15 0.294721 0.750000 0.013043
O O16 0.486115 0.250000 0.435939
#
# Coordination Sequence:
#
# PCOD9166889 Si02
#       7
#     4   4   4   4   4   4   4
#     4  11  23  39  63  96 126 164 216 275 320 377
#     4  11  21  41  67  91 126 168 218 261 322 391
#     4  11  21  39  63  94 125 163 215 261 326 394
#     4  11  24  42  64  93 129 172 216 261 330 402
#     4  11  22  42  66  91 129 178 211 264 334 389
#     4  11  22  41  67  95 127 169 220 274 323 389
#     4  10  24  41  64  95 129 168 217 268 328 390
#
# _framework density 20.033335999999998
#
# number of rings (size 3 to 8) (size 9 to 14) (size 15 to 20)
#    0.000    1.143    4.286    2.143    4.000    4.000 
#    0.000    1.429    0.000    0.000    0.000    0.000 
#    0.000    0.000    0.000    0.000    0.000    0.000 
#
# Total GULP energy -156182.807365 kJ/mol
# GULP energy per Si atom -5577.957406 kJ/mol
# Density = 1.998774 g / cm^3
# Si number density = 20.033336 Si / 1000 Ang^3
#
#
#
# Elastic Constant Matrix: (Units=GPa)
#
#
# Indices 1 2 3 4 5 6 
#
# 1 65.5390 25.6661 21.0650 0.0000 17.8883 0.0000
# 2 25.6661 62.2558 33.5918 0.0000 6.3968 0.0000
# 3 21.0650 33.5918 115.3366 0.0000 16.0709 0.0000
# 4 0.0000 0.0000 0.0000 22.9990 0.0000 10.1267
# 5 17.8883 6.3968 16.0709 0.0000 35.4408 0.0000
# 6 0.0000 0.0000 0.0000 10.1267 0.0000 21.8088
#
#
#
# Elastic Compliance Matrix: (Units=1/GPa)
#
#
# Indices 1 2 3 4 5 6 
#
# 1 0.020730 -0.007423 -0.000377 0.000000 -0.008952 0.000000
# 2 -0.007423 0.021748 -0.005288 0.000000 0.002219 0.000000
# 3 -0.000377 -0.005288 0.010802 0.000000 -0.003754 0.000000
# 4 0.000000 0.000000 0.000000 0.054655 0.000000 -0.025378
# 5 -0.008952 0.002219 -0.003754 0.000000 0.034036 0.000000
# 6 0.000000 0.000000 0.000000 -0.025378 0.000000 0.057637
#
#
# Mechanical properties :
#
#
# Convention : Reuss Voigt Hill
#
# Bulk Modulus (GPa) = 36.89325 44.86415 40.87870
# Shear Modulus (GPa) = 21.29308 26.90360 24.09834
#
# Velocity S-wave (km/s) = 3.26372 3.66859 3.47206
# Velocity P-wave (km/s) = 5.71476 6.35517 6.04345
#
# Compressibility (1/GPa) = 0.02710523
#
# Stress axis : x y z
#
# Youngs Moduli (GPa) = 48.24012 45.98098 92.57426
#
# Poissons Ratio (x) = 0.34132 0.03487
# Poissons Ratio (y) = 0.35809 0.48950
# Poissons Ratio (z) = 0.01817 0.24313
#
# Static dielectric constant tensor:
#      x y z
#    x 1.704330 0.000000 -0.003130 
#    y 0.000000 1.790440 0.000000 
#    z -0.003130 0.000000 1.717130 
# 
# From -- ./inp_files/31797.got.cif
#   From: 2010.05.17/outbox.cif.g08.bks.cpg/sg11_16_cif.got.tgz:31797.got - 2010.06.03 12:22:45.
