data_PCOD9166387
_publ_section_title
;
Structure prediction by ZEFSAII (Michael W. Deem and Ramdas Pophale) SiO2 
 PCOD9166387
Probable space group: P 21/M
;
_chemical_formula_sum "Si O2"
_cell_formula_units_Z 28
_cell_length_a 14.796561
_cell_length_b 8.988199
_cell_length_c 12.921672
_cell_angle_alpha 90.000000
_cell_angle_beta 118.348465
_cell_angle_gamma 90.000000
_cell_volume 1512.419849
_symmetry_space_group_name_H-M "P 21/M"
_symmetry_group_IT_number 11
_symmetry_cell_setting 'monoclinic'
loop_
_space_group_symop_operation_xyz
x,y,z
-x,1/2+y,-z
-x,-y,-z
x,1/2-y,z
loop_
_atom_site_type_symbol
_atom_site_label
_atom_site_fract_x
_atom_site_fract_y
_atom_site_fract_z
Si Si1 0.424307 0.069143 0.045910
Si Si2 0.204204 0.569322 0.872301
Si Si3 0.122524 0.415468 0.305756
Si Si4 0.357034 0.426206 0.457547
Si Si5 0.975000 0.576988 0.092744
Si Si6 0.054952 0.914096 0.619854
Si Si7 0.471798 0.071278 0.311707
O O1 0.426483 0.250000 0.041380
O O2 0.451005 0.025572 0.180788
O O3 0.500000 0.000000 0.000000
O O4 0.311929 0.005718 0.956808
O O5 0.210032 0.750000 0.878229
O O6 0.119262 0.510275 0.906259
O O7 0.154930 0.525078 0.733926
O O8 0.126298 0.250000 0.255597
O O9 0.236098 0.446648 0.407012
O O10 0.078987 0.546975 0.212950
O O11 0.035462 0.403056 0.344939
O O12 0.379748 0.250000 0.478489
O O13 0.424007 0.509436 0.580130
O O14 0.388743 0.471275 0.356659
O O15 0.950619 0.750000 0.072368
O O16 0.000000 0.500000 0.000000
O O17 0.082849 0.750000 0.597410
O O18 0.000000 0.000000 0.500000
O O19 0.475028 0.250000 0.311143
#
# Coordination Sequence:
#
# PCOD9166387 Si02
#       7
#     4   4   4   4   4   4   4
#     4  11  24  41  61  87 118 159 205 251 300 355
#     4  10  22  41  60  85 118 152 193 244 293 346
#     4   9  19  35  54  80 112 144 186 237 287 342
#     4   9  18  35  59  84 112 148 188 242 303 355
#     4  11  22  36  56  85 117 152 190 231 285 350
#     4   9  19  35  55  80 112 148 187 234 287 344
#     4   9  20  37  56  82 114 148 192 244 298 353
#
# _framework density 18.513377999999999
#
# number of rings (size 3 to 8) (size 9 to 14) (size 15 to 20)
#    0.000    2.286    0.000    3.000    2.000    5.714 
#    0.000    2.857    0.000    0.000    0.000    0.000 
#    0.000    0.000    0.000    0.000    0.000    0.000 
#
# Total GULP energy -155915.802081 kJ/mol
# GULP energy per Si atom -5568.421503 kJ/mol
# Density = 1.847124 g / cm^3
# Si number density = 18.513378 Si / 1000 Ang^3
#
#
#
# Elastic Constant Matrix: (Units=GPa)
#
#
# Indices 1 2 3 4 5 6 
#
# 1 71.8121 27.4039 63.0431 0.0000 26.2558 0.0000
# 2 27.4039 59.7082 52.8157 0.0000 -1.0236 0.0000
# 3 63.0431 52.8157 159.3767 0.0000 2.9317 0.0000
# 4 0.0000 0.0000 0.0000 34.6175 0.0000 4.0776
# 5 26.2558 -1.0236 2.9317 0.0000 25.3737 0.0000
# 6 0.0000 0.0000 0.0000 4.0776 0.0000 29.2685
#
#
#
# Elastic Compliance Matrix: (Units=1/GPa)
#
#
# Indices 1 2 3 4 5 6 
#
# 1 0.049295 -0.009953 -0.015288 0.000000 -0.049644 0.000000
# 2 -0.009953 0.025792 -0.004829 0.000000 0.011897 0.000000
# 3 -0.015288 -0.004829 0.013664 0.000000 0.014046 0.000000
# 4 0.000000 0.000000 0.000000 0.029369 0.000000 -0.004092
# 5 -0.049644 0.011897 0.014046 0.000000 0.089638 0.000000
# 6 0.000000 0.000000 0.000000 -0.004092 0.000000 0.034736
#
#
# Mechanical properties :
#
#
# Convention : Reuss Voigt Hill
#
# Bulk Modulus (GPa) = 34.95137 64.15804 49.55470
# Shear Modulus (GPa) = 16.01698 27.69423 21.85561
#
# Velocity S-wave (km/s) = 2.94455 3.87189 3.43961
# Velocity P-wave (km/s) = 5.52091 7.39722 6.52684
#
# Compressibility (1/GPa) = 0.02861119
#
# Stress axis : x y z
#
# Youngs Moduli (GPa) = 20.28614 38.77240 73.18746
#
# Poissons Ratio (x) = 0.38589 1.11886
# Poissons Ratio (y) = 0.20190 0.35342
# Poissons Ratio (z) = 0.31013 0.18723
#
# Static dielectric constant tensor:
#      x y z
#    x 1.559080 0.000000 -0.493960 
#    y 0.000000 1.649000 0.000000 
#    z -0.493960 0.000000 -2.330120 
# 
# From -- ./inp_files/38422.got.cif
#   From: 2010.05.17/outbox.cif.g08.bks.cpg/sg11_20_cif.got.tgz:38422.got - 2010.06.03 12:22:45.
