data_PCOD9166029
_publ_section_title
;
Structure prediction by ZEFSAII (Michael W. Deem and Ramdas Pophale) SiO2 
 PCOD9166029
Probable space group: P 21/M
;
_chemical_formula_sum "Si O2"
_cell_formula_units_Z 28
_cell_length_a 10.929383
_cell_length_b 8.708796
_cell_length_c 14.675456
_cell_angle_alpha 90.000000
_cell_angle_beta 100.654896
_cell_angle_gamma 90.000000
_cell_volume 1372.752499
_symmetry_space_group_name_H-M "P 21/M"
_symmetry_group_IT_number 11
_symmetry_cell_setting 'monoclinic'
loop_
_space_group_symop_operation_xyz
x,y,z
-x,1/2+y,-z
-x,-y,-z
x,1/2-y,z
loop_
_atom_site_type_symbol
_atom_site_label
_atom_site_fract_x
_atom_site_fract_y
_atom_site_fract_z
Si Si1 0.903632 0.067617 0.061428
Si Si2 0.540815 0.074726 0.099202
Si Si3 0.480057 0.564893 0.396640
Si Si4 0.736538 0.925761 0.901882
Si Si5 0.209504 0.934420 0.280915
Si Si6 0.687583 0.435380 0.288175
Si Si7 0.063242 0.066382 0.731292
O O1 0.916814 0.250000 0.071578
O O2 0.918285 0.991320 0.161917
O O3 0.773380 0.024475 0.995010
O O4 0.000000 0.000000 0.000000
O O5 0.576301 0.250000 0.085477
O O6 0.410487 0.072484 0.136076
O O7 0.641408 0.007062 0.181779
O O8 0.500000 0.000000 0.000000
O O9 0.500000 0.500000 0.500000
O O10 0.485837 0.750000 0.396884
O O11 0.340519 0.520119 0.344101
O O12 0.589535 0.500206 0.347207
O O13 0.773814 0.750000 0.924610
O O14 0.798265 0.990434 0.819755
O O15 0.211952 0.750000 0.269590
O O16 0.080127 0.972783 0.313610
O O17 0.681662 0.250000 0.288239
O O18 0.829617 0.490249 0.315158
O O19 0.077041 0.250000 0.730763
#
# Coordination Sequence:
#
# PCOD9166029 Si02
#       7
#     4   4   4   4   4   4   4
#     4  12  23  35  52  82 123 172 222 268 313 371
#     4  10  22  36  54  83 121 165 211 258 309 367
#     4  11  24  45  73 102 127 163 208 266 331 393
#     4  11  21  35  56  83 117 162 212 262 313 368
#     4  10  22  40  64  91 123 161 206 257 315 378
#     4  11  23  42  64  94 131 170 212 265 321 384
#     4  11  23  40  61  91 128 170 214 263 317 380
#
# _framework density 20.396975999999999
#
# number of rings (size 3 to 8) (size 9 to 14) (size 15 to 20)
#    0.000    1.143    2.857    3.857    0.000    5.714 
#    0.000    0.714    0.000    0.000    0.000    0.000 
#    0.000    0.000    0.000    0.000    0.000    0.000 
#
# Total GULP energy -156411.735424 kJ/mol
# GULP energy per Si atom -5586.133408 kJ/mol
# Density = 2.035055 g / cm^3
# Si number density = 20.396976 Si / 1000 Ang^3
#
#
#
# Elastic Constant Matrix: (Units=GPa)
#
#
# Indices 1 2 3 4 5 6 
#
# 1 167.7695 47.6248 49.5455 0.0000 -0.9830 0.0000
# 2 47.6248 63.5533 30.5401 0.0000 -0.3120 0.0000
# 3 49.5455 30.5401 81.0390 0.0000 -9.5671 0.0000
# 4 0.0000 0.0000 0.0000 25.8913 0.0000 -5.5509
# 5 -0.9830 -0.3120 -9.5671 0.0000 20.0367 0.0000
# 6 0.0000 0.0000 0.0000 -5.5509 0.0000 31.5166
#
#
#
# Elastic Compliance Matrix: (Units=1/GPa)
#
#
# Indices 1 2 3 4 5 6 
#
# 1 0.008273 -0.004517 -0.003514 0.000000 -0.001342 0.000000
# 2 -0.004517 0.021895 -0.005803 0.000000 -0.002651 0.000000
# 3 -0.003514 -0.005803 0.017638 0.000000 0.008159 0.000000
# 4 0.000000 0.000000 0.000000 0.040139 0.000000 0.007069
# 5 -0.001342 -0.002651 0.008159 0.000000 0.053697 0.000000
# 6 0.000000 0.000000 0.000000 0.007069 0.000000 0.032974
#
#
# Mechanical properties :
#
#
# Convention : Reuss Voigt Hill
#
# Bulk Modulus (GPa) = 49.65612 63.08695 56.37153
# Shear Modulus (GPa) = 23.92382 27.79902 25.86142
#
# Velocity S-wave (km/s) = 3.42849 3.69575 3.56463
# Velocity P-wave (km/s) = 6.33012 7.01485 6.68126
#
# Compressibility (1/GPa) = 0.02013851
#
# Stress axis : x y z
#
# Youngs Moduli (GPa) = 120.87887 45.67171 56.69577
#
# Poissons Ratio (x) = 0.20632 0.19922
# Poissons Ratio (y) = 0.54606 0.32898
# Poissons Ratio (z) = 0.42475 0.26501
#
# Static dielectric constant tensor:
#      x y z
#    x 1.845730 0.000000 0.018290 
#    y 0.000000 1.692440 0.000000 
#    z 0.018290 0.000000 1.692790 
# 
# From -- ./inp_files/49023.got.cif
#   From: 2010.05.17/outbox.cif.g08.bks.cpg/sg11_25_cif.got.tgz:49023.got - 2010.06.03 12:22:45.
