data_PCOD9166546
_publ_section_title
;
Structure prediction by ZEFSAII (Michael W. Deem and Ramdas Pophale) SiO2 
 PCOD9166546
Probable space group: P 21/M
;
_chemical_formula_sum "Si O2"
_cell_formula_units_Z 28
_cell_length_a 9.314767
_cell_length_b 25.130472
_cell_length_c 8.792149
_cell_angle_alpha 90.000000
_cell_angle_beta 43.347057
_cell_angle_gamma 90.000000
_cell_volume 1412.716373
_symmetry_space_group_name_H-M "P 21/M"
_symmetry_group_IT_number 11
_symmetry_cell_setting 'monoclinic'
loop_
_space_group_symop_operation_xyz
x,y,z
-x,1/2+y,-z
-x,-y,-z
x,1/2-y,z
loop_
_atom_site_type_symbol
_atom_site_label
_atom_site_fract_x
_atom_site_fract_y
_atom_site_fract_z
Si Si1 0.011444 0.189620 0.622101
Si Si2 0.150687 0.894636 0.678302
Si Si3 0.942326 0.092940 0.901085
Si Si4 0.271295 0.149631 0.145381
Si Si5 0.372038 0.808933 0.318026
Si Si6 0.703879 0.512644 0.442618
Si Si7 0.482934 0.947981 0.910950
O O1 0.027734 0.250000 0.668165
O O2 0.193451 0.178350 0.358636
O O3 0.008060 0.144694 0.753761
O O4 0.797447 0.185620 0.688029
O O5 0.324961 0.855677 0.473302
O O6 0.192858 0.955699 0.600852
O O7 0.932752 0.874610 0.776883
O O8 0.138323 0.892229 0.869674
O O9 0.752875 0.063993 0.959015
O O10 0.132861 0.051291 0.766399
O O11 0.426424 0.102113 0.069703
O O12 0.400151 0.186026 0.930842
O O13 0.340226 0.750000 0.409646
O O14 0.500000 0.500000 0.500000
O O15 0.625983 0.541898 0.653580
O O16 0.500000 0.000000 0.000000
#
# Coordination Sequence:
#
# PCOD9166546 Si02
#       7
#     4   4   4   4   4   4   4
#     4  10  22  42  67  96 129 170 222 276 323 386
#     4  11  26  40  68  97 138 169 216 269 330 389
#     4  12  25  44  65 101 133 173 221 270 329 398
#     4  11  22  42  67  98 129 171 220 267 323 390
#     4  10  22  43  69  95 130 175 221 269 326 387
#     4  12  26  43  66  95 136 176 211 268 333 392
#     4  12  25  39  68  97 132 174 221 263 324 391
#
# _framework density 19.819973999999998
#
# number of rings (size 3 to 8) (size 9 to 14) (size 15 to 20)
#    0.000    0.857    4.286    2.571    6.000    2.286 
#    0.000    0.000    0.000    0.000    0.000    0.000 
#    0.000    0.000    0.000    0.000    0.000    0.000 
#
# Total GULP energy -156594.670587 kJ/mol
# GULP energy per Si atom -5592.666807 kJ/mol
# Density = 1.977486 g / cm^3
# Si number density = 19.819974 Si / 1000 Ang^3
#
#
#
# Elastic Constant Matrix: (Units=GPa)
#
#
# Indices 1 2 3 4 5 6 
#
# 1 55.7280 22.2586 14.6285 0.0000 -3.5564 0.0000
# 2 22.2586 143.4387 47.1272 0.0000 5.8743 0.0000
# 3 14.6285 47.1272 97.0709 0.0000 -2.4280 0.0000
# 4 0.0000 0.0000 0.0000 25.3538 0.0000 -2.8339
# 5 -3.5564 5.8743 -2.4280 0.0000 29.5722 0.0000
# 6 0.0000 0.0000 0.0000 -2.8339 0.0000 13.9472
#
#
#
# Elastic Compliance Matrix: (Units=1/GPa)
#
#
# Indices 1 2 3 4 5 6 
#
# 1 0.019590 -0.002623 -0.001610 0.000000 0.002745 0.000000
# 2 -0.002623 0.008764 -0.003919 0.000000 -0.002378 0.000000
# 3 -0.001610 -0.003919 0.012487 0.000000 0.001610 0.000000
# 4 0.000000 0.000000 0.000000 0.040358 0.000000 0.008200
# 5 0.002745 -0.002378 0.001610 0.000000 0.034750 0.000000
# 6 0.000000 0.000000 0.000000 0.008200 0.000000 0.073365
#
#
# Mechanical properties :
#
#
# Convention : Reuss Voigt Hill
#
# Bulk Modulus (GPa) = 40.75562 51.58514 46.17038
# Shear Modulus (GPa) = 23.38662 27.92286 25.65474
#
# Velocity S-wave (km/s) = 3.43877 3.75750 3.60166
# Velocity P-wave (km/s) = 6.03112 6.70138 6.37506
#
# Compressibility (1/GPa) = 0.02453649
#
# Stress axis : x y z
#
# Youngs Moduli (GPa) = 51.04674 114.10778 80.08213
#
# Poissons Ratio (x) = 0.29935 0.12892
# Poissons Ratio (y) = 0.13392 0.31383
# Poissons Ratio (z) = 0.08218 0.44717
#
# Static dielectric constant tensor:
#      x y z
#    x 1.672460 0.000000 -0.009270 
#    y 0.000000 1.691630 0.000000 
#    z -0.009270 0.000000 1.715840 
# 
# From -- ./inp_files/15256.got.cif
#   From: 2010.05.17/outbox.cif.g08.bks.cpg/sg11_8_cif.got.tgz:15256.got - 2010.06.03 12:22:45.
