data_PCOD9166237
_publ_section_title
;
Structure prediction by ZEFSAII (Michael W. Deem and Ramdas Pophale) SiO2 
 PCOD9166237
Probable space group: P 21/M
;
_chemical_formula_sum "Si O2"
_cell_formula_units_Z 32
_cell_length_a 25.349251
_cell_length_b 8.763203
_cell_length_c 15.557672
_cell_angle_alpha 90.000000
_cell_angle_beta 27.703022
_cell_angle_gamma 90.000000
_cell_volume 1606.651361
_symmetry_space_group_name_H-M "P 21/M"
_symmetry_group_IT_number 11
_symmetry_cell_setting 'monoclinic'
loop_
_space_group_symop_operation_xyz
x,y,z
-x,1/2+y,-z
-x,-y,-z
x,1/2-y,z
loop_
_atom_site_type_symbol
_atom_site_label
_atom_site_fract_x
_atom_site_fract_y
_atom_site_fract_z
Si Si1 0.091584 0.066340 0.302314
Si Si2 0.657185 0.932228 0.996060
Si Si3 0.016775 0.069779 0.881710
Si Si4 0.863625 0.934862 0.952474
Si Si5 0.617857 0.567309 0.362914
Si Si6 0.384788 0.929884 0.128459
Si Si7 0.423089 0.068189 0.383560
Si Si8 0.253327 0.571450 0.491726
O O1 0.082649 0.250000 0.317657
O O2 0.219272 0.025645 0.146873
O O3 0.080893 0.017588 0.218169
O O4 0.000000 0.000000 0.500000
O O5 0.643071 0.750000 0.024640
O O6 0.648614 0.982676 0.909404
O O7 0.553261 0.014071 0.193795
O O8 0.000928 0.250000 0.908265
O O9 0.143453 0.027475 0.669663
O O10 0.930928 0.998533 0.936494
O O11 0.000000 0.000000 0.000000
O O12 0.865825 0.750000 0.952732
O O13 0.731467 0.982733 0.149571
O O14 0.500000 0.500000 0.500000
O O15 0.610507 0.750000 0.365188
O O16 0.629410 0.532042 0.447616
O O17 0.400933 0.750000 0.086385
O O18 0.292479 0.944367 0.336878
O O19 0.500000 0.000000 0.000000
O O20 0.416940 0.250000 0.378666
O O21 0.355015 0.983018 0.406791
O O22 0.229229 0.750000 0.542824
#
# Coordination Sequence:
#
# PCOD9166237 Si02
#       8
#     4   4   4   4   4   4   4   4
#     4  10  24  43  65  91 124 167 216 267 321 380
#     4  11  23  40  62  90 126 168 211 260 319 379
#     4  12  26  44  68  97 130 170 215 266 320 384
#     4  10  22  44  67  92 128 169 213 265 322 378
#     4  10  22  39  63  92 123 158 201 253 312 374
#     4  11  23  39  62  93 128 167 211 262 318 380
#     4  11  22  37  61  94 126 161 204 256 313 375
#     4  11  24  41  63  92 126 165 209 257 317 381
#
# _framework density 19.917203000000001
#
# number of rings (size 3 to 8) (size 9 to 14) (size 15 to 20)
#    0.000    1.250    1.250    4.125    1.750    6.500 
#    0.000    0.000    0.000    0.000    0.000    0.000 
#    0.000    0.000    0.000    0.000    0.000    0.000 
#
# Total GULP energy -178992.235131 kJ/mol
# GULP energy per Si atom -5593.507348 kJ/mol
# Density = 1.987187 g / cm^3
# Si number density = 19.917203 Si / 1000 Ang^3
#
#
#
# Elastic Constant Matrix: (Units=GPa)
#
#
# Indices 1 2 3 4 5 6 
#
# 1 105.9646 25.6745 42.6885 0.0000 8.1115 0.0000
# 2 25.6745 41.2906 23.6152 0.0000 9.1670 0.0000
# 3 42.6885 23.6152 116.5162 0.0000 7.6243 0.0000
# 4 0.0000 0.0000 0.0000 36.7460 0.0000 -3.2515
# 5 8.1115 9.1670 7.6243 0.0000 33.5235 0.0000
# 6 0.0000 0.0000 0.0000 -3.2515 0.0000 31.3586
#
#
#
# Elastic Compliance Matrix: (Units=1/GPa)
#
#
# Indices 1 2 3 4 5 6 
#
# 1 0.012152 -0.005524 -0.003288 0.000000 -0.000682 0.000000
# 2 -0.005524 0.031292 -0.003904 0.000000 -0.006332 0.000000
# 3 -0.003288 -0.003904 0.010614 0.000000 -0.000551 0.000000
# 4 0.000000 0.000000 0.000000 0.027466 0.000000 0.002848
# 5 -0.000682 -0.006332 -0.000551 0.000000 0.031852 0.000000
# 6 0.000000 0.000000 0.000000 0.002848 0.000000 0.032185
#
#
# Mechanical properties :
#
#
# Convention : Reuss Voigt Hill
#
# Bulk Modulus (GPa) = 34.93276 49.74753 42.34014
# Shear Modulus (GPa) = 27.69529 31.77849 29.73689
#
# Velocity S-wave (km/s) = 3.73301 3.99874 3.86816
# Velocity P-wave (km/s) = 6.01312 6.80818 6.42296
#
# Compressibility (1/GPa) = 0.02862643
#
# Stress axis : x y z
#
# Youngs Moduli (GPa) = 82.28778 31.95676 94.21144
#
# Poissons Ratio (x) = 0.17654 0.30977
# Poissons Ratio (y) = 0.45460 0.36779
# Poissons Ratio (z) = 0.27057 0.12475
#
# Static dielectric constant tensor:
#      x y z
#    x 1.698260 0.000000 0.020440 
#    y 0.000000 1.662020 0.000000 
#    z 0.020440 0.000000 1.700810 
# 
# From -- ./inp_files/55634.got.cif
#   From: 2010.05.17/outbox.cif.g08.bks.cpg/sg11_28_cif.got.tgz:55634.got - 2010.06.03 12:22:45.
