data_PCOD9166393
_publ_section_title
;
Structure prediction by ZEFSAII (Michael W. Deem and Ramdas Pophale) SiO2 
 PCOD9166393
Probable space group: P 21/M
;
_chemical_formula_sum "Si O2"
_cell_formula_units_Z 32
_cell_length_a 14.211224
_cell_length_b 14.843069
_cell_length_c 18.043006
_cell_angle_alpha 90.000000
_cell_angle_beta 157.735927
_cell_angle_gamma 90.000000
_cell_volume 1441.986215
_symmetry_space_group_name_H-M "P 21/M"
_symmetry_group_IT_number 11
_symmetry_cell_setting 'monoclinic'
loop_
_space_group_symop_operation_xyz
x,y,z
-x,1/2+y,-z
-x,-y,-z
x,1/2-y,z
loop_
_atom_site_type_symbol
_atom_site_label
_atom_site_fract_x
_atom_site_fract_y
_atom_site_fract_z
Si Si1 0.404305 0.355297 0.250495
Si Si2 0.452675 0.360118 0.453078
Si Si3 0.914542 0.357363 0.558430
Si Si4 0.130875 0.585261 0.130595
Si Si5 0.774439 0.479500 0.172274
Si Si6 0.927583 0.858439 0.495355
Si Si7 0.521610 0.648258 0.298248
Si Si8 0.970448 0.853311 0.746130
O O1 0.445772 0.250000 0.289347
O O2 0.455248 0.392301 0.370284
O O3 0.625108 0.385277 0.357428
O O4 0.116382 0.364525 0.020614
O O5 0.489441 0.250000 0.485980
O O6 0.665866 0.408433 0.656135
O O7 0.179512 0.376671 0.288596
O O8 0.945511 0.250000 0.598143
O O9 0.074914 0.426635 0.723683
O O10 0.008691 0.370943 0.543519
O O11 0.285117 0.617232 0.171025
O O12 0.000000 0.500000 0.000000
O O13 0.889336 0.415990 0.320410
O O14 0.825272 0.422419 0.134515
O O15 0.500000 0.500000 0.000000
O O16 0.949787 0.750000 0.526842
O O17 0.652726 0.890290 0.320651
O O18 0.462639 0.750000 0.235817
O O19 0.747079 0.644854 0.522406
O O20 0.060117 0.750000 0.814738
#
# Coordination Sequence:
#
# PCOD9166393 Si02
#       8
#     4   4   4   4   4   4   4   4
#     4  10  22  41  61  84 123 168 206 244 293 365
#     4   9  19  40  64  85 116 160 205 254 304 350
#     4  10  23  42  59  83 123 166 204 244 294 361
#     4  11  22  34  57  96 122 156 194 248 307 367
#     4  11  22  37  59  91 119 156 193 254 310 363
#     4   9  19  40  67  86 111 157 205 254 305 350
#     4   8  15  32  59  83 107 143 195 249 290 342
#     4   8  16  34  61  85 112 151 197 250 307 356
#
# _framework density 22.191611999999999
#
# number of rings (size 3 to 8) (size 9 to 14) (size 15 to 20)
#    0.000    2.500    0.000    3.375    5.250    1.500 
#    4.500    0.000    0.000    0.000    0.000    0.000 
#    0.000    0.000    0.000    0.000    0.000    0.000 
#
# Total GULP energy -178425.795515 kJ/mol
# GULP energy per Si atom -5575.806110 kJ/mol
# Density = 2.214110 g / cm^3
# Si number density = 22.191612 Si / 1000 Ang^3
#
#
#
# Elastic Constant Matrix: (Units=GPa)
#
#
# Indices 1 2 3 4 5 6 
#
# 1 44.4347 -2.6895 14.2512 0.0000 24.0810 0.0000
# 2 -2.6895 54.0941 18.8227 0.0000 5.7949 0.0000
# 3 14.2512 18.8227 110.3507 0.0000 23.4203 0.0000
# 4 0.0000 0.0000 0.0000 28.8377 0.0000 25.5491
# 5 24.0810 5.7949 23.4203 0.0000 46.4538 0.0000
# 6 0.0000 0.0000 0.0000 25.5491 0.0000 -23.5954
#
#
#
# Elastic Compliance Matrix: (Units=1/GPa)
#
#
# Indices 1 2 3 4 5 6 
#
# 1 0.032062 0.003808 -0.001301 0.000000 -0.016440 0.000000
# 2 0.003808 0.020135 -0.003331 0.000000 -0.002807 0.000000
# 3 -0.001301 -0.003331 0.010713 0.000000 -0.004311 0.000000
# 4 0.000000 0.000000 0.000000 0.017698 0.000000 0.019164
# 5 -0.016440 -0.002807 -0.004311 0.000000 0.032572 0.000000
# 6 0.000000 0.000000 0.000000 0.019164 0.000000 -0.021631
#
#
# Mechanical properties :
#
#
# Convention : Reuss Voigt Hill
#
# Bulk Modulus (GPa) = 16.32313 29.96091 23.14202
# Shear Modulus (GPa) = 44.00665 22.23889 33.12277
#
# Velocity S-wave (km/s) = 4.45795 3.16908 3.86758
# Velocity P-wave (km/s) = 5.81974 5.18855 5.51318
#
# Compressibility (1/GPa) = 0.06126276
#
# Stress axis : x y z
#
# Youngs Moduli (GPa) = 31.18960 49.66419 93.34316
#
# Poissons Ratio (x) = -0.18912 0.12145
# Poissons Ratio (y) = -0.11877 0.31089
# Poissons Ratio (z) = 0.04058 0.16541
#
# Static dielectric constant tensor:
#      x y z
#    x 2.221570 0.000000 0.643240 
#    y 0.000000 1.877320 0.000000 
#    z 0.643240 0.000000 2.865350 
# 
# From -- ./inp_files/65806.got.cif
#   From: 2010.05.17/outbox.cif.g08.bks.cpg/sg11_33_cif.got.tgz:65806.got - 2010.06.03 12:22:45.
