data_PCOD9166561
_publ_section_title
;
Structure prediction by ZEFSAII (Michael W. Deem and Ramdas Pophale) SiO2 
 PCOD9166561
Probable space group: P 21/M
;
_chemical_formula_sum "Si O2"
_cell_formula_units_Z 24
_cell_length_a 12.187848
_cell_length_b 18.801474
_cell_length_c 6.594213
_cell_angle_alpha 90.000000
_cell_angle_beta 45.849345
_cell_angle_gamma 90.000000
_cell_volume 1084.202287
_symmetry_space_group_name_H-M "P 21/M"
_symmetry_group_IT_number 11
_symmetry_cell_setting 'monoclinic'
loop_
_space_group_symop_operation_xyz
x,y,z
-x,1/2+y,-z
-x,-y,-z
x,1/2-y,z
loop_
_atom_site_type_symbol
_atom_site_label
_atom_site_fract_x
_atom_site_fract_y
_atom_site_fract_z
Si Si1 0.219693 0.168487 0.888394
Si Si2 0.411024 0.070420 0.943425
Si Si3 0.863928 0.331984 0.420311
Si Si4 0.326973 0.591883 0.674021
Si Si5 0.838685 0.038343 0.747564
Si Si6 0.534784 0.833616 0.745551
O O1 0.256071 0.250000 0.900653
O O2 0.298734 0.117441 0.947968
O O3 0.297169 0.157482 0.570636
O O4 0.038876 0.160267 0.122075
O O5 0.550441 0.048096 0.617502
O O6 0.696000 0.993277 0.843522
O O7 0.471317 0.119884 0.045321
O O8 0.836641 0.250000 0.510476
O O9 0.756495 0.356455 0.375497
O O10 0.843871 0.385270 0.633568
O O11 0.421101 0.636652 0.719960
O O12 0.204642 0.546769 0.959557
O O13 0.000000 0.000000 0.500000
O O14 0.508603 0.750000 0.817209
#
# Coordination Sequence:
#
# PCOD9166561 Si02
#       6
#     4   4   4   4   4   4
#     4   9  20  39  65  98 136 178 226 279 335 394
#     4  11  23  44  68  99 136 178 225 281 339 400
#     4  11  25  45  70 102 138 177 226 284 338 401
#     4  11  26  43  69 100 140 179 225 282 339 399
#     4  12  27  46  70 103 136 180 228 279 340 407
#     4  10  22  42  71 103 136 181 231 278 335 403
#
# _framework density 22.136089999999999
#
# number of rings (size 3 to 8) (size 9 to 14) (size 15 to 20)
#    0.000    1.333    1.667    2.500    2.333   10.667 
#    0.000    0.000    0.000    0.000    0.000    0.000 
#    0.000    0.000    0.000    0.000    0.000    0.000 
#
# Total GULP energy -134357.890932 kJ/mol
# GULP energy per Si atom -5598.245455 kJ/mol
# Density = 2.208571 g / cm^3
# Si number density = 22.136090 Si / 1000 Ang^3
#
#
#
# Elastic Constant Matrix: (Units=GPa)
#
#
# Indices 1 2 3 4 5 6 
#
# 1 89.0249 52.1902 59.9415 0.0000 1.7394 0.0000
# 2 52.1902 99.8180 63.4315 0.0000 -6.9550 0.0000
# 3 59.9415 63.4315 168.0320 0.0000 -25.4275 0.0000
# 4 0.0000 0.0000 0.0000 36.0896 0.0000 7.3910
# 5 1.7394 -6.9550 -25.4275 0.0000 31.7811 0.0000
# 6 0.0000 0.0000 0.0000 7.3910 0.0000 39.2736
#
#
#
# Elastic Compliance Matrix: (Units=1/GPa)
#
#
# Indices 1 2 3 4 5 6 
#
# 1 0.018980 -0.007163 -0.005076 0.000000 -0.006667 0.000000
# 2 -0.007163 0.015927 -0.003266 0.000000 0.001265 0.000000
# 3 -0.005076 -0.003266 0.010158 0.000000 0.007691 0.000000
# 4 0.000000 0.000000 0.000000 0.028820 0.000000 -0.005424
# 5 -0.006667 0.001265 0.007691 0.000000 0.038260 0.000000
# 6 0.000000 0.000000 0.000000 -0.005424 0.000000 0.026483
#
#
# Mechanical properties :
#
#
# Convention : Reuss Voigt Hill
#
# Bulk Modulus (GPa) = 71.14066 78.66682 74.90374
# Shear Modulus (GPa) = 28.68271 33.51631 31.09951
#
# Velocity S-wave (km/s) = 3.60355 3.89537 3.75230
# Velocity P-wave (km/s) = 7.03717 7.47307 7.25839
#
# Compressibility (1/GPa) = 0.01405666
#
# Stress axis : x y z
#
# Youngs Moduli (GPa) = 52.68814 62.78755 98.44034
#
# Poissons Ratio (x) = 0.44973 0.49964
# Poissons Ratio (y) = 0.37739 0.32148
# Poissons Ratio (z) = 0.26742 0.20505
#
# Static dielectric constant tensor:
#      x y z
#    x 1.770710 0.000000 -0.026600 
#    y 0.000000 1.816150 0.000000 
#    z -0.026600 0.000000 1.841880 
# 
# From -- ./inp_files/2709.got.cif
#   From: 2010.05.17/outbox.cif.g08.bks.cpg/sg11_2_cif.got.tgz:2709.got - 2010.06.03 12:22:45.
