data_PCOD9166198
_publ_section_title
;
Structure prediction by ZEFSAII (Michael W. Deem and Ramdas Pophale) SiO2 
 PCOD9166198
Probable space group: P 21/M
;
_chemical_formula_sum "Si O2"
_cell_formula_units_Z 30
_cell_length_a 6.215264
_cell_length_b 17.055775
_cell_length_c 13.564714
_cell_angle_alpha 90.000000
_cell_angle_beta 109.492537
_cell_angle_gamma 90.000000
_cell_volume 1355.527272
_symmetry_space_group_name_H-M "P 21/M"
_symmetry_group_IT_number 11
_symmetry_cell_setting 'monoclinic'
loop_
_space_group_symop_operation_xyz
x,y,z
-x,1/2+y,-z
-x,-y,-z
x,1/2-y,z
loop_
_atom_site_type_symbol
_atom_site_label
_atom_site_fract_x
_atom_site_fract_y
_atom_site_fract_z
Si Si1 0.224364 0.542428 0.745545
Si Si2 0.092736 0.882834 0.074039
Si Si3 0.017411 0.163913 0.557573
Si Si4 0.639218 0.535972 0.929387
Si Si5 0.818406 0.635624 0.205902
Si Si6 0.181330 0.158650 0.360430
Si Si7 0.384110 0.559627 0.556429
Si Si8 0.584898 0.250000 0.929150
O O1 0.451316 0.576293 0.831656
O O2 0.186608 0.459123 0.792475
O O3 0.279437 0.524025 0.639852
O O4 0.013136 0.602371 0.715544
O O5 0.221119 0.819299 0.028808
O O6 0.040614 0.846174 0.173511
O O7 0.242376 0.961619 0.105585
O O8 0.846854 0.908457 0.993422
O O9 0.907598 0.250000 0.535651
O O10 0.820775 0.100268 0.532661
O O11 0.165344 0.160273 0.678146
O O12 0.147114 0.153603 0.474175
O O13 0.500000 0.500000 0.000000
O O14 0.607298 0.681199 0.126251
O O15 0.158920 0.250000 0.328874
O O16 0.429709 0.123062 0.379842
O O17 0.500000 0.500000 0.500000
#
# Coordination Sequence:
#
# PCOD9166198 Si02
#       8
#     4   4   4   4   4   4   4   2
#     4  11  24  41  71  94 131 176 231 274 339 400
#     4  11  25  41  71  99 133 178 222 273 358 406
#     4  10  22  39  60  93 133 180 216 268 342 398
#     4  11  23  46  71  95 129 175 228 290 337 405
#     4  12  23  42  66 102 141 176 220 284 336 412
#     4  10  23  43  64  91 137 180 226 283 335 401
#     4  11  23  39  64  98 131 172 227 279 327 409
#     4  12  24  42  62 104 144 172 218 290 344 408
#
# _framework density 22.131606999999999
#
# number of rings (size 3 to 8) (size 9 to 14) (size 15 to 20)
#    0.000    1.067    3.333    2.400    3.733    3.733 
#    1.200    0.000    5.867    0.000    0.000    0.000 
#    0.000    0.000    0.000    0.000    0.000    0.000 
#
# Total GULP energy -167189.014471 kJ/mol
# GULP energy per Si atom -5572.967149 kJ/mol
# Density = 2.208123 g / cm^3
# Si number density = 22.131607 Si / 1000 Ang^3
#
#
#
# Elastic Constant Matrix: (Units=GPa)
#
#
# Indices 1 2 3 4 5 6 
#
# 1 75.3557 33.5165 14.1476 0.0000 18.1547 0.0000
# 2 33.5165 114.6095 10.8724 0.0000 2.6514 0.0000
# 3 14.1476 10.8724 41.1691 0.0000 10.6490 0.0000
# 4 0.0000 0.0000 0.0000 27.5850 0.0000 2.2044
# 5 18.1547 2.6514 10.6490 0.0000 23.6288 0.0000
# 6 0.0000 0.0000 0.0000 2.2044 0.0000 58.7899
#
#
#
# Elastic Compliance Matrix: (Units=1/GPa)
#
#
# Indices 1 2 3 4 5 6 
#
# 1 0.019072 -0.005102 -0.001771 0.000000 -0.013283 0.000000
# 2 -0.005102 0.010315 -0.001908 0.000000 0.003623 0.000000
# 3 -0.001771 -0.001908 0.028293 0.000000 -0.011177 0.000000
# 4 0.000000 0.000000 0.000000 0.036361 0.000000 -0.001363
# 5 -0.013283 0.003623 -0.011177 0.000000 0.057158 0.000000
# 6 0.000000 0.000000 0.000000 -0.001363 0.000000 0.017061
#
#
# Mechanical properties :
#
#
# Convention : Reuss Voigt Hill
#
# Bulk Modulus (GPa) = 24.92581 38.68970 31.80775
# Shear Modulus (GPa) = 25.10117 33.50727 29.30422
#
# Velocity S-wave (km/s) = 3.37141 3.89524 3.64275
# Velocity P-wave (km/s) = 5.14220 6.14411 5.66535
#
# Compressibility (1/GPa) = 0.04011906
#
# Stress axis : x y z
#
# Youngs Moduli (GPa) = 52.43160 96.95034 35.34399
#
# Poissons Ratio (x) = 0.49467 0.06259
# Poissons Ratio (y) = 0.26752 0.06742
# Poissons Ratio (z) = 0.09284 0.18495
#
# Static dielectric constant tensor:
#      x y z
#    x 1.815950 0.000000 -0.024940 
#    y 0.000000 1.836620 0.000000 
#    z -0.024940 0.000000 1.838770 
# 
# From -- ./inp_files/46074.got.cif
#   From: 2010.05.17/outbox.cif.g08.bks.cpg/sg11_24_cif.got.tgz:46074.got - 2010.06.03 12:22:45.
