data_PCOD9166632
_publ_section_title
;
Structure prediction by ZEFSAII (Michael W. Deem and Ramdas Pophale) SiO2 
 PCOD9166632
Probable space group: P 21/M
;
_chemical_formula_sum "Si O2"
_cell_formula_units_Z 16
_cell_length_a 7.130805
_cell_length_b 17.447930
_cell_length_c 4.957359
_cell_angle_alpha 90.000000
_cell_angle_beta 72.479456
_cell_angle_gamma 90.000000
_cell_volume 588.170466
_symmetry_space_group_name_H-M "P 21/M"
_symmetry_group_IT_number 11
_symmetry_cell_setting 'monoclinic'
loop_
_space_group_symop_operation_xyz
x,y,z
-x,1/2+y,-z
-x,-y,-z
x,1/2-y,z
loop_
_atom_site_type_symbol
_atom_site_label
_atom_site_fract_x
_atom_site_fract_y
_atom_site_fract_z
Si Si1 0.890971 0.866926 0.272966
Si Si2 0.335219 0.370370 0.130227
Si Si3 0.286209 0.988836 0.457629
Si Si4 0.260160 0.664995 0.742552
O O1 0.830274 0.837734 0.593552
O O2 0.875524 0.958993 0.320303
O O3 0.709742 0.846631 0.151358
O O4 0.081967 0.843034 0.031271
O O5 0.307106 0.463072 0.172311
O O6 0.542880 0.349076 0.166836
O O7 0.241534 0.900411 0.521584
O O8 0.500000 0.000000 0.500000
O O9 0.264800 0.750000 0.624626
#
# Coordination Sequence:
#
# PCOD9166632 Si02
#       4
#     4   4   4   4
#     4  10  22  44  69  92 126 170 219 259 315 377
#     4   9  23  43  70  90 129 168 219 261 311 378
#     4   8  19  42  65  95 123 171 212 265 309 378
#     4  11  23  41  66  99 131 168 212 264 326 379
#
# _framework density 27.202999999999999
#
# number of rings (size 3 to 8) (size 9 to 14) (size 15 to 20)
#    1.500    1.000    0.000    0.750    0.000    9.000 
#    0.000    2.500    0.000    0.000    0.000    0.000 
#    0.000    0.000    0.000    0.000    0.000    0.000 
#
# Total GULP energy -89534.684389 kJ/mol
# GULP energy per Si atom -5595.917774 kJ/mol
# Density = 2.714109 g / cm^3
# Si number density = 27.203000 Si / 1000 Ang^3
#
#
#
# Elastic Constant Matrix: (Units=GPa)
#
#
# Indices 1 2 3 4 5 6 
#
# 1 94.8955 17.5275 11.9871 0.0000 -16.9087 0.0000
# 2 17.5275 219.5598 25.2670 0.0000 -11.2085 0.0000
# 3 11.9871 25.2670 94.7526 0.0000 5.5385 0.0000
# 4 0.0000 0.0000 0.0000 -18.6575 0.0000 24.5837
# 5 -16.9087 -11.2085 5.5385 0.0000 53.5767 0.0000
# 6 0.0000 0.0000 0.0000 24.5837 0.0000 -20.4509
#
#
#
# Elastic Compliance Matrix: (Units=1/GPa)
#
#
# Indices 1 2 3 4 5 6 
#
# 1 0.011486 -0.000555 -0.001519 0.000000 0.003666 0.000000
# 2 -0.000555 0.004793 -0.001264 0.000000 0.000958 0.000000
# 3 -0.001519 -0.001264 0.011194 0.000000 -0.001901 0.000000
# 4 0.000000 0.000000 0.000000 0.091791 0.000000 0.110341
# 5 0.003666 0.000958 -0.001901 0.000000 0.020219 0.000000
# 6 0.000000 0.000000 0.000000 0.110341 0.000000 0.083741
#
#
# Mechanical properties :
#
#
# Convention : Reuss Voigt Hill
#
# Bulk Modulus (GPa) = 48.08505 57.64123 52.86314
# Shear Modulus (GPa) = 21.11194 26.52210 23.81702
#
# Velocity S-wave (km/s) = 2.78886 3.12584 2.96214
# Velocity P-wave (km/s) = 5.29953 5.85347 5.58338
#
# Compressibility (1/GPa) = 0.02079648
#
# Stress axis : x y z
#
# Youngs Moduli (GPa) = 87.06628 208.62679 89.33206
#
# Poissons Ratio (x) = 0.11577 0.13572
# Poissons Ratio (y) = 0.04831 0.11292
# Poissons Ratio (z) = 0.13228 0.26370
#
# Static dielectric constant tensor:
#      x y z
#    x 2.130130 0.000000 -0.011970 
#    y 0.000000 2.069140 0.000000 
#    z -0.011970 0.000000 2.031290 
# 
# From -- ./inp_files/2101.got.cif
#   From: 2010.05.17/outbox.cif.g08.bks.cpg/sg11_2_cif.got.tgz:2101.got - 2010.06.03 12:22:45.
