data_PCOD9166964
_publ_section_title
;
Structure prediction by ZEFSAII (Michael W. Deem and Ramdas Pophale) SiO2 
 PCOD9166964
Probable space group: P 21/M
;
_chemical_formula_sum "Si O2"
_cell_formula_units_Z 28
_cell_length_a 6.000880
_cell_length_b 27.244563
_cell_length_c 7.784296
_cell_angle_alpha 90.000000
_cell_angle_beta 113.750250
_cell_angle_gamma 90.000000
_cell_volume 1164.882727
_symmetry_space_group_name_H-M "P 21/M"
_symmetry_group_IT_number 11
_symmetry_cell_setting 'monoclinic'
loop_
_space_group_symop_operation_xyz
x,y,z
-x,1/2+y,-z
-x,-y,-z
x,1/2-y,z
loop_
_atom_site_type_symbol
_atom_site_label
_atom_site_fract_x
_atom_site_fract_y
_atom_site_fract_z
Si Si1 0.551898 0.446786 0.445567
Si Si2 0.459165 0.750000 0.524282
Si Si3 0.781295 0.888870 0.193476
Si Si4 0.737713 0.349974 0.543673
Si Si5 0.946500 0.568080 0.880797
Si Si6 0.936052 0.250000 0.263547
Si Si7 0.263289 0.004080 0.802861
Si Si8 0.692401 0.348567 0.122986
O O1 0.500000 0.500000 0.500000
O O2 0.660714 0.403197 0.591891
O O3 0.303327 0.425748 0.296138
O O4 0.724700 0.463239 0.342009
O O5 0.385181 0.801786 0.415455
O O6 0.248602 0.750000 0.619999
O O7 0.761338 0.750000 0.635781
O O8 0.734104 0.940964 0.275286
O O9 0.971949 0.853595 0.347370
O O10 0.886757 0.914595 0.053922
O O11 0.555054 0.856703 0.058536
O O12 0.658230 0.350648 0.318915
O O13 0.041340 0.514624 0.850544
O O14 0.145420 0.606102 0.880953
O O15 0.843542 0.298798 0.139252
O O16 0.500000 0.000000 0.000000
#
# Coordination Sequence:
#
# PCOD9166964 Si02
#       8
#     4   2   4   4   4   2   4   4
#     4  12  26  40  67 104 137 195 244 295 365 445
#     4  10  24  51  79 112 141 195 247 320 373 449
#     4  12  26  42  70 105 142 193 238 297 371 437
#     4  11  24  48  72 103 143 185 250 302 375 442
#     4  12  22  43  67  92 146 187 240 298 359 434
#     4  10  24  45  83 104 143 191 245 306 395 437
#     4  12  23  42  60  98 147 186 241 291 357 436
#     4  11  24  47  69 102 140 186 242 306 362 452
#
# _framework density 24.036752
#
# number of rings (size 3 to 8) (size 9 to 14) (size 15 to 20)
#    0.000    0.571    5.714    2.143    6.000    1.714 
#    5.143    0.714    0.000    0.000    0.000    0.000 
#    0.000    0.000    0.000    0.000    0.000    0.000 
#
# Total GULP energy -156187.745040 kJ/mol
# GULP energy per Si atom -5578.133751 kJ/mol
# Density = 2.398204 g / cm^3
# Si number density = 24.036752 Si / 1000 Ang^3
#
#
#
# Elastic Constant Matrix: (Units=GPa)
#
#
# Indices 1 2 3 4 5 6 
#
# 1 87.3556 27.3927 31.9328 0.0000 32.4130 0.0000
# 2 27.3927 163.1246 40.0725 0.0000 40.7859 0.0000
# 3 31.9328 40.0725 75.7830 0.0000 51.2618 0.0000
# 4 0.0000 0.0000 0.0000 22.4544 0.0000 17.7938
# 5 32.4130 40.7859 51.2618 0.0000 48.8547 0.0000
# 6 0.0000 0.0000 0.0000 17.7938 0.0000 30.4768
#
#
#
# Elastic Compliance Matrix: (Units=1/GPa)
#
#
# Indices 1 2 3 4 5 6 
#
# 1 0.015231 -0.000009 0.001437 0.000000 -0.011606 0.000000
# 2 -0.000009 0.007768 0.000961 0.000000 -0.007487 0.000000
# 3 0.001437 0.000961 0.045719 0.000000 -0.049727 0.000000
# 4 0.000000 0.000000 0.000000 0.082881 0.000000 -0.048390
# 5 -0.011606 -0.007487 -0.049727 0.000000 0.086596 0.000000
# 6 0.000000 0.000000 0.000000 -0.048390 0.000000 0.061064
#
#
# Mechanical properties :
#
#
# Convention : Reuss Voigt Hill
#
# Bulk Modulus (GPa) = 13.60623 58.33991 35.97307
# Shear Modulus (GPa) = 15.67502 35.48153 25.57828
#
# Velocity S-wave (km/s) = 2.55645 3.84622 3.26564
# Velocity P-wave (km/s) = 3.79299 6.63689 5.40533
#
# Compressibility (1/GPa) = 0.07349574
#
# Stress axis : x y z
#
# Youngs Moduli (GPa) = 65.65476 128.73766 21.87292
#
# Poissons Ratio (x) = 0.00116 -0.03144
# Poissons Ratio (y) = 0.00059 -0.02101
# Poissons Ratio (z) = -0.09436 -0.12369
#
# Static dielectric constant tensor:
#      x y z
#    x 2.379050 0.000000 0.017370 
#    y 0.000000 2.081860 0.000000 
#    z 0.017370 0.000000 2.058290 
# 
# From -- ./inp_files/10911.got.cif
#   From: 2010.05.17/outbox.cif.g08.bks.cpg/sg11_6_cif.got.tgz:10911.got - 2010.06.03 12:22:45.
