data_PCOD9166701
_publ_section_title
;
Structure prediction by ZEFSAII (Michael W. Deem and Ramdas Pophale) SiO2 
 PCOD9166701
Probable space group: P 21/M
;
_chemical_formula_sum "Si O2"
_cell_formula_units_Z 20
_cell_length_a 12.450367
_cell_length_b 13.676324
_cell_length_c 5.033801
_cell_angle_alpha 90.000000
_cell_angle_beta 82.713310
_cell_angle_gamma 90.000000
_cell_volume 850.209486
_symmetry_space_group_name_H-M "P 21/M"
_symmetry_group_IT_number 11
_symmetry_cell_setting 'monoclinic'
loop_
_space_group_symop_operation_xyz
x,y,z
-x,1/2+y,-z
-x,-y,-z
x,1/2-y,z
loop_
_atom_site_type_symbol
_atom_site_label
_atom_site_fract_x
_atom_site_fract_y
_atom_site_fract_z
Si Si1 0.420945 0.446988 0.322312
Si Si2 0.841765 0.140698 0.853643
Si Si3 0.822881 0.952894 0.493352
Si Si4 0.393660 0.855290 0.007342
Si Si5 0.072378 0.362858 0.037876
O O1 0.500000 0.500000 0.500000
O O2 0.302248 0.418944 0.457194
O O3 0.496124 0.359884 0.194782
O O4 0.398403 0.537636 0.133776
O O5 0.852278 0.250000 0.732977
O O6 0.947154 0.125661 0.999686
O O7 0.832456 0.060588 0.622667
O O8 0.729895 0.141521 0.059930
O O9 0.862964 0.932860 0.184340
O O10 0.897181 0.889897 0.671615
O O11 0.397445 0.750000 0.156319
O O12 0.102591 0.250000 0.979113
#
# Coordination Sequence:
#
# PCOD9166701 Si02
#       5
#     4   4   4   4   4
#     4  10  23  40  63  90 127 164 215 266 314 384
#     4   9  20  41  67  94 128 167 220 272 325 390
#     4  11  24  42  68  94 133 173 216 268 331 383
#     4   9  20  40  63  90 121 163 211 264 323 377
#     4  11  24  43  65  98 132 173 218 266 325 393
#
# _framework density 23.523617000000002
#
# number of rings (size 3 to 8) (size 9 to 14) (size 15 to 20)
#    0.000    2.000    0.000    1.800    8.400    2.400 
#    3.600    3.000    0.000    0.000    0.000    0.000 
#    0.000    0.000    0.000    0.000    0.000    0.000 
#
# Total GULP energy -111541.563684 kJ/mol
# GULP energy per Si atom -5577.078184 kJ/mol
# Density = 2.347008 g / cm^3
# Si number density = 23.523617 Si / 1000 Ang^3
#
#
#
# Elastic Constant Matrix: (Units=GPa)
#
#
# Indices 1 2 3 4 5 6 
#
# 1 138.8223 15.0558 -11.4204 0.0000 -11.5261 0.0000
# 2 15.0558 119.2518 -4.9606 0.0000 -18.3607 0.0000
# 3 -11.4204 -4.9606 23.1316 0.0000 0.7083 0.0000
# 4 0.0000 0.0000 0.0000 9.5735 0.0000 -4.8959
# 5 -11.5261 -18.3607 0.7083 0.0000 20.4163 0.0000
# 6 0.0000 0.0000 0.0000 -4.8959 0.0000 30.2779
#
#
#
# Elastic Compliance Matrix: (Units=1/GPa)
#
#
# Indices 1 2 3 4 5 6 
#
# 1 0.007875 -0.000203 0.003718 0.000000 0.004134 0.000000
# 2 -0.000203 0.009816 0.001740 0.000000 0.008653 0.000000
# 3 0.003718 0.001740 0.045375 0.000000 0.002089 0.000000
# 4 0.000000 0.000000 0.000000 0.113871 0.000000 0.018413
# 5 0.004134 0.008653 0.002089 0.000000 0.059023 0.000000
# 6 0.000000 0.000000 0.000000 0.018413 0.000000 0.036005
#
#
# Mechanical properties :
#
#
# Convention : Reuss Voigt Hill
#
# Bulk Modulus (GPa) = 13.59163 30.95060 22.27112
# Shear Modulus (GPa) = 17.48367 30.88895 24.18631
#
# Velocity S-wave (km/s) = 2.72920 3.62761 3.20999
# Velocity P-wave (km/s) = 3.96507 5.54363 4.81942
#
# Compressibility (1/GPa) = 0.07357469
#
# Stress axis : x y z
#
# Youngs Moduli (GPa) = 126.99141 101.87631 22.03833
#
# Poissons Ratio (x) = 0.02068 -0.08193
# Poissons Ratio (y) = 0.02578 -0.03834
# Poissons Ratio (z) = -0.47211 -0.17724
#
# Static dielectric constant tensor:
#      x y z
#    x 1.849090 0.000000 -0.126020 
#    y 0.000000 1.450510 0.000000 
#    z -0.126020 0.000000 1.898980 
# 
# From -- ./inp_files/4297.got.cif
#   From: 2010.05.17/outbox.cif.g08.bks.cpg/sg11_3_cif.got.tgz:4297.got - 2010.06.03 12:22:45.
