data_PCOD9166993
_publ_section_title
;
Structure prediction by ZEFSAII (Michael W. Deem and Ramdas Pophale) SiO2 
 PCOD9166993
Probable space group: P 21/M
;
_chemical_formula_sum "Si O2"
_cell_formula_units_Z 24
_cell_length_a 12.327972
_cell_length_b 8.327088
_cell_length_c 25.244168
_cell_angle_alpha 90.000000
_cell_angle_beta 26.083675
_cell_angle_gamma 90.000000
_cell_volume 1139.425167
_symmetry_space_group_name_H-M "P 21/M"
_symmetry_group_IT_number 11
_symmetry_cell_setting 'monoclinic'
loop_
_space_group_symop_operation_xyz
x,y,z
-x,1/2+y,-z
-x,-y,-z
x,1/2-y,z
loop_
_atom_site_type_symbol
_atom_site_label
_atom_site_fract_x
_atom_site_fract_y
_atom_site_fract_z
Si Si1 0.889382 0.436538 0.993159
Si Si2 0.364834 0.563103 0.197210
Si Si3 0.665355 0.060573 0.262624
Si Si4 0.318013 0.557142 0.626452
Si Si5 0.252275 0.557591 0.364726
Si Si6 0.754781 0.935418 0.862194
O O1 0.820864 0.250000 0.028866
O O2 0.095946 0.459820 0.858123
O O3 0.655472 0.539824 0.078789
O O4 0.000000 0.500000 0.000000
O O5 0.308196 0.750000 0.211199
O O6 0.253167 0.514417 0.302522
O O7 0.279924 0.458400 0.185306
O O8 0.726957 0.250000 0.234646
O O9 0.579131 0.019952 0.359851
O O10 0.466954 0.024090 0.304438
O O11 0.500000 0.500000 0.500000
O O12 0.305412 0.750000 0.626681
O O13 0.031400 0.496484 0.751903
O O14 0.284361 0.750000 0.353830
O O15 0.000000 0.500000 0.500000
O O16 0.764095 0.750000 0.874099
O O17 0.500000 0.000000 0.000000
#
# Coordination Sequence:
#
# PCOD9166993 Si02
#       6
#     4   4   4   4   4   4
#     4  12  23  38  63  96 130 168 210 259 322 386
#     4  11  24  42  65  95 131 170 215 268 324 387
#     4  11  23  42  67  95 131 168 212 268 323 389
#     4  10  25  45  67  97 131 171 219 271 328 388
#     4  11  25  42  63  92 129 171 216 266 325 388
#     4  11  24  44  69  99 133 175 223 275 332 396
#
# _framework density 21.063253
#
# number of rings (size 3 to 8) (size 9 to 14) (size 15 to 20)
#    0.000    1.000    1.667    4.500    2.333    6.000 
#    0.000    0.000    0.000    0.000    0.000    0.000 
#    0.000    0.000    0.000    0.000    0.000    0.000 
#
# Total GULP energy -134137.391195 kJ/mol
# GULP energy per Si atom -5589.057966 kJ/mol
# Density = 2.101531 g / cm^3
# Si number density = 21.063253 Si / 1000 Ang^3
#
#
#
# Elastic Constant Matrix: (Units=GPa)
#
#
# Indices 1 2 3 4 5 6 
#
# 1 65.3871 9.8976 14.1209 0.0000 18.0646 0.0000
# 2 9.8976 39.2812 17.6900 0.0000 12.7436 0.0000
# 3 14.1209 17.6900 123.9930 0.0000 18.9657 0.0000
# 4 0.0000 0.0000 0.0000 36.8937 0.0000 5.1199
# 5 18.0646 12.7436 18.9657 0.0000 36.4356 0.0000
# 6 0.0000 0.0000 0.0000 5.1199 0.0000 27.8537
#
#
#
# Elastic Compliance Matrix: (Units=1/GPa)
#
#
# Indices 1 2 3 4 5 6 
#
# 1 0.017874 -0.001653 -0.000579 0.000000 -0.007982 0.000000
# 2 -0.001653 0.029780 -0.002817 0.000000 -0.008130 0.000000
# 3 -0.000579 -0.002817 0.009059 0.000000 -0.003444 0.000000
# 4 0.000000 0.000000 0.000000 0.027814 0.000000 -0.005113
# 5 -0.007982 -0.008130 -0.003444 0.000000 0.036039 0.000000
# 6 0.000000 0.000000 0.000000 -0.005113 0.000000 0.036842
#
#
# Mechanical properties :
#
#
# Convention : Reuss Voigt Hill
#
# Bulk Modulus (GPa) = 21.45207 34.67538 28.06372
# Shear Modulus (GPa) = 27.31560 32.70012 30.00786
#
# Velocity S-wave (km/s) = 3.60507 3.94442 3.77855
# Velocity P-wave (km/s) = 5.24742 6.10269 5.69114
#
# Compressibility (1/GPa) = 0.04661555
#
# Stress axis : x y z
#
# Youngs Moduli (GPa) = 55.94690 33.57942 110.38164
#
# Poissons Ratio (x) = 0.05552 0.06388
# Poissons Ratio (y) = 0.09250 0.31094
# Poissons Ratio (z) = 0.03238 0.09459
#
# Static dielectric constant tensor:
#      x y z
#    x 1.763960 0.000000 -0.001730 
#    y 0.000000 1.744420 0.000000 
#    z -0.001730 0.000000 1.805490 
# 
# From -- ./inp_files/68371.got.cif
#   From: 2010.05.17/outbox.cif.g08.bks.cpg/sg11_35_cif.got.tgz:68371.got - 2010.06.03 12:22:45.
