data_PCOD9166579
_publ_section_title
;
Structure prediction by ZEFSAII (Michael W. Deem and Ramdas Pophale) SiO2 
 PCOD9166579
Probable space group: P 21/M
;
_chemical_formula_sum "Si O2"
_cell_formula_units_Z 32
_cell_length_a 9.187495
_cell_length_b 23.303839
_cell_length_c 16.582131
_cell_angle_alpha 90.000000
_cell_angle_beta 153.165354
_cell_angle_gamma 90.000000
_cell_volume 1602.666004
_symmetry_space_group_name_H-M "P 21/M"
_symmetry_group_IT_number 11
_symmetry_cell_setting 'monoclinic'
loop_
_space_group_symop_operation_xyz
x,y,z
-x,1/2+y,-z
-x,-y,-z
x,1/2-y,z
loop_
_atom_site_type_symbol
_atom_site_label
_atom_site_fract_x
_atom_site_fract_y
_atom_site_fract_z
Si Si1 0.878406 0.484868 0.689812
Si Si2 0.265084 0.405186 0.769025
Si Si3 0.453371 0.316276 0.497077
Si Si4 0.223157 0.816328 0.521177
Si Si5 0.758334 0.897922 0.844997
Si Si6 0.625587 0.515473 0.316870
Si Si7 0.900688 0.393781 0.161739
Si Si8 0.767045 0.404265 0.773667
O O1 0.500000 0.500000 0.500000
O O2 0.946780 0.450246 0.805557
O O3 0.981452 0.441579 0.670713
O O4 0.067559 0.544315 0.780773
O O5 0.442892 0.450656 0.799471
O O6 0.101704 0.353796 0.639307
O O7 0.526258 0.381503 0.960942
O O8 0.416523 0.250000 0.501437
O O9 0.641486 0.318377 0.504169
O O10 0.650403 0.352493 0.660150
O O11 0.109878 0.347198 0.312934
O O12 0.178953 0.750000 0.521247
O O13 0.485910 0.848984 0.705229
O O14 0.927202 0.898466 0.840903
O O15 0.588832 0.959192 0.776642
O O16 0.012283 0.887480 0.041842
O O17 0.538802 0.560620 0.343527
O O18 0.000000 0.500000 0.500000
#
# Coordination Sequence:
#
# PCOD9166579 Si02
#       8
#     4   4   4   4   4   4   4   4
#     4  12  21  39  64  94 128 166 205 255 315 379
#     4  12  23  39  62  99 124 165 209 255 314 377
#     4  10  23  43  66  88 119 170 218 256 306 367
#     4  10  22  43  65  87 121 168 216 257 306 373
#     4  11  22  40  63  93 127 167 203 250 323 379
#     4  12  23  38  64  95 136 162 198 254 325 379
#     4  11  22  39  64  93 129 164 207 253 315 380
#     4  12  22  40  66  92 131 162 202 264 311 373
#
# _framework density 19.966730999999999
#
# number of rings (size 3 to 8) (size 9 to 14) (size 15 to 20)
#    0.000    0.750    6.250    3.000    0.000    1.000 
#    0.000    0.625    0.000    0.000    0.000    0.000 
#    0.000    0.000    0.000    0.000    0.000    0.000 
#
# Total GULP energy -178904.306880 kJ/mol
# GULP energy per Si atom -5590.759590 kJ/mol
# Density = 1.992129 g / cm^3
# Si number density = 19.966731 Si / 1000 Ang^3
#
#
#
# Elastic Constant Matrix: (Units=GPa)
#
#
# Indices 1 2 3 4 5 6 
#
# 1 38.3072 21.6926 1.3560 0.0000 -3.0378 0.0000
# 2 21.6926 154.4023 64.7498 0.0000 -3.2016 0.0000
# 3 1.3560 64.7498 130.3466 0.0000 0.2509 0.0000
# 4 0.0000 0.0000 0.0000 12.3795 0.0000 -9.4361
# 5 -3.0378 -3.2016 0.2509 0.0000 28.5833 0.0000
# 6 0.0000 0.0000 0.0000 -9.4361 0.0000 21.2010
#
#
#
# Elastic Compliance Matrix: (Units=1/GPa)
#
#
# Indices 1 2 3 4 5 6 
#
# 1 0.029015 -0.004921 0.002138 0.000000 0.002514 0.000000
# 2 -0.004921 0.009041 -0.004441 0.000000 0.000529 0.000000
# 3 0.002138 -0.004441 0.009856 0.000000 -0.000357 0.000000
# 4 0.000000 0.000000 0.000000 0.122253 0.000000 0.054412
# 5 0.002514 0.000529 -0.000357 0.000000 0.035315 0.000000
# 6 0.000000 0.000000 0.000000 0.054412 0.000000 0.071385
#
#
# Mechanical properties :
#
#
# Convention : Reuss Voigt Hill
#
# Bulk Modulus (GPa) = 29.88255 55.40589 42.64422
# Shear Modulus (GPa) = 16.53063 28.11660 22.32361
#
# Velocity S-wave (km/s) = 2.88046 3.75663 3.34734
# Velocity P-wave (km/s) = 5.10504 6.82830 6.02856
#
# Compressibility (1/GPa) = 0.03346435
#
# Stress axis : x y z
#
# Youngs Moduli (GPa) = 34.46501 110.60352 101.45661
#
# Poissons Ratio (x) = 0.54426 -0.21689
# Poissons Ratio (y) = 0.16959 0.45058
# Poissons Ratio (z) = -0.07368 0.49120
#
# Static dielectric constant tensor:
#      x y z
#    x 1.748770 0.000000 -0.006760 
#    y 0.000000 1.676180 0.000000 
#    z -0.006760 0.000000 1.713240 
# 
# From -- ./inp_files/48472.got.cif
#   From: 2010.05.17/outbox.cif.g08.bks.cpg/sg11_25_cif.got.tgz:48472.got - 2010.06.03 12:22:45.
