data_PCOD9166388
_publ_section_title
;
Structure prediction by ZEFSAII (Michael W. Deem and Ramdas Pophale) SiO2 
 PCOD9166388
Probable space group: P 21/M
;
_chemical_formula_sum "Si O2"
_cell_formula_units_Z 24
_cell_length_a 10.508592
_cell_length_b 10.936860
_cell_length_c 24.446113
_cell_angle_alpha 90.000000
_cell_angle_beta 24.863272
_cell_angle_gamma 90.000000
_cell_volume 1181.315183
_symmetry_space_group_name_H-M "P 21/M"
_symmetry_group_IT_number 11
_symmetry_cell_setting 'monoclinic'
loop_
_space_group_symop_operation_xyz
x,y,z
-x,1/2+y,-z
-x,-y,-z
x,1/2-y,z
loop_
_atom_site_type_symbol
_atom_site_label
_atom_site_fract_x
_atom_site_fract_y
_atom_site_fract_z
Si Si1 0.421962 0.250000 0.091714
Si Si2 0.624142 0.250000 0.889372
Si Si3 0.280859 0.250000 0.593419
Si Si4 0.681316 0.953318 0.714936
Si Si5 0.296069 0.608838 0.762319
Si Si6 0.242509 0.112659 0.500469
Si Si7 0.041409 0.750000 0.641508
Si Si8 0.331929 0.004904 0.954962
O O1 0.565976 0.375657 0.058735
O O2 0.079554 0.250000 0.248746
O O3 0.474875 0.250000 0.007021
O O4 0.519693 0.124208 0.901251
O O5 0.988478 0.250000 0.745451
O O6 0.265168 0.134717 0.556905
O O7 0.599684 0.250000 0.499018
O O8 0.542263 0.897411 0.714790
O O9 0.889525 0.862877 0.669574
O O10 0.407049 0.993410 0.861398
O O11 0.922621 0.058168 0.608564
O O12 0.194060 0.750000 0.794654
O O13 0.462182 0.556399 0.643364
O O14 0.009010 0.531938 0.893990
O O15 0.248608 0.250000 0.475201
#
# Coordination Sequence:
#
# PCOD9166388 Si02
#       8
#     2   2   2   4   4   4   2   4
#     4  10  26  42  60  97 131 166 212 265 313 370
#     4  12  22  43  67  92 132 170 211 257 317 376
#     4  10  22  41  60  95 119 165 213 260 307 383
#     4  11  21  43  60  93 128 162 208 259 318 371
#     4  11  22  39  68  93 124 168 212 257 317 380
#     4   9  21  39  59  91 124 158 216 249 309 374
#     4  10  24  38  65  88 126 165 204 266 309 375
#     4  11  23  43  65  95 129 166 212 261 317 378
#
# _framework density 20.316338999999999
#
# number of rings (size 3 to 8) (size 9 to 14) (size 15 to 20)
#    0.500    1.000    3.333    1.500    2.333    2.000 
#    1.500    0.000    0.000    0.000    0.000    0.000 
#    0.000    0.000    0.000    0.000    0.000    0.000 
#
# Total GULP energy -133827.571886 kJ/mol
# GULP energy per Si atom -5576.148829 kJ/mol
# Density = 2.027010 g / cm^3
# Si number density = 20.316339 Si / 1000 Ang^3
#
#
#
# Elastic Constant Matrix: (Units=GPa)
#
#
# Indices 1 2 3 4 5 6 
#
# 1 38.1492 3.5624 6.2468 0.0000 -1.7266 0.0000
# 2 3.5624 71.2404 2.3652 0.0000 -6.1810 0.0000
# 3 6.2468 2.3652 82.4123 0.0000 -11.4754 0.0000
# 4 0.0000 0.0000 0.0000 12.7869 0.0000 2.7972
# 5 -1.7266 -6.1810 -11.4754 0.0000 33.1717 0.0000
# 6 0.0000 0.0000 0.0000 2.7972 0.0000 15.3097
#
#
#
# Elastic Compliance Matrix: (Units=1/GPa)
#
#
# Indices 1 2 3 4 5 6 
#
# 1 0.026664 -0.001227 -0.001917 0.000000 0.000496 0.000000
# 2 -0.001227 0.014324 0.000047 0.000000 0.002621 0.000000
# 3 -0.001917 0.000047 0.012886 0.000000 0.004367 0.000000
# 4 0.000000 0.000000 0.000000 0.081461 0.000000 -0.014884
# 5 0.000496 0.002621 0.004367 0.000000 0.032171 0.000000
# 6 0.000000 0.000000 0.000000 -0.014884 0.000000 0.068037
#
#
# Mechanical properties :
#
#
# Convention : Reuss Voigt Hill
#
# Bulk Modulus (GPa) = 20.97272 24.01674 22.49473
# Shear Modulus (GPa) = 19.40767 24.22883 21.81825
#
# Velocity S-wave (km/s) = 3.09410 3.45712 3.28064
# Velocity P-wave (km/s) = 4.80730 5.27092 5.04444
#
# Compressibility (1/GPa) = 0.04768099
#
# Stress axis : x y z
#
# Youngs Moduli (GPa) = 37.50411 69.81188 77.60301
#
# Poissons Ratio (x) = 0.08563 0.14875
# Poissons Ratio (y) = 0.04600 -0.00364
# Poissons Ratio (z) = 0.07189 -0.00327
#
# Static dielectric constant tensor:
#      x y z
#    x 1.699970 0.000000 0.027610 
#    y 0.000000 2.219150 0.000000 
#    z 0.027610 0.000000 1.737400 
# 
# From -- ./inp_files/71406.got.cif
#   From: 2010.05.17/outbox.cif.g08.bks.cpg/sg11_36_cif.got.tgz:71406.got - 2010.06.03 12:22:45.
