data_PCOD9166908
_publ_section_title
;
Structure prediction by ZEFSAII (Michael W. Deem and Ramdas Pophale) SiO2 
 PCOD9166908
Probable space group: P 21/M
;
_chemical_formula_sum "Si O2"
_cell_formula_units_Z 28
_cell_length_a 5.587718
_cell_length_b 27.490398
_cell_length_c 8.676580
_cell_angle_alpha 90.000000
_cell_angle_beta 55.405345
_cell_angle_gamma 90.000000
_cell_volume 1097.144473
_symmetry_space_group_name_H-M "P 21/M"
_symmetry_group_IT_number 11
_symmetry_cell_setting 'monoclinic'
loop_
_space_group_symop_operation_xyz
x,y,z
-x,1/2+y,-z
-x,-y,-z
x,1/2-y,z
loop_
_atom_site_type_symbol
_atom_site_label
_atom_site_fract_x
_atom_site_fract_y
_atom_site_fract_z
Si Si1 0.878960 0.339590 0.289763
Si Si2 0.453980 0.750000 0.436236
Si Si3 0.348613 0.996238 0.386676
Si Si4 0.557441 0.845701 0.062599
Si Si5 0.664833 0.415923 0.105522
Si Si6 0.030509 0.250000 0.595484
Si Si7 0.964558 0.645931 0.442998
Si Si8 0.732053 0.590916 0.257691
O O1 0.675500 0.296638 0.427565
O O2 0.748816 0.374996 0.204527
O O3 0.934446 0.371048 0.425936
O O4 0.180799 0.316943 0.113658
O O5 0.801245 0.750000 0.304977
O O6 0.309657 0.750000 0.320550
O O7 0.470408 0.943213 0.298490
O O8 0.500000 0.000000 0.500000
O O9 0.499770 0.037970 0.232032
O O10 0.000000 0.000000 0.500000
O O11 0.530826 0.890550 0.952791
O O12 0.218363 0.838741 0.227907
O O13 0.683832 0.859550 0.182501
O O14 0.967171 0.431393 0.913840
O O15 0.150359 0.200138 0.476933
O O16 0.775492 0.606873 0.419017
#
# Coordination Sequence:
#
# PCOD9166908 Si02
#       8
#     4   2   4   4   4   2   4   4
#     4  10  24  44  75 104 147 191 243 298 365 428
#     4  10  24  43  69 111 144 193 241 295 363 430
#     4  12  31  45  74 114 139 189 251 300 372 440
#     4  10  24  42  72 104 138 198 236 294 368 420
#     4  10  25  48  71 103 146 194 241 302 365 437
#     4  10  24  43  69 111 144 193 241 295 363 430
#     4  10  24  44  75 104 147 191 243 298 365 428
#     4  10  25  48  71 103 146 194 241 302 365 437
#
# _framework density 25.520797999999999
#
# number of rings (size 3 to 8) (size 9 to 14) (size 15 to 20)
#    0.000    1.714    0.000    0.429   20.000    1.143 
#    0.000    6.429    0.000    0.000    0.000    0.000 
#    0.000    0.000    0.000    0.000    0.000    0.000 
#
# Total GULP energy -156206.780920 kJ/mol
# GULP energy per Si atom -5578.813604 kJ/mol
# Density = 2.546271 g / cm^3
# Si number density = 25.520798 Si / 1000 Ang^3
#
#
#
# Elastic Constant Matrix: (Units=GPa)
#
#
# Indices 1 2 3 4 5 6 
#
# 1 162.8619 6.5540 34.2022 0.0000 -1.2825 0.0000
# 2 6.5540 76.7612 28.0068 0.0000 -0.1877 0.0000
# 3 34.2022 28.0068 113.7734 0.0000 -10.9149 0.0000
# 4 0.0000 0.0000 0.0000 25.2934 0.0000 6.0592
# 5 -1.2825 -0.1877 -10.9149 0.0000 64.7310 0.0000
# 6 0.0000 0.0000 0.0000 6.0592 0.0000 24.1682
#
#
#
# Elastic Compliance Matrix: (Units=1/GPa)
#
#
# Indices 1 2 3 4 5 6 
#
# 1 0.006559 0.000183 -0.002037 0.000000 -0.000213 0.000000
# 2 0.000183 0.014338 -0.003639 0.000000 -0.000568 0.000000
# 3 -0.002037 -0.003639 0.010462 0.000000 0.001713 0.000000
# 4 0.000000 0.000000 0.000000 0.042062 0.000000 -0.010545
# 5 -0.000213 -0.000568 0.001713 0.000000 0.015732 0.000000
# 6 0.000000 0.000000 0.000000 -0.010545 0.000000 0.044020
#
#
# Mechanical properties :
#
#
# Convention : Reuss Voigt Hill
#
# Bulk Modulus (GPa) = 49.08643 54.54695 51.81669
# Shear Modulus (GPa) = 33.12339 41.81410 37.46874
#
# Velocity S-wave (km/s) = 3.60654 4.05215 3.83582
# Velocity P-wave (km/s) = 6.05132 6.58127 6.32185
#
# Compressibility (1/GPa) = 0.02037223
#
# Stress axis : x y z
#
# Youngs Moduli (GPa) = 152.46331 69.74407 95.58457
#
# Poissons Ratio (x) = -0.01274 0.19472
# Poissons Ratio (y) = -0.02786 0.34783
# Poissons Ratio (z) = 0.31059 0.25380
#
# Static dielectric constant tensor:
#      x y z
#    x 2.152270 0.000000 -0.069160 
#    y 0.000000 2.182260 0.000000 
#    z -0.069160 0.000000 2.071690 
# 
# From -- ./inp_files/10808.got.cif
#   From: 2010.05.17/outbox.cif.g08.bks.cpg/sg11_6_cif.got.tgz:10808.got - 2010.06.03 12:22:45.
