data_PCOD9166299
_publ_section_title
;
Structure prediction by ZEFSAII (Michael W. Deem and Ramdas Pophale) SiO2 
 PCOD9166299
Probable space group: P 21/M
;
_chemical_formula_sum "Si O2"
_cell_formula_units_Z 20
_cell_length_a 4.825017
_cell_length_b 24.661686
_cell_length_c 8.416961
_cell_angle_alpha 90.000000
_cell_angle_beta 115.131370
_cell_angle_gamma 90.000000
_cell_volume 906.748641
_symmetry_space_group_name_H-M "P 21/M"
_symmetry_group_IT_number 11
_symmetry_cell_setting 'monoclinic'
loop_
_space_group_symop_operation_xyz
x,y,z
-x,1/2+y,-z
-x,-y,-z
x,1/2-y,z
loop_
_atom_site_type_symbol
_atom_site_label
_atom_site_fract_x
_atom_site_fract_y
_atom_site_fract_z
Si Si1 0.735794 0.472751 0.679143
Si Si2 0.495347 0.601081 0.090945
Si Si3 0.740654 0.127774 0.480678
Si Si4 0.165742 0.417628 0.144190
Si Si5 0.677668 0.686112 0.380422
O O1 0.500000 0.500000 0.500000
O O2 0.570087 0.442087 0.784315
O O3 0.875044 0.425361 0.603231
O O4 0.908648 0.524250 0.793965
O O5 0.630965 0.655345 0.201968
O O6 0.711460 0.577747 0.006166
O O7 0.156423 0.613021 0.939018
O O8 0.452966 0.109078 0.305419
O O9 0.606072 0.168117 0.580415
O O10 0.020154 0.158862 0.469034
O O11 0.704248 0.750000 0.372911
#
# Coordination Sequence:
#
# PCOD9166299 Si02
#       5
#     4   4   4   4   4
#     4   9  20  37  60  89 124 162 195 232 287 359
#     4  11  22  38  60  90 122 156 197 242 295 350
#     4  10  22  40  62  88 115 154 202 240 289 359
#     4  11  22  38  60  91 126 152 188 245 300 352
#     4  11  23  43  63  82 113 158 203 247 293 348
#
# _framework density 22.056829
#
# number of rings (size 3 to 8) (size 9 to 14) (size 15 to 20)
#    0.000    1.600    0.000    5.400    0.000    3.200 
#    0.000   23.000    0.000    0.000    0.000    0.000 
#    0.000    0.000    0.000    0.000    0.000    0.000 
#
# Total GULP energy -111800.613181 kJ/mol
# GULP energy per Si atom -5590.030659 kJ/mol
# Density = 2.200663 g / cm^3
# Si number density = 22.056829 Si / 1000 Ang^3
#
#
#
# Elastic Constant Matrix: (Units=GPa)
#
#
# Indices 1 2 3 4 5 6 
#
# 1 77.0586 0.4471 9.6485 0.0000 20.5963 0.0000
# 2 0.4471 117.1986 40.7382 0.0000 19.1452 0.0000
# 3 9.6485 40.7382 106.5971 0.0000 15.5963 0.0000
# 4 0.0000 0.0000 0.0000 17.8371 0.0000 4.8211
# 5 20.5963 19.1452 15.5963 0.0000 36.9710 0.0000
# 6 0.0000 0.0000 0.0000 4.8211 0.0000 17.8278
#
#
#
# Elastic Compliance Matrix: (Units=1/GPa)
#
#
# Indices 1 2 3 4 5 6 
#
# 1 0.015521 0.001692 -0.000701 0.000000 -0.009227 0.000000
# 2 0.001692 0.010534 -0.003456 0.000000 -0.004940 0.000000
# 3 -0.000701 -0.003456 0.011134 0.000000 -0.002516 0.000000
# 4 0.000000 0.000000 0.000000 0.060484 0.000000 -0.016356
# 5 -0.009227 -0.004940 -0.002516 0.000000 0.035808 0.000000
# 6 0.000000 0.000000 0.000000 -0.016356 0.000000 0.060516
#
#
# Mechanical properties :
#
#
# Convention : Reuss Voigt Hill
#
# Bulk Modulus (GPa) = 31.00038 44.72466 37.86252
# Shear Modulus (GPa) = 23.84571 31.19519 27.52045
#
# Velocity S-wave (km/s) = 3.29158 3.76481 3.53612
# Velocity P-wave (km/s) = 5.34147 6.26254 5.82025
#
# Compressibility (1/GPa) = 0.03225767
#
# Stress axis : x y z
#
# Youngs Moduli (GPa) = 64.42725 94.92687 89.81775
#
# Poissons Ratio (x) = -0.16061 0.06301
# Poissons Ratio (y) = -0.10901 0.31044
# Poissons Ratio (z) = 0.04519 0.32810
#
# Static dielectric constant tensor:
#      x y z
#    x 1.807330 0.000000 0.015080 
#    y 0.000000 1.762010 0.000000 
#    z 0.015080 0.000000 1.874570 
# 
# From -- ./inp_files/2575.got.cif
#   From: 2010.05.17/outbox.cif.g08.bks.cpg/sg11_2_cif.got.tgz:2575.got - 2010.06.03 12:22:45.
