data_PCOD9166641
_publ_section_title
;
Structure prediction by ZEFSAII (Michael W. Deem and Ramdas Pophale) SiO2 
 PCOD9166641
Probable space group: P 21/M
;
_chemical_formula_sum "Si O2"
_cell_formula_units_Z 22
_cell_length_a 6.382955
_cell_length_b 20.599687
_cell_length_c 11.321433
_cell_angle_alpha 90.000000
_cell_angle_beta 140.815995
_cell_angle_gamma 90.000000
_cell_volume 940.529283
_symmetry_space_group_name_H-M "P 21/M"
_symmetry_group_IT_number 11
_symmetry_cell_setting 'monoclinic'
loop_
_space_group_symop_operation_xyz
x,y,z
-x,1/2+y,-z
-x,-y,-z
x,1/2-y,z
loop_
_atom_site_type_symbol
_atom_site_label
_atom_site_fract_x
_atom_site_fract_y
_atom_site_fract_z
Si Si1 0.685098 0.250000 0.571027
Si Si2 0.749145 0.126348 0.950604
Si Si3 0.530875 0.750000 0.044608
Si Si4 0.810547 0.551662 0.998705
Si Si5 0.101364 0.533726 0.764992
Si Si6 0.256874 0.750000 0.670715
Si Si7 0.708761 0.861608 0.465305
O O1 0.584328 0.250000 0.389385
O O2 0.538445 0.313800 0.571403
O O3 0.083550 0.250000 0.752117
O O4 0.663090 0.190914 0.981272
O O5 0.453420 0.117052 0.728439
O O6 0.073322 0.119105 0.008360
O O7 0.785863 0.076630 0.073714
O O8 0.489680 0.750000 0.886268
O O9 0.931210 0.536432 0.185975
O O10 0.420551 0.538760 0.820563
O O11 0.000000 0.500000 0.000000
O O12 0.804469 0.573003 0.577015
O O13 0.023830 0.814398 0.580068
#
# Coordination Sequence:
#
# PCOD9166641 Si02
#       7
#     2   4   2   4   4   2   4
#     4  11  26  43  62  98 138 172 218 275 325 397
#     4  11  23  42  67  99 134 172 216 273 331 390
#     4  12  23  44  64  93 137 173 215 270 330 393
#     4   9  22  44  69  96 132 175 222 270 324 391
#     4  10  22  45  66  96 134 172 221 273 327 389
#     4  11  23  43  60  91 131 175 217 275 329 396
#     4  11  24  41  65 100 130 168 226 269 331 398
#
# _framework density 23.391083999999999
#
# number of rings (size 3 to 8) (size 9 to 14) (size 15 to 20)
#    0.000    1.455    3.636    0.545    2.545    5.091 
#    0.000    9.091    0.000    0.000    0.000    0.000 
#    0.000    0.000    0.000    0.000    0.000    0.000 
#
# Total GULP energy -122869.650410 kJ/mol
# GULP energy per Si atom -5584.984110 kJ/mol
# Density = 2.333785 g / cm^3
# Si number density = 23.391084 Si / 1000 Ang^3
#
#
#
# Elastic Constant Matrix: (Units=GPa)
#
#
# Indices 1 2 3 4 5 6 
#
# 1 108.6731 30.4354 32.8886 0.0000 -3.8704 0.0000
# 2 30.4354 28.6323 16.4576 0.0000 -5.6101 0.0000
# 3 32.8886 16.4576 81.5715 0.0000 -33.6359 0.0000
# 4 0.0000 0.0000 0.0000 16.0704 0.0000 19.5493
# 5 -3.8704 -5.6101 -33.6359 0.0000 43.8932 0.0000
# 6 0.0000 0.0000 0.0000 19.5493 0.0000 9.9206
#
#
#
# Elastic Compliance Matrix: (Units=1/GPa)
#
#
# Indices 1 2 3 4 5 6 
#
# 1 0.014169 -0.013134 -0.004737 0.000000 -0.004059 0.000000
# 2 -0.013134 0.051754 -0.004234 0.000000 0.002212 0.000000
# 3 -0.004737 -0.004234 0.021385 0.000000 0.015429 0.000000
# 4 0.000000 0.000000 0.000000 -0.044538 0.000000 0.087765
# 5 -0.004059 0.002212 0.015429 0.000000 0.034531 0.000000
# 6 0.000000 0.000000 0.000000 0.087765 0.000000 -0.072147
#
#
# Mechanical properties :
#
#
# Convention : Reuss Voigt Hill
#
# Bulk Modulus (GPa) = 23.20260 42.04889 32.62575
# Shear Modulus (GPa) = 78.45480 23.24986 50.85233
#
# Velocity S-wave (km/s) = 5.79770 3.15614 4.66768
# Velocity P-wave (km/s) = 7.39991 5.59438 6.55956
#
# Compressibility (1/GPa) = 0.04309862
#
# Stress axis : x y z
#
# Youngs Moduli (GPa) = 70.57524 19.32220 46.76103
#
# Poissons Ratio (x) = 0.25378 0.22149
# Poissons Ratio (y) = 0.92695 0.19799
# Poissons Ratio (z) = 0.33430 0.08181
#
# Static dielectric constant tensor:
#      x y z
#    x 1.911490 0.000000 0.028510 
#    y 0.000000 2.270590 0.000000 
#    z 0.028510 0.000000 1.863230 
# 
# From -- ./inp_files/30230.got.cif
#   From: 2010.05.17/outbox.cif.g08.bks.cpg/sg11_16_cif.got.tgz:30230.got - 2010.06.03 12:22:45.
