data_PCOD9166445
_publ_section_title
;
Structure prediction by ZEFSAII (Michael W. Deem and Ramdas Pophale) SiO2 
 PCOD9166445
Probable space group: P 21/M
;
_chemical_formula_sum "Si O2"
_cell_formula_units_Z 24
_cell_length_a 5.210827
_cell_length_b 23.062477
_cell_length_c 8.337078
_cell_angle_alpha 90.000000
_cell_angle_beta 103.541545
_cell_angle_gamma 90.000000
_cell_volume 974.052270
_symmetry_space_group_name_H-M "P 21/M"
_symmetry_group_IT_number 11
_symmetry_cell_setting 'monoclinic'
loop_
_space_group_symop_operation_xyz
x,y,z
-x,1/2+y,-z
-x,-y,-z
x,1/2-y,z
loop_
_atom_site_type_symbol
_atom_site_label
_atom_site_fract_x
_atom_site_fract_y
_atom_site_fract_z
Si Si1 0.992668 0.530316 0.670475
Si Si2 0.730176 0.644260 0.531152
Si Si3 0.060396 0.187482 0.764484
Si Si4 0.851166 0.842663 0.878024
Si Si5 0.322810 0.577690 0.282928
Si Si6 0.609064 0.089100 0.063700
O O1 0.950391 0.596864 0.609796
O O2 0.784097 0.487078 0.721488
O O3 0.000000 0.500000 0.500000
O O4 0.235179 0.536591 0.829199
O O5 0.772228 0.679390 0.373785
O O6 0.738450 0.682077 0.694141
O O7 0.495168 0.599513 0.457340
O O8 0.916182 0.250000 0.726573
O O9 0.899037 0.127702 0.750603
O O10 0.193011 0.189415 0.959508
O O11 0.653389 0.897072 0.875372
O O12 0.161623 0.860012 0.911086
O O13 0.466877 0.581596 0.132962
#
# Coordination Sequence:
#
# PCOD9166445 Si02
#       6
#     4   4   4   4   4   4
#     4  11  21  38  66 102 142 179 222 280 349 421
#     4  11  23  42  71  97 137 178 227 282 346 417
#     4  11  25  46  67  95 132 181 233 288 340 402
#     4  10  23  44  68  96 136 174 225 280 337 403
#     4  11  22  42  66 101 139 181 229 281 347 417
#     4  10  22  41  65 100 137 181 220 273 339 409
#
# _framework density 24.639337999999999
#
# number of rings (size 3 to 8) (size 9 to 14) (size 15 to 20)
#    0.000    1.333    3.333    2.000    2.333    2.667 
#    0.000    5.833    0.000    0.000    0.000    0.000 
#    0.000    0.000    0.000    0.000    0.000    0.000 
#
# Total GULP energy -133632.785927 kJ/mol
# GULP energy per Si atom -5568.032747 kJ/mol
# Density = 2.458326 g / cm^3
# Si number density = 24.639338 Si / 1000 Ang^3
#
#
#
# Elastic Constant Matrix: (Units=GPa)
#
#
# Indices 1 2 3 4 5 6 
#
# 1 48.5612 16.7185 5.9761 0.0000 -2.3657 0.0000
# 2 16.7185 109.9339 33.6269 0.0000 -9.3563 0.0000
# 3 5.9761 33.6269 162.3642 0.0000 -14.2508 0.0000
# 4 0.0000 0.0000 0.0000 -33.2715 0.0000 14.8964
# 5 -2.3657 -9.3563 -14.2508 0.0000 30.6264 0.0000
# 6 0.0000 0.0000 0.0000 14.8964 0.0000 -42.1380
#
#
#
# Elastic Compliance Matrix: (Units=1/GPa)
#
#
# Indices 1 2 3 4 5 6 
#
# 1 0.021745 -0.003228 -0.000074 0.000000 0.000659 0.000000
# 2 -0.003228 0.010324 -0.001840 0.000000 0.002049 0.000000
# 3 -0.000074 -0.001840 0.006769 0.000000 0.002582 0.000000
# 4 0.000000 0.000000 0.000000 -0.035707 0.000000 -0.012623
# 5 0.000659 0.002049 0.002582 0.000000 0.034530 0.000000
# 6 0.000000 0.000000 0.000000 -0.012623 0.000000 -0.028194
#
#
# Mechanical properties :
#
#
# Convention : Reuss Voigt Hill
#
# Bulk Modulus (GPa) = 35.01975 48.16693 41.59334
# Shear Modulus (GPa) = 170.82731 8.67925 89.75328
#
# Velocity S-wave (km/s) = 8.33556 1.87887 6.04201
# Velocity P-wave (km/s) = 10.33857 4.92931 8.09889
#
# Compressibility (1/GPa) = 0.02855531
#
# Stress axis : x y z
#
# Youngs Moduli (GPa) = 45.98723 96.85801 147.72459
#
# Poissons Ratio (x) = 0.31268 0.01092
# Poissons Ratio (y) = 0.14846 0.27176
# Poissons Ratio (z) = 0.00340 0.17818
#
# Static dielectric constant tensor:
#      x y z
#    x 2.046220 0.000000 -0.005890 
#    y 0.000000 2.046240 0.000000 
#    z -0.005890 0.000000 2.111730 
# 
# From -- ./inp_files/10464.got.cif
#   From: 2010.05.17/outbox.cif.g08.bks.cpg/sg11_6_cif.got.tgz:10464.got - 2010.06.03 12:22:45.
