data_PCOD9166913
_publ_section_title
;
Structure prediction by ZEFSAII (Michael W. Deem and Ramdas Pophale) SiO2 
 PCOD9166913
Probable space group: P 21/M
;
_chemical_formula_sum "Si O2"
_cell_formula_units_Z 22
_cell_length_a 12.339519
_cell_length_b 9.370713
_cell_length_c 11.304692
_cell_angle_alpha 90.000000
_cell_angle_beta 43.076915
_cell_angle_gamma 90.000000
_cell_volume 892.765274
_symmetry_space_group_name_H-M "P 21/M"
_symmetry_group_IT_number 11
_symmetry_cell_setting 'monoclinic'
loop_
_space_group_symop_operation_xyz
x,y,z
-x,1/2+y,-z
-x,-y,-z
x,1/2-y,z
loop_
_atom_site_type_symbol
_atom_site_label
_atom_site_fract_x
_atom_site_fract_y
_atom_site_fract_z
Si Si1 0.587199 0.420062 0.824100
Si Si2 0.861102 0.250000 0.816925
Si Si3 0.250147 0.250000 0.614716
Si Si4 0.315326 0.981751 0.870123
Si Si5 0.873013 0.967888 0.462679
Si Si6 0.407041 0.750000 0.601884
Si Si7 0.891737 0.750000 0.046987
Si Si8 0.865449 0.250000 0.336747
O O1 0.615439 0.250000 0.826800
O O2 0.467373 0.444357 0.810370
O O3 0.753638 0.497671 0.664078
O O4 0.500000 0.500000 0.000000
O O5 0.972668 0.371064 0.657925
O O6 0.766693 0.376260 0.968771
O O7 0.239670 0.385799 0.541108
O O8 0.405283 0.250000 0.568328
O O9 0.095653 0.250000 0.821041
O O10 0.365149 0.887070 0.716636
O O11 0.196705 0.106798 0.923503
O O12 0.917825 0.115707 0.368298
O O13 0.319157 0.750000 0.546920
O O14 0.060434 0.750000 0.851901
#
# Coordination Sequence:
#
# PCOD9166913 Si02
#       8
#     4   2   2   4   4   2   2   2
#     4  12  28  48  81 107 130 178 233 299 361 416
#     4  10  24  42  74  96 140 198 216 282 348 402
#     4  11  25  38  66  99 139 186 233 282 338 412
#     4  11  24  46  67 101 144 182 233 287 347 408
#     4  11  24  46  67 101 144 182 233 287 347 408
#     4  11  25  38  66  99 139 186 233 282 338 412
#     4  12  25  41  65 101 145 190 237 275 337 414
#     4  12  25  41  65 101 145 190 237 275 337 414
#
# _framework density 24.642536
#
# number of rings (size 3 to 8) (size 9 to 14) (size 15 to 20)
#    0.000    0.727    5.455    1.091   12.727    2.909 
#    0.000    0.909    4.000    0.000    0.000    0.000 
#    0.000    0.000    0.000    0.000    0.000    0.000 
#
# Total GULP energy -122753.646552 kJ/mol
# GULP energy per Si atom -5579.711207 kJ/mol
# Density = 2.458645 g / cm^3
# Si number density = 24.642536 Si / 1000 Ang^3
#
#
#
# Elastic Constant Matrix: (Units=GPa)
#
#
# Indices 1 2 3 4 5 6 
#
# 1 50.4437 9.4666 0.4010 0.0000 0.1180 0.0000
# 2 9.4666 156.9501 58.9556 0.0000 9.9500 0.0000
# 3 0.4010 58.9556 181.7533 0.0000 14.3471 0.0000
# 4 0.0000 0.0000 0.0000 44.6719 0.0000 -9.4885
# 5 0.1180 9.9500 14.3471 0.0000 24.1163 0.0000
# 6 0.0000 0.0000 0.0000 -9.4885 0.0000 23.9302
#
#
#
# Elastic Compliance Matrix: (Units=1/GPa)
#
#
# Indices 1 2 3 4 5 6 
#
# 1 0.020077 -0.001369 0.000381 0.000000 0.000240 0.000000
# 2 -0.001369 0.007414 -0.002267 0.000000 -0.001703 0.000000
# 3 0.000381 -0.002267 0.006467 0.000000 -0.002913 0.000000
# 4 0.000000 0.000000 0.000000 0.024444 0.000000 0.009692
# 5 0.000240 -0.001703 -0.002913 0.000000 0.043901 0.000000
# 6 0.000000 0.000000 0.000000 0.009692 0.000000 0.045631
#
#
# Mechanical properties :
#
#
# Convention : Reuss Voigt Hill
#
# Bulk Modulus (GPa) = 36.43478 58.53261 47.48370
# Shear Modulus (GPa) = 30.56351 39.89862 35.23106
#
# Velocity S-wave (km/s) = 3.52557 4.02816 3.78522
# Velocity P-wave (km/s) = 5.60271 6.74085 6.19796
#
# Compressibility (1/GPa) = 0.02744630
#
# Stress axis : x y z
#
# Youngs Moduli (GPa) = 49.80706 134.88547 154.64182
#
# Poissons Ratio (x) = 0.18470 -0.05890
# Poissons Ratio (y) = 0.06820 0.35062
# Poissons Ratio (z) = -0.01897 0.30583
#
# Static dielectric constant tensor:
#      x y z
#    x 2.072830 0.000000 -0.001060 
#    y 0.000000 1.852180 0.000000 
#    z -0.001060 0.000000 1.937050 
# 
# From -- ./inp_files/53177.got.cif
#   From: 2010.05.17/outbox.cif.g08.bks.cpg/sg11_27_cif.got.tgz:53177.got - 2010.06.03 12:22:45.
