data_PCOD9166660
_publ_section_title
;
Structure prediction by ZEFSAII (Michael W. Deem and Ramdas Pophale) SiO2 
 PCOD9166660
Probable space group: P 21/M
;
_chemical_formula_sum "Si O2"
_cell_formula_units_Z 22
_cell_length_a 6.858531
_cell_length_b 25.095689
_cell_length_c 7.584240
_cell_angle_alpha 90.000000
_cell_angle_beta 141.188621
_cell_angle_gamma 90.000000
_cell_volume 818.168176
_symmetry_space_group_name_H-M "P 21/M"
_symmetry_group_IT_number 11
_symmetry_cell_setting 'monoclinic'
loop_
_space_group_symop_operation_xyz
x,y,z
-x,1/2+y,-z
-x,-y,-z
x,1/2-y,z
loop_
_atom_site_type_symbol
_atom_site_label
_atom_site_fract_x
_atom_site_fract_y
_atom_site_fract_z
Si Si1 0.847783 0.585840 0.067248
Si Si2 0.140899 0.750000 0.399114
Si Si3 0.289033 0.516698 0.583231
Si Si4 0.622200 0.193847 0.740699
Si Si5 0.308709 0.839651 0.813102
Si Si6 0.805726 0.904907 0.634606
O O1 0.843584 0.432667 0.617081
O O2 0.636496 0.632080 0.002844
O O3 0.925610 0.596113 0.918338
O O4 0.389544 0.465161 0.102838
O O5 0.112079 0.704884 0.216023
O O6 0.210909 0.797464 0.595180
O O7 0.331411 0.462587 0.502476
O O8 0.000000 0.500000 0.500000
O O9 0.434313 0.250000 0.580954
O O10 0.431475 0.143258 0.550931
O O11 0.686585 0.189077 0.992495
O O12 0.071005 0.887991 0.682972
#
# Coordination Sequence:
#
# PCOD9166660 Si02
#       6
#     4   2   4   4   4   4
#     4  12  27  49  76 115 158 204 255 320 386 460
#     4  10  22  50  72 106 148 198 258 322 390 454
#     4  12  26  48  77 111 158 206 256 318 387 462
#     4  10  24  46  71 105 150 190 260 316 381 461
#     4  12  25  47  76 105 152 203 251 323 387 462
#     4  12  27  44  76 109 152 201 259 312 395 459
#
# _framework density 26.889334999999999
#
# number of rings (size 3 to 8) (size 9 to 14) (size 15 to 20)
#    0.545    0.000    4.545    2.727    6.364    0.000 
#    0.000    1.818    0.000    0.000    0.000    0.000 
#    0.000    0.000    0.000    0.000    0.000    0.000 
#
# Total GULP energy -122791.103278 kJ/mol
# GULP energy per Si atom -5581.413785 kJ/mol
# Density = 2.682813 g / cm^3
# Si number density = 26.889335 Si / 1000 Ang^3
#
#
#
# Elastic Constant Matrix: (Units=GPa)
#
#
# Indices 1 2 3 4 5 6 
#
# 1 105.4422 63.1171 14.8427 0.0000 -12.6917 0.0000
# 2 63.1171 164.5336 45.4682 0.0000 -19.1061 0.0000
# 3 14.8427 45.4682 125.1782 0.0000 -36.0942 0.0000
# 4 0.0000 0.0000 0.0000 94.6667 0.0000 -29.5838
# 5 -12.6917 -19.1061 -36.0942 0.0000 46.2351 0.0000
# 6 0.0000 0.0000 0.0000 -29.5838 0.0000 26.3342
#
#
#
# Elastic Compliance Matrix: (Units=1/GPa)
#
#
# Indices 1 2 3 4 5 6 
#
# 1 0.012479 -0.004781 0.000871 0.000000 0.002130 0.000000
# 2 -0.004781 0.008633 -0.002476 0.000000 0.000322 0.000000
# 3 0.000871 -0.002476 0.011045 0.000000 0.007838 0.000000
# 4 0.000000 0.000000 0.000000 0.016278 0.000000 0.018287
# 5 0.002130 0.000322 0.007838 0.000000 0.028466 0.000000
# 6 0.000000 0.000000 0.000000 0.018287 0.000000 0.058517
#
#
# Mechanical properties :
#
#
# Convention : Reuss Voigt Hill
#
# Bulk Modulus (GPa) = 51.58368 71.33444 61.45906
# Shear Modulus (GPa) = 32.33079 51.56226 41.94653
#
# Velocity S-wave (km/s) = 3.47128 4.38376 3.95393
# Velocity P-wave (km/s) = 5.94068 7.22562 6.61443
#
# Compressibility (1/GPa) = 0.01938598
#
# Stress axis : x y z
#
# Youngs Moduli (GPa) = 80.13298 115.82998 90.54027
#
# Poissons Ratio (x) = 0.55373 -0.07885
# Poissons Ratio (y) = 0.38308 0.22419
# Poissons Ratio (z) = -0.06979 0.28680
#
# Static dielectric constant tensor:
#      x y z
#    x 2.242340 0.000000 -0.069150 
#    y 0.000000 2.145680 0.000000 
#    z -0.069150 0.000000 2.067810 
# 
# From -- ./inp_files/2777.got.cif
#   From: 2010.05.17/outbox.cif.g08.bks.cpg/sg11_2_cif.got.tgz:2777.got - 2010.06.03 12:22:45.
