data_PCOD9166199
_publ_section_title
;
Structure prediction by ZEFSAII (Michael W. Deem and Ramdas Pophale) SiO2 
 PCOD9166199
Probable space group: P 21/M
;
_chemical_formula_sum "Si O2"
_cell_formula_units_Z 28
_cell_length_a 13.634203
_cell_length_b 18.499464
_cell_length_c 5.131719
_cell_angle_alpha 90.000000
_cell_angle_beta 111.469321
_cell_angle_gamma 90.000000
_cell_volume 1204.539927
_symmetry_space_group_name_H-M "P 21/M"
_symmetry_group_IT_number 11
_symmetry_cell_setting 'monoclinic'
loop_
_space_group_symop_operation_xyz
x,y,z
-x,1/2+y,-z
-x,-y,-z
x,1/2-y,z
loop_
_atom_site_type_symbol
_atom_site_label
_atom_site_fract_x
_atom_site_fract_y
_atom_site_fract_z
Si Si1 0.955157 0.063002 0.132772
Si Si2 0.718176 0.877316 0.178711
Si Si3 0.064491 0.170065 0.553408
Si Si4 0.400214 0.168099 0.453645
Si Si5 0.841454 0.333930 0.643255
Si Si6 0.458598 0.543916 0.214265
Si Si7 0.756452 0.460766 0.237289
O O1 0.876932 0.123141 0.933871
O O2 0.877556 0.028584 0.268730
O O3 0.052370 0.108768 0.328027
O O4 0.000000 0.000000 0.000000
O O5 0.831452 0.849761 0.187361
O O6 0.687387 0.831948 0.403230
O O7 0.723570 0.959123 0.296111
O O8 0.640576 0.868369 0.855560
O O9 0.074068 0.250000 0.450723
O O10 0.953488 0.167785 0.597458
O O11 0.430977 0.250000 0.421058
O O12 0.491125 0.122234 0.685527
O O13 0.808025 0.250000 0.643078
O O14 0.761734 0.389194 0.421617
O O15 0.500000 0.500000 0.500000
O O16 0.500000 0.500000 0.000000
O O17 0.332831 0.551346 0.067849
#
# Coordination Sequence:
#
# PCOD9166199 Si02
#       7
#     4   4   4   4   4   4   4
#     4  11  23  39  66 100 138 178 237 286 346 421
#     4  12  25  43  72 104 141 180 233 288 357 427
#     4  10  22  39  60  93 135 182 223 281 350 412
#     4  12  26  46  70 105 141 178 233 300 356 415
#     4  10  23  42  63  95 139 183 237 293 344 418
#     4  12  25  47  74 101 135 184 233 291 350 421
#     4  11  25  42  71  96 138 181 235 282 357 418
#
# _framework density 23.245387999999998
#
# number of rings (size 3 to 8) (size 9 to 14) (size 15 to 20)
#    0.000    0.857    2.857    3.429    8.000    3.429 
#    0.000    0.000    0.000    0.000    0.000    0.000 
#    0.000    0.000    0.000    0.000    0.000    0.000 
#
# Total GULP energy -156330.461733 kJ/mol
# GULP energy per Si atom -5583.230776 kJ/mol
# Density = 2.319248 g / cm^3
# Si number density = 23.245388 Si / 1000 Ang^3
#
#
#
# Elastic Constant Matrix: (Units=GPa)
#
#
# Indices 1 2 3 4 5 6 
#
# 1 38.4440 15.6207 11.6352 0.0000 13.8419 0.0000
# 2 15.6207 177.6828 31.5678 0.0000 9.0720 0.0000
# 3 11.6352 31.5678 97.7419 0.0000 11.8863 0.0000
# 4 0.0000 0.0000 0.0000 28.2338 0.0000 3.4872
# 5 13.8419 9.0720 11.8863 0.0000 41.2443 0.0000
# 6 0.0000 0.0000 0.0000 3.4872 0.0000 31.6127
#
#
#
# Elastic Compliance Matrix: (Units=1/GPa)
#
#
# Indices 1 2 3 4 5 6 
#
# 1 0.030721 -0.001884 -0.001912 0.000000 -0.009345 0.000000
# 2 -0.001884 0.006111 -0.001723 0.000000 -0.000215 0.000000
# 3 -0.001912 -0.001723 0.011287 0.000000 -0.002232 0.000000
# 4 0.000000 0.000000 0.000000 0.035908 0.000000 -0.003961
# 5 -0.009345 -0.000215 -0.002232 0.000000 0.028073 0.000000
# 6 0.000000 0.000000 0.000000 -0.003961 0.000000 0.032070
#
#
# Mechanical properties :
#
#
# Convention : Reuss Voigt Hill
#
# Bulk Modulus (GPa) = 26.96903 47.94622 37.45763
# Shear Modulus (GPa) = 29.83892 37.22116 33.53004
#
# Velocity S-wave (km/s) = 3.58669 4.00588 3.80206
# Velocity P-wave (km/s) = 5.36466 6.48590 5.95174
#
# Compressibility (1/GPa) = 0.03707957
#
# Stress axis : x y z
#
# Youngs Moduli (GPa) = 32.55140 163.64576 88.60058
#
# Poissons Ratio (x) = 0.30830 0.16942
# Poissons Ratio (y) = 0.06132 0.15267
# Poissons Ratio (z) = 0.06224 0.28199
#
# Static dielectric constant tensor:
#      x y z
#    x 2.055150 0.000000 -0.232210 
#    y 0.000000 2.046440 0.000000 
#    z -0.232210 0.000000 2.408010 
# 
# From -- ./inp_files/6896.got.cif
#   From: 2010.05.17/outbox.cif.g08.bks.cpg/sg11_4_cif.got.tgz:6896.got - 2010.06.03 12:22:45.
