data_PCOD9166940
_publ_section_title
;
Structure prediction by ZEFSAII (Michael W. Deem and Ramdas Pophale) SiO2 
 PCOD9166940
Probable space group: P 21/M
;
_chemical_formula_sum "Si O2"
_cell_formula_units_Z 28
_cell_length_a 12.216772
_cell_length_b 8.490422
_cell_length_c 15.324819
_cell_angle_alpha 90.000000
_cell_angle_beta 119.208880
_cell_angle_gamma 90.000000
_cell_volume 1387.455146
_symmetry_space_group_name_H-M "P 21/M"
_symmetry_group_IT_number 11
_symmetry_cell_setting 'monoclinic'
loop_
_space_group_symop_operation_xyz
x,y,z
-x,1/2+y,-z
-x,-y,-z
x,1/2-y,z
loop_
_atom_site_type_symbol
_atom_site_label
_atom_site_fract_x
_atom_site_fract_y
_atom_site_fract_z
Si Si1 0.119312 0.562859 0.490157
Si Si2 0.990804 0.937578 0.717989
Si Si3 0.365978 0.436638 0.679536
Si Si4 0.083453 0.440164 0.113955
Si Si5 0.632540 0.935087 0.800956
Si Si6 0.390761 0.932717 0.018580
Si Si7 0.748943 0.567167 0.181845
O O1 0.107094 0.750000 0.479097
O O2 0.114737 0.484599 0.392504
O O3 0.252136 0.520714 0.586030
O O4 0.000000 0.500000 0.500000
O O5 0.011899 0.750000 0.721261
O O6 0.966729 0.981583 0.809277
O O7 0.111654 0.033262 0.732605
O O8 0.351903 0.250000 0.662449
O O9 0.507583 0.487329 0.712252
O O10 0.343131 0.469568 0.773868
O O11 0.084692 0.250000 0.107965
O O12 0.228514 0.495932 0.168152
O O13 0.000000 0.500000 0.000000
O O14 0.627735 0.750000 0.779983
O O15 0.623578 0.966433 0.900795
O O16 0.410334 0.750000 0.048103
O O17 0.272163 0.956763 0.909530
O O18 0.500000 0.000000 0.000000
O O19 0.732517 0.750000 0.151011
#
# Coordination Sequence:
#
# PCOD9166940 Si02
#       7
#     4   4   4   4   4   4   4
#     4  12  24  40  64  95 129 167 210 260 318 377
#     4  11  23  41  65  93 126 165 211 260 314 373
#     4  11  23  39  61  91 126 162 205 255 313 374
#     4  10  24  44  67  95 127 167 213 262 311 370
#     4  11  23  41  63  89 125 165 209 261 316 373
#     4  12  23  35  54  84 120 159 202 249 309 374
#     4  11  22  36  57  88 124 160 204 254 310 371
#
# _framework density 20.180833
#
# number of rings (size 3 to 8) (size 9 to 14) (size 15 to 20)
#    0.000    0.857    2.857    5.143    0.000    5.714 
#    0.000    0.714    0.000    0.000    0.000    0.000 
#    0.000    0.000    0.000    0.000    0.000    0.000 
#
# Total GULP energy -156447.733123 kJ/mol
# GULP energy per Si atom -5587.419040 kJ/mol
# Density = 2.013490 g / cm^3
# Si number density = 20.180833 Si / 1000 Ang^3
#
#
#
# Elastic Constant Matrix: (Units=GPa)
#
#
# Indices 1 2 3 4 5 6 
#
# 1 105.6809 21.4912 28.4881 0.0000 14.1480 0.0000
# 2 21.4912 51.7950 22.0137 0.0000 0.5054 0.0000
# 3 28.4881 22.0137 103.2919 0.0000 8.8160 0.0000
# 4 0.0000 0.0000 0.0000 37.7198 0.0000 6.9961
# 5 14.1480 0.5054 8.8160 0.0000 31.7756 0.0000
# 6 0.0000 0.0000 0.0000 6.9961 0.0000 21.8333
#
#
#
# Elastic Compliance Matrix: (Units=1/GPa)
#
#
# Indices 1 2 3 4 5 6 
#
# 1 0.011364 -0.003850 -0.001933 0.000000 -0.004462 0.000000
# 2 -0.003850 0.022562 -0.003956 0.000000 0.002453 0.000000
# 3 -0.001933 -0.003956 0.011245 0.000000 -0.002196 0.000000
# 4 0.000000 0.000000 0.000000 0.028186 0.000000 -0.009032
# 5 -0.004462 0.002453 -0.002196 0.000000 0.034028 0.000000
# 6 0.000000 0.000000 0.000000 -0.009032 0.000000 0.048696
#
#
# Mechanical properties :
#
#
# Convention : Reuss Voigt Hill
#
# Bulk Modulus (GPa) = 38.92127 44.97266 41.94697
# Shear Modulus (GPa) = 27.15585 30.85072 29.00329
#
# Velocity S-wave (km/s) = 3.67226 3.91412 3.79512
# Velocity P-wave (km/s) = 6.10809 6.53914 6.32729
#
# Compressibility (1/GPa) = 0.02569289
#
# Stress axis : x y z
#
# Youngs Moduli (GPa) = 87.99875 44.32274 88.92918
#
# Poissons Ratio (x) = 0.17065 0.17188
# Poissons Ratio (y) = 0.33881 0.35179
# Poissons Ratio (z) = 0.17008 0.17534
#
# Static dielectric constant tensor:
#      x y z
#    x 1.763570 0.000000 0.057660 
#    y 0.000000 1.688980 0.000000 
#    z 0.057660 0.000000 1.756530 
# 
# From -- ./inp_files/37856.got.cif
#   From: 2010.05.17/outbox.cif.g08.bks.cpg/sg11_19_cif.got.tgz:37856.got - 2010.06.03 12:22:45.
