data_PCOD9166814
_publ_section_title
;
Structure prediction by ZEFSAII (Michael W. Deem and Ramdas Pophale) SiO2 
 PCOD9166814
Probable space group: P 21/M
;
_chemical_formula_sum "Si O2"
_cell_formula_units_Z 20
_cell_length_a 13.390375
_cell_length_b 10.577416
_cell_length_c 7.763726
_cell_angle_alpha 90.000000
_cell_angle_beta 56.332724
_cell_angle_gamma 90.000000
_cell_volume 915.181483
_symmetry_space_group_name_H-M "P 21/M"
_symmetry_group_IT_number 11
_symmetry_cell_setting 'monoclinic'
loop_
_space_group_symop_operation_xyz
x,y,z
-x,1/2+y,-z
-x,-y,-z
x,1/2-y,z
loop_
_atom_site_type_symbol
_atom_site_label
_atom_site_fract_x
_atom_site_fract_y
_atom_site_fract_z
Si Si1 0.253743 0.010181 0.523097
Si Si2 0.091048 0.615312 0.902808
Si Si3 0.751391 0.943079 0.092145
Si Si4 0.095425 0.388642 0.379453
Si Si5 0.497116 0.899831 0.158851
O O1 0.381462 0.944968 0.377118
O O2 0.156569 0.900424 0.657579
O O3 0.249221 0.092102 0.704203
O O4 0.206209 0.084502 0.403970
O O5 0.034893 0.750000 0.984276
O O6 0.846727 0.612296 0.866382
O O7 0.000000 0.500000 0.000000
O O8 0.198769 0.587007 0.934645
O O9 0.620416 0.919967 0.144504
O O10 0.044527 0.250000 0.466260
O O11 0.000000 0.500000 0.500000
O O12 0.487799 0.750000 0.121547
O O13 0.500000 0.000000 0.000000
#
# Coordination Sequence:
#
# PCOD9166814 Si02
#       5
#     4   4   4   4   4
#     4  10  25  47  72 106 140 188 238 293 355 421
#     4  10  23  43  70 104 139 181 233 285 348 416
#     4  10  25  46  71 103 143 184 238 290 353 419
#     4  12  27  47  72 108 146 190 239 290 355 425
#     4  12  25  47  75 107 144 187 238 300 362 430
#
# _framework density 21.853587000000001
#
# number of rings (size 3 to 8) (size 9 to 14) (size 15 to 20)
#    1.200    0.000    2.000    3.000    0.000   10.400 
#    0.000    0.000    0.000    0.000    0.000    0.000 
#    0.000    0.000    0.000    0.000    0.000    0.000 
#
# Total GULP energy -111442.908488 kJ/mol
# GULP energy per Si atom -5572.145424 kJ/mol
# Density = 2.180385 g / cm^3
# Si number density = 21.853587 Si / 1000 Ang^3
#
#
#
# Elastic Constant Matrix: (Units=GPa)
#
#
# Indices 1 2 3 4 5 6 
#
# 1 106.7828 60.1380 43.4543 0.0000 -1.4497 0.0000
# 2 60.1380 183.6851 56.6197 0.0000 -7.9134 0.0000
# 3 43.4543 56.6197 125.3815 0.0000 -13.3015 0.0000
# 4 0.0000 0.0000 0.0000 15.2927 0.0000 -7.8907
# 5 -1.4497 -7.9134 -13.3015 0.0000 52.5545 0.0000
# 6 0.0000 0.0000 0.0000 -7.8907 0.0000 17.3280
#
#
#
# Elastic Compliance Matrix: (Units=1/GPa)
#
#
# Indices 1 2 3 4 5 6 
#
# 1 0.012333 -0.003171 -0.002936 0.000000 -0.000880 0.000000
# 2 -0.003171 0.007142 -0.002077 0.000000 0.000462 0.000000
# 3 -0.002936 -0.002077 0.010162 0.000000 0.002178 0.000000
# 4 0.000000 0.000000 0.000000 0.085474 0.000000 0.038923
# 5 -0.000880 0.000462 0.002178 0.000000 0.019625 0.000000
# 6 0.000000 0.000000 0.000000 0.038923 0.000000 0.075435
#
#
# Mechanical properties :
#
#
# Convention : Reuss Voigt Hill
#
# Bulk Modulus (GPa) = 75.35902 81.80814 78.58358
# Shear Modulus (GPa) = 21.64844 34.07752 27.86298
#
# Velocity S-wave (km/s) = 3.15081 3.95315 3.57457
# Velocity P-wave (km/s) = 6.91341 7.63888 7.28518
#
# Compressibility (1/GPa) = 0.01326981
#
# Stress axis : x y z
#
# Youngs Moduli (GPa) = 81.08078 140.00713 98.40184
#
# Poissons Ratio (x) = 0.44394 0.28890
# Poissons Ratio (y) = 0.25709 0.20442
# Poissons Ratio (z) = 0.23805 0.29085
#
# Static dielectric constant tensor:
#      x y z
#    x 1.847880 0.000000 0.013270 
#    y 0.000000 1.908090 0.000000 
#    z 0.013270 0.000000 1.832160 
# 
# From -- ./inp_files/16527.got.cif
#   From: 2010.05.17/outbox.cif.g08.bks.cpg/sg11_9_cif.got.tgz:16527.got - 2010.06.03 12:22:45.
