data_PCOD9166679
_publ_section_title
;
Structure prediction by ZEFSAII (Michael W. Deem and Ramdas Pophale) SiO2 
 PCOD9166679
Probable space group: P 21/M
;
_chemical_formula_sum "Si O2"
_cell_formula_units_Z 20
_cell_length_a 5.942690
_cell_length_b 23.006915
_cell_length_c 8.285145
_cell_angle_alpha 90.000000
_cell_angle_beta 55.574104
_cell_angle_gamma 90.000000
_cell_volume 934.374124
_symmetry_space_group_name_H-M "P 21/M"
_symmetry_group_IT_number 11
_symmetry_cell_setting 'monoclinic'
loop_
_space_group_symop_operation_xyz
x,y,z
-x,1/2+y,-z
-x,-y,-z
x,1/2-y,z
loop_
_atom_site_type_symbol
_atom_site_label
_atom_site_fract_x
_atom_site_fract_y
_atom_site_fract_z
Si Si1 0.425376 0.316772 0.927875
Si Si2 0.922610 0.381232 0.628691
Si Si3 0.042032 0.404898 0.939679
Si Si4 0.454734 0.519967 0.332589
Si Si5 0.444461 0.103441 0.237973
O O1 0.377419 0.250000 0.986113
O O2 0.199322 0.344302 0.902530
O O3 0.721989 0.326752 0.728566
O O4 0.418743 0.358783 0.086938
O O5 0.945485 0.409959 0.795114
O O6 0.762699 0.428009 0.584649
O O7 0.227400 0.368943 0.447813
O O8 0.270303 0.454652 0.862518
O O9 0.764432 0.401514 0.154834
O O10 0.500000 0.500000 0.500000
O O11 0.360408 0.464299 0.268242
#
# Coordination Sequence:
#
# PCOD9166679 Si02
#       5
#     4   4   4   4   4
#     4  10  25  45  62  86 123 163 216 267 311 365
#     4  10  23  42  64  94 127 167 204 257 312 380
#     4  10  23  39  63  95 128 167 205 256 317 371
#     4  11  22  38  65  96 138 165 200 251 315 387
#     4  11  23  39  67  96 126 162 212 253 318 375
#
# _framework density 21.404702
#
# number of rings (size 3 to 8) (size 9 to 14) (size 15 to 20)
#    0.000    1.600    2.000    1.200    2.800   11.200 
#    0.000    0.000    0.000    0.000    0.000    0.000 
#    0.000    0.000    0.000    0.000    0.000    0.000 
#
# Total GULP energy -111581.473860 kJ/mol
# GULP energy per Si atom -5579.073693 kJ/mol
# Density = 2.135598 g / cm^3
# Si number density = 21.404702 Si / 1000 Ang^3
#
#
#
# Elastic Constant Matrix: (Units=GPa)
#
#
# Indices 1 2 3 4 5 6 
#
# 1 45.4599 16.1401 28.7314 0.0000 -9.7128 0.0000
# 2 16.1401 98.7481 27.4992 0.0000 27.3537 0.0000
# 3 28.7314 27.4992 107.8331 0.0000 -31.6694 0.0000
# 4 0.0000 0.0000 0.0000 17.0516 0.0000 1.9798
# 5 -9.7128 27.3537 -31.6694 0.0000 42.7399 0.0000
# 6 0.0000 0.0000 0.0000 1.9798 0.0000 12.3881
#
#
#
# Elastic Compliance Matrix: (Units=1/GPa)
#
#
# Indices 1 2 3 4 5 6 
#
# 1 0.027894 -0.005231 -0.004158 0.000000 0.006606 0.000000
# 2 -0.005231 0.019433 -0.009667 0.000000 -0.020789 0.000000
# 3 -0.004158 -0.009667 0.018388 0.000000 0.018867 0.000000
# 4 0.000000 0.000000 0.000000 0.059754 0.000000 -0.009550
# 5 0.006606 -0.020789 0.018867 0.000000 0.052184 0.000000
# 6 0.000000 0.000000 0.000000 -0.009550 0.000000 0.082249
#
#
# Mechanical properties :
#
#
# Convention : Reuss Voigt Hill
#
# Bulk Modulus (GPa) = 36.22996 44.08696 40.15846
# Shear Modulus (GPa) = 16.27520 26.41393 21.34456
#
# Velocity S-wave (km/s) = 2.76045 3.51668 3.16126
# Velocity P-wave (km/s) = 5.20798 6.09352 5.66807
#
# Compressibility (1/GPa) = 0.02760146
#
# Stress axis : x y z
#
# Youngs Moduli (GPa) = 35.84993 51.45977 54.38350
#
# Poissons Ratio (x) = 0.26920 0.22613
# Poissons Ratio (y) = 0.18754 0.52575
# Poissons Ratio (z) = 0.14906 0.49748
#
# Static dielectric constant tensor:
#      x y z
#    x 1.813650 0.000000 -0.027090 
#    y 0.000000 1.756660 0.000000 
#    z -0.027090 0.000000 1.836200 
# 
# From -- ./inp_files/10220.got.cif
#   From: 2010.05.17/outbox.cif.g08.bks.cpg/sg11_6_cif.got.tgz:10220.got - 2010.06.03 12:22:45.
