data_PCOD9166466
_publ_section_title
;
Structure prediction by ZEFSAII (Michael W. Deem and Ramdas Pophale) SiO2 
 PCOD9166466
Probable space group: P 21/M
;
_chemical_formula_sum "Si O2"
_cell_formula_units_Z 32
_cell_length_a 25.356232
_cell_length_b 8.835756
_cell_length_c 19.699932
_cell_angle_alpha 90.000000
_cell_angle_beta 21.813790
_cell_angle_gamma 90.000000
_cell_volume 1640.056040
_symmetry_space_group_name_H-M "P 21/M"
_symmetry_group_IT_number 11
_symmetry_cell_setting 'monoclinic'
loop_
_space_group_symop_operation_xyz
x,y,z
-x,1/2+y,-z
-x,-y,-z
x,1/2-y,z
loop_
_atom_site_type_symbol
_atom_site_label
_atom_site_fract_x
_atom_site_fract_y
_atom_site_fract_z
Si Si1 0.859381 0.067998 0.201931
Si Si2 0.443054 0.568985 0.498401
Si Si3 0.199547 0.068467 0.579047
Si Si4 0.032337 0.068562 0.244697
Si Si5 0.474529 0.573135 0.849203
Si Si6 0.376075 0.428942 0.103222
Si Si7 0.334873 0.572343 0.870051
Si Si8 0.069686 0.931077 0.484016
O O1 0.870132 0.250000 0.192226
O O2 0.719487 0.028123 0.325041
O O3 0.835646 0.003275 0.305855
O O4 0.000000 0.000000 0.000000
O O5 0.500000 0.500000 0.500000
O O6 0.451831 0.750000 0.490596
O O7 0.544206 0.506170 0.318720
O O8 0.185209 0.250000 0.600486
O O9 0.362333 0.035321 0.363580
O O10 0.092689 0.003120 0.650674
O O11 0.028270 0.250000 0.243066
O O12 0.010530 0.029490 0.350247
O O13 0.183281 0.004737 0.040615
O O14 0.470233 0.750000 0.876362
O O15 0.412767 0.469426 0.981852
O O16 0.382054 0.558984 0.891875
O O17 0.367703 0.250000 0.123228
O O18 0.500000 0.500000 0.000000
O O19 0.228164 0.505394 0.299546
O O20 0.327251 0.750000 0.861862
O O21 0.071858 0.750000 0.475257
O O22 0.000000 0.000000 0.500000
#
# Coordination Sequence:
#
# PCOD9166466 Si02
#       8
#     4   4   4   4   4   4   4   4
#     4  11  25  44  68  97 131 172 213 259 315 378
#     4  11  25  44  68  97 131 171 214 261 314 375
#     4  11  23  42  67  95 128 167 213 266 321 380
#     4  11  25  42  62  93 129 170 215 263 319 382
#     4  10  22  41  66  94 125 164 211 265 322 383
#     4  12  25  40  63  93 128 169 214 268 323 384
#     4  11  23  42  67  95 127 166 212 263 317 377
#     4  11  24  43  66  94 129 170 217 269 327 388
#
# _framework density 19.511527999999998
#
# number of rings (size 3 to 8) (size 9 to 14) (size 15 to 20)
#    0.000    1.000    1.250    4.875    1.750    9.500 
#    0.000    0.000    0.000    0.000    0.000    0.000 
#    0.000    0.000    0.000    0.000    0.000    0.000 
#
# Total GULP energy -179090.461590 kJ/mol
# GULP energy per Si atom -5596.576925 kJ/mol
# Density = 1.946712 g / cm^3
# Si number density = 19.511528 Si / 1000 Ang^3
#
#
#
# Elastic Constant Matrix: (Units=GPa)
#
#
# Indices 1 2 3 4 5 6 
#
# 1 79.9997 37.2446 16.3709 0.0000 -7.4108 0.0000
# 2 37.2446 69.7370 36.3995 0.0000 0.8324 0.0000
# 3 16.3709 36.3995 103.2673 0.0000 -9.2815 0.0000
# 4 0.0000 0.0000 0.0000 34.6951 0.0000 2.4207
# 5 -7.4108 0.8324 -9.2815 0.0000 35.8301 0.0000
# 6 0.0000 0.0000 0.0000 2.4207 0.0000 39.6886
#
#
#
# Elastic Compliance Matrix: (Units=1/GPa)
#
#
# Indices 1 2 3 4 5 6 
#
# 1 0.017225 -0.009821 0.001097 0.000000 0.004075 0.000000
# 2 -0.009821 0.023322 -0.007059 0.000000 -0.004402 0.000000
# 3 0.001097 -0.007059 0.012320 0.000000 0.003582 0.000000
# 4 0.000000 0.000000 0.000000 0.028946 0.000000 -0.001765
# 5 0.004075 -0.004402 0.003582 0.000000 0.029783 0.000000
# 6 0.000000 0.000000 0.000000 -0.001765 0.000000 0.025304
#
#
# Mechanical properties :
#
#
# Convention : Reuss Voigt Hill
#
# Bulk Modulus (GPa) = 46.94567 48.11487 47.53027
# Shear Modulus (GPa) = 28.47953 32.90869 30.69411
#
# Velocity S-wave (km/s) = 3.82465 4.11131 3.97057
# Velocity P-wave (km/s) = 6.60429 6.87390 6.74044
#
# Compressibility (1/GPa) = 0.02130122
#
# Stress axis : x y z
#
# Youngs Moduli (GPa) = 58.05447 42.87858 81.17004
#
# Poissons Ratio (x) = 0.42110 -0.08906
# Poissons Ratio (y) = 0.57014 0.57299
# Poissons Ratio (z) = -0.06370 0.30268
#
# Static dielectric constant tensor:
#      x y z
#    x 1.651610 0.000000 0.025300 
#    y 0.000000 1.650580 0.000000 
#    z 0.025300 0.000000 1.641050 
# 
# From -- ./inp_files/66983.got.cif
#   From: 2010.05.17/outbox.cif.g08.bks.cpg/sg11_34_cif.got.tgz:66983.got - 2010.06.03 12:22:45.
