data_PCOD9166770
_publ_section_title
;
Structure prediction by ZEFSAII (Michael W. Deem and Ramdas Pophale) SiO2 
 PCOD9166770
Probable space group: P 21/M
;
_chemical_formula_sum "Si O2"
_cell_formula_units_Z 28
_cell_length_a 9.416834
_cell_length_b 8.727794
_cell_length_c 27.345793
_cell_angle_alpha 90.000000
_cell_angle_beta 38.261336
_cell_angle_gamma 90.000000
_cell_volume 1391.763546
_symmetry_space_group_name_H-M "P 21/M"
_symmetry_group_IT_number 11
_symmetry_cell_setting 'monoclinic'
loop_
_space_group_symop_operation_xyz
x,y,z
-x,1/2+y,-z
-x,-y,-z
x,1/2-y,z
loop_
_atom_site_type_symbol
_atom_site_label
_atom_site_fract_x
_atom_site_fract_y
_atom_site_fract_z
Si Si1 0.336243 0.432240 0.701142
Si Si2 0.216634 0.072842 0.467219
Si Si3 0.445823 0.066358 0.870040
Si Si4 0.223565 0.934028 0.832093
Si Si5 0.249241 0.072388 0.571510
Si Si6 0.046310 0.431835 0.263413
Si Si7 0.696698 0.934388 0.982063
O O1 0.316759 0.250000 0.706035
O O2 0.552735 0.484268 0.610087
O O3 0.360330 0.493077 0.749865
O O4 0.109696 0.507078 0.738757
O O5 0.249991 0.250000 0.444032
O O6 0.165153 0.068737 0.538696
O O7 0.000000 0.000000 0.500000
O O8 0.431558 0.250000 0.869226
O O9 0.343071 0.021128 0.950585
O O10 0.318059 0.990842 0.858612
O O11 0.709320 0.013504 0.800050
O O12 0.238910 0.750000 0.825872
O O13 0.956039 0.979618 0.898373
O O14 0.258867 0.250000 0.585491
O O15 0.500000 0.000000 0.500000
O O16 0.094125 0.976141 0.650006
O O17 0.075247 0.250000 0.251467
O O18 0.682916 0.750000 0.983066
O O19 0.500000 0.000000 0.000000
#
# Coordination Sequence:
#
# PCOD9166770 Si02
#       7
#     4   4   4   4   4   4   4
#     4  12  25  43  66  93 128 170 215 266 321 381
#     4  11  25  43  65  93 128 168 214 265 323 384
#     4  11  24  43  66  97 132 169 214 263 319 379
#     4  11  24  43  66  96 132 170 213 263 320 380
#     4  11  23  41  66  94 126 167 215 265 321 381
#     4  12  25  42  65  94 129 170 216 266 320 381
#     4  10  23  42  68  98 130 169 213 261 315 378
#
# _framework density 20.118359999999999
#
# number of rings (size 3 to 8) (size 9 to 14) (size 15 to 20)
#    0.000    0.857    1.429    5.571    2.000    6.286 
#    0.000    0.000    0.000    0.000    0.000    0.000 
#    0.000    0.000    0.000    0.000    0.000    0.000 
#
# Total GULP energy -156684.474397 kJ/mol
# GULP energy per Si atom -5595.874086 kJ/mol
# Density = 2.007257 g / cm^3
# Si number density = 20.118360 Si / 1000 Ang^3
#
#
#
# Elastic Constant Matrix: (Units=GPa)
#
#
# Indices 1 2 3 4 5 6 
#
# 1 103.6012 19.3444 5.8810 0.0000 8.2315 0.0000
# 2 19.3444 73.6209 2.1111 0.0000 13.3576 0.0000
# 3 5.8810 2.1111 69.6771 0.0000 15.4446 0.0000
# 4 0.0000 0.0000 0.0000 27.6979 0.0000 -1.1529
# 5 8.2315 13.3576 15.4446 0.0000 36.5954 0.0000
# 6 0.0000 0.0000 0.0000 -1.1529 0.0000 41.3544
#
#
#
# Elastic Compliance Matrix: (Units=1/GPa)
#
#
# Indices 1 2 3 4 5 6 
#
# 1 0.010236 -0.002460 -0.000527 0.000000 -0.001182 0.000000
# 2 -0.002460 0.015179 0.000941 0.000000 -0.005385 0.000000
# 3 -0.000527 0.000941 0.015906 0.000000 -0.006938 0.000000
# 4 0.000000 0.000000 0.000000 0.036146 0.000000 0.001008
# 5 -0.001182 -0.005385 -0.006938 0.000000 0.032485 0.000000
# 6 0.000000 0.000000 0.000000 0.001008 0.000000 0.024209
#
#
# Mechanical properties :
#
#
# Convention : Reuss Voigt Hill
#
# Bulk Modulus (GPa) = 26.86112 33.50802 30.18457
# Shear Modulus (GPa) = 33.18677 35.76706 34.47691
#
# Velocity S-wave (km/s) = 4.06590 4.22101 4.14418
# Velocity P-wave (km/s) = 5.95169 6.35983 6.15914
#
# Compressibility (1/GPa) = 0.03722853
#
# Stress axis : x y z
#
# Youngs Moduli (GPa) = 97.69869 65.87869 62.87045
#
# Poissons Ratio (x) = 0.16206 0.03316
# Poissons Ratio (y) = 0.24033 -0.05918
# Poissons Ratio (z) = 0.05153 -0.06201
#
# Static dielectric constant tensor:
#      x y z
#    x 1.711290 0.000000 0.028470 
#    y 0.000000 1.681720 0.000000 
#    z 0.028470 0.000000 1.710060 
# 
# From -- ./inp_files/70808.got.cif
#   From: 2010.05.17/outbox.cif.g08.bks.cpg/sg11_36_cif.got.tgz:70808.got - 2010.06.03 12:22:45.
