data_PCOD9166386
_publ_section_title
;
Structure prediction by ZEFSAII (Michael W. Deem and Ramdas Pophale) SiO2 
 PCOD9166386
Probable space group: P 21/M
;
_chemical_formula_sum "Si O2"
_cell_formula_units_Z 28
_cell_length_a 16.025515
_cell_length_b 8.853329
_cell_length_c 13.023940
_cell_angle_alpha 90.000000
_cell_angle_beta 127.212125
_cell_angle_gamma 90.000000
_cell_volume 1471.611938
_symmetry_space_group_name_H-M "P 21/M"
_symmetry_group_IT_number 11
_symmetry_cell_setting 'monoclinic'
loop_
_space_group_symop_operation_xyz
x,y,z
-x,1/2+y,-z
-x,-y,-z
x,1/2-y,z
loop_
_atom_site_type_symbol
_atom_site_label
_atom_site_fract_x
_atom_site_fract_y
_atom_site_fract_z
Si Si1 0.655444 0.068235 0.597546
Si Si2 0.872611 0.419073 0.663075
Si Si3 0.936017 0.584120 0.038177
Si Si4 0.204513 0.433583 0.893391
Si Si5 0.434543 0.932816 0.046970
Si Si6 0.484095 0.932195 0.318718
Si Si7 0.016344 0.572176 0.621956
O O1 0.645341 0.250000 0.585868
O O2 0.775245 0.031448 0.660152
O O3 0.613043 0.021793 0.678579
O O4 0.582994 0.997904 0.454548
O O5 0.849079 0.250000 0.603509
O O6 0.975845 0.403296 0.808582
O O7 0.909952 0.534375 0.605061
O O8 0.906784 0.750000 0.977969
O O9 0.836406 0.516812 0.023316
O O10 0.000000 0.500000 0.000000
O O11 0.206635 0.250000 0.893429
O O12 0.116719 0.493970 0.749865
O O13 0.316682 0.503371 0.953176
O O14 0.435299 0.750000 0.041886
O O15 0.475046 0.977393 0.192336
O O16 0.500000 0.000000 0.000000
O O17 0.489777 0.750000 0.323722
O O18 0.033645 0.750000 0.631057
O O19 0.000000 0.500000 0.500000
#
# Coordination Sequence:
#
# PCOD9166386 Si02
#       7
#     4   4   4   4   4   4   4
#     4   9  18  35  59  84 113 150 191 239 295 351
#     4   9  19  35  54  80 114 148 186 234 284 341
#     4   9  19  33  53  81 114 148 182 227 283 346
#     4  10  22  41  60  84 117 151 194 244 290 343
#     4  11  24  41  62  86 118 159 204 250 302 360
#     4   9  20  37  57  83 114 150 193 243 295 349
#     4  11  22  38  60  85 115 152 192 236 290 349
#
# _framework density 19.026755999999999
#
# number of rings (size 3 to 8) (size 9 to 14) (size 15 to 20)
#    0.000    2.286    0.000    3.000    2.000    5.714 
#    0.000    2.857    0.000    0.000    0.000    0.000 
#    0.000    0.000    0.000    0.000    0.000    0.000 
#
# Total GULP energy -156008.675338 kJ/mol
# GULP energy per Si atom -5571.738405 kJ/mol
# Density = 1.898345 g / cm^3
# Si number density = 19.026756 Si / 1000 Ang^3
#
#
#
# Elastic Constant Matrix: (Units=GPa)
#
#
# Indices 1 2 3 4 5 6 
#
# 1 173.7875 44.2672 53.2273 0.0000 -11.1141 0.0000
# 2 44.2672 60.4433 27.2054 0.0000 -15.9542 0.0000
# 3 53.2273 27.2054 74.6053 0.0000 -22.7628 0.0000
# 4 0.0000 0.0000 0.0000 28.7404 0.0000 -0.2361
# 5 -11.1141 -15.9542 -22.7628 0.0000 32.1623 0.0000
# 6 0.0000 0.0000 0.0000 -0.2361 0.0000 32.5869
#
#
#
# Elastic Compliance Matrix: (Units=1/GPa)
#
#
# Indices 1 2 3 4 5 6 
#
# 1 0.008313 -0.004555 -0.005207 0.000000 -0.003072 0.000000
# 2 -0.004555 0.023243 -0.002791 0.000000 0.007981 0.000000
# 3 -0.005207 -0.002791 0.021893 0.000000 0.012311 0.000000
# 4 0.000000 0.000000 0.000000 0.034796 0.000000 0.000252
# 5 -0.003072 0.007981 0.012311 0.000000 0.042702 0.000000
# 6 0.000000 0.000000 0.000000 0.000252 0.000000 0.030689
#
#
# Mechanical properties :
#
#
# Convention : Reuss Voigt Hill
#
# Bulk Modulus (GPa) = 35.28311 62.02622 48.65466
# Shear Modulus (GPa) = 25.48545 30.97368 28.22957
#
# Velocity S-wave (km/s) = 3.66382 4.03910 3.85603
# Velocity P-wave (km/s) = 6.04006 7.37718 6.74185
#
# Compressibility (1/GPa) = 0.02834218
#
# Stress axis : x y z
#
# Youngs Moduli (GPa) = 120.29604 43.02312 45.67733
#
# Poissons Ratio (x) = 0.19599 0.23784
# Poissons Ratio (y) = 0.54799 0.12748
# Poissons Ratio (z) = 0.62639 0.12007
#
# Static dielectric constant tensor:
#      x y z
#    x 1.720480 0.000000 -0.027990 
#    y 0.000000 1.665040 0.000000 
#    z -0.027990 0.000000 1.636720 
# 
# From -- ./inp_files/38445.got.cif
#   From: 2010.05.17/outbox.cif.g08.bks.cpg/sg11_20_cif.got.tgz:38445.got - 2010.06.03 12:22:45.
