data_PCOD9166256
_publ_section_title
;
Structure prediction by ZEFSAII (Michael W. Deem and Ramdas Pophale) SiO2 
 PCOD9166256
Probable space group: P 21/M
;
_chemical_formula_sum "Si O2"
_cell_formula_units_Z 26
_cell_length_a 9.074857
_cell_length_b 19.689320
_cell_length_c 8.440982
_cell_angle_alpha 90.000000
_cell_angle_beta 49.602093
_cell_angle_gamma 90.000000
_cell_volume 1148.599803
_symmetry_space_group_name_H-M "P 21/M"
_symmetry_group_IT_number 11
_symmetry_cell_setting 'monoclinic'
loop_
_space_group_symop_operation_xyz
x,y,z
-x,1/2+y,-z
-x,-y,-z
x,1/2-y,z
loop_
_atom_site_type_symbol
_atom_site_label
_atom_site_fract_x
_atom_site_fract_y
_atom_site_fract_z
Si Si1 0.229675 0.250000 0.020801
Si Si2 0.650065 0.400025 0.455092
Si Si3 0.061542 0.922186 0.455518
Si Si4 0.544818 0.750000 0.796463
Si Si5 0.669623 0.502837 0.177424
Si Si6 0.508113 0.750000 0.474656
Si Si7 0.601883 0.390064 0.997746
Si Si8 0.209027 0.388115 0.115926
O O1 0.373361 0.250000 0.772238
O O2 0.324336 0.250000 0.133702
O O3 0.125502 0.322095 0.088437
O O4 0.794205 0.407243 0.500580
O O5 0.735643 0.444525 0.251640
O O6 0.453213 0.440991 0.640404
O O7 0.607655 0.321379 0.449118
O O8 0.182099 0.900502 0.219010
O O9 0.867182 0.885992 0.650756
O O10 0.000000 0.000000 0.500000
O O11 0.625476 0.750000 0.560461
O O12 0.420120 0.818807 0.898769
O O13 0.548293 0.456554 0.137663
O O14 0.821497 0.544277 0.964661
O O15 0.442586 0.385576 0.968911
#
# Coordination Sequence:
#
# PCOD9166256 Si02
#       8
#     2   4   4   2   4   2   4   4
#     4  10  22  40  62  96 130 170 221 270 329 393
#     4  11  24  37  66  97 127 174 219 268 331 399
#     4  12  24  40  66  95 125 173 216 265 336 392
#     4  10  22  39  69  97 128 177 219 270 327 397
#     4  11  20  39  62  95 128 160 215 275 322 380
#     4  12  20  43  69  97 128 181 224 260 338 396
#     4  11  21  42  65  94 127 168 218 268 323 389
#     4  11  22  39  66  90 130 169 212 272 325 389
#
# _framework density 22.636255999999999
#
# number of rings (size 3 to 8) (size 9 to 14) (size 15 to 20)
#    0.000    0.923    6.154    2.308    0.000    1.846 
#    0.000    0.000    0.000    0.000    0.000    0.000 
#    0.000    0.000    0.000    0.000    0.000    0.000 
#
# Total GULP energy -144924.155423 kJ/mol
# GULP energy per Si atom -5574.005978 kJ/mol
# Density = 2.258474 g / cm^3
# Si number density = 22.636256 Si / 1000 Ang^3
#
#
#
# Elastic Constant Matrix: (Units=GPa)
#
#
# Indices 1 2 3 4 5 6 
#
# 1 36.5088 5.6463 14.6945 0.0000 16.1580 0.0000
# 2 5.6463 178.5173 35.6972 0.0000 7.5787 0.0000
# 3 14.6945 35.6972 94.8795 0.0000 2.4385 0.0000
# 4 0.0000 0.0000 0.0000 34.1760 0.0000 12.9578
# 5 16.1580 7.5787 2.4385 0.0000 35.1198 0.0000
# 6 0.0000 0.0000 0.0000 12.9578 0.0000 20.2498
#
#
#
# Elastic Compliance Matrix: (Units=1/GPa)
#
#
# Indices 1 2 3 4 5 6 
#
# 1 0.036929 0.000649 -0.005533 0.000000 -0.016746 0.000000
# 2 0.000649 0.006116 -0.002364 0.000000 -0.001454 0.000000
# 3 -0.005533 -0.002364 0.012229 0.000000 0.002207 0.000000
# 4 0.000000 0.000000 0.000000 0.038633 0.000000 -0.024721
# 5 -0.016746 -0.001454 0.002207 0.000000 0.036339 0.000000
# 6 0.000000 0.000000 0.000000 -0.024721 0.000000 0.065202
#
#
# Mechanical properties :
#
#
# Convention : Reuss Voigt Hill
#
# Bulk Modulus (GPa) = 24.52313 46.88683 35.70498
# Shear Modulus (GPa) = 22.36761 34.83363 28.60062
#
# Velocity S-wave (km/s) = 3.14687 3.92706 3.55841
# Velocity P-wave (km/s) = 4.90518 6.42811 5.71758
#
# Compressibility (1/GPa) = 0.04077783
#
# Stress axis : x y z
#
# Youngs Moduli (GPa) = 27.07911 163.51506 81.77011
#
# Poissons Ratio (x) = -0.10618 0.45246
# Poissons Ratio (y) = -0.01758 0.19331
# Poissons Ratio (z) = 0.14984 0.38657
#
# Static dielectric constant tensor:
#      x y z
#    x 1.853310 0.000000 0.016100 
#    y 0.000000 1.922150 0.000000 
#    z 0.016100 0.000000 1.948310 
# 
# From -- ./inp_files/14542.got.cif
#   From: 2010.05.17/outbox.cif.g08.bks.cpg/sg11_8_cif.got.tgz:14542.got - 2010.06.03 12:22:45.
