data_PCOD9166619
_publ_section_title
;
Structure prediction by ZEFSAII (Michael W. Deem and Ramdas Pophale) SiO2 
 PCOD9166619
Probable space group: P 21/M
;
_chemical_formula_sum "Si O2"
_cell_formula_units_Z 24
_cell_length_a 5.183152
_cell_length_b 12.299388
_cell_length_c 17.623751
_cell_angle_alpha 90.000000
_cell_angle_beta 87.685339
_cell_angle_gamma 90.000000
_cell_volume 1122.590356
_symmetry_space_group_name_H-M "P 21/M"
_symmetry_group_IT_number 11
_symmetry_cell_setting 'monoclinic'
loop_
_space_group_symop_operation_xyz
x,y,z
-x,1/2+y,-z
-x,-y,-z
x,1/2-y,z
loop_
_atom_site_type_symbol
_atom_site_label
_atom_site_fract_x
_atom_site_fract_y
_atom_site_fract_z
Si Si1 0.758263 0.010464 0.446967
Si Si2 0.257491 0.017050 0.948508
Si Si3 0.938108 0.040019 0.688581
Si Si4 0.802332 0.124941 0.199176
Si Si5 0.548323 0.634792 0.654797
Si Si6 0.721181 0.250000 0.770233
Si Si7 0.209717 0.250000 0.869300
O O1 0.830767 0.933519 0.373418
O O2 0.500000 0.000000 0.500000
O O3 0.693103 0.119093 0.399089
O O4 0.000000 0.000000 0.500000
O O5 0.254518 0.139019 0.914824
O O6 0.261926 0.929383 0.880194
O O7 0.500000 0.000000 0.000000
O O8 0.000000 0.000000 0.000000
O O9 0.795335 0.144196 0.721787
O O10 0.740295 0.964477 0.645288
O O11 0.025231 0.963419 0.757616
O O12 0.902905 0.250000 0.191227
O O13 0.557934 0.132461 0.258369
O O14 0.676915 0.750000 0.638230
O O15 0.425522 0.250000 0.800336
O O16 0.920191 0.250000 0.839080
#
# Coordination Sequence:
#
# PCOD9166619 Si02
#       7
#     4   4   4   4   4   2   2
#     4  11  23  45  67  98 144 181 226 285 348 416
#     4  12  28  46  71 102 143 185 231 286 356 424
#     4  11  23  44  72 103 139 182 242 283 346 413
#     4  10  23  42  70 102 134 178 237 291 338 408
#     4  10  22  43  74 102 135 181 234 290 343 404
#     4  12  26  44  78 100 142 187 238 292 343 426
#     4  12  26  50  70 102 144 189 228 296 361 414
#
# _framework density 21.379123
#
# number of rings (size 3 to 8) (size 9 to 14) (size 15 to 20)
#    0.000    1.000    3.333    2.500    7.000    0.667 
#    3.000    0.000    0.000    0.000    0.000    0.000 
#    0.000    0.000    0.000    0.000    0.000    0.000 
#
# Total GULP energy -133904.051507 kJ/mol
# GULP energy per Si atom -5579.335479 kJ/mol
# Density = 2.133046 g / cm^3
# Si number density = 21.379123 Si / 1000 Ang^3
#
#
#
# Elastic Constant Matrix: (Units=GPa)
#
#
# Indices 1 2 3 4 5 6 
#
# 1 104.0179 18.4006 47.6434 0.0000 -0.1980 0.0000
# 2 18.4006 132.8529 50.6689 0.0000 -9.4719 0.0000
# 3 47.6434 50.6689 151.9859 0.0000 1.4540 0.0000
# 4 0.0000 0.0000 0.0000 -7.3607 0.0000 -0.3093
# 5 -0.1980 -9.4719 1.4540 0.0000 48.1611 0.0000
# 6 0.0000 0.0000 0.0000 -0.3093 0.0000 27.4401
#
#
#
# Elastic Compliance Matrix: (Units=1/GPa)
#
#
# Indices 1 2 3 4 5 6 
#
# 1 0.011233 -0.000235 -0.003444 0.000000 0.000104 0.000000
# 2 -0.000235 0.008784 -0.002872 0.000000 0.001813 0.000000
# 3 -0.003444 -0.002872 0.008625 0.000000 -0.000839 0.000000
# 4 0.000000 0.000000 0.000000 -0.135792 0.000000 -0.001531
# 5 0.000104 0.001813 -0.000839 0.000000 0.021146 0.000000
# 6 0.000000 0.000000 0.000000 -0.001531 0.000000 0.036426
#
#
# Mechanical properties :
#
#
# Convention : Reuss Voigt Hill
#
# Bulk Modulus (GPa) = 64.35048 69.14249 66.74649
# Shear Modulus (GPa) = -159.76583 31.79102 -63.98740
#
# Velocity S-wave (km/s) = -8.65402 3.86036 -5.47675
# Velocity P-wave (km/s) = 8.34812 7.23057 2.95041
#
# Compressibility (1/GPa) = 0.01553990
#
# Stress axis : x y z
#
# Youngs Moduli (GPa) = 89.02433 113.83832 115.94624
#
# Poissons Ratio (x) = 0.02674 0.39930
# Poissons Ratio (y) = 0.02091 0.33302
# Poissons Ratio (z) = 0.30659 0.32697
#
# Static dielectric constant tensor:
#      x y z
#    x 1.840620 0.000000 0.016320 
#    y 0.000000 1.782570 0.000000 
#    z 0.016320 0.000000 1.788880 
# 
# From -- ./inp_files/56809.got.cif
#   From: 2010.05.17/outbox.cif.g08.bks.cpg/sg11_29_cif.got.tgz:56809.got - 2010.06.03 12:22:45.
