data_PCOD9166601
_publ_section_title
;
Structure prediction by ZEFSAII (Michael W. Deem and Ramdas Pophale) SiO2 
 PCOD9166601
Probable space group: P 21/M
;
_chemical_formula_sum "Si O2"
_cell_formula_units_Z 32
_cell_length_a 5.439370
_cell_length_b 24.767800
_cell_length_c 11.482508
_cell_angle_alpha 90.000000
_cell_angle_beta 66.441813
_cell_angle_gamma 90.000000
_cell_volume 1418.007527
_symmetry_space_group_name_H-M "P 21/M"
_symmetry_group_IT_number 11
_symmetry_cell_setting 'monoclinic'
loop_
_space_group_symop_operation_xyz
x,y,z
-x,1/2+y,-z
-x,-y,-z
x,1/2-y,z
loop_
_atom_site_type_symbol
_atom_site_label
_atom_site_fract_x
_atom_site_fract_y
_atom_site_fract_z
Si Si1 0.665826 0.127417 0.011163
Si Si2 0.064800 0.502935 0.350731
Si Si3 0.395920 0.808823 0.762634
Si Si4 0.399788 0.989316 0.887592
Si Si5 0.266102 0.103757 0.872961
Si Si6 0.234151 0.605052 0.621990
Si Si7 0.945581 0.689005 0.511232
Si Si8 0.740940 0.891301 0.379421
O O1 0.562769 0.175466 0.111973
O O2 0.661021 0.073568 0.092776
O O3 0.472707 0.119320 0.936322
O O4 0.980954 0.134039 0.924893
O O5 0.369232 0.497580 0.252556
O O6 0.000000 0.500000 0.500000
O O7 0.918182 0.450348 0.326395
O O8 0.953044 0.560203 0.329339
O O9 0.269373 0.750000 0.773656
O O10 0.226177 0.855266 0.732695
O O11 0.674482 0.808342 0.639468
O O12 0.203444 0.039331 0.898897
O O13 0.500000 0.000000 0.000000
O O14 0.390699 0.113561 0.722087
O O15 0.117793 0.642643 0.540900
O O16 0.531034 0.591452 0.519484
O O17 0.059128 0.750000 0.486211
O O18 0.866385 0.664469 0.401232
#
# Coordination Sequence:
#
# PCOD9166601 Si02
#       8
#     4   4   4   4   4   4   4   4
#     4  11  25  43  70  99 133 183 234 281 338 410
#     4  12  23  39  66 105 144 178 227 289 356 410
#     4  10  24  43  66  98 131 172 232 295 351 407
#     4  10  23  40  65  95 136 185 225 270 338 425
#     4  11  25  44  68  97 140 183 230 275 339 415
#     4  11  23  38  69  99 135 178 223 285 356 418
#     4  10  22  43  68  95 130 178 229 284 346 416
#     4  11  24  41  65  98 142 177 226 281 349 417
#
# _framework density 22.566873999999999
#
# number of rings (size 3 to 8) (size 9 to 14) (size 15 to 20)
#    0.000    1.250    1.250    4.125   10.500    0.500 
#    0.000    1.250    0.000    0.000    0.000    0.000 
#    0.000    0.000    0.000    0.000    0.000    0.000 
#
# Total GULP energy -178848.470481 kJ/mol
# GULP energy per Si atom -5589.014703 kJ/mol
# Density = 2.251551 g / cm^3
# Si number density = 22.566874 Si / 1000 Ang^3
#
#
#
# Elastic Constant Matrix: (Units=GPa)
#
#
# Indices 1 2 3 4 5 6 
#
# 1 69.7069 21.9589 27.6095 0.0000 9.0325 0.0000
# 2 21.9589 91.3546 33.1462 0.0000 -1.0951 0.0000
# 3 27.6095 33.1462 105.0001 0.0000 24.8109 0.0000
# 4 0.0000 0.0000 0.0000 10.0692 0.0000 4.4848
# 5 9.0325 -1.0951 24.8109 0.0000 33.2883 0.0000
# 6 0.0000 0.0000 0.0000 4.4848 0.0000 21.3666
#
#
#
# Elastic Compliance Matrix: (Units=1/GPa)
#
#
# Indices 1 2 3 4 5 6 
#
# 1 0.016755 -0.003021 -0.002858 0.000000 -0.002516 0.000000
# 2 -0.003021 0.013368 -0.004519 0.000000 0.004628 0.000000
# 3 -0.002858 -0.004519 0.014023 0.000000 -0.009825 0.000000
# 4 0.000000 0.000000 0.000000 0.109554 0.000000 -0.022995
# 5 -0.002516 0.004628 -0.009825 0.000000 0.038199 0.000000
# 6 0.000000 0.000000 0.000000 -0.022995 0.000000 0.051629
#
#
# Mechanical properties :
#
#
# Convention : Reuss Voigt Hill
#
# Bulk Modulus (GPa) = 42.82408 47.94341 45.38375
# Shear Modulus (GPa) = 18.37514 25.16795 21.77155
#
# Velocity S-wave (km/s) = 2.85661 3.34318 3.10942
# Velocity P-wave (km/s) = 5.46791 6.01611 5.74855
#
# Compressibility (1/GPa) = 0.02335135
#
# Stress axis : x y z
#
# Youngs Moduli (GPa) = 59.68285 74.80792 71.30910
#
# Poissons Ratio (x) = 0.22598 0.20378
# Poissons Ratio (y) = 0.18029 0.32225
# Poissons Ratio (z) = 0.17055 0.33806
#
# Static dielectric constant tensor:
#      x y z
#    x 1.900830 0.000000 0.006600 
#    y 0.000000 1.874970 0.000000 
#    z 0.006600 0.000000 1.821950 
# 
# From -- ./inp_files/30241.got.cif
#   From: 2010.05.17/outbox.cif.g08.bks.cpg/sg11_16_cif.got.tgz:30241.got - 2010.06.03 12:22:45.
