data_PCOD9166385
_publ_section_title
;
Structure prediction by ZEFSAII (Michael W. Deem and Ramdas Pophale) SiO2 
 PCOD9166385
Probable space group: P 21/M
;
_chemical_formula_sum "Si O2"
_cell_formula_units_Z 32
_cell_length_a 12.597479
_cell_length_b 8.375109
_cell_length_c 16.431648
_cell_angle_alpha 90.000000
_cell_angle_beta 98.236238
_cell_angle_gamma 90.000000
_cell_volume 1715.744374
_symmetry_space_group_name_H-M "P 21/M"
_symmetry_group_IT_number 11
_symmetry_cell_setting 'monoclinic'
loop_
_space_group_symop_operation_xyz
x,y,z
-x,1/2+y,-z
-x,-y,-z
x,1/2-y,z
loop_
_atom_site_type_symbol
_atom_site_label
_atom_site_fract_x
_atom_site_fract_y
_atom_site_fract_z
Si Si1 0.594878 0.061333 0.862364
Si Si2 0.525965 0.558296 0.592461
Si Si3 0.960063 0.565849 0.761876
Si Si4 0.914242 0.434871 0.927910
Si Si5 0.727383 0.943995 0.719179
Si Si6 0.273904 0.439256 0.989585
Si Si7 0.598419 0.060581 0.262935
Si Si8 0.200451 0.439606 0.798471
O O1 0.604055 0.250000 0.874744
O O2 0.677996 0.006410 0.799468
O O3 0.615433 0.973350 0.950801
O O4 0.478773 0.020722 0.812101
O O5 0.500000 0.500000 0.500000
O O6 0.525356 0.750000 0.590788
O O7 0.641725 0.508686 0.640952
O O8 0.440800 0.506488 0.652202
O O9 0.974325 0.750000 0.740130
O O10 0.076075 0.483578 0.770332
O O11 0.925742 0.547468 0.851989
O O12 0.848591 0.501921 0.710895
O O13 0.932863 0.250000 0.907203
O O14 0.803954 0.456862 0.962399
O O15 0.000000 0.500000 0.000000
O O16 0.729656 0.750000 0.725652
O O17 0.250308 0.250000 0.993797
O O18 0.245545 0.485019 0.893707
O O19 0.579688 0.250000 0.255361
O O20 0.720551 0.021118 0.256842
O O21 0.211374 0.250000 0.793777
#
# Coordination Sequence:
#
# PCOD9166385 Si02
#       8
#     4   4   4   4   4   4   4   4
#     4  11  21  33  54  80 107 142 190 240 285 326
#     4   9  19  37  63  93 116 139 169 215 271 334
#     4  11  21  34  55  77 108 151 189 230 281 329
#     4  12  22  32  48  73 104 143 194 245 286 324
#     4   9  19  35  55  82 116 147 180 222 278 332
#     4  11  22  35  50  72 107 148 190 240 289 328
#     4  10  22  41  60  79 111 147 183 222 277 340
#     4  11  24  38  54  77 109 148 195 238 276 326
#
# _framework density 18.650798000000002
#
# number of rings (size 3 to 8) (size 9 to 14) (size 15 to 20)
#    0.000    1.500    2.500    4.500    0.000    5.000 
#    0.000    0.000    0.000    0.750    0.000    0.000 
#    0.000    0.000    0.000    0.000    0.000    0.000 
#
# Total GULP energy -178478.472081 kJ/mol
# GULP energy per Si atom -5577.452253 kJ/mol
# Density = 1.860835 g / cm^3
# Si number density = 18.650798 Si / 1000 Ang^3
#
#
#
# Elastic Constant Matrix: (Units=GPa)
#
#
# Indices 1 2 3 4 5 6 
#
# 1 106.4741 13.1307 55.3088 0.0000 1.8733 0.0000
# 2 13.1307 43.6215 11.7641 0.0000 3.1845 0.0000
# 3 55.3088 11.7641 87.4495 0.0000 18.7063 0.0000
# 4 0.0000 0.0000 0.0000 22.5721 0.0000 1.7696
# 5 1.8733 3.1845 18.7063 0.0000 19.1944 0.0000
# 6 0.0000 0.0000 0.0000 1.7696 0.0000 28.0612
#
#
#
# Elastic Compliance Matrix: (Units=1/GPa)
#
#
# Indices 1 2 3 4 5 6 
#
# 1 0.015607 -0.002277 -0.011774 0.000000 0.010330 0.000000
# 2 -0.002277 0.024136 -0.001261 0.000000 -0.002553 0.000000
# 3 -0.011774 -0.001261 0.023702 0.000000 -0.021741 0.000000
# 4 0.000000 0.000000 0.000000 0.044523 0.000000 -0.002808
# 5 0.010330 -0.002553 -0.021741 0.000000 0.072703 0.000000
# 6 0.000000 0.000000 0.000000 -0.002808 0.000000 0.035813
#
#
# Mechanical properties :
#
#
# Convention : Reuss Voigt Hill
#
# Bulk Modulus (GPa) = 30.46721 44.21691 37.34206
# Shear Modulus (GPa) = 19.37616 24.45496 21.91556
#
# Velocity S-wave (km/s) = 3.22668 3.62498 3.43161
# Velocity P-wave (km/s) = 5.50028 6.42494 5.98051
#
# Compressibility (1/GPa) = 0.03282217
#
# Stress axis : x y z
#
# Youngs Moduli (GPa) = 64.07265 41.43150 42.18989
#
# Poissons Ratio (x) = 0.09433 0.49676
# Poissons Ratio (y) = 0.14588 0.05319
# Poissons Ratio (z) = 0.75442 0.05223
#
# Static dielectric constant tensor:
#      x y z
#    x 1.689000 0.000000 0.030900 
#    y 0.000000 1.593660 0.000000 
#    z 0.030900 0.000000 1.633300 
# 
# From -- ./inp_files/42787.got.cif
#   From: 2010.05.17/outbox.cif.g08.bks.cpg/sg11_22_cif.got.tgz:42787.got - 2010.06.03 12:22:45.
