data_PCOD9166675
_publ_section_title
;
Structure prediction by ZEFSAII (Michael W. Deem and Ramdas Pophale) SiO2 
 PCOD9166675
Probable space group: P 21/M
;
_chemical_formula_sum "Si O2"
_cell_formula_units_Z 20
_cell_length_a 5.362816
_cell_length_b 26.791411
_cell_length_c 7.248007
_cell_angle_alpha 90.000000
_cell_angle_beta 113.668344
_cell_angle_gamma 90.000000
_cell_volume 953.779121
_symmetry_space_group_name_H-M "P 21/M"
_symmetry_group_IT_number 11
_symmetry_cell_setting 'monoclinic'
loop_
_space_group_symop_operation_xyz
x,y,z
-x,1/2+y,-z
-x,-y,-z
x,1/2-y,z
loop_
_atom_site_type_symbol
_atom_site_label
_atom_site_fract_x
_atom_site_fract_y
_atom_site_fract_z
Si Si1 0.122291 0.854931 0.266998
Si Si2 0.849210 0.937276 0.976292
Si Si3 0.359814 0.619962 0.734524
Si Si4 0.487781 0.191225 0.906491
Si Si5 0.894290 0.012471 0.266268
O O1 0.096715 0.906371 0.141542
O O2 0.817700 0.831881 0.191933
O O3 0.230837 0.866243 0.502730
O O4 0.337900 0.820489 0.224684
O O5 0.734834 0.966450 0.123753
O O6 0.677173 0.894259 0.824728
O O7 0.877086 0.977962 0.822105
O O8 0.240646 0.566713 0.763717
O O9 0.347089 0.663634 0.880438
O O10 0.467764 0.250000 0.932235
O O11 0.000000 0.000000 0.500000
#
# Coordination Sequence:
#
# PCOD9166675 Si02
#       5
#     4   4   4   4   4
#     4  11  24  44  70  99 132 173 223 274 340 397
#     4  10  23  39  61  99 137 176 221 267 325 399
#     4  11  24  41  68  94 136 178 222 276 334 401
#     4  11  26  46  69  97 130 170 226 287 339 399
#     4  11  21  39  63  98 136 182 219 268 328 399
#
# _framework density 20.969217
#
# number of rings (size 3 to 8) (size 9 to 14) (size 15 to 20)
#    0.000    1.200    4.000    1.200    2.800    2.400 
#    0.000    0.000    0.000    0.000    0.000    0.000 
#    0.000    0.000    0.000    0.000    0.000    0.000 
#
# Total GULP energy -111445.499280 kJ/mol
# GULP energy per Si atom -5572.274964 kJ/mol
# Density = 2.092149 g / cm^3
# Si number density = 20.969217 Si / 1000 Ang^3
#
#
#
# Elastic Constant Matrix: (Units=GPa)
#
#
# Indices 1 2 3 4 5 6 
#
# 1 65.5070 23.6508 48.1698 0.0000 1.6614 0.0000
# 2 23.6508 127.7976 74.7677 0.0000 10.6777 0.0000
# 3 48.1698 74.7677 196.3671 0.0000 17.1265 0.0000
# 4 0.0000 0.0000 0.0000 29.3240 0.0000 -2.9858
# 5 1.6614 10.6777 17.1265 0.0000 24.2238 0.0000
# 6 0.0000 0.0000 0.0000 -2.9858 0.0000 28.2122
#
#
#
# Elastic Compliance Matrix: (Units=1/GPa)
#
#
# Indices 1 2 3 4 5 6 
#
# 1 0.018844 -0.001104 -0.004403 0.000000 0.002307 0.000000
# 2 -0.001104 0.010210 -0.003443 0.000000 -0.001990 0.000000
# 3 -0.004403 -0.003443 0.007806 0.000000 -0.003699 0.000000
# 4 0.000000 0.000000 0.000000 0.034473 0.000000 0.003648
# 5 0.002307 -0.001990 -0.003699 0.000000 0.044616 0.000000
# 6 0.000000 0.000000 0.000000 0.003648 0.000000 0.035832
#
#
# Mechanical properties :
#
#
# Convention : Reuss Voigt Hill
#
# Bulk Modulus (GPa) = 52.74525 75.87203 64.30864
# Shear Modulus (GPa) = 28.40889 32.55756 30.48323
#
# Velocity S-wave (km/s) = 3.68474 3.94463 3.81690
# Velocity P-wave (km/s) = 6.58114 7.55036 7.08235
#
# Compressibility (1/GPa) = 0.01895905
#
# Stress axis : x y z
#
# Youngs Moduli (GPa) = 53.06863 97.94497 128.10211
#
# Poissons Ratio (x) = 0.10812 0.56408
# Poissons Ratio (y) = 0.05858 0.44106
# Poissons Ratio (z) = 0.23368 0.33723
#
# Static dielectric constant tensor:
#      x y z
#    x 1.948720 0.000000 -0.019060 
#    y 0.000000 1.818080 0.000000 
#    z -0.019060 0.000000 1.692910 
# 
# From -- ./inp_files/782.got.cif
#   From: 2010.05.17/outbox.cif.g08.bks.cpg/sg11_1_cif.got.tgz:782.got - 2010.06.03 12:22:45.
