data_PCOD9166428
_publ_section_title
;
Structure prediction by ZEFSAII (Michael W. Deem and Ramdas Pophale) SiO2 
 PCOD9166428
Probable space group: P 21/M
;
_chemical_formula_sum "Si O2"
_cell_formula_units_Z 28
_cell_length_a 22.792226
_cell_length_b 8.720062
_cell_length_c 9.097177
_cell_angle_alpha 90.000000
_cell_angle_beta 53.372230
_cell_angle_gamma 90.000000
_cell_volume 1451.019913
_symmetry_space_group_name_H-M "P 21/M"
_symmetry_group_IT_number 11
_symmetry_cell_setting 'monoclinic'
loop_
_space_group_symop_operation_xyz
x,y,z
-x,1/2+y,-z
-x,-y,-z
x,1/2-y,z
loop_
_atom_site_type_symbol
_atom_site_label
_atom_site_fract_x
_atom_site_fract_y
_atom_site_fract_z
Si Si1 0.139567 0.432951 0.455070
Si Si2 0.709364 0.066480 0.263904
Si Si3 0.569084 0.066297 0.983690
Si Si4 0.138591 0.933869 0.128440
Si Si5 0.430534 0.067642 0.689354
Si Si6 0.279868 0.934241 0.407793
Si Si7 0.000361 0.933602 0.835152
O O1 0.132771 0.250000 0.458615
O O2 0.141500 0.501795 0.288623
O O3 0.213138 0.481084 0.429598
O O4 0.070802 0.503107 0.644127
O O5 0.696138 0.250000 0.272992
O O6 0.715463 0.027483 0.426812
O O7 0.642648 0.981069 0.286622
O O8 0.785369 0.033175 0.068315
O O9 0.563154 0.250000 0.999742
O O10 0.571681 0.999380 0.143255
O O11 0.643882 0.028712 0.785861
O O12 0.500000 0.000000 0.000000
O O13 0.128676 0.750000 0.146620
O O14 0.071745 0.009500 0.141448
O O15 0.436773 0.250000 0.686654
O O16 0.500000 0.000000 0.500000
O O17 0.268061 0.750000 0.413308
O O18 0.002647 0.750000 0.836175
O O19 0.000000 0.000000 0.000000
#
# Coordination Sequence:
#
# PCOD9166428 Si02
#       7
#     4   4   4   4   4   4   4
#     4  12  25  41  63  92 126 165 210 258 307 363
#     4  10  22  41  65  92 124 161 204 254 311 369
#     4  11  23  40  64  93 127 164 206 254 309 369
#     4  11  23  41  65  93 127 166 207 254 307 364
#     4  12  25  41  63  90 124 163 208 258 310 368
#     4  10  22  41  64  91 124 163 205 255 312 369
#     4  12  25  43  66  93 126 162 205 255 309 370
#
# _framework density 19.296773000000002
#
# number of rings (size 3 to 8) (size 9 to 14) (size 15 to 20)
#    0.000    0.857    0.000    7.714    0.000    8.571 
#    0.000    0.000    0.000    0.000    0.000    0.000 
#    0.000    0.000    0.000    0.000    0.000    0.000 
#
# Total GULP energy -156790.188876 kJ/mol
# GULP energy per Si atom -5599.649603 kJ/mol
# Density = 1.925285 g / cm^3
# Si number density = 19.296773 Si / 1000 Ang^3
#
#
#
# Elastic Constant Matrix: (Units=GPa)
#
#
# Indices 1 2 3 4 5 6 
#
# 1 173.7592 90.9412 114.7356 0.0000 2.8732 0.0000
# 2 90.9412 129.0273 107.6453 0.0000 -8.3098 0.0000
# 3 114.7356 107.6453 220.6211 0.0000 9.4454 0.0000
# 4 0.0000 0.0000 0.0000 31.0181 0.0000 -0.0674
# 5 2.8732 -8.3098 9.4454 0.0000 42.0043 0.0000
# 6 0.0000 0.0000 0.0000 -0.0674 0.0000 44.2209
#
#
#
# Elastic Compliance Matrix: (Units=1/GPa)
#
#
# Indices 1 2 3 4 5 6 
#
# 1 0.010232 -0.004845 -0.002914 0.000000 -0.001003 0.000000
# 2 -0.004845 0.016088 -0.005534 0.000000 0.004759 0.000000
# 3 -0.002914 -0.005534 0.008872 0.000000 -0.002891 0.000000
# 4 0.000000 0.000000 0.000000 0.032239 0.000000 0.000049
# 5 -0.001003 0.004759 -0.002891 0.000000 0.025467 0.000000
# 6 0.000000 0.000000 0.000000 0.000049 0.000000 0.022614
#
#
# Mechanical properties :
#
#
# Convention : Reuss Voigt Hill
#
# Bulk Modulus (GPa) = 116.19634 127.78352 121.98993
# Shear Modulus (GPa) = 34.49060 37.45436 35.97248
#
# Velocity S-wave (km/s) = 4.23232 4.41042 4.32229
# Velocity P-wave (km/s) = 9.17767 9.60727 9.39492
#
# Compressibility (1/GPa) = 0.00860612
#
# Stress axis : x y z
#
# Youngs Moduli (GPa) = 97.73638 62.15662 112.71249
#
# Poissons Ratio (x) = 0.30113 0.32847
# Poissons Ratio (y) = 0.47351 0.62375
# Poissons Ratio (z) = 0.28483 0.34398
#
# Static dielectric constant tensor:
#      x y z
#    x 1.624830 0.000000 -0.000900 
#    y 0.000000 1.648530 0.000000 
#    z -0.000900 0.000000 1.639880 
# 
# From -- ./inp_files/26108.got.cif
#   From: 2010.05.17/outbox.cif.g08.bks.cpg/sg11_14_cif.got.tgz:26108.got - 2010.06.03 12:22:45.
