data_PCOD9166239
_publ_section_title
;
Structure prediction by ZEFSAII (Michael W. Deem and Ramdas Pophale) SiO2 
 PCOD9166239
Probable space group: P 21/M
;
_chemical_formula_sum "Si O2"
_cell_formula_units_Z 32
_cell_length_a 9.815319
_cell_length_b 22.604050
_cell_length_c 6.637503
_cell_angle_alpha 90.000000
_cell_angle_beta 70.911894
_cell_angle_gamma 90.000000
_cell_volume 1391.665773
_symmetry_space_group_name_H-M "P 21/M"
_symmetry_group_IT_number 11
_symmetry_cell_setting 'monoclinic'
loop_
_space_group_symop_operation_xyz
x,y,z
-x,1/2+y,-z
-x,-y,-z
x,1/2-y,z
loop_
_atom_site_type_symbol
_atom_site_label
_atom_site_fract_x
_atom_site_fract_y
_atom_site_fract_z
Si Si1 0.910034 0.913354 0.949335
Si Si2 0.746712 0.600767 0.650344
Si Si3 0.092688 0.319399 0.741623
Si Si4 0.388259 0.980137 0.223727
Si Si5 0.772206 0.180562 0.719184
Si Si6 0.214127 0.533974 0.936768
Si Si7 0.620178 0.111253 0.458032
Si Si8 0.503437 0.180745 0.155015
O O1 0.894187 0.848287 0.045602
O O2 0.799219 0.963388 0.082029
O O3 0.883454 0.912823 0.724993
O O4 0.062861 0.937606 0.948553
O O5 0.800792 0.641877 0.446116
O O6 0.671894 0.538376 0.635494
O O7 0.629564 0.638282 0.835332
O O8 0.125015 0.250000 0.719655
O O9 0.928788 0.328497 0.741952
O O10 0.451097 0.930918 0.340438
O O11 0.500000 0.000000 0.000000
O O12 0.256358 0.955808 0.149470
O O13 0.763904 0.250000 0.669186
O O14 0.742750 0.143631 0.530984
O O15 0.643135 0.170857 0.945119
O O16 0.325031 0.565674 0.736786
O O17 0.538563 0.160498 0.367544
O O18 0.467252 0.250000 0.162965
#
# Coordination Sequence:
#
# PCOD9166239 Si02
#       8
#     4   4   4   4   4   4   4   4
#     4  10  22  41  62  89 127 167 204 259 323 372
#     4  11  24  42  62  89 126 164 209 259 315 383
#     4  11  23  39  62  92 124 164 213 260 312 382
#     4  11  24  40  62  95 129 166 210 264 328 385
#     4  10  23  42  63  91 127 164 209 261 314 378
#     4  10  22  39  63  94 125 162 213 261 313 384
#     4  12  21  38  66  90 120 162 207 258 318 373
#     4  11  25  43  63  91 125 164 212 261 310 376
#
# _framework density 22.994025000000001
#
# number of rings (size 3 to 8) (size 9 to 14) (size 15 to 20)
#    0.000    1.250    0.000    6.000    0.000    6.000 
#    0.000    9.375    0.000    0.000    0.000    0.000 
#    0.000    0.000    0.000    0.000    0.000    0.000 
#
# Total GULP energy -178908.139651 kJ/mol
# GULP energy per Si atom -5590.879364 kJ/mol
# Density = 2.294169 g / cm^3
# Si number density = 22.994025 Si / 1000 Ang^3
#
#
#
# Elastic Constant Matrix: (Units=GPa)
#
#
# Indices 1 2 3 4 5 6 
#
# 1 63.9636 -1.5106 1.3414 0.0000 10.5461 0.0000
# 2 -1.5106 100.9332 10.3780 0.0000 11.7646 0.0000
# 3 1.3414 10.3780 43.8141 0.0000 8.5701 0.0000
# 4 0.0000 0.0000 0.0000 39.7326 0.0000 8.2107
# 5 10.5461 11.7646 8.5701 0.0000 32.0822 0.0000
# 6 0.0000 0.0000 0.0000 8.2107 0.0000 32.3283
#
#
#
# Elastic Compliance Matrix: (Units=1/GPa)
#
#
# Indices 1 2 3 4 5 6 
#
# 1 0.016620 0.000892 0.000435 0.000000 -0.005907 0.000000
# 2 0.000892 0.010535 -0.001804 0.000000 -0.003675 0.000000
# 3 0.000435 -0.001804 0.024412 0.000000 -0.006003 0.000000
# 4 0.000000 0.000000 0.000000 0.026562 0.000000 -0.006746
# 5 -0.005907 -0.003675 -0.006003 0.000000 0.036063 0.000000
# 6 0.000000 0.000000 0.000000 -0.006746 0.000000 0.032646
#
#
# Mechanical properties :
#
#
# Convention : Reuss Voigt Hill
#
# Bulk Modulus (GPa) = 19.75747 25.45872 22.60809
# Shear Modulus (GPa) = 30.36546 34.06212 32.21379
#
# Velocity S-wave (km/s) = 3.63792 3.85300 3.74701
# Velocity P-wave (km/s) = 5.12416 5.55789 5.34543
#
# Compressibility (1/GPa) = 0.05061377
#
# Stress axis : x y z
#
# Youngs Moduli (GPa) = 60.16943 94.92462 40.96380
#
# Poissons Ratio (x) = -0.08472 -0.01783
# Poissons Ratio (y) = -0.05370 0.07389
# Poissons Ratio (z) = -0.02618 0.17123
#
# Static dielectric constant tensor:
#      x y z
#    x 1.909680 0.000000 -0.008970 
#    y 0.000000 1.864480 0.000000 
#    z -0.008970 0.000000 1.847030 
# 
# From -- ./inp_files/5450.got.cif
#   From: 2010.05.17/outbox.cif.g08.bks.cpg/sg11_3_cif.got.tgz:5450.got - 2010.06.03 12:22:45.
