data_PCOD9166971
_publ_section_title
;
Structure prediction by ZEFSAII (Michael W. Deem and Ramdas Pophale) SiO2 
 PCOD9166971
Probable space group: P 21/M
;
_chemical_formula_sum "Si O2"
_cell_formula_units_Z 28
_cell_length_a 7.508686
_cell_length_b 30.808428
_cell_length_c 4.865344
_cell_angle_alpha 90.000000
_cell_angle_beta 114.663089
_cell_angle_gamma 90.000000
_cell_volume 1022.832339
_symmetry_space_group_name_H-M "P 21/M"
_symmetry_group_IT_number 11
_symmetry_cell_setting 'monoclinic'
loop_
_space_group_symop_operation_xyz
x,y,z
-x,1/2+y,-z
-x,-y,-z
x,1/2-y,z
loop_
_atom_site_type_symbol
_atom_site_label
_atom_site_fract_x
_atom_site_fract_y
_atom_site_fract_z
Si Si1 0.530117 0.382379 0.550589
Si Si2 0.447032 0.300475 0.778117
Si Si3 0.697627 0.507219 0.812764
Si Si4 0.903973 0.697207 0.049952
Si Si5 0.753029 0.082160 0.173141
Si Si6 0.181047 0.058879 0.577966
Si Si7 0.872205 0.301223 0.311892
O O1 0.462759 0.332709 0.532073
O O2 0.711268 0.464738 0.011103
O O3 0.348100 0.411063 0.547727
O O4 0.706767 0.388245 0.881947
O O5 0.415611 0.250000 0.678259
O O6 0.280570 0.315312 0.884158
O O7 0.653583 0.303513 0.065726
O O8 0.500000 0.500000 0.500000
O O9 0.606304 0.401815 0.315468
O O10 0.743162 0.543746 0.074532
O O11 0.891102 0.750000 0.021419
O O12 0.089052 0.683524 0.357600
O O13 0.964172 0.680857 0.790401
O O14 0.970392 0.081632 0.437506
O O15 0.842622 0.981687 0.653029
O O16 0.913085 0.250000 0.351980
#
# Coordination Sequence:
#
# PCOD9166971 Si02
#       7
#     4   4   4   4   4   4   4
#     4  12  28  45  71 105 150 199 251 315 373 439
#     4  10  24  46  71 102 140 192 253 312 378 441
#     4  12  24  46  82 114 152 200 249 300 362 453
#     4   9  19  37  63  94 125 164 224 293 357 427
#     4  12  27  49  73 111 155 199 248 300 373 457
#     4  12  26  46  76 112 157 203 241 300 376 448
#     4   9  19  36  61  91 124 163 218 288 355 421
#
# _framework density 27.374967000000002
#
# number of rings (size 3 to 8) (size 9 to 14) (size 15 to 20)
#    0.000    1.143    1.429    3.857    0.000    5.714 
#    0.000    9.286    0.000    0.000    0.000    0.000 
#    0.000    0.000    0.000    0.000    0.000    0.000 
#
# Total GULP energy -156853.927070 kJ/mol
# GULP energy per Si atom -5601.925967 kJ/mol
# Density = 2.731266 g / cm^3
# Si number density = 27.374967 Si / 1000 Ang^3
#
#
#
# Elastic Constant Matrix: (Units=GPa)
#
#
# Indices 1 2 3 4 5 6 
#
# 1 145.8963 30.3695 77.5105 0.0000 0.1098 0.0000
# 2 30.3695 92.7244 45.5410 0.0000 0.0559 0.0000
# 3 77.5105 45.5410 202.9303 0.0000 -18.3580 0.0000
# 4 0.0000 0.0000 0.0000 14.7984 0.0000 -7.9940
# 5 0.1098 0.0559 -18.3580 0.0000 54.9822 0.0000
# 6 0.0000 0.0000 0.0000 -7.9940 0.0000 33.8174
#
#
#
# Elastic Compliance Matrix: (Units=1/GPa)
#
#
# Indices 1 2 3 4 5 6 
#
# 1 0.008813 -0.001332 -0.003165 0.000000 -0.001073 0.000000
# 2 -0.001332 0.012370 -0.002339 0.000000 -0.000791 0.000000
# 3 -0.003165 -0.002339 0.006870 0.000000 0.002302 0.000000
# 4 0.000000 0.000000 0.000000 0.077467 0.000000 0.018312
# 5 -0.001073 -0.000791 0.002302 0.000000 0.018959 0.000000
# 6 0.000000 0.000000 0.000000 0.018312 0.000000 0.033899
#
#
# Mechanical properties :
#
#
# Convention : Reuss Voigt Hill
#
# Bulk Modulus (GPa) = 69.52754 83.15477 76.34115
# Shear Modulus (GPa) = 28.27355 39.92827 34.10091
#
# Velocity S-wave (km/s) = 3.21725 3.82326 3.53327
# Velocity P-wave (km/s) = 6.26532 7.06625 6.67781
#
# Compressibility (1/GPa) = 0.01438279
#
# Stress axis : x y z
#
# Youngs Moduli (GPa) = 113.46323 80.84041 145.56676
#
# Poissons Ratio (x) = 0.10766 0.46065
# Poissons Ratio (y) = 0.15110 0.34047
# Poissons Ratio (z) = 0.35906 0.18908
#
# Static dielectric constant tensor:
#      x y z
#    x 2.118690 0.000000 0.051290 
#    y 0.000000 2.273750 0.000000 
#    z 0.051290 0.000000 2.140610 
# 
# From -- ./inp_files/3449.got.cif
#   From: 2010.05.17/outbox.cif.g08.bks.cpg/sg11_2_cif.got.tgz:3449.got - 2010.06.03 12:22:45.
