data_PCOD9166511
_publ_section_title
;
Structure prediction by ZEFSAII (Michael W. Deem and Ramdas Pophale) SiO2 
 PCOD9166511
Probable space group: P 21/M
;
_chemical_formula_sum "Si O2"
_cell_formula_units_Z 28
_cell_length_a 8.945922
_cell_length_b 20.765334
_cell_length_c 13.329170
_cell_angle_alpha 90.000000
_cell_angle_beta 32.588180
_cell_angle_gamma 90.000000
_cell_volume 1333.616767
_symmetry_space_group_name_H-M "P 21/M"
_symmetry_group_IT_number 11
_symmetry_cell_setting 'monoclinic'
loop_
_space_group_symop_operation_xyz
x,y,z
-x,1/2+y,-z
-x,-y,-z
x,1/2-y,z
loop_
_atom_site_type_symbol
_atom_site_label
_atom_site_fract_x
_atom_site_fract_y
_atom_site_fract_z
Si Si1 0.034503 0.872058 0.515479
Si Si2 0.125895 0.063016 0.190127
Si Si3 0.603972 0.679709 0.240056
Si Si4 0.241896 0.581891 0.186069
Si Si5 0.974577 0.426830 0.055665
Si Si6 0.812158 0.679153 0.345799
Si Si7 0.475177 0.676378 0.740685
O O1 0.284454 0.822851 0.390627
O O2 0.121799 0.912459 0.367164
O O3 0.011458 0.911706 0.630817
O O4 0.739350 0.839296 0.660411
O O5 0.940977 0.070466 0.195123
O O6 0.189960 0.988299 0.171122
O O7 0.429464 0.095479 0.003286
O O8 0.718932 0.750000 0.142505
O O9 0.653972 0.674198 0.330641
O O10 0.750557 0.616223 0.114629
O O11 0.058334 0.629552 0.223242
O O12 0.744009 0.382104 0.132010
O O13 0.000000 0.500000 0.000000
O O14 0.940448 0.750000 0.279169
O O15 0.597355 0.674155 0.558724
O O16 0.374208 0.750000 0.816640
#
# Coordination Sequence:
#
# PCOD9166511 Si02
#       7
#     4   4   4   4   4   4   4
#     4  11  23  42  71  99 131 174 219 273 333 389
#     4  11  24  41  66  95 135 175 218 271 330 395
#     4  11  23  42  66  96 136 174 219 276 331 389
#     4  10  22  42  63  97 134 170 218 274 329 393
#     4  12  26  43  66  98 137 177 222 275 329 394
#     4   9  20  40  66  92 127 171 220 275 329 388
#     4  10  23  44  68  97 131 172 223 271 326 397
#
# _framework density 20.995536999999999
#
# number of rings (size 3 to 8) (size 9 to 14) (size 15 to 20)
#    0.000    1.429    1.429    3.000    6.000    2.857 
#    0.000    7.857    0.000    0.000    0.000    0.000 
#    0.000    0.000    0.000    0.000    0.000    0.000 
#
# Total GULP energy -156353.948148 kJ/mol
# GULP energy per Si atom -5584.069577 kJ/mol
# Density = 2.094775 g / cm^3
# Si number density = 20.995537 Si / 1000 Ang^3
#
#
#
# Elastic Constant Matrix: (Units=GPa)
#
#
# Indices 1 2 3 4 5 6 
#
# 1 114.9407 43.7228 28.7248 0.0000 -6.4001 0.0000
# 2 43.7228 130.7918 38.5511 0.0000 -23.3635 0.0000
# 3 28.7248 38.5511 60.7778 0.0000 -20.7520 0.0000
# 4 0.0000 0.0000 0.0000 32.6221 0.0000 -6.0529
# 5 -6.4001 -23.3635 -20.7520 0.0000 40.9373 0.0000
# 6 0.0000 0.0000 0.0000 -6.0529 0.0000 18.0475
#
#
#
# Elastic Compliance Matrix: (Units=1/GPa)
#
#
# Indices 1 2 3 4 5 6 
#
# 1 0.010615 -0.002727 -0.003933 0.000000 -0.001890 0.000000
# 2 -0.002727 0.010384 -0.004136 0.000000 0.003404 0.000000
# 3 -0.003933 -0.004136 0.024089 0.000000 0.009236 0.000000
# 4 0.000000 0.000000 0.000000 0.032688 0.000000 0.010963
# 5 -0.001890 0.003404 0.009236 0.000000 0.030757 0.000000
# 6 0.000000 0.000000 0.000000 0.010963 0.000000 0.059086
#
#
# Mechanical properties :
#
#
# Convention : Reuss Voigt Hill
#
# Bulk Modulus (GPa) = 42.55777 58.72310 50.64044
# Shear Modulus (GPa) = 25.37525 31.35549 28.36537
#
# Velocity S-wave (km/s) = 3.48027 3.86869 3.67961
# Velocity P-wave (km/s) = 6.03851 6.92717 6.49805
#
# Compressibility (1/GPa) = 0.02349747
#
# Stress axis : x y z
#
# Youngs Moduli (GPa) = 94.20611 96.29820 41.51309
#
# Poissons Ratio (x) = 0.26261 0.16325
# Poissons Ratio (y) = 0.25691 0.17169
# Poissons Ratio (z) = 0.37047 0.39827
#
# Static dielectric constant tensor:
#      x y z
#    x 1.749050 0.000000 0.000800 
#    y 0.000000 1.748630 0.000000 
#    z 0.000800 0.000000 1.772550 
# 
# From -- ./inp_files/48315.got.cif
#   From: 2010.05.17/outbox.cif.g08.bks.cpg/sg11_25_cif.got.tgz:48315.got - 2010.06.03 12:22:45.
