data_PCOD9166936
_publ_section_title
;
Structure prediction by ZEFSAII (Michael W. Deem and Ramdas Pophale) SiO2 
 PCOD9166936
Probable space group: P 21/M
;
_chemical_formula_sum "Si O2"
_cell_formula_units_Z 26
_cell_length_a 5.141969
_cell_length_b 20.430868
_cell_length_c 10.971513
_cell_angle_alpha 90.000000
_cell_angle_beta 72.255154
_cell_angle_gamma 90.000000
_cell_volume 1097.773566
_symmetry_space_group_name_H-M "P 21/M"
_symmetry_group_IT_number 11
_symmetry_cell_setting 'monoclinic'
loop_
_space_group_symop_operation_xyz
x,y,z
-x,1/2+y,-z
-x,-y,-z
x,1/2-y,z
loop_
_atom_site_type_symbol
_atom_site_label
_atom_site_fract_x
_atom_site_fract_y
_atom_site_fract_z
Si Si1 0.844624 0.626568 0.226717
Si Si2 0.406433 0.524513 0.380480
Si Si3 0.879877 0.155316 0.581463
Si Si4 0.122481 0.677574 0.699161
Si Si5 0.584217 0.893884 0.762061
Si Si6 0.758977 0.046659 0.985917
Si Si7 0.575765 0.750000 0.231732
O O1 0.883159 0.661607 0.353313
O O2 0.120263 0.590936 0.140279
O O3 0.641468 0.566082 0.278215
O O4 0.768075 0.688877 0.154760
O O5 0.500000 0.500000 0.500000
O O6 0.169667 0.577772 0.426199
O O7 0.333909 0.462733 0.309160
O O8 0.920557 0.180151 0.440486
O O9 0.630039 0.193238 0.679832
O O10 0.119481 0.750000 0.751759
O O11 0.417631 0.646445 0.683779
O O12 0.856142 0.637558 0.777811
O O13 0.353392 0.904962 0.895555
O O14 0.500000 0.000000 0.000000
O O15 0.000000 0.000000 0.000000
#
# Coordination Sequence:
#
# PCOD9166936 Si02
#       7
#     4   4   4   4   4   4   2
#     4  11  25  43  69 102 141 184 240 300 356 431
#     4  11  22  38  66 104 137 171 227 297 363 420
#     4  11  23  40  71 102 141 182 233 292 361 430
#     4  12  27  46  71  99 148 191 236 284 357 433
#     4  12  26  46  70 104 139 189 240 292 358 430
#     4  12  26  49  76 102 141 186 238 298 361 420
#     4  10  24  44  66 104 136 190 238 290 360 422
#
# _framework density 23.684301999999999
#
# number of rings (size 3 to 8) (size 9 to 14) (size 15 to 20)
#    0.000    0.615    3.846    3.692    6.462    1.231 
#    2.769    0.000    0.000    0.000    0.000    0.000 
#    0.000    0.000    0.000    0.000    0.000    0.000 
#
# Total GULP energy -144913.663910 kJ/mol
# GULP energy per Si atom -5573.602458 kJ/mol
# Density = 2.363040 g / cm^3
# Si number density = 23.684302 Si / 1000 Ang^3
#
#
#
# Elastic Constant Matrix: (Units=GPa)
#
#
# Indices 1 2 3 4 5 6 
#
# 1 98.7399 35.3861 -10.0711 0.0000 -14.4791 0.0000
# 2 35.3861 166.3790 5.0281 0.0000 -16.1771 0.0000
# 3 -10.0711 5.0281 46.2405 0.0000 -9.2361 0.0000
# 4 0.0000 0.0000 0.0000 23.5689 0.0000 -19.2460
# 5 -14.4791 -16.1771 -9.2361 0.0000 29.9953 0.0000
# 6 0.0000 0.0000 0.0000 -19.2460 0.0000 -23.3774
#
#
#
# Elastic Compliance Matrix: (Units=1/GPa)
#
#
# Indices 1 2 3 4 5 6 
#
# 1 0.012187 -0.002133 0.004082 0.000000 0.005989 0.000000
# 2 -0.002133 0.006716 -0.000721 0.000000 0.002371 0.000000
# 3 0.004082 -0.000721 0.024411 0.000000 0.009098 0.000000
# 4 0.000000 0.000000 0.000000 0.025372 0.000000 -0.020888
# 5 0.005989 0.002371 0.009098 0.000000 0.040310 0.000000
# 6 0.000000 0.000000 0.000000 -0.020888 0.000000 -0.025580
#
#
# Mechanical properties :
#
#
# Convention : Reuss Voigt Hill
#
# Bulk Modulus (GPa) = 21.84823 41.33839 31.59331
# Shear Modulus (GPa) = 51.96638 24.77180 38.36909
#
# Velocity S-wave (km/s) = 4.68923 3.23757 4.02932
# Velocity P-wave (km/s) = 6.20994 5.60960 5.91739
#
# Compressibility (1/GPa) = 0.04577030
#
# Stress axis : x y z
#
# Youngs Moduli (GPa) = 82.05671 148.89145 40.96528
#
# Poissons Ratio (x) = 0.31758 -0.16724
# Poissons Ratio (y) = 0.17502 0.02955
# Poissons Ratio (z) = -0.33500 0.10741
#
# Static dielectric constant tensor:
#      x y z
#    x 1.957640 0.000000 0.002610 
#    y 0.000000 1.900210 0.000000 
#    z 0.002610 0.000000 1.950610 
# 
# From -- ./inp_files/4999.got.cif
#   From: 2010.05.17/outbox.cif.g08.bks.cpg/sg11_3_cif.got.tgz:4999.got - 2010.06.03 12:22:45.
