data_PCOD9166830
_publ_section_title
;
Structure prediction by ZEFSAII (Michael W. Deem and Ramdas Pophale) SiO2 
 PCOD9166830
Probable space group: P 21/M
;
_chemical_formula_sum "Si O2"
_cell_formula_units_Z 32
_cell_length_a 12.025952
_cell_length_b 8.635067
_cell_length_c 29.051236
_cell_angle_alpha 90.000000
_cell_angle_beta 147.411662
_cell_angle_gamma 90.000000
_cell_volume 1624.858615
_symmetry_space_group_name_H-M "P 21/M"
_symmetry_group_IT_number 11
_symmetry_cell_setting 'monoclinic'
loop_
_space_group_symop_operation_xyz
x,y,z
-x,1/2+y,-z
-x,-y,-z
x,1/2-y,z
loop_
_atom_site_type_symbol
_atom_site_label
_atom_site_fract_x
_atom_site_fract_y
_atom_site_fract_z
Si Si1 0.580684 0.066774 0.925450
Si Si2 0.800389 0.065082 0.656384
Si Si3 0.575572 0.435500 0.413980
Si Si4 0.200682 0.934306 0.847337
Si Si5 0.377305 0.936095 0.763017
Si Si6 0.106598 0.434987 0.407964
Si Si7 0.940469 0.932792 0.104865
Si Si8 0.603321 0.936224 0.746694
O O1 0.609235 0.250000 0.938074
O O2 0.410647 0.012536 0.903395
O O3 0.490240 0.018221 0.844622
O O4 0.793711 0.981996 0.011758
O O5 0.802206 0.250000 0.661021
O O6 0.615066 0.996314 0.621854
O O7 0.785681 0.014771 0.598235
O O8 0.013610 0.995791 0.750485
O O9 0.586418 0.250000 0.421384
O O10 0.780434 0.509639 0.506624
O O11 0.527319 0.476899 0.344351
O O12 0.217971 0.750000 0.848537
O O13 0.144052 0.979746 0.879472
O O14 0.391063 0.750000 0.774683
O O15 0.484070 0.974582 0.751873
O O16 0.135145 0.976279 0.677233
O O17 0.125614 0.250000 0.410047
O O18 0.927571 0.750000 0.108480
O O19 0.175402 0.982631 0.178650
O O20 0.636137 0.750000 0.757010
#
# Coordination Sequence:
#
# PCOD9166830 Si02
#       8
#     4   4   4   4   4   4   4   4
#     4  12  25  42  66  96 129 167 210 259 314 376
#     4  12  23  38  63  95 129 165 208 256 313 382
#     4  11  23  40  64  93 129 168 210 261 315 375
#     4  12  23  40  65  95 131 167 204 254 315 380
#     4  10  23  44  67  91 124 168 216 265 316 371
#     4  11  23  40  64  93 129 168 210 261 315 375
#     4  12  25  42  66  96 129 167 210 259 314 376
#     4  10  23  44  67  91 124 168 216 265 316 371
#
# _framework density 19.694022
#
# number of rings (size 3 to 8) (size 9 to 14) (size 15 to 20)
#    0.000    0.750    2.500    6.000    0.000    2.500 
#    0.000    0.000    0.000    0.000    0.000    0.000 
#    0.000    0.000    0.000    0.000    0.000    0.000 
#
# Total GULP energy -179141.986744 kJ/mol
# GULP energy per Si atom -5598.187086 kJ/mol
# Density = 1.964920 g / cm^3
# Si number density = 19.694022 Si / 1000 Ang^3
#
#
#
# Elastic Constant Matrix: (Units=GPa)
#
#
# Indices 1 2 3 4 5 6 
#
# 1 83.7923 8.7606 5.6616 0.0000 -7.6949 0.0000
# 2 8.7606 35.4943 3.9225 0.0000 -8.9229 0.0000
# 3 5.6616 3.9225 79.7605 0.0000 -1.2037 0.0000
# 4 0.0000 0.0000 0.0000 38.5665 0.0000 0.4250
# 5 -7.6949 -8.9229 -1.2037 0.0000 -17.2730 0.0000
# 6 0.0000 0.0000 0.0000 0.4250 0.0000 14.2379
#
#
#
# Elastic Compliance Matrix: (Units=1/GPa)
#
#
# Indices 1 2 3 4 5 6 
#
# 1 0.012064 -0.003749 -0.000723 0.000000 -0.003387 0.000000
# 2 -0.003749 0.026262 -0.001204 0.000000 -0.011813 0.000000
# 3 -0.000723 -0.001204 0.012649 0.000000 0.000062 0.000000
# 4 0.000000 0.000000 0.000000 0.025938 0.000000 -0.000774
# 5 -0.003387 -0.011813 0.000062 0.000000 -0.050287 0.000000
# 6 0.000000 0.000000 0.000000 -0.000774 0.000000 0.070258
#
#
# Mechanical properties :
#
#
# Convention : Reuss Voigt Hill
#
# Bulk Modulus (GPa) = 25.23757 26.19296 25.71526
# Shear Modulus (GPa) = 41.17123 19.15311 30.16217
#
# Velocity S-wave (km/s) = 4.57721 3.12193 3.91773
# Velocity P-wave (km/s) = 6.38569 5.13070 5.79229
#
# Compressibility (1/GPa) = 0.03962347
#
# Stress axis : x y z
#
# Youngs Moduli (GPa) = 82.89080 38.07730 79.05766
#
# Poissons Ratio (x) = 0.14276 0.05716
# Poissons Ratio (y) = 0.31078 0.09516
# Poissons Ratio (z) = 0.05994 0.04583
#
# Static dielectric constant tensor:
#      x y z
#    x 1.662710 0.000000 -0.014670 
#    y 0.000000 1.657420 0.000000 
#    z -0.014670 0.000000 1.694590 
# 
# From -- ./inp_files/73181.got.cif
#   From: 2010.05.17/outbox.cif.g08.bks.cpg/sg11_37_cif.got.tgz:73181.got - 2010.06.03 12:22:45.
