data_PCOD9166642
_publ_section_title
;
Structure prediction by ZEFSAII (Michael W. Deem and Ramdas Pophale) SiO2 
 PCOD9166642
Probable space group: P 21/M
;
_chemical_formula_sum "Si O2"
_cell_formula_units_Z 28
_cell_length_a 5.394217
_cell_length_b 20.294514
_cell_length_c 13.306235
_cell_angle_alpha 90.000000
_cell_angle_beta 69.289044
_cell_angle_gamma 90.000000
_cell_volume 1362.538169
_symmetry_space_group_name_H-M "P 21/M"
_symmetry_group_IT_number 11
_symmetry_cell_setting 'monoclinic'
loop_
_space_group_symop_operation_xyz
x,y,z
-x,1/2+y,-z
-x,-y,-z
x,1/2-y,z
loop_
_atom_site_type_symbol
_atom_site_label
_atom_site_fract_x
_atom_site_fract_y
_atom_site_fract_z
Si Si1 0.729717 0.328507 0.467801
Si Si2 0.873934 0.670304 0.984427
Si Si3 0.610375 0.972601 0.712128
Si Si4 0.731767 0.329034 0.896266
Si Si5 0.308452 0.438168 0.511037
Si Si6 0.815303 0.392037 0.672836
Si Si7 0.950282 0.399133 0.241962
O O1 0.705885 0.250000 0.468269
O O2 0.457582 0.368660 0.491720
O O3 0.810560 0.351786 0.568873
O O4 0.903046 0.354194 0.348432
O O5 0.874637 0.750000 0.984787
O O6 0.992225 0.645026 0.863224
O O7 0.058025 0.647247 0.050738
O O8 0.568879 0.648246 0.039752
O O9 0.781698 0.951776 0.589018
O O10 0.322940 0.939149 0.739915
O O11 0.790969 0.944641 0.775937
O O12 0.591722 0.051643 0.713037
O O13 0.730183 0.250000 0.902281
O O14 0.810151 0.349013 0.772591
O O15 0.500000 0.500000 0.500000
O O16 0.082600 0.434349 0.625195
#
# Coordination Sequence:
#
# PCOD9166642 Si02
#       7
#     4   4   4   4   4   4   4
#     4  11  24  38  63 100 133 169 220 282 337 394
#     4  10  22  45  68  90 126 176 222 270 333 398
#     4  11  23  39  66  97 126 177 217 263 332 411
#     4  10  24  42  67  94 128 176 220 267 335 400
#     4  11  22  41  64  92 137 183 223 256 331 415
#     4  12  23  41  64  95 136 172 218 271 336 400
#     4  11  23  43  66  96 128 166 225 278 332 384
#
# _framework density 20.549883000000001
#
# number of rings (size 3 to 8) (size 9 to 14) (size 15 to 20)
#    0.000    1.143    2.857    3.857    2.000    1.143 
#    0.000    5.714    0.000    0.000    0.000    0.000 
#    0.000    0.000    0.000    0.000    0.000    0.000 
#
# Total GULP energy -156311.588792 kJ/mol
# GULP energy per Si atom -5582.556743 kJ/mol
# Density = 2.050311 g / cm^3
# Si number density = 20.549883 Si / 1000 Ang^3
#
#
#
# Elastic Constant Matrix: (Units=GPa)
#
#
# Indices 1 2 3 4 5 6 
#
# 1 105.5592 35.2834 36.6281 0.0000 9.8045 0.0000
# 2 35.2834 75.2977 0.3835 0.0000 7.9268 0.0000
# 3 36.6281 0.3835 105.2417 0.0000 15.7424 0.0000
# 4 0.0000 0.0000 0.0000 35.2895 0.0000 7.4008
# 5 9.8045 7.9268 15.7424 0.0000 31.9033 0.0000
# 6 0.0000 0.0000 0.0000 7.4008 0.0000 17.8718
#
#
#
# Elastic Compliance Matrix: (Units=1/GPa)
#
#
# Indices 1 2 3 4 5 6 
#
# 1 0.013091 -0.006080 -0.004490 0.000000 -0.000297 0.000000
# 2 -0.006080 0.016485 0.002580 0.000000 -0.003500 0.000000
# 3 -0.004490 0.002580 0.011817 0.000000 -0.005092 0.000000
# 4 0.000000 0.000000 0.000000 0.031032 0.000000 -0.012850
# 5 -0.000297 -0.003500 -0.005092 0.000000 0.034818 0.000000
# 6 0.000000 0.000000 0.000000 -0.012850 0.000000 0.061275
#
#
# Mechanical properties :
#
#
# Convention : Reuss Voigt Hill
#
# Bulk Modulus (GPa) = 39.35046 47.85431 43.60239
# Shear Modulus (GPa) = 25.91079 31.26650 28.58865
#
# Velocity S-wave (km/s) = 3.55473 3.90486 3.73390
# Velocity P-wave (km/s) = 6.00320 6.60818 6.31294
#
# Compressibility (1/GPa) = 0.02541266
#
# Stress axis : x y z
#
# Youngs Moduli (GPa) = 76.38764 60.66109 84.62544
#
# Poissons Ratio (x) = 0.36883 0.37994
# Poissons Ratio (y) = 0.46445 -0.21830
# Poissons Ratio (z) = 0.34295 -0.15648
#
# Static dielectric constant tensor:
#      x y z
#    x 1.815460 0.000000 0.026040 
#    y 0.000000 1.767730 0.000000 
#    z 0.026040 0.000000 1.726650 
# 
# From -- ./inp_files/29969.got.cif
#   From: 2010.05.17/outbox.cif.g08.bks.cpg/sg11_15_cif.got.tgz:29969.got - 2010.06.03 12:22:45.
