data_PCOD9166686
_publ_section_title
;
Structure prediction by ZEFSAII (Michael W. Deem and Ramdas Pophale) SiO2 
 PCOD9166686
Probable space group: P 21/M
;
_chemical_formula_sum "Si O2"
_cell_formula_units_Z 32
_cell_length_a 18.786310
_cell_length_b 18.242724
_cell_length_c 15.252561
_cell_angle_alpha 90.000000
_cell_angle_beta 19.209268
_cell_angle_gamma 90.000000
_cell_volume 1719.869328
_symmetry_space_group_name_H-M "P 21/M"
_symmetry_group_IT_number 11
_symmetry_cell_setting 'monoclinic'
loop_
_space_group_symop_operation_xyz
x,y,z
-x,1/2+y,-z
-x,-y,-z
x,1/2-y,z
loop_
_atom_site_type_symbol
_atom_site_label
_atom_site_fract_x
_atom_site_fract_y
_atom_site_fract_z
Si Si1 0.856311 0.833116 0.326627
Si Si2 0.283154 0.337442 0.056311
Si Si3 0.317212 0.565669 0.358221
Si Si4 0.148278 0.403659 0.026008
Si Si5 0.891685 0.074568 0.589381
Si Si6 0.269669 0.929783 0.883514
Si Si7 0.455884 0.911628 0.860640
Si Si8 0.349220 0.166094 0.626161
O O1 0.929249 0.750000 0.258048
O O2 0.644641 0.852204 0.629907
O O3 0.784509 0.840013 0.308720
O O4 0.042542 0.890709 0.130208
O O5 0.287472 0.250000 0.050382
O O6 0.245147 0.368638 0.002187
O O7 0.082810 0.368635 0.345884
O O8 0.502945 0.371887 0.838696
O O9 0.231403 0.559451 0.358723
O O10 0.428343 0.489416 0.255785
O O11 0.106801 0.584124 0.661044
O O12 0.250075 0.483767 0.891865
O O13 0.204204 0.353980 0.878019
O O14 0.717891 0.102267 0.861773
O O15 0.000000 0.000000 0.500000
O O16 0.334275 0.917588 0.909470
O O17 0.451344 0.889797 0.614279
O O18 0.427821 0.250000 0.541124
#
# Coordination Sequence:
#
# PCOD9166686 Si02
#       8
#     4   4   4   4   4   4   4   4
#     4  10  23  40  60  89 125 161 203 261 316 362
#     4  11  25  42  62  95 132 162 205 261 311 363
#     4  11  22  40  65  93 122 162 208 253 305 366
#     4  11  22  40  66  91 123 165 212 253 307 378
#     4  11  23  39  68  91 121 163 209 252 302 369
#     4  11  21  39  64  91 122 159 210 259 306 369
#     4  11  21  39  64  91 119 159 207 250 306 368
#     4  10  23  40  59  88 127 163 206 258 314 370
#
# _framework density 18.606065000000001
#
# number of rings (size 3 to 8) (size 9 to 14) (size 15 to 20)
#    0.000    1.250    3.750    2.250    0.000    5.000 
#    0.000    2.500    0.000    0.000    0.000    0.000 
#    0.000    0.000    0.000    0.000    0.000    0.000 
#
# Total GULP energy -178841.581009 kJ/mol
# GULP energy per Si atom -5588.799407 kJ/mol
# Density = 1.856372 g / cm^3
# Si number density = 18.606065 Si / 1000 Ang^3
#
#
#
# Elastic Constant Matrix: (Units=GPa)
#
#
# Indices 1 2 3 4 5 6 
#
# 1 68.6253 46.1279 69.5866 0.0000 9.4495 0.0000
# 2 46.1279 133.9695 40.9310 0.0000 -7.2176 0.0000
# 3 69.5866 40.9310 114.5553 0.0000 12.6114 0.0000
# 4 0.0000 0.0000 0.0000 24.6353 0.0000 -0.0420
# 5 9.4495 -7.2176 12.6114 0.0000 34.3257 0.0000
# 6 0.0000 0.0000 0.0000 -0.0420 0.0000 12.5266
#
#
#
# Elastic Compliance Matrix: (Units=1/GPa)
#
#
# Indices 1 2 3 4 5 6 
#
# 1 0.045263 -0.008607 -0.023812 0.000000 -0.005522 0.000000
# 2 -0.008607 0.010319 0.001085 0.000000 0.004141 0.000000
# 3 -0.023812 0.001085 0.022989 0.000000 -0.001663 0.000000
# 4 0.000000 0.000000 0.000000 0.040592 0.000000 0.000136
# 5 -0.005522 0.004141 -0.001663 0.000000 0.032134 0.000000
# 6 0.000000 0.000000 0.000000 0.000136 0.000000 0.079830
#
#
# Mechanical properties :
#
#
# Convention : Reuss Voigt Hill
#
# Bulk Modulus (GPa) = 62.87515 70.04901 66.46208
# Shear Modulus (GPa) = 16.71696 24.99784 20.85740
#
# Velocity S-wave (km/s) = 3.00070 3.66940 3.35177
# Velocity P-wave (km/s) = 6.77287 7.46209 7.12582
#
# Compressibility (1/GPa) = 0.01590453
#
# Stress axis : x y z
#
# Youngs Moduli (GPa) = 22.09302 96.90459 43.49881
#
# Poissons Ratio (x) = 0.83408 1.03579
# Poissons Ratio (y) = 0.19016 -0.04722
# Poissons Ratio (z) = 0.52608 -0.10519
#
# Static dielectric constant tensor:
#      x y z
#    x 1.617950 0.000000 0.003200 
#    y 0.000000 1.620340 0.000000 
#    z 0.003200 0.000000 1.632050 
# 
# From -- ./inp_files/53805.got.cif
#   From: 2010.05.17/outbox.cif.g08.bks.cpg/sg11_27_cif.got.tgz:53805.got - 2010.06.03 12:22:45.
