data_PCOD9166995
_publ_section_title
;
Structure prediction by ZEFSAII (Michael W. Deem and Ramdas Pophale) SiO2 
 PCOD9166995
Probable space group: P 21/M
;
_chemical_formula_sum "Si O2"
_cell_formula_units_Z 14
_cell_length_a 9.258670
_cell_length_b 8.602605
_cell_length_c 13.635766
_cell_angle_alpha 90.000000
_cell_angle_beta 31.359966
_cell_angle_gamma 90.000000
_cell_volume 565.205466
_symmetry_space_group_name_H-M "P 21/M"
_symmetry_group_IT_number 11
_symmetry_cell_setting 'monoclinic'
loop_
_space_group_symop_operation_xyz
x,y,z
-x,1/2+y,-z
-x,-y,-z
x,1/2-y,z
loop_
_atom_site_type_symbol
_atom_site_label
_atom_site_fract_x
_atom_site_fract_y
_atom_site_fract_z
Si Si1 0.688745 0.068176 0.977340
Si Si2 0.685445 0.750000 0.454941
Si Si3 0.327664 0.250000 0.764090
Si Si4 0.981638 0.250000 0.150157
Si Si5 0.711878 0.974910 0.610828
O O1 0.763089 0.250000 0.906839
O O2 0.496699 0.087798 0.185221
O O3 0.500000 0.000000 0.000000
O O4 0.894069 0.916991 0.881441
O O5 0.750294 0.750000 0.303222
O O6 0.779552 0.888719 0.470450
O O7 0.347771 0.750000 0.649608
O O8 0.527350 0.388148 0.676530
O O9 0.063445 0.250000 0.987841
O O10 0.000000 0.000000 0.500000
#
# Coordination Sequence:
#
# PCOD9166995 Si02
#       5
#     4   2   2   2   4
#     4  11  23  45  73 112 148 200 255 313 378 446
#     4  12  25  50  75 106 152 198 244 327 383 443
#     4  10  25  45  71 111 143 197 251 303 388 443
#     4  10  26  47  74 111 157 193 259 312 375 462
#     4  11  25  47  69 104 147 194 251 309 376 456
#
# _framework density 24.769753999999999
#
# number of rings (size 3 to 8) (size 9 to 14) (size 15 to 20)
#    0.000    1.143    2.857    1.714    4.000    4.571 
#    7.714    0.000    0.000    0.000    0.000    0.000 
#    0.000    0.000    0.000    0.000    0.000    0.000 
#
# Total GULP energy -78124.145071 kJ/mol
# GULP energy per Si atom -5580.296076 kJ/mol
# Density = 2.471338 g / cm^3
# Si number density = 24.769754 Si / 1000 Ang^3
#
#
#
# Elastic Constant Matrix: (Units=GPa)
#
#
# Indices 1 2 3 4 5 6 
#
# 1 240.6885 85.6981 67.2677 0.0000 14.7088 0.0000
# 2 85.6981 172.2472 51.2391 0.0000 19.9903 0.0000
# 3 67.2677 51.2391 71.9533 0.0000 22.9365 0.0000
# 4 0.0000 0.0000 0.0000 39.8212 0.0000 12.3260
# 5 14.7088 19.9903 22.9365 0.0000 59.0242 0.0000
# 6 0.0000 0.0000 0.0000 12.3260 0.0000 43.6469
#
#
#
# Elastic Compliance Matrix: (Units=1/GPa)
#
#
# Indices 1 2 3 4 5 6 
#
# 1 0.006020 -0.001700 -0.004705 0.000000 0.000904 0.000000
# 2 -0.001700 0.007860 -0.003760 0.000000 -0.000777 0.000000
# 3 -0.004705 -0.003760 0.023050 0.000000 -0.006511 0.000000
# 4 0.000000 0.000000 0.000000 0.027518 0.000000 -0.007771
# 5 0.000904 -0.000777 -0.006511 0.000000 0.019510 0.000000
# 6 0.000000 0.000000 0.000000 -0.007771 0.000000 0.025106
#
#
# Mechanical properties :
#
#
# Convention : Reuss Voigt Hill
#
# Bulk Modulus (GPa) = 60.24556 99.25543 79.75049
# Shear Modulus (GPa) = 37.05677 47.21075 42.13376
#
# Velocity S-wave (km/s) = 3.87208 4.37049 4.12881
# Velocity P-wave (km/s) = 6.66075 8.10102 7.41593
#
# Compressibility (1/GPa) = 0.01659873
#
# Stress axis : x y z
#
# Youngs Moduli (GPa) = 166.11463 127.22157 43.38412
#
# Poissons Ratio (x) = 0.21632 0.20414
# Poissons Ratio (y) = 0.28245 0.16313
# Poissons Ratio (z) = 0.78162 0.47836
#
# Static dielectric constant tensor:
#      x y z
#    x 1.865990 0.000000 -0.092190 
#    y 0.000000 1.938120 0.000000 
#    z -0.092190 0.000000 2.253570 
# 
# From -- ./inp_files/11110.got.cif
#   From: 2010.05.17/outbox.cif.g08.bks.cpg/sg11_6_cif.got.tgz:11110.got - 2010.06.03 12:22:45.
