data_PCOD9166994
_publ_section_title
;
Structure prediction by ZEFSAII (Michael W. Deem and Ramdas Pophale) SiO2 
 PCOD9166994
Probable space group: P 21/M
;
_chemical_formula_sum "Si O2"
_cell_formula_units_Z 20
_cell_length_a 9.803397
_cell_length_b 17.855844
_cell_length_c 9.736780
_cell_angle_alpha 90.000000
_cell_angle_beta 150.604008
_cell_angle_gamma 90.000000
_cell_volume 836.594034
_symmetry_space_group_name_H-M "P 21/M"
_symmetry_group_IT_number 11
_symmetry_cell_setting 'monoclinic'
loop_
_space_group_symop_operation_xyz
x,y,z
-x,1/2+y,-z
-x,-y,-z
x,1/2-y,z
loop_
_atom_site_type_symbol
_atom_site_label
_atom_site_fract_x
_atom_site_fract_y
_atom_site_fract_z
Si Si1 0.398249 0.072298 0.996422
Si Si2 0.200473 0.663779 0.182350
Si Si3 0.063034 0.834175 0.546210
Si Si4 0.353195 0.965200 0.505312
Si Si5 0.209498 0.124413 0.412450
O O1 0.431201 0.053379 0.185602
O O2 0.622031 0.138080 0.165861
O O3 0.106149 0.104302 0.689536
O O4 0.500000 0.000000 0.000000
O O5 0.215162 0.750000 0.236018
O O6 0.212350 0.608917 0.322434
O O7 0.466496 0.644093 0.319575
O O8 0.933922 0.648913 0.854594
O O9 0.044320 0.750000 0.473919
O O10 0.926541 0.836394 0.577245
O O11 0.500000 0.000000 0.500000
O O12 0.169683 0.034991 0.395765
#
# Coordination Sequence:
#
# PCOD9166994 Si02
#       5
#     4   4   4   4   4
#     4  12  26  47  72 102 141 183 234 286 346 417
#     4  11  23  40  65  99 139 179 228 291 348 406
#     4  12  26  44  73 106 143 184 232 293 354 407
#     4  10  25  45  71 100 137 184 233 280 343 417
#     4  11  23  43  69  99 138 182 235 277 345 422
#
# _framework density 23.906458000000001
#
# number of rings (size 3 to 8) (size 9 to 14) (size 15 to 20)
#    0.000    0.800    2.000    4.800    2.800    4.800 
#    0.000    0.000    0.000    0.000    0.000    0.000 
#    0.000    0.000    0.000    0.000    0.000    0.000 
#
# Total GULP energy -112118.329969 kJ/mol
# GULP energy per Si atom -5605.916498 kJ/mol
# Density = 2.385205 g / cm^3
# Si number density = 23.906458 Si / 1000 Ang^3
#
#
#
# Elastic Constant Matrix: (Units=GPa)
#
#
# Indices 1 2 3 4 5 6 
#
# 1 74.1818 6.7355 4.9597 0.0000 -19.5151 0.0000
# 2 6.7355 188.3425 1.9620 0.0000 -17.0212 0.0000
# 3 4.9597 1.9620 38.3010 0.0000 -14.9129 0.0000
# 4 0.0000 0.0000 0.0000 130.4366 0.0000 43.6769
# 5 -19.5151 -17.0212 -14.9129 0.0000 48.4992 0.0000
# 6 0.0000 0.0000 0.0000 43.6769 0.0000 47.9059
#
#
#
# Elastic Compliance Matrix: (Units=1/GPa)
#
#
# Indices 1 2 3 4 5 6 
#
# 1 0.015084 0.000018 0.000467 0.000000 0.006219 0.000000
# 2 0.000018 0.005493 0.000534 0.000000 0.002099 0.000000
# 3 0.000467 0.000534 0.029726 0.000000 0.009516 0.000000
# 4 0.000000 0.000000 0.000000 0.011036 0.000000 -0.010061
# 5 0.006219 0.002099 0.009516 0.000000 0.026784 0.000000
# 6 0.000000 0.000000 0.000000 -0.010061 0.000000 0.030048
#
#
# Mechanical properties :
#
#
# Convention : Reuss Voigt Hill
#
# Bulk Modulus (GPa) = 19.10570 36.45998 27.78284
# Shear Modulus (GPa) = 37.43095 64.51288 50.97191
#
# Velocity S-wave (km/s) = 3.96122 5.20040 4.62252
# Velocity P-wave (km/s) = 5.37874 7.16541 6.33537
#
# Compressibility (1/GPa) = 0.05234039
#
# Stress axis : x y z
#
# Youngs Moduli (GPa) = 66.29696 182.05055 33.64037
#
# Poissons Ratio (x) = -0.00324 -0.01572
# Poissons Ratio (y) = -0.00118 -0.01795
# Poissons Ratio (z) = -0.03099 -0.09714
#
# Static dielectric constant tensor:
#      x y z
#    x 1.927950 0.000000 0.021510 
#    y 0.000000 1.959490 0.000000 
#    z 0.021510 0.000000 1.838710 
# 
# From -- ./inp_files/35746.got.cif
#   From: 2010.05.17/outbox.cif.g08.bks.cpg/sg11_18_cif.got.tgz:35746.got - 2010.06.03 12:22:45.
