data_PCOD9166874
_publ_section_title
;
Structure prediction by ZEFSAII (Michael W. Deem and Ramdas Pophale) SiO2 
 PCOD9166874
Probable space group: P 21/M
;
_chemical_formula_sum "Si O2"
_cell_formula_units_Z 26
_cell_length_a 7.315842
_cell_length_b 13.524331
_cell_length_c 13.075174
_cell_angle_alpha 90.000000
_cell_angle_beta 57.369814
_cell_angle_gamma 90.000000
_cell_volume 1089.498267
_symmetry_space_group_name_H-M "P 21/M"
_symmetry_group_IT_number 11
_symmetry_cell_setting 'monoclinic'
loop_
_space_group_symop_operation_xyz
x,y,z
-x,1/2+y,-z
-x,-y,-z
x,1/2-y,z
loop_
_atom_site_type_symbol
_atom_site_label
_atom_site_fract_x
_atom_site_fract_y
_atom_site_fract_z
Si Si1 0.852293 0.046144 0.129652
Si Si2 0.470656 0.423620 0.101263
Si Si3 0.954699 0.750000 0.976057
Si Si4 0.377457 0.085811 0.675004
Si Si5 0.251755 0.442385 0.506525
Si Si6 0.513209 0.250000 0.794593
Si Si7 0.750985 0.250000 0.922465
Si Si8 0.054190 0.132849 0.358843
O O1 0.610585 0.045154 0.157116
O O2 0.944867 0.155712 0.112376
O O3 0.843782 0.964263 0.218766
O O4 0.000000 0.000000 0.000000
O O5 0.612854 0.338242 0.009908
O O6 0.237448 0.392035 0.216969
O O7 0.500000 0.500000 0.000000
O O8 0.030905 0.750000 0.073704
O O9 0.695449 0.750000 0.065576
O O10 0.536128 0.995486 0.601470
O O11 0.484708 0.157636 0.726035
O O12 0.316110 0.126625 0.582319
O O13 0.148715 0.380741 0.445324
O O14 0.113854 0.539535 0.586974
O O15 0.721914 0.250000 0.807656
O O16 0.986029 0.250000 0.367077
#
# Coordination Sequence:
#
# PCOD9166874 Si02
#       8
#     4   4   2   4   4   2   2   4
#     4  11  22  41  64  95 139 173 223 285 345 417
#     4  11  23  40  68 100 134 173 216 282 351 412
#     4  10  24  40  63 104 135 186 224 279 371 413
#     4  11  24  46  65  99 134 183 233 285 348 407
#     4  10  26  46  68  96 136 183 234 289 338 408
#     4  12  24  42  71  99 143 181 234 285 344 437
#     4  10  24  40  60 105 138 173 226 274 355 418
#     4  11  24  47  71 100 135 181 236 287 349 424
#
# _framework density 23.864194999999999
#
# number of rings (size 3 to 8) (size 9 to 14) (size 15 to 20)
#    0.000    1.231    3.846    0.923    4.308    0.000 
#    4.154    0.000    0.000    0.000    0.000    0.000 
#    0.000    0.000    0.000    0.000    0.000    0.000 
#
# Total GULP energy -144973.084649 kJ/mol
# GULP energy per Si atom -5575.887871 kJ/mol
# Density = 2.380988 g / cm^3
# Si number density = 23.864195 Si / 1000 Ang^3
#
#
#
# Elastic Constant Matrix: (Units=GPa)
#
#
# Indices 1 2 3 4 5 6 
#
# 1 70.8052 -14.7584 17.8865 0.0000 23.1074 0.0000
# 2 -14.7584 99.6580 3.5804 0.0000 4.1703 0.0000
# 3 17.8865 3.5804 97.2344 0.0000 16.8275 0.0000
# 4 0.0000 0.0000 0.0000 -51.5836 0.0000 -42.2842
# 5 23.1074 4.1703 16.8275 0.0000 49.7480 0.0000
# 6 0.0000 0.0000 0.0000 -42.2842 0.0000 -7.3405
#
#
#
# Elastic Compliance Matrix: (Units=1/GPa)
#
#
# Indices 1 2 3 4 5 6 
#
# 1 0.017833 0.003043 -0.002034 0.000000 -0.007850 0.000000
# 2 0.003043 0.010594 -0.000586 0.000000 -0.002103 0.000000
# 3 -0.002034 -0.000586 0.011162 0.000000 -0.002782 0.000000
# 4 0.000000 0.000000 0.000000 0.005209 0.000000 -0.030004
# 5 -0.007850 -0.002103 -0.002782 0.000000 0.024865 0.000000
# 6 0.000000 0.000000 0.000000 -0.030004 0.000000 0.036602
#
#
# Mechanical properties :
#
#
# Convention : Reuss Voigt Hill
#
# Bulk Modulus (GPa) = 24.73146 31.23495 27.98321
# Shear Modulus (GPa) = 42.05324 15.56404 28.80864
#
# Velocity S-wave (km/s) = 4.20240 2.55658 3.47823
# Velocity P-wave (km/s) = 5.82519 4.67245 5.28037
#
# Compressibility (1/GPa) = 0.04043432
#
# Stress axis : x y z
#
# Youngs Moduli (GPa) = 56.07512 94.39363 89.59344
#
# Poissons Ratio (x) = -0.28719 0.18222
# Poissons Ratio (y) = -0.17061 0.05248
# Poissons Ratio (z) = 0.11405 0.05530
#
# Static dielectric constant tensor:
#      x y z
#    x 1.886410 0.000000 0.062110 
#    y 0.000000 1.767090 0.000000 
#    z 0.062110 0.000000 1.914660 
# 
# From -- ./inp_files/31644.got.cif
#   From: 2010.05.17/outbox.cif.g08.bks.cpg/sg11_16_cif.got.tgz:31644.got - 2010.06.03 12:22:45.
