data_PCOD9166345
_publ_section_title
;
Structure prediction by ZEFSAII (Michael W. Deem and Ramdas Pophale) SiO2 
 PCOD9166345
Probable space group: P 21/M
;
_chemical_formula_sum "Si O2"
_cell_formula_units_Z 28
_cell_length_a 10.039936
_cell_length_b 13.930934
_cell_length_c 11.760418
_cell_angle_alpha 90.000000
_cell_angle_beta 126.085977
_cell_angle_gamma 90.000000
_cell_volume 1329.282693
_symmetry_space_group_name_H-M "P 21/M"
_symmetry_group_IT_number 11
_symmetry_cell_setting 'monoclinic'
loop_
_space_group_symop_operation_xyz
x,y,z
-x,1/2+y,-z
-x,-y,-z
x,1/2-y,z
loop_
_atom_site_type_symbol
_atom_site_label
_atom_site_fract_x
_atom_site_fract_y
_atom_site_fract_z
Si Si1 0.358043 0.446283 0.787315
Si Si2 0.519304 0.863745 0.927066
Si Si3 0.549551 0.864636 0.408485
Si Si4 0.131572 0.134302 0.014222
Si Si5 0.000661 0.021147 0.632930
Si Si6 0.814834 0.134937 0.705347
Si Si7 0.138289 0.136180 0.281683
O O1 0.390461 0.560273 0.811779
O O2 0.385473 0.412322 0.673590
O O3 0.173847 0.426417 0.737185
O O4 0.471919 0.389934 0.934526
O O5 0.490096 0.750000 0.895532
O O6 0.695156 0.891843 0.957607
O O7 0.544844 0.750000 0.387176
O O8 0.364071 0.896586 0.342047
O O9 0.678657 0.880627 0.575351
O O10 0.129882 0.250000 0.011371
O O11 0.127973 0.106925 0.144876
O O12 0.966760 0.104947 0.863655
O O13 0.855781 0.089135 0.604542
O O14 0.981762 0.925520 0.698903
O O15 0.000000 0.000000 0.500000
O O16 0.814246 0.250000 0.698155
O O17 0.103933 0.250000 0.272806
#
# Coordination Sequence:
#
# PCOD9166345 Si02
#       7
#     4   4   4   4   4   4   4
#     4  11  23  40  65  98 129 170 217 266 323 387
#     4  10  22  40  64  95 132 171 213 267 328 387
#     4  10  22  42  67  95 128 172 220 267 322 387
#     4   9  19  39  65  93 123 165 215 265 324 382
#     4  12  25  41  63  97 130 169 217 266 325 387
#     4  10  23  42  68  96 126 170 221 270 323 389
#     4  10  23  41  64  93 132 172 213 270 330 384
#
# _framework density 21.063994000000001
#
# number of rings (size 3 to 8) (size 9 to 14) (size 15 to 20)
#    0.000    1.714    2.857    0.429    2.000    6.286 
#    0.000    2.857    0.000    0.000    0.000    0.000 
#    0.000    0.000    0.000    0.000    0.000    0.000 
#
# Total GULP energy -156418.117156 kJ/mol
# GULP energy per Si atom -5586.361327 kJ/mol
# Density = 2.101605 g / cm^3
# Si number density = 21.063994 Si / 1000 Ang^3
#
#
#
# Elastic Constant Matrix: (Units=GPa)
#
#
# Indices 1 2 3 4 5 6 
#
# 1 122.5497 21.7864 26.9151 0.0000 -12.2830 0.0000
# 2 21.7864 76.2280 -1.1268 0.0000 -10.4894 0.0000
# 3 26.9151 -1.1268 72.3789 0.0000 -29.8266 0.0000
# 4 0.0000 0.0000 0.0000 21.3034 0.0000 -6.6807
# 5 -12.2830 -10.4894 -29.8266 0.0000 35.1372 0.0000
# 6 0.0000 0.0000 0.0000 -6.6807 0.0000 33.6771
#
#
#
# Elastic Compliance Matrix: (Units=1/GPa)
#
#
# Indices 1 2 3 4 5 6 
#
# 1 0.009444 -0.002879 -0.003923 0.000000 -0.000888 0.000000
# 2 -0.002879 0.014971 0.004200 0.000000 0.007028 0.000000
# 3 -0.003923 0.004200 0.023519 0.000000 0.019847 0.000000
# 4 0.000000 0.000000 0.000000 0.050055 0.000000 0.009930
# 5 -0.000888 0.007028 0.019847 0.000000 0.047095 0.000000
# 6 0.000000 0.000000 0.000000 0.009930 0.000000 0.031664
#
#
# Mechanical properties :
#
#
# Convention : Reuss Voigt Hill
#
# Bulk Modulus (GPa) = 23.40316 40.70066 32.05191
# Shear Modulus (GPa) = 25.48486 32.92900 29.20693
#
# Velocity S-wave (km/s) = 3.48210 3.95813 3.72772
# Velocity P-wave (km/s) = 5.22507 6.34455 5.81183
#
# Compressibility (1/GPa) = 0.04272927
#
# Stress axis : x y z
#
# Youngs Moduli (GPa) = 105.88291 66.79749 42.51883
#
# Poissons Ratio (x) = 0.19234 0.16679
# Poissons Ratio (y) = 0.30488 -0.17857
# Poissons Ratio (z) = 0.41536 -0.28054
#
# Static dielectric constant tensor:
#      x y z
#    x 1.724720 0.000000 0.027530 
#    y 0.000000 1.756560 0.000000 
#    z 0.027530 0.000000 1.781250 
# 
# From -- ./inp_files/31801.got.cif
#   From: 2010.05.17/outbox.cif.g08.bks.cpg/sg11_16_cif.got.tgz:31801.got - 2010.06.03 12:22:45.
