data_PCOD9166878
_publ_section_title
;
Structure prediction by ZEFSAII (Michael W. Deem and Ramdas Pophale) SiO2 
 PCOD9166878
Probable space group: P 21/M
;
_chemical_formula_sum "Si O2"
_cell_formula_units_Z 18
_cell_length_a 4.862652
_cell_length_b 9.083741
_cell_length_c 19.389568
_cell_angle_alpha 90.000000
_cell_angle_beta 113.277469
_cell_angle_gamma 90.000000
_cell_volume 786.743899
_symmetry_space_group_name_H-M "P 21/M"
_symmetry_group_IT_number 11
_symmetry_cell_setting 'monoclinic'
loop_
_space_group_symop_operation_xyz
x,y,z
-x,1/2+y,-z
-x,-y,-z
x,1/2-y,z
loop_
_atom_site_type_symbol
_atom_site_label
_atom_site_fract_x
_atom_site_fract_y
_atom_site_fract_z
Si Si1 0.739638 0.572167 0.575650
Si Si2 0.536529 0.580998 0.178672
Si Si3 0.088174 0.498036 0.911358
Si Si4 0.582936 0.750000 0.980909
Si Si5 0.633091 0.574726 0.350048
O O1 0.500000 0.500000 0.500000
O O2 0.741570 0.750000 0.571921
O O3 0.936388 0.497655 0.406019
O O4 0.635404 0.511850 0.639894
O O5 0.428900 0.750000 0.159805
O O6 0.812254 0.563151 0.154361
O O7 0.618351 0.559458 0.266172
O O8 0.265220 0.474336 0.129960
O O9 0.317751 0.626833 0.946809
O O10 0.167114 0.376628 0.975353
O O11 0.625687 0.750000 0.365948
#
# Coordination Sequence:
#
# PCOD9166878 Si02
#       5
#     4   4   4   2   4
#     4  12  25  45  70 103 138 176 218 275 327 388
#     4  11  22  42  65  90 127 171 214 257 322 389
#     4  11  23  41  62  92 122 169 212 270 320 385
#     4  10  24  40  64  90 126 160 218 268 328 378
#     4  11  24  44  70  99 134 182 225 270 325 399
#
# _framework density 22.879111000000002
#
# number of rings (size 3 to 8) (size 9 to 14) (size 15 to 20)
#    0.000    0.889    2.222    4.667    0.000    9.778 
#   12.000    0.000    0.000    0.000    0.000    0.000 
#    0.000    0.000    0.000    0.000    0.000    0.000 
#
# Total GULP energy -100241.211615 kJ/mol
# GULP energy per Si atom -5568.956201 kJ/mol
# Density = 2.282704 g / cm^3
# Si number density = 22.879111 Si / 1000 Ang^3
#
#
#
# Elastic Constant Matrix: (Units=GPa)
#
#
# Indices 1 2 3 4 5 6 
#
# 1 95.6469 -2.4612 3.9245 0.0000 2.0635 0.0000
# 2 -2.4612 143.2183 21.7536 0.0000 12.5736 0.0000
# 3 3.9245 21.7536 65.7580 0.0000 -3.6228 0.0000
# 4 0.0000 0.0000 0.0000 -11.3445 0.0000 57.8788
# 5 2.0635 12.5736 -3.6228 0.0000 39.8129 0.0000
# 6 0.0000 0.0000 0.0000 57.8788 0.0000 -41.7665
#
#
#
# Elastic Compliance Matrix: (Units=1/GPa)
#
#
# Indices 1 2 3 4 5 6 
#
# 1 0.010513 0.000365 -0.000788 0.000000 -0.000732 0.000000
# 2 0.000365 0.007633 -0.002694 0.000000 -0.002675 0.000000
# 3 -0.000788 -0.002694 0.016276 0.000000 0.002373 0.000000
# 4 0.000000 0.000000 0.000000 0.014522 0.000000 0.020124
# 5 -0.000732 -0.002675 0.002373 0.000000 0.026216 0.000000
# 6 0.000000 0.000000 0.000000 0.020124 0.000000 0.003944
#
#
# Mechanical properties :
#
#
# Convention : Reuss Voigt Hill
#
# Bulk Modulus (GPa) = 35.47861 39.00632 37.24247
# Shear Modulus (GPa) = 52.77904 16.10081 34.43992
#
# Velocity S-wave (km/s) = 4.80819 2.65568 3.88403
# Velocity P-wave (km/s) = 6.80923 5.14678 6.03552
#
# Compressibility (1/GPa) = 0.02818599
#
# Stress axis : x y z
#
# Youngs Moduli (GPa) = 95.12359 131.01636 61.43905
#
# Poissons Ratio (x) = -0.04777 0.04844
# Poissons Ratio (y) = -0.03469 0.16552
# Poissons Ratio (z) = 0.07499 0.35297
#
# Static dielectric constant tensor:
#      x y z
#    x 1.847600 0.000000 -0.071950 
#    y 0.000000 1.761030 0.000000 
#    z -0.071950 0.000000 1.887620 
# 
# From -- ./inp_files/8426.got.cif
#   From: 2010.05.17/outbox.cif.g08.bks.cpg/sg11_5_cif.got.tgz:8426.got - 2010.06.03 12:22:45.
