data_PCOD9166122
_publ_section_title
;
Structure prediction by ZEFSAII (Michael W. Deem and Ramdas Pophale) SiO2 
 PCOD9166122
Probable space group: P 21/M
;
_chemical_formula_sum "Si O2"
_cell_formula_units_Z 26
_cell_length_a 11.268195
_cell_length_b 22.819506
_cell_length_c 7.970846
_cell_angle_alpha 90.000000
_cell_angle_beta 36.162595
_cell_angle_gamma 90.000000
_cell_volume 1209.413934
_symmetry_space_group_name_H-M "P 21/M"
_symmetry_group_IT_number 11
_symmetry_cell_setting 'monoclinic'
loop_
_space_group_symop_operation_xyz
x,y,z
-x,1/2+y,-z
-x,-y,-z
x,1/2-y,z
loop_
_atom_site_type_symbol
_atom_site_label
_atom_site_fract_x
_atom_site_fract_y
_atom_site_fract_z
Si Si1 0.635362 0.750000 0.198514
Si Si2 0.417953 0.040856 0.443611
Si Si3 0.001624 0.334653 0.185875
Si Si4 0.298897 0.750000 0.296792
Si Si5 0.565560 0.750000 0.673135
Si Si6 0.844096 0.067047 0.836342
Si Si7 0.133190 0.352491 0.696017
Si Si8 0.889033 0.463722 0.397422
O O1 0.480330 0.750000 0.223811
O O2 0.541404 0.750000 0.495665
O O3 0.781450 0.806946 0.015686
O O4 0.256679 0.093748 0.643193
O O5 0.500000 0.000000 0.500000
O O6 0.311314 0.994218 0.442253
O O7 0.613967 0.073105 0.146993
O O8 0.840528 0.304557 0.490918
O O9 0.954060 0.402902 0.245332
O O10 0.996248 0.321119 0.993217
O O11 0.378927 0.750000 0.014954
O O12 0.702910 0.806731 0.555282
O O13 0.862350 0.050386 0.622672
O O14 0.988772 0.120204 0.721135
O O15 0.935011 0.010987 0.830616
#
# Coordination Sequence:
#
# PCOD9166122 Si02
#       8
#     2   4   4   2   2   4   4   4
#     4   9  23  45  64  92 132 165 219 269 328 388
#     4  11  22  38  65  98 129 173 221 264 331 398
#     4  10  22  42  61  94 126 165 213 268 319 398
#     4  11  25  43  66  94 126 173 221 267 342 382
#     4  10  24  44  66  98 128 168 226 280 314 404
#     4  10  22  39  61  92 127 171 208 264 330 384
#     4  10  23  43  65  94 133 168 221 269 330 394
#     4  10  22  38  60  93 132 164 212 270 316 397
#
# _framework density 21.498014999999999
#
# number of rings (size 3 to 8) (size 9 to 14) (size 15 to 20)
#    0.000    1.846    0.000    2.769    4.308    8.615 
#    0.000    2.308    0.000    0.000    0.000    0.000 
#    0.000    0.000    0.000    0.000    0.000    0.000 
#
# Total GULP energy -145065.707760 kJ/mol
# GULP energy per Si atom -5579.450298 kJ/mol
# Density = 2.144908 g / cm^3
# Si number density = 21.498015 Si / 1000 Ang^3
#
#
#
# Elastic Constant Matrix: (Units=GPa)
#
#
# Indices 1 2 3 4 5 6 
#
# 1 77.0117 10.8837 28.1355 0.0000 -13.5234 0.0000
# 2 10.8837 90.2725 21.9311 0.0000 0.9035 0.0000
# 3 28.1355 21.9311 116.7868 0.0000 5.1551 0.0000
# 4 0.0000 0.0000 0.0000 12.7810 0.0000 19.7939
# 5 -13.5234 0.9035 5.1551 0.0000 19.3084 0.0000
# 6 0.0000 0.0000 0.0000 19.7939 0.0000 7.6992
#
#
#
# Elastic Compliance Matrix: (Units=1/GPa)
#
#
# Indices 1 2 3 4 5 6 
#
# 1 0.017109 -0.001102 -0.004499 0.000000 0.013235 0.000000
# 2 -0.001102 0.011678 -0.001892 0.000000 -0.000813 0.000000
# 3 -0.004499 -0.001892 0.010258 0.000000 -0.005801 0.000000
# 4 0.000000 0.000000 0.000000 -0.026242 0.000000 0.067465
# 5 0.013235 -0.000813 -0.005801 0.000000 0.062648 0.000000
# 6 0.000000 0.000000 0.000000 0.067465 0.000000 -0.043563
#
#
# Mechanical properties :
#
#
# Convention : Reuss Voigt Hill
#
# Bulk Modulus (GPa) = 41.56431 45.10796 43.33613
# Shear Modulus (GPa) = 91.08672 22.83243 56.95958
#
# Velocity S-wave (km/s) = 6.51627 3.26248 5.15294
# Velocity P-wave (km/s) = 8.71732 5.93461 7.45692
#
# Compressibility (1/GPa) = 0.02405910
#
# Stress axis : x y z
#
# Youngs Moduli (GPa) = 58.45006 85.63006 97.48727
#
# Poissons Ratio (x) = 0.09438 0.43859
# Poissons Ratio (y) = 0.06442 0.18440
# Poissons Ratio (z) = 0.26296 0.16198
#
# Static dielectric constant tensor:
#      x y z
#    x 1.778910 0.000000 0.017950 
#    y 0.000000 1.734480 0.000000 
#    z 0.017950 0.000000 1.811850 
# 
# From -- ./inp_files/19693.got.cif
#   From: 2010.05.17/outbox.cif.g08.bks.cpg/sg11_10_cif.got.tgz:19693.got - 2010.06.03 12:22:45.
