data_PCOD9166277
_publ_section_title
;
Structure prediction by ZEFSAII (Michael W. Deem and Ramdas Pophale) SiO2 
 PCOD9166277
Probable space group: P 21/M
;
_chemical_formula_sum "Si O2"
_cell_formula_units_Z 24
_cell_length_a 11.128932
_cell_length_b 8.480058
_cell_length_c 23.761446
_cell_angle_alpha 90.000000
_cell_angle_beta 148.873168
_cell_angle_gamma 90.000000
_cell_volume 1159.205679
_symmetry_space_group_name_H-M "P 21/M"
_symmetry_group_IT_number 11
_symmetry_cell_setting 'monoclinic'
loop_
_space_group_symop_operation_xyz
x,y,z
-x,1/2+y,-z
-x,-y,-z
x,1/2-y,z
loop_
_atom_site_type_symbol
_atom_site_label
_atom_site_fract_x
_atom_site_fract_y
_atom_site_fract_z
Si Si1 0.788704 0.431550 0.378468
Si Si2 0.417680 0.940775 0.526384
Si Si3 0.315657 0.066122 0.259497
Si Si4 0.517920 0.560301 0.071489
Si Si5 0.106026 0.437459 0.693002
Si Si6 0.090841 0.066002 0.975983
O O1 0.841632 0.250000 0.386308
O O2 0.552408 0.435617 0.318704
O O3 0.752337 0.525319 0.306428
O O4 0.000000 0.500000 0.500000
O O5 0.414860 0.750000 0.529659
O O6 0.599758 0.994745 0.646257
O O7 0.152051 0.998255 0.424629
O O8 0.500000 0.000000 0.500000
O O9 0.236482 0.250000 0.231137
O O10 0.121076 0.964099 0.151804
O O11 0.518230 0.750000 0.069459
O O12 0.757311 0.503033 0.197523
O O13 0.500000 0.500000 0.000000
O O14 0.312085 0.509452 0.032112
O O15 0.085202 0.250000 0.691495
O O16 0.141185 0.250000 0.004312
O O17 0.000000 0.000000 0.000000
#
# Coordination Sequence:
#
# PCOD9166277 Si02
#       6
#     4   4   4   4   4   4
#     4  11  21  36  61  92 126 162 202 251 311 379
#     4  10  22  40  60  89 126 163 204 255 313 374
#     4  10  22  41  64  92 128 165 205 262 318 379
#     4  11  25  45  70  99 133 174 222 274 328 390
#     4  10  22  42  64  90 126 163 205 259 314 374
#     4  12  26  45  69  97 132 174 223 277 330 392
#
# _framework density 20.703832999999999
#
# number of rings (size 3 to 8) (size 9 to 14) (size 15 to 20)
#    0.000    1.333    1.667    3.500    2.333    6.667 
#    0.000    0.000    0.000    0.000    0.000    0.000 
#    0.000    0.000    0.000    0.000    0.000    0.000 
#
# Total GULP energy -134017.921633 kJ/mol
# GULP energy per Si atom -5584.080068 kJ/mol
# Density = 2.065671 g / cm^3
# Si number density = 20.703833 Si / 1000 Ang^3
#
#
#
# Elastic Constant Matrix: (Units=GPa)
#
#
# Indices 1 2 3 4 5 6 
#
# 1 86.3221 7.9569 26.3453 0.0000 -27.1089 0.0000
# 2 7.9569 28.4303 15.1681 0.0000 3.3985 0.0000
# 3 26.3453 15.1681 116.8849 0.0000 -31.3158 0.0000
# 4 0.0000 0.0000 0.0000 27.2330 0.0000 -3.9753
# 5 -27.1089 3.3985 -31.3158 0.0000 38.4559 0.0000
# 6 0.0000 0.0000 0.0000 -3.9753 0.0000 36.6918
#
#
#
# Elastic Compliance Matrix: (Units=1/GPa)
#
#
# Indices 1 2 3 4 5 6 
#
# 1 0.015789 -0.006104 0.000460 0.000000 0.012045 0.000000
# 2 -0.006104 0.042994 -0.008153 0.000000 -0.014742 0.000000
# 3 0.000460 -0.008153 0.012522 0.000000 0.011242 0.000000
# 4 0.000000 0.000000 0.000000 0.037310 0.000000 0.004042
# 5 0.012045 -0.014742 0.011242 0.000000 0.044952 0.000000
# 6 0.000000 0.000000 0.000000 0.004042 0.000000 0.027692
#
#
# Mechanical properties :
#
#
# Convention : Reuss Voigt Hill
#
# Bulk Modulus (GPa) = 22.87766 36.73085 29.80425
# Shear Modulus (GPa) = 22.37897 32.62060 27.49978
#
# Velocity S-wave (km/s) = 3.29129 3.97367 3.64846
# Velocity P-wave (km/s) = 5.05147 6.23161 5.67232
#
# Compressibility (1/GPa) = 0.04371077
#
# Stress axis : x y z
#
# Youngs Moduli (GPa) = 63.33403 23.25891 79.86208
#
# Poissons Ratio (x) = 0.14198 -0.03677
# Poissons Ratio (y) = 0.38662 0.65113
# Poissons Ratio (z) = -0.02916 0.18963
#
# Static dielectric constant tensor:
#      x y z
#    x 1.729830 0.000000 0.043680 
#    y 0.000000 1.744120 0.000000 
#    z 0.043680 0.000000 1.773410 
# 
# From -- ./inp_files/68462.got.cif
#   From: 2010.05.17/outbox.cif.g08.bks.cpg/sg11_35_cif.got.tgz:68462.got - 2010.06.03 12:22:45.
