data_PCOD9166737
_publ_section_title
;
Structure prediction by ZEFSAII (Michael W. Deem and Ramdas Pophale) SiO2 
 PCOD9166737
Probable space group: P 21/M
;
_chemical_formula_sum "Si O2"
_cell_formula_units_Z 20
_cell_length_a 5.164133
_cell_length_b 17.493567
_cell_length_c 11.364732
_cell_angle_alpha 90.000000
_cell_angle_beta 77.420278
_cell_angle_gamma 90.000000
_cell_volume 1002.033165
_symmetry_space_group_name_H-M "P 21/M"
_symmetry_group_IT_number 11
_symmetry_cell_setting 'monoclinic'
loop_
_space_group_symop_operation_xyz
x,y,z
-x,1/2+y,-z
-x,-y,-z
x,1/2-y,z
loop_
_atom_site_type_symbol
_atom_site_label
_atom_site_fract_x
_atom_site_fract_y
_atom_site_fract_z
Si Si1 0.482064 0.338105 0.771531
Si Si2 0.108995 0.935946 0.371583
Si Si3 0.380207 0.538528 0.661047
Si Si4 0.668832 0.662817 0.492696
Si Si5 0.287943 0.484437 0.920043
O O1 0.483790 0.250000 0.810565
O O2 0.771832 0.378472 0.738123
O O3 0.396169 0.337758 0.641531
O O4 0.313990 0.398332 0.864288
O O5 0.949100 0.881028 0.475030
O O6 0.365006 0.983268 0.389125
O O7 0.890025 0.996223 0.350065
O O8 0.454429 0.616679 0.589895
O O9 0.357425 0.540109 0.803983
O O10 0.688714 0.750000 0.527901
O O11 0.500000 0.500000 0.000000
O O12 0.000000 0.500000 0.000000
#
# Coordination Sequence:
#
# PCOD9166737 Si02
#       5
#     4   4   4   4   4
#     4  10  23  41  66  96 124 157 207 268 314 361
#     4  11  20  39  61  93 122 158 200 245 314 377
#     4  11  24  39  65  90 126 161 206 256 310 369
#     4  11  23  39  62  98 129 159 199 257 327 376
#     4  11  23  42  63  88 117 165 215 247 292 364
#
# _framework density 19.959417999999999
#
# number of rings (size 3 to 8) (size 9 to 14) (size 15 to 20)
#    0.000    1.200    4.000    4.200    2.800    0.000 
#    0.000    2.000    0.000    0.000    0.000    0.000 
#    0.000    0.000    0.000    0.000    0.000    0.000 
#
# Total GULP energy -111650.607832 kJ/mol
# GULP energy per Si atom -5582.530392 kJ/mol
# Density = 1.991399 g / cm^3
# Si number density = 19.959418 Si / 1000 Ang^3
#
#
#
# Elastic Constant Matrix: (Units=GPa)
#
#
# Indices 1 2 3 4 5 6 
#
# 1 143.5214 51.1301 46.8823 0.0000 -13.6446 0.0000
# 2 51.1301 155.2980 69.0746 0.0000 -16.0513 0.0000
# 3 46.8823 69.0746 125.7008 0.0000 -16.5637 0.0000
# 4 0.0000 0.0000 0.0000 33.8576 0.0000 -2.3094
# 5 -13.6446 -16.0513 -16.5637 0.0000 37.1889 0.0000
# 6 0.0000 0.0000 0.0000 -2.3094 0.0000 16.3221
#
#
#
# Elastic Compliance Matrix: (Units=1/GPa)
#
#
# Indices 1 2 3 4 5 6 
#
# 1 0.008367 -0.001723 -0.001983 0.000000 0.001443 0.000000
# 2 -0.001723 0.008979 -0.004105 0.000000 0.001415 0.000000
# 3 -0.001983 -0.004105 0.011284 0.000000 0.002526 0.000000
# 4 0.000000 0.000000 0.000000 0.029823 0.000000 0.004220
# 5 0.001443 0.001415 0.002526 0.000000 0.029155 0.000000
# 6 0.000000 0.000000 0.000000 0.004220 0.000000 0.061863
#
#
# Mechanical properties :
#
#
# Convention : Reuss Voigt Hill
#
# Bulk Modulus (GPa) = 76.88782 84.29934 80.59358
# Shear Modulus (GPa) = 29.51097 34.63594 32.07346
#
# Velocity S-wave (km/s) = 3.84936 4.17023 4.01301
# Velocity P-wave (km/s) = 7.63953 8.09413 7.87011
#
# Compressibility (1/GPa) = 0.01300596
#
# Stress axis : x y z
#
# Youngs Moduli (GPa) = 119.52332 111.37638 88.62407
#
# Poissons Ratio (x) = 0.19194 0.17578
# Poissons Ratio (y) = 0.20598 0.36377
# Poissons Ratio (z) = 0.23706 0.45717
#
# Static dielectric constant tensor:
#      x y z
#    x 1.783530 0.000000 0.039040 
#    y 0.000000 1.718020 0.000000 
#    z 0.039040 0.000000 1.743780 
# 
# From -- ./inp_files/4174.got.cif
#   From: 2010.05.17/outbox.cif.g08.bks.cpg/sg11_3_cif.got.tgz:4174.got - 2010.06.03 12:22:45.
