data_PCOD9166810
_publ_section_title
;
Structure prediction by ZEFSAII (Michael W. Deem and Ramdas Pophale) SiO2 
 PCOD9166810
Probable space group: P 21/M
;
_chemical_formula_sum "Si O2"
_cell_formula_units_Z 28
_cell_length_a 12.549367
_cell_length_b 8.623533
_cell_length_c 14.494808
_cell_angle_alpha 90.000000
_cell_angle_beta 118.188466
_cell_angle_gamma 90.000000
_cell_volume 1382.585043
_symmetry_space_group_name_H-M "P 21/M"
_symmetry_group_IT_number 11
_symmetry_cell_setting 'monoclinic'
loop_
_space_group_symop_operation_xyz
x,y,z
-x,1/2+y,-z
-x,-y,-z
x,1/2-y,z
loop_
_atom_site_type_symbol
_atom_site_label
_atom_site_fract_x
_atom_site_fract_y
_atom_site_fract_z
Si Si1 0.106350 0.565504 0.606992
Si Si2 0.360313 0.433609 0.681217
Si Si3 0.231708 0.935988 0.031291
Si Si4 0.507027 0.934779 0.900667
Si Si5 0.930217 0.936699 0.202067
Si Si6 0.186908 0.564012 0.221326
Si Si7 0.553199 0.565039 0.616745
O O1 0.099351 0.750000 0.609098
O O2 0.232468 0.514035 0.612903
O O3 0.098629 0.497608 0.707544
O O4 0.000000 0.500000 0.500000
O O5 0.349246 0.250000 0.667218
O O6 0.403421 0.481330 0.800396
O O7 0.465541 0.496847 0.658925
O O8 0.247263 0.750000 0.031181
O O9 0.171639 0.972039 0.105997
O O10 0.362363 0.016855 0.084896
O O11 0.156792 0.995115 0.912783
O O12 0.491736 0.750000 0.891031
O O13 0.500000 0.000000 0.000000
O O14 0.919736 0.750000 0.196960
O O15 0.067339 0.979751 0.228944
O O16 0.201767 0.750000 0.234413
O O17 0.309358 0.487584 0.308743
O O18 0.500000 0.500000 0.500000
O O19 0.547452 0.750000 0.615367
#
# Coordination Sequence:
#
# PCOD9166810 Si02
#       7
#     4   4   4   4   4   4   4
#     4  12  27  48  71  98 132 175 225 276 335 398
#     4  12  25  46  71  99 134 172 221 278 335 395
#     4  11  22  40  65  97 135 176 221 273 330 394
#     4  12  24  40  64  96 132 176 221 271 332 396
#     4  11  24  43  67  98 136 179 225 276 331 394
#     4  10  23  43  68  98 137 178 223 273 330 394
#     4  12  26  44  70 101 136 177 224 275 334 398
#
# _framework density 20.251918
#
# number of rings (size 3 to 8) (size 9 to 14) (size 15 to 20)
#    0.000    0.571    1.429    7.286    2.000    1.714 
#    0.000    0.000    0.000    0.000    0.000    0.000 
#    0.000    0.000    0.000    0.000    0.000    0.000 
#
# Total GULP energy -156770.182621 kJ/mol
# GULP energy per Si atom -5598.935094 kJ/mol
# Density = 2.020582 g / cm^3
# Si number density = 20.251918 Si / 1000 Ang^3
#
#
#
# Elastic Constant Matrix: (Units=GPa)
#
#
# Indices 1 2 3 4 5 6 
#
# 1 62.0741 12.6873 1.3483 0.0000 15.5877 0.0000
# 2 12.6873 89.9811 17.0114 0.0000 0.0729 0.0000
# 3 1.3483 17.0114 106.0257 0.0000 14.4359 0.0000
# 4 0.0000 0.0000 0.0000 40.5519 0.0000 4.5599
# 5 15.5877 0.0729 14.4359 0.0000 35.3352 0.0000
# 6 0.0000 0.0000 0.0000 4.5599 0.0000 32.8272
#
#
#
# Elastic Compliance Matrix: (Units=1/GPa)
#
#
# Indices 1 2 3 4 5 6 
#
# 1 0.018921 -0.002934 0.001446 0.000000 -0.008932 0.000000
# 2 -0.002934 0.011936 -0.002171 0.000000 0.002157 0.000000
# 3 0.001446 -0.002171 0.010428 0.000000 -0.004894 0.000000
# 4 0.000000 0.000000 0.000000 0.025051 0.000000 -0.003480
# 5 -0.008932 0.002157 -0.004894 0.000000 0.034235 0.000000
# 6 0.000000 0.000000 0.000000 -0.003480 0.000000 0.030946
#
#
# Mechanical properties :
#
#
# Convention : Reuss Voigt Hill
#
# Bulk Modulus (GPa) = 29.44091 35.57500 32.50796
# Shear Modulus (GPa) = 33.29834 36.87845 35.08840
#
# Velocity S-wave (km/s) = 4.05928 4.27193 4.16696
# Velocity P-wave (km/s) = 6.04477 6.47587 6.26403
#
# Compressibility (1/GPa) = 0.03396634
#
# Stress axis : x y z
#
# Youngs Moduli (GPa) = 52.85160 83.78082 95.89580
#
# Poissons Ratio (x) = 0.24581 -0.13869
# Poissons Ratio (y) = 0.15507 0.20823
# Poissons Ratio (z) = -0.07643 0.18192
#
# Static dielectric constant tensor:
#      x y z
#    x 1.728570 0.000000 -0.023520 
#    y 0.000000 1.668640 0.000000 
#    z -0.023520 0.000000 1.727240 
# 
# From -- ./inp_files/49507.got.cif
#   From: 2010.05.17/outbox.cif.g08.bks.cpg/sg11_25_cif.got.tgz:49507.got - 2010.06.03 12:22:45.
