data_PCOD9166164
_publ_section_title
;
Structure prediction by ZEFSAII (Michael W. Deem and Ramdas Pophale) SiO2 
 PCOD9166164
Probable space group: P 21/M
;
_chemical_formula_sum "Si O2"
_cell_formula_units_Z 32
_cell_length_a 15.176259
_cell_length_b 8.260759
_cell_length_c 11.941695
_cell_angle_alpha 90.000000
_cell_angle_beta 87.476358
_cell_angle_gamma 90.000000
_cell_volume 1495.647490
_symmetry_space_group_name_H-M "P 21/M"
_symmetry_group_IT_number 11
_symmetry_cell_setting 'monoclinic'
loop_
_space_group_symop_operation_xyz
x,y,z
-x,1/2+y,-z
-x,-y,-z
x,1/2-y,z
loop_
_atom_site_type_symbol
_atom_site_label
_atom_site_fract_x
_atom_site_fract_y
_atom_site_fract_z
Si Si1 0.216972 0.558524 0.972185
Si Si2 0.522692 0.054329 0.270627
Si Si3 0.851316 0.442177 0.793480
Si Si4 0.347074 0.561435 0.552181
Si Si5 0.991491 0.554700 0.372404
Si Si6 0.323833 0.438467 0.309924
Si Si7 0.196522 0.058041 0.721747
Si Si8 0.407493 0.062613 0.957524
O O1 0.202970 0.750000 0.959488
O O2 0.200053 0.476391 0.853866
O O3 0.319514 0.529469 0.998645
O O4 0.158562 0.494630 0.079033
O O5 0.529836 0.250000 0.254201
O O6 0.562407 0.017111 0.389819
O O7 0.420739 0.007221 0.264365
O O8 0.581179 0.965016 0.175596
O O9 0.865786 0.250000 0.803229
O O10 0.929216 0.508308 0.710836
O O11 0.758250 0.469429 0.737488
O O12 0.350681 0.750000 0.519385
O O13 0.326085 0.459680 0.443633
O O14 0.271633 0.535668 0.649300
O O15 0.995889 0.750000 0.372442
O O16 0.000000 0.500000 0.500000
O O17 0.897853 0.509144 0.324111
O O18 0.314343 0.250000 0.281565
O O19 0.209261 0.250000 0.702918
O O20 0.396925 0.250000 0.986395
O O21 0.500000 0.000000 0.000000
#
# Coordination Sequence:
#
# PCOD9166164 Si02
#       8
#     4   4   4   4   4   4   4   4
#     4  11  23  41  64  91 124 163 209 256 309 373
#     4  10  22  39  58  85 121 161 207 255 307 369
#     4  10  23  43  64  88 122 163 206 253 307 371
#     4  11  22  38  61  87 122 165 207 252 306 374
#     4  10  23  43  66  94 126 160 205 255 310 372
#     4  11  23  38  59  89 124 160 205 260 312 367
#     4  11  23  40  64  94 126 162 206 261 315 370
#     4  12  24  38  60  87 122 166 211 261 309 363
#
# _framework density 21.395416999999998
#
# number of rings (size 3 to 8) (size 9 to 14) (size 15 to 20)
#    0.000    1.250    1.250    4.500    0.000    8.500 
#    0.000    0.000    0.000    0.000    0.000    0.000 
#    0.000    0.000    0.000    0.000    0.000    0.000 
#
# Total GULP energy -178985.788638 kJ/mol
# GULP energy per Si atom -5593.305895 kJ/mol
# Density = 2.134672 g / cm^3
# Si number density = 21.395417 Si / 1000 Ang^3
#
#
#
# Elastic Constant Matrix: (Units=GPa)
#
#
# Indices 1 2 3 4 5 6 
#
# 1 89.5564 -4.5087 16.2345 0.0000 -3.7812 0.0000
# 2 -4.5087 16.7511 -7.3368 0.0000 1.5295 0.0000
# 3 16.2345 -7.3368 78.7383 0.0000 -10.0655 0.0000
# 4 0.0000 0.0000 0.0000 30.6624 0.0000 3.2088
# 5 -3.7812 1.5295 -10.0655 0.0000 38.9557 0.0000
# 6 0.0000 0.0000 0.0000 3.2088 0.0000 23.5574
#
#
#
# Elastic Compliance Matrix: (Units=1/GPa)
#
#
# Indices 1 2 3 4 5 6 
#
# 1 0.011685 0.002160 -0.002145 0.000000 0.000495 0.000000
# 2 0.002160 0.062673 0.005281 0.000000 -0.000886 0.000000
# 3 -0.002145 0.005281 0.014045 0.000000 0.003214 0.000000
# 4 0.000000 0.000000 0.000000 0.033085 0.000000 -0.004507
# 5 0.000495 -0.000886 0.003214 0.000000 0.026583 0.000000
# 6 0.000000 0.000000 0.000000 -0.004507 0.000000 0.043063
#
#
# Mechanical properties :
#
#
# Convention : Reuss Voigt Hill
#
# Bulk Modulus (GPa) = 10.10129 21.53598 15.81864
# Shear Modulus (GPa) = 23.41486 30.67890 27.04688
#
# Velocity S-wave (km/s) = 3.31174 3.79080 3.55934
# Velocity P-wave (km/s) = 4.39943 5.40812 4.92964
#
# Compressibility (1/GPa) = 0.09899721
#
# Stress axis : x y z
#
# Youngs Moduli (GPa) = 85.58288 15.95579 71.19787
#
# Poissons Ratio (x) = -0.03447 0.15269
# Poissons Ratio (y) = -0.18490 -0.37600
# Poissons Ratio (z) = 0.18354 -0.08426
#
# Static dielectric constant tensor:
#      x y z
#    x 1.765930 0.000000 -0.010950 
#    y 0.000000 1.734180 0.000000 
#    z -0.010950 0.000000 1.794310 
# 
# From -- ./inp_files/38293.got.cif
#   From: 2010.05.17/outbox.cif.g08.bks.cpg/sg11_20_cif.got.tgz:38293.got - 2010.06.03 12:22:45.
