data_PCOD9166323
_publ_section_title
;
Structure prediction by ZEFSAII (Michael W. Deem and Ramdas Pophale) SiO2 
 PCOD9166323
Probable space group: P 21/M
;
_chemical_formula_sum "Si O2"
_cell_formula_units_Z 20
_cell_length_a 15.269662
_cell_length_b 10.444432
_cell_length_c 11.891660
_cell_angle_alpha 90.000000
_cell_angle_beta 150.700432
_cell_angle_gamma 90.000000
_cell_volume 928.109657
_symmetry_space_group_name_H-M "P 21/M"
_symmetry_group_IT_number 11
_symmetry_cell_setting 'monoclinic'
loop_
_space_group_symop_operation_xyz
x,y,z
-x,1/2+y,-z
-x,-y,-z
x,1/2-y,z
loop_
_atom_site_type_symbol
_atom_site_label
_atom_site_fract_x
_atom_site_fract_y
_atom_site_fract_z
Si Si1 0.011402 0.607717 0.917019
Si Si2 0.853269 0.612741 0.262554
Si Si3 0.842504 0.531736 0.493025
Si Si4 0.430870 0.612135 0.346143
Si Si5 0.547072 0.098816 0.890621
O O1 0.965929 0.750000 0.910147
O O2 0.898374 0.582103 0.677809
O O3 0.000000 0.500000 0.000000
O O4 0.216647 0.609265 0.107101
O O5 0.770342 0.750000 0.139379
O O6 0.897493 0.613505 0.444907
O O7 0.034344 0.591803 0.393736
O O8 0.718781 0.492981 0.097002
O O9 0.627463 0.533469 0.249585
O O10 0.500000 0.500000 0.500000
O O11 0.490223 0.750000 0.458068
O O12 0.490302 0.601226 0.284553
O O13 0.568610 0.250000 0.949532
#
# Coordination Sequence:
#
# PCOD9166323 Si02
#       5
#     4   4   4   4   4
#     4  11  23  42  67  94 129 170 219 269 327 393
#     4  11  25  43  68 101 137 177 224 278 328 393
#     4  11  24  43  68  98 135 178 222 269 336 394
#     4  10  22  40  63  92 126 170 215 268 326 387
#     4  11  23  42  69  97 133 178 221 272 336 400
#
# _framework density 21.549177
#
# number of rings (size 3 to 8) (size 9 to 14) (size 15 to 20)
#    0.000    1.200    2.000    3.600    0.000    8.800 
#    0.000    0.000    0.000    0.000    0.000    0.000 
#    0.000    0.000    0.000    0.000    0.000    0.000 
#
# Total GULP energy -111604.999754 kJ/mol
# GULP energy per Si atom -5580.249988 kJ/mol
# Density = 2.150013 g / cm^3
# Si number density = 21.549177 Si / 1000 Ang^3
#
#
#
# Elastic Constant Matrix: (Units=GPa)
#
#
# Indices 1 2 3 4 5 6 
#
# 1 107.3501 54.1397 27.0492 0.0000 12.1736 0.0000
# 2 54.1397 152.6337 70.6472 0.0000 -1.3267 0.0000
# 3 27.0492 70.6472 104.8013 0.0000 8.5335 0.0000
# 4 0.0000 0.0000 0.0000 22.4838 0.0000 9.8938
# 5 12.1736 -1.3267 8.5335 0.0000 46.5224 0.0000
# 6 0.0000 0.0000 0.0000 9.8938 0.0000 1.9166
#
#
#
# Elastic Compliance Matrix: (Units=1/GPa)
#
#
# Indices 1 2 3 4 5 6 
#
# 1 0.011806 -0.004254 0.000083 0.000000 -0.003226 0.000000
# 2 -0.004254 0.011156 -0.006638 0.000000 0.002649 0.000000
# 3 0.000083 -0.006638 0.014225 0.000000 -0.002820 0.000000
# 4 0.000000 0.000000 0.000000 -0.034978 0.000000 0.180563
# 5 -0.003226 0.002649 -0.002820 0.000000 0.022932 0.000000
# 6 0.000000 0.000000 0.000000 0.180563 0.000000 -0.410332
#
#
# Mechanical properties :
#
#
# Convention : Reuss Voigt Hill
#
# Bulk Modulus (GPa) = 64.23117 74.27303 69.25210
# Shear Modulus (GPa) = -13.95149 28.38114 7.21483
#
# Velocity S-wave (km/s) = -2.54722 3.63304 1.83176
# Velocity P-wave (km/s) = 4.60656 7.22082 6.05643
#
# Compressibility (1/GPa) = 0.01556877
#
# Stress axis : x y z
#
# Youngs Moduli (GPa) = 84.70572 89.63737 70.29992
#
# Poissons Ratio (x) = 0.38133 -0.00586
# Poissons Ratio (y) = 0.36035 0.46666
# Poissons Ratio (z) = -0.00706 0.59502
#
# Static dielectric constant tensor:
#      x y z
#    x 1.783640 0.000000 0.032320 
#    y 0.000000 1.871780 0.000000 
#    z 0.032320 0.000000 1.807950 
# 
# From -- ./inp_files/39266.got.cif
#   From: 2010.05.17/outbox.cif.g08.bks.cpg/sg11_20_cif.got.tgz:39266.got - 2010.06.03 12:22:45.
