data_PCOD9166771
_publ_section_title
;
Structure prediction by ZEFSAII (Michael W. Deem and Ramdas Pophale) SiO2 
 PCOD9166771
Probable space group: P 21/M
;
_chemical_formula_sum "Si O2"
_cell_formula_units_Z 20
_cell_length_a 8.602092
_cell_length_b 15.867516
_cell_length_c 7.857041
_cell_angle_alpha 90.000000
_cell_angle_beta 55.231414
_cell_angle_gamma 90.000000
_cell_volume 880.966762
_symmetry_space_group_name_H-M "P 21/M"
_symmetry_group_IT_number 11
_symmetry_cell_setting 'monoclinic'
loop_
_space_group_symop_operation_xyz
x,y,z
-x,1/2+y,-z
-x,-y,-z
x,1/2-y,z
loop_
_atom_site_type_symbol
_atom_site_label
_atom_site_fract_x
_atom_site_fract_y
_atom_site_fract_z
Si Si1 0.670473 0.559008 0.457972
Si Si2 0.924205 0.399145 0.355982
Si Si3 0.002419 0.597293 0.052924
Si Si4 0.660563 0.851370 0.810188
Si Si5 0.728807 0.346897 0.815231
O O1 0.500000 0.500000 0.500000
O O2 0.827426 0.490997 0.421308
O O3 0.611862 0.618130 0.650008
O O4 0.785901 0.614003 0.246005
O O5 0.816602 0.351967 0.573943
O O6 0.145985 0.396734 0.259099
O O7 0.916338 0.361129 0.169811
O O8 0.137351 0.610628 0.128816
O O9 0.000000 0.500000 0.000000
O O10 0.690337 0.750000 0.798116
O O11 0.485992 0.878357 0.038121
O O12 0.720876 0.250000 0.873765
#
# Coordination Sequence:
#
# PCOD9166771 Si02
#       5
#     4   4   4   4   4
#     4  11  24  44  71 104 136 184 231 283 342 412
#     4  11  24  43  71 100 135 177 232 281 346 411
#     4  10  23  42  68  98 133 176 224 281 340 406
#     4  11  24  43  68 100 138 180 227 287 350 406
#     4  11  25  45  68  98 138 183 227 284 349 409
#
# _framework density 22.702332999999999
#
# number of rings (size 3 to 8) (size 9 to 14) (size 15 to 20)
#    0.000    1.200    2.000    3.600    5.600    2.400 
#    0.000    2.000    0.000    0.000    0.000    0.000 
#    0.000    0.000    0.000    0.000    0.000    0.000 
#
# Total GULP energy -111712.659018 kJ/mol
# GULP energy per Si atom -5585.632951 kJ/mol
# Density = 2.265066 g / cm^3
# Si number density = 22.702333 Si / 1000 Ang^3
#
#
#
# Elastic Constant Matrix: (Units=GPa)
#
#
# Indices 1 2 3 4 5 6 
#
# 1 101.3380 35.8984 69.4594 0.0000 -22.5019 0.0000
# 2 35.8984 39.4742 10.5834 0.0000 -3.3095 0.0000
# 3 69.4594 10.5834 177.3069 0.0000 -19.0082 0.0000
# 4 0.0000 0.0000 0.0000 19.3055 0.0000 -20.5822
# 5 -22.5019 -3.3095 -19.0082 0.0000 43.8026 0.0000
# 6 0.0000 0.0000 0.0000 -20.5822 0.0000 -21.1753
#
#
#
# Elastic Compliance Matrix: (Units=1/GPa)
#
#
# Indices 1 2 3 4 5 6 
#
# 1 0.022760 -0.018199 -0.007052 0.000000 0.007257 0.000000
# 2 -0.018199 0.040372 0.004242 0.000000 -0.004458 0.000000
# 3 -0.007052 0.004242 0.008176 0.000000 0.000246 0.000000
# 4 0.000000 0.000000 0.000000 0.025438 0.000000 -0.024725
# 5 0.007257 -0.004458 0.000246 0.000000 0.026327 0.000000
# 6 0.000000 0.000000 0.000000 -0.024725 0.000000 -0.023192
#
#
# Mechanical properties :
#
#
# Convention : Reuss Voigt Hill
#
# Bulk Modulus (GPa) = 34.14189 61.11127 47.62658
# Shear Modulus (GPa) = 32.96797 21.86508 27.41653
#
# Velocity S-wave (km/s) = 3.81489 3.10679 3.47890
# Velocity P-wave (km/s) = 5.87163 6.31240 6.09600
#
# Compressibility (1/GPa) = 0.02928954
#
# Stress axis : x y z
#
# Youngs Moduli (GPa) = 43.93753 24.76943 122.31527
#
# Poissons Ratio (x) = 0.45078 0.86254
# Poissons Ratio (y) = 0.79961 -0.51881
# Poissons Ratio (z) = 0.30984 -0.10506
#
# Static dielectric constant tensor:
#      x y z
#    x 1.860860 0.000000 0.011980 
#    y 0.000000 1.815820 0.000000 
#    z 0.011980 0.000000 1.963460 
# 
# From -- ./inp_files/13421.got.cif
#   From: 2010.05.17/outbox.cif.g08.bks.cpg/sg11_7_cif.got.tgz:13421.got - 2010.06.03 12:22:45.
