data_PCOD9166419
_publ_section_title
;
Structure prediction by ZEFSAII (Michael W. Deem and Ramdas Pophale) SiO2 
 PCOD9166419
Probable space group: P 21/M
;
_chemical_formula_sum "Si O2"
_cell_formula_units_Z 26
_cell_length_a 11.809859
_cell_length_b 23.208996
_cell_length_c 8.515429
_cell_angle_alpha 90.000000
_cell_angle_beta 144.918686
_cell_angle_gamma 90.000000
_cell_volume 1341.460257
_symmetry_space_group_name_H-M "P 21/M"
_symmetry_group_IT_number 11
_symmetry_cell_setting 'monoclinic'
loop_
_space_group_symop_operation_xyz
x,y,z
-x,1/2+y,-z
-x,-y,-z
x,1/2-y,z
loop_
_atom_site_type_symbol
_atom_site_label
_atom_site_fract_x
_atom_site_fract_y
_atom_site_fract_z
Si Si1 0.375610 0.465061 0.588984
Si Si2 0.915183 0.469667 0.556922
Si Si3 0.059990 0.250000 0.035482
Si Si4 0.224042 0.966626 0.114319
Si Si5 0.029832 0.657267 0.497197
Si Si6 0.945147 0.634197 0.766986
Si Si7 0.725239 0.250000 0.383996
Si Si8 0.275903 0.250000 0.973839
O O1 0.298805 0.504332 0.645404
O O2 0.607306 0.456435 0.825591
O O3 0.312179 0.502401 0.365175
O O4 0.252813 0.405242 0.453744
O O5 0.939217 0.402454 0.557329
O O6 0.000000 0.500000 0.500000
O O7 0.057332 0.491690 0.856219
O O8 0.870231 0.250000 0.701803
O O9 0.243301 0.250000 0.123482
O O10 0.066405 0.192991 0.149187
O O11 0.117068 0.906724 0.030527
O O12 0.214830 0.696018 0.656147
O O13 0.001583 0.646439 0.649823
O O14 0.841181 0.694200 0.224879
O O15 0.500740 0.250000 0.179567
#
# Coordination Sequence:
#
# PCOD9166419 Si02
#       8
#     4   4   2   4   4   4   2   2
#     4  10  23  38  60  91 123 160 198 239 294 352
#     4  11  20  39  62  89 125 155 189 243 297 351
#     4  10  24  40  68  84 114 156 200 250 298 350
#     4  10  23  38  60  91 123 160 198 239 294 352
#     4  10  22  41  64  88 117 161 195 241 301 349
#     4  11  21  43  62  85 121 156 201 246 292 348
#     4  10  25  43  61  89 117 152 200 248 300 354
#     4  10  25  43  61  89 117 152 200 248 300 354
#
# _framework density 19.381865000000001
#
# number of rings (size 3 to 8) (size 9 to 14) (size 15 to 20)
#    0.000    1.846    3.077    2.769    8.615    4.308 
#    0.000    1.538    0.000    0.000    0.000    0.000 
#    0.000    0.000    0.000    0.000    0.000    0.000 
#
# Total GULP energy -145123.099031 kJ/mol
# GULP energy per Si atom -5581.657655 kJ/mol
# Density = 1.933775 g / cm^3
# Si number density = 19.381865 Si / 1000 Ang^3
#
#
#
# Elastic Constant Matrix: (Units=GPa)
#
#
# Indices 1 2 3 4 5 6 
#
# 1 142.4604 58.1664 32.9502 0.0000 23.1768 0.0000
# 2 58.1664 169.6554 25.5563 0.0000 5.8856 0.0000
# 3 32.9502 25.5563 31.7971 0.0000 15.3832 0.0000
# 4 0.0000 0.0000 0.0000 11.3129 0.0000 -11.4879
# 5 23.1768 5.8856 15.3832 0.0000 44.1485 0.0000
# 6 0.0000 0.0000 0.0000 -11.4879 0.0000 36.9760
#
#
#
# Elastic Compliance Matrix: (Units=1/GPa)
#
#
# Indices 1 2 3 4 5 6 
#
# 1 0.010045 -0.002238 -0.007462 0.000000 -0.002375 0.000000
# 2 -0.002238 0.007256 -0.004346 0.000000 0.001722 0.000000
# 3 -0.007462 -0.004346 0.048712 0.000000 -0.012476 0.000000
# 4 0.000000 0.000000 0.000000 0.129136 0.000000 0.040121
# 5 -0.002375 0.001722 -0.012476 0.000000 0.028015 0.000000
# 6 0.000000 0.000000 0.000000 0.040121 0.000000 0.039510
#
#
# Mechanical properties :
#
#
# Convention : Reuss Voigt Hill
#
# Bulk Modulus (GPa) = 26.37070 64.13985 45.25528
# Shear Modulus (GPa) = 16.47949 33.63682 25.05815
#
# Velocity S-wave (km/s) = 2.91907 4.17043 3.59955
# Velocity P-wave (km/s) = 4.99967 7.50696 6.37774
#
# Compressibility (1/GPa) = 0.03792087
#
# Stress axis : x y z
#
# Youngs Moduli (GPa) = 99.54715 137.80798 20.52897
#
# Poissons Ratio (x) = 0.30836 0.15319
# Poissons Ratio (y) = 0.22275 0.08923
# Poissons Ratio (z) = 0.74285 0.59898
#
# Static dielectric constant tensor:
#      x y z
#    x 1.684020 0.000000 0.029260 
#    y 0.000000 1.674240 0.000000 
#    z 0.029260 0.000000 1.624450 
# 
# From -- ./inp_files/19480.got.cif
#   From: 2010.05.17/outbox.cif.g08.bks.cpg/sg11_10_cif.got.tgz:19480.got - 2010.06.03 12:22:45.
