data_PCOD9166655
_publ_section_title
;
Structure prediction by ZEFSAII (Michael W. Deem and Ramdas Pophale) SiO2 
 PCOD9166655
Probable space group: P 21/M
;
_chemical_formula_sum "Si O2"
_cell_formula_units_Z 14
_cell_length_a 7.468570
_cell_length_b 13.739675
_cell_length_c 7.940479
_cell_angle_alpha 90.000000
_cell_angle_beta 141.125012
_cell_angle_gamma 90.000000
_cell_volume 511.398735
_symmetry_space_group_name_H-M "P 21/M"
_symmetry_group_IT_number 11
_symmetry_cell_setting 'monoclinic'
loop_
_space_group_symop_operation_xyz
x,y,z
-x,1/2+y,-z
-x,-y,-z
x,1/2-y,z
loop_
_atom_site_type_symbol
_atom_site_label
_atom_site_fract_x
_atom_site_fract_y
_atom_site_fract_z
Si Si1 0.986645 0.884967 0.505865
Si Si2 0.623972 0.611304 0.923170
Si Si3 0.533876 0.419104 0.672316
Si Si4 0.982925 0.750000 0.995249
O O1 0.764036 0.867545 0.491667
O O2 0.311923 0.854542 0.752154
O O3 0.380287 0.994945 0.112018
O O4 0.846903 0.855182 0.227595
O O5 0.000000 0.500000 0.500000
O O6 0.500000 0.500000 0.500000
O O7 0.269112 0.333680 0.162617
O O8 0.772607 0.337518 0.828622
#
# Coordination Sequence:
#
# PCOD9166655 Si02
#       4
#     4   4   4   2
#     4  10  22  46  73  98 138 190 232 286 354 426
#     4  11  25  46  70 102 142 188 235 286 353 432
#     4  11  25  47  75 109 145 185 240 303 358 418
#     4  12  26  42  72 108 146 188 238 302 360 414
#
# _framework density 27.375896999999998
#
# number of rings (size 3 to 8) (size 9 to 14) (size 15 to 20)
#    0.000    1.143    0.000    7.714    0.000    9.143 
#    0.000    0.000    0.000    6.857    0.000    0.000 
#    0.000    0.000    0.000    0.000    0.000    0.000 
#
# Total GULP energy -77945.860067 kJ/mol
# GULP energy per Si atom -5567.561433 kJ/mol
# Density = 2.731359 g / cm^3
# Si number density = 27.375897 Si / 1000 Ang^3
#
#
#
# Elastic Constant Matrix: (Units=GPa)
#
#
# Indices 1 2 3 4 5 6 
#
# 1 156.8127 38.1854 39.3092 0.0000 42.0352 0.0000
# 2 38.1854 238.3900 39.0639 0.0000 32.8770 0.0000
# 3 39.3092 39.0639 97.8150 0.0000 24.3166 0.0000
# 4 0.0000 0.0000 0.0000 16.2528 0.0000 21.6552
# 5 42.0352 32.8770 24.3166 0.0000 86.0047 0.0000
# 6 0.0000 0.0000 0.0000 21.6552 0.0000 34.7477
#
#
#
# Elastic Compliance Matrix: (Units=1/GPa)
#
#
# Indices 1 2 3 4 5 6 
#
# 1 0.007862 -0.000478 -0.002214 0.000000 -0.003034 0.000000
# 2 -0.000478 0.004657 -0.001380 0.000000 -0.001156 0.000000
# 3 -0.002214 -0.001380 0.012116 0.000000 -0.001816 0.000000
# 4 0.000000 0.000000 0.000000 0.362722 0.000000 -0.226054
# 5 -0.003034 -0.001156 -0.001816 0.000000 0.014065 0.000000
# 6 0.000000 0.000000 0.000000 -0.226054 0.000000 0.169659
#
#
# Mechanical properties :
#
#
# Convention : Reuss Voigt Hill
#
# Bulk Modulus (GPa) = 60.64549 80.68164 70.66357
# Shear Modulus (GPa) = 8.55105 52.49831 30.52468
#
# Velocity S-wave (km/s) = 1.76928 4.38389 3.34281
# Velocity P-wave (km/s) = 5.13564 7.42700 6.38495
#
# Compressibility (1/GPa) = 0.01648927
#
# Stress axis : x y z
#
# Youngs Moduli (GPa) = 127.19854 214.72884 82.53634
#
# Poissons Ratio (x) = 0.10265 0.18276
# Poissons Ratio (y) = 0.06081 0.11392
# Poissons Ratio (z) = 0.28166 0.29638
#
# Static dielectric constant tensor:
#      x y z
#    x 2.321820 0.000000 -0.170520 
#    y 0.000000 2.177660 0.000000 
#    z -0.170520 0.000000 2.225390 
# 
# From -- ./inp_files/92.got.cif
#   From: 2010.05.17/outbox.cif.g08.bks.cpg/sg11_1_cif.got.tgz:92.got - 2010.06.03 12:22:45.
