data_PCOD9166400
_publ_section_title
;
Structure prediction by ZEFSAII (Michael W. Deem and Ramdas Pophale) SiO2 
 PCOD9166400
Probable space group: P 21/M
;
_chemical_formula_sum "Si O2"
_cell_formula_units_Z 28
_cell_length_a 12.142484
_cell_length_b 8.704918
_cell_length_c 16.033886
_cell_angle_alpha 90.000000
_cell_angle_beta 56.124816
_cell_angle_gamma 90.000000
_cell_volume 1407.090000
_symmetry_space_group_name_H-M "P 21/M"
_symmetry_group_IT_number 11
_symmetry_cell_setting 'monoclinic'
loop_
_space_group_symop_operation_xyz
x,y,z
-x,1/2+y,-z
-x,-y,-z
x,1/2-y,z
loop_
_atom_site_type_symbol
_atom_site_label
_atom_site_fract_x
_atom_site_fract_y
_atom_site_fract_z
Si Si1 0.859262 0.566414 0.858211
Si Si2 0.131625 0.565560 0.486913
Si Si3 0.855320 0.433522 0.039344
Si Si4 0.867900 0.934127 0.328092
Si Si5 0.586649 0.932696 0.888252
Si Si6 0.590232 0.065303 0.706590
Si Si7 0.675943 0.564854 0.262182
O O1 0.877539 0.750000 0.855486
O O2 0.740904 0.533218 0.843718
O O3 0.996275 0.488549 0.773209
O O4 0.816918 0.502648 0.966103
O O5 0.126623 0.750000 0.486597
O O6 0.140111 0.510406 0.578418
O O7 0.264191 0.512749 0.382749
O O8 0.000000 0.500000 0.500000
O O9 0.860525 0.250000 0.032580
O O10 0.757151 0.487691 0.153066
O O11 0.000000 0.500000 0.000000
O O12 0.870355 0.750000 0.335492
O O13 0.745511 0.978031 0.319575
O O14 0.569305 0.750000 0.894294
O O15 0.552319 0.000382 0.812814
O O16 0.500000 0.000000 0.000000
O O17 0.592970 0.250000 0.711530
O O18 0.477579 0.024007 0.686694
O O19 0.688780 0.750000 0.248554
#
# Coordination Sequence:
#
# PCOD9166400 Si02
#       7
#     4   4   4   4   4   4   4
#     4  11  23  39  60  88 124 162 207 259 310 364
#     4  11  24  43  67  93 123 160 205 257 312 368
#     4  12  23  36  58  89 125 165 207 251 304 365
#     4  11  23  39  63  92 122 159 204 254 309 367
#     4  11  24  40  61  90 123 161 203 253 306 365
#     4  10  23  43  65  89 123 165 205 254 311 365
#     4  10  22  41  62  89 125 163 207 255 307 367
#
# _framework density 19.899225999999999
#
# number of rings (size 3 to 8) (size 9 to 14) (size 15 to 20)
#    0.000    1.143    1.429    4.714    0.000   10.857 
#    0.000    0.000    0.000    0.000    0.000    0.000 
#    0.000    0.000    0.000    0.000    0.000    0.000 
#
# Total GULP energy -156639.545454 kJ/mol
# GULP energy per Si atom -5594.269481 kJ/mol
# Density = 1.985393 g / cm^3
# Si number density = 19.899226 Si / 1000 Ang^3
#
#
#
# Elastic Constant Matrix: (Units=GPa)
#
#
# Indices 1 2 3 4 5 6 
#
# 1 158.3533 47.2201 62.6525 0.0000 2.0140 0.0000
# 2 47.2201 38.1178 21.1289 0.0000 0.1705 0.0000
# 3 62.6525 21.1289 111.3040 0.0000 8.0919 0.0000
# 4 0.0000 0.0000 0.0000 33.8117 0.0000 3.6376
# 5 2.0140 0.1705 8.0919 0.0000 37.7167 0.0000
# 6 0.0000 0.0000 0.0000 3.6376 0.0000 28.6358
#
#
#
# Elastic Compliance Matrix: (Units=1/GPa)
#
#
# Indices 1 2 3 4 5 6 
#
# 1 0.011566 -0.011965 -0.004264 0.000000 0.000351 0.000000
# 2 -0.011965 0.041742 -0.001241 0.000000 0.000716 0.000000
# 3 -0.004264 -0.001241 0.011787 0.000000 -0.002296 0.000000
# 4 0.000000 0.000000 0.000000 0.029985 0.000000 -0.003809
# 5 0.000351 0.000716 -0.002296 0.000000 0.026984 0.000000
# 6 0.000000 0.000000 0.000000 -0.003809 0.000000 0.035405
#
#
# Mechanical properties :
#
#
# Convention : Reuss Voigt Hill
#
# Bulk Modulus (GPa) = 33.16349 63.30867 48.23608
# Shear Modulus (GPa) = 24.69607 31.81775 28.25691
#
# Velocity S-wave (km/s) = 3.52669 4.00302 3.77238
# Velocity P-wave (km/s) = 5.76934 7.29721 6.57778
#
# Compressibility (1/GPa) = 0.03015364
#
# Stress axis : x y z
#
# Youngs Moduli (GPa) = 86.46203 23.95692 84.83730
#
# Poissons Ratio (x) = 0.28665 0.36179
# Poissons Ratio (y) = 1.03455 0.10525
# Poissons Ratio (z) = 0.36872 0.02972
#
# Static dielectric constant tensor:
#      x y z
#    x 1.753950 0.000000 0.019780 
#    y 0.000000 1.667510 0.000000 
#    z 0.019780 0.000000 1.689670 
# 
# From -- ./inp_files/49147.got.cif
#   From: 2010.05.17/outbox.cif.g08.bks.cpg/sg11_25_cif.got.tgz:49147.got - 2010.06.03 12:22:45.
