data_PCOD9166415
_publ_section_title
;
Structure prediction by ZEFSAII (Michael W. Deem and Ramdas Pophale) SiO2 
 PCOD9166415
Probable space group: P 21/M
;
_chemical_formula_sum "Si O2"
_cell_formula_units_Z 28
_cell_length_a 15.851057
_cell_length_b 8.894228
_cell_length_c 12.064160
_cell_angle_alpha 90.000000
_cell_angle_beta 124.408120
_cell_angle_gamma 90.000000
_cell_volume 1403.250212
_symmetry_space_group_name_H-M "P 21/M"
_symmetry_group_IT_number 11
_symmetry_cell_setting 'monoclinic'
loop_
_space_group_symop_operation_xyz
x,y,z
-x,1/2+y,-z
-x,-y,-z
x,1/2-y,z
loop_
_atom_site_type_symbol
_atom_site_label
_atom_site_fract_x
_atom_site_fract_y
_atom_site_fract_z
Si Si1 0.388047 0.929471 0.405784
Si Si2 0.536292 0.929730 0.142828
Si Si3 0.637452 0.928639 0.842859
Si Si4 0.163899 0.429539 0.859360
Si Si5 0.777638 0.570526 0.344761
Si Si6 0.803092 0.429127 0.594475
Si Si7 0.983959 0.928792 0.867480
O O1 0.397101 0.750000 0.405519
O O2 0.311881 0.966600 0.450055
O O3 0.500000 0.000000 0.500000
O O4 0.339622 0.993541 0.256811
O O5 0.521767 0.750000 0.130077
O O6 0.656174 0.959950 0.247418
O O7 0.466545 0.002466 0.185745
O O8 0.500000 0.000000 0.000000
O O9 0.626174 0.750000 0.819101
O O10 0.728013 0.954437 0.998345
O O11 0.142690 0.250000 0.850449
O O12 0.174198 0.470877 0.737943
O O13 0.077017 0.519647 0.858265
O O14 0.790599 0.750000 0.369290
O O15 0.820362 0.485187 0.482695
O O16 0.816034 0.250000 0.611123
O O17 0.881515 0.508447 0.735277
O O18 0.979603 0.750000 0.873537
O O19 0.000000 0.000000 0.000000
#
# Coordination Sequence:
#
# PCOD9166415 Si02
#       7
#     4   4   4   4   4   4   4
#     4  11  24  41  62  91 125 165 211 259 312 376
#     4  11  21  36  59  90 129 171 213 257 309 370
#     4  11  22  38  61  91 126 166 210 261 319 373
#     4  10  22  42  65  92 127 165 209 260 311 373
#     4  10  22  41  63  92 129 170 212 256 313 374
#     4  11  25  44  66  94 127 166 211 260 314 375
#     4  12  26  45  70  97 124 161 207 260 319 377
#
# _framework density 19.953676000000002
#
# number of rings (size 3 to 8) (size 9 to 14) (size 15 to 20)
#    0.000    1.143    1.429    4.714    0.000   10.286 
#    0.000    0.000    0.000    0.000    0.000    0.000 
#    0.000    0.000    0.000    0.000    0.000    0.000 
#
# Total GULP energy -156684.384346 kJ/mol
# GULP energy per Si atom -5595.870869 kJ/mol
# Density = 1.990826 g / cm^3
# Si number density = 19.953676 Si / 1000 Ang^3
#
#
#
# Elastic Constant Matrix: (Units=GPa)
#
#
# Indices 1 2 3 4 5 6 
#
# 1 118.7562 64.6868 51.0831 0.0000 -12.5880 0.0000
# 2 64.6868 82.7701 67.7341 0.0000 -0.4478 0.0000
# 3 51.0831 67.7341 131.2556 0.0000 -19.0669 0.0000
# 4 0.0000 0.0000 0.0000 38.2950 0.0000 -3.5018
# 5 -12.5880 -0.4478 -19.0669 0.0000 35.5544 0.0000
# 6 0.0000 0.0000 0.0000 -3.5018 0.0000 35.4029
#
#
#
# Elastic Compliance Matrix: (Units=1/GPa)
#
#
# Indices 1 2 3 4 5 6 
#
# 1 0.015886 -0.014013 0.001996 0.000000 0.006518 0.000000
# 2 -0.014013 0.034521 -0.014118 0.000000 -0.012098 0.000000
# 3 0.001996 -0.014118 0.015405 0.000000 0.008790 0.000000
# 4 0.000000 0.000000 0.000000 0.026351 0.000000 0.002607
# 5 0.006518 -0.012098 0.008790 0.000000 0.034995 0.000000
# 6 0.000000 0.000000 0.000000 0.002607 0.000000 0.028504
#
#
# Mechanical properties :
#
#
# Convention : Reuss Voigt Hill
#
# Bulk Modulus (GPa) = 73.85298 77.75443 75.80371
# Shear Modulus (GPa) = 23.53515 31.80232 27.66873
#
# Velocity S-wave (km/s) = 3.43810 3.99658 3.72781
# Velocity P-wave (km/s) = 7.27002 7.76846 7.52337
#
# Compressibility (1/GPa) = 0.01354041
#
# Stress axis : x y z
#
# Youngs Moduli (GPa) = 62.94789 28.96746 64.91563
#
# Poissons Ratio (x) = 0.40593 -0.12955
# Poissons Ratio (y) = 0.88211 0.91650
# Poissons Ratio (z) = -0.12562 0.40897
#
# Static dielectric constant tensor:
#      x y z
#    x 1.740490 0.000000 -0.034500 
#    y 0.000000 1.660980 0.000000 
#    z -0.034500 0.000000 1.717670 
# 
# From -- ./inp_files/38453.got.cif
#   From: 2010.05.17/outbox.cif.g08.bks.cpg/sg11_20_cif.got.tgz:38453.got - 2010.06.03 12:22:45.
