data_PCOD9166890
_publ_section_title
;
Structure prediction by ZEFSAII (Michael W. Deem and Ramdas Pophale) SiO2 
 PCOD9166890
Probable space group: P 21/M
;
_chemical_formula_sum "Si O2"
_cell_formula_units_Z 28
_cell_length_a 8.414624
_cell_length_b 28.166657
_cell_length_c 6.110469
_cell_angle_alpha 90.000000
_cell_angle_beta 121.097687
_cell_angle_gamma 90.000000
_cell_volume 1240.121938
_symmetry_space_group_name_H-M "P 21/M"
_symmetry_group_IT_number 11
_symmetry_cell_setting 'monoclinic'
loop_
_space_group_symop_operation_xyz
x,y,z
-x,1/2+y,-z
-x,-y,-z
x,1/2-y,z
loop_
_atom_site_type_symbol
_atom_site_label
_atom_site_fract_x
_atom_site_fract_y
_atom_site_fract_z
Si Si1 0.227803 0.416438 0.409421
Si Si2 0.161706 0.250000 0.057269
Si Si3 0.645623 0.750000 0.301931
Si Si4 0.736742 0.513137 0.926111
Si Si5 0.962959 0.435186 0.616703
Si Si6 0.036710 0.850815 0.077156
Si Si7 0.446161 0.850542 0.172644
Si Si8 0.605683 0.064453 0.112328
O O1 0.095283 0.435652 0.502982
O O2 0.400075 0.384275 0.605683
O O3 0.299041 0.462057 0.328463
O O4 0.096429 0.381918 0.173755
O O5 0.258078 0.250000 0.877563
O O6 0.043423 0.298215 0.968460
O O7 0.257845 0.250000 0.377730
O O8 0.527218 0.798234 0.213604
O O9 0.942176 0.529312 0.144982
O O10 0.691700 0.458949 0.951654
O O11 0.591643 0.541646 0.978749
O O12 0.969328 0.381278 0.705996
O O13 0.755541 0.447724 0.402550
O O14 0.248077 0.849585 0.148226
O O15 0.412804 0.879152 0.923042
#
# Coordination Sequence:
#
# PCOD9166890 Si02
#       8
#     4   2   2   4   4   4   4   4
#     4  11  22  42  68  95 140 179 232 286 358 421
#     4  12  27  50  77 107 143 184 241 297 369 432
#     4  12  29  48  81 107 145 190 237 301 365 436
#     4  10  24  41  64  98 139 186 234 296 351 422
#     4  11  22  43  67  97 135 187 233 293 350 430
#     4  11  25  44  70  99 135 183 232 293 357 429
#     4  12  24  46  70 104 137 184 232 295 362 428
#     4  11  23  42  66  99 140 183 239 290 356 430
#
# _framework density 22.578423999999998
#
# number of rings (size 3 to 8) (size 9 to 14) (size 15 to 20)
#    0.000    0.857    4.286    2.571    2.000    2.286 
#    2.571    2.143    0.000    0.000    0.000    0.000 
#    0.000    0.000    0.000    0.000    0.000    0.000 
#
# Total GULP energy -156478.258592 kJ/mol
# GULP energy per Si atom -5588.509235 kJ/mol
# Density = 2.252703 g / cm^3
# Si number density = 22.578424 Si / 1000 Ang^3
#
#
#
# Elastic Constant Matrix: (Units=GPa)
#
#
# Indices 1 2 3 4 5 6 
#
# 1 76.4312 33.4494 42.2823 0.0000 10.3896 0.0000
# 2 33.4494 162.2689 41.0441 0.0000 2.0065 0.0000
# 3 42.2823 41.0441 91.9898 0.0000 18.5874 0.0000
# 4 0.0000 0.0000 0.0000 37.4231 0.0000 -0.1995
# 5 10.3896 2.0065 18.5874 0.0000 41.5192 0.0000
# 6 0.0000 0.0000 0.0000 -0.1995 0.0000 36.0890
#
#
#
# Elastic Compliance Matrix: (Units=1/GPa)
#
#
# Indices 1 2 3 4 5 6 
#
# 1 0.018065 -0.001882 -0.007222 0.000000 -0.001197 0.000000
# 2 -0.001882 0.007194 -0.002605 0.000000 0.001290 0.000000
# 3 -0.007222 -0.002605 0.016450 0.000000 -0.005431 0.000000
# 4 0.000000 0.000000 0.000000 0.026722 0.000000 0.000148
# 5 -0.001197 0.001290 -0.005431 0.000000 0.026754 0.000000
# 6 0.000000 0.000000 0.000000 0.000148 0.000000 0.027710
#
#
# Mechanical properties :
#
#
# Convention : Reuss Voigt Hill
#
# Bulk Modulus (GPa) = 54.67375 62.69350 58.68362
# Shear Modulus (GPa) = 32.80611 37.26719 35.03665
#
# Velocity S-wave (km/s) = 3.81594 4.06712 3.94353
# Velocity P-wave (km/s) = 6.60930 7.06276 6.83979
#
# Compressibility (1/GPa) = 0.01829031
#
# Stress axis : x y z
#
# Youngs Moduli (GPa) = 55.35453 139.01244 60.79023
#
# Poissons Ratio (x) = 0.26168 0.43902
# Poissons Ratio (y) = 0.10420 0.15836
# Poissons Ratio (z) = 0.39977 0.36213
#
# Static dielectric constant tensor:
#      x y z
#    x 1.814410 0.000000 -0.035380 
#    y 0.000000 1.773670 0.000000 
#    z -0.035380 0.000000 1.926240 
# 
# From -- ./inp_files/3476.got.cif
#   From: 2010.05.17/outbox.cif.g08.bks.cpg/sg11_2_cif.got.tgz:3476.got - 2010.06.03 12:22:45.
