data_PCOD9166103
_publ_section_title
;
Structure prediction by ZEFSAII (Michael W. Deem and Ramdas Pophale) SiO2 
 PCOD9166103
Probable space group: P 21/M
;
_chemical_formula_sum "Si O2"
_cell_formula_units_Z 32
_cell_length_a 15.707042
_cell_length_b 8.142550
_cell_length_c 11.511749
_cell_angle_alpha 90.000000
_cell_angle_beta 94.921479
_cell_angle_gamma 90.000000
_cell_volume 1466.871387
_symmetry_space_group_name_H-M "P 21/M"
_symmetry_group_IT_number 11
_symmetry_cell_setting 'monoclinic'
loop_
_space_group_symop_operation_xyz
x,y,z
-x,1/2+y,-z
-x,-y,-z
x,1/2-y,z
loop_
_atom_site_type_symbol
_atom_site_label
_atom_site_fract_x
_atom_site_fract_y
_atom_site_fract_z
Si Si1 0.595061 0.568025 0.026480
Si Si2 0.226246 0.553009 0.383438
Si Si3 0.765458 0.550787 0.155735
Si Si4 0.353330 0.561916 0.199049
Si Si5 0.030250 0.551727 0.373557
Si Si6 0.496690 0.560184 0.631471
Si Si7 0.312185 0.058202 0.625393
Si Si8 0.049767 0.050946 0.887371
O O1 0.583919 0.750000 0.073836
O O2 0.633713 0.563160 0.902688
O O3 0.500000 0.500000 0.000000
O O4 0.672921 0.485087 0.104814
O O5 0.229310 0.750000 0.400832
O O6 0.272141 0.520131 0.267445
O O7 0.128900 0.498982 0.375589
O O8 0.280485 0.474615 0.492622
O O9 0.763664 0.750000 0.139593
O O10 0.763721 0.518031 0.293408
O O11 0.850879 0.493154 0.102094
O O12 0.346227 0.750000 0.155465
O O13 0.437502 0.546943 0.287842
O O14 0.025083 0.750000 0.371710
O O15 0.000000 0.500000 0.500000
O O16 0.986350 0.498264 0.245241
O O17 0.500000 0.500000 0.500000
O O18 0.522263 0.750000 0.642517
O O19 0.399185 0.538602 0.659512
O O20 0.332684 0.250000 0.641384
O O21 0.048406 0.250000 0.886249
O O22 0.000000 0.000000 0.000000
#
# Coordination Sequence:
#
# PCOD9166103 Si02
#       8
#     4   4   4   4   4   4   4   4
#     4  11  23  41  63  88 121 162 208 257 311 375
#     4  10  22  38  58  87 124 160 198 253 313 371
#     4   9  21  40  62  89 123 161 202 254 309 367
#     4  11  23  39  59  85 122 161 202 254 309 366
#     4  10  22  41  65  93 126 164 210 265 324 385
#     4  12  23  37  57  86 122 161 204 252 306 368
#     4  11  21  37  63  91 121 162 208 252 308 371
#     4  10  22  42  66  94 128 166 211 263 319 383
#
# _framework density 21.815137
#
# number of rings (size 3 to 8) (size 9 to 14) (size 15 to 20)
#    0.000    1.500    1.250    3.750    1.750    3.500 
#    0.000    3.750    0.000    0.000    0.000    0.000 
#    0.000    0.000    0.000    0.000    0.000    0.000 
#
# Total GULP energy -178608.935586 kJ/mol
# GULP energy per Si atom -5581.529237 kJ/mol
# Density = 2.176548 g / cm^3
# Si number density = 21.815137 Si / 1000 Ang^3
#
#
#
# Elastic Constant Matrix: (Units=GPa)
#
#
# Indices 1 2 3 4 5 6 
#
# 1 142.3164 21.8510 39.5080 0.0000 -19.7877 0.0000
# 2 21.8510 30.9616 13.8682 0.0000 -11.7959 0.0000
# 3 39.5080 13.8682 101.4753 0.0000 -14.8063 0.0000
# 4 0.0000 0.0000 0.0000 22.6576 0.0000 -10.1608
# 5 -19.7877 -11.7959 -14.8063 0.0000 34.7122 0.0000
# 6 0.0000 0.0000 0.0000 -10.1608 0.0000 18.5126
#
#
#
# Elastic Compliance Matrix: (Units=1/GPa)
#
#
# Indices 1 2 3 4 5 6 
#
# 1 0.008684 -0.004068 -0.002457 0.000000 0.002520 0.000000
# 2 -0.004068 0.040172 -0.002402 0.000000 0.010308 0.000000
# 3 -0.002457 -0.002402 0.011534 0.000000 0.002703 0.000000
# 4 0.000000 0.000000 0.000000 0.058545 0.000000 0.032133
# 5 0.002520 0.010308 0.002703 0.000000 0.034900 0.000000
# 6 0.000000 0.000000 0.000000 0.032133 0.000000 0.071654
#
#
# Mechanical properties :
#
#
# Convention : Reuss Voigt Hill
#
# Bulk Modulus (GPa) = 23.51030 47.24531 35.37780
# Shear Modulus (GPa) = 19.41578 28.47821 23.94699
#
# Velocity S-wave (km/s) = 2.98655 3.61700 3.31679
# Velocity P-wave (km/s) = 4.76372 6.25681 5.56061
#
# Compressibility (1/GPa) = 0.04253456
#
# Stress axis : x y z
#
# Youngs Moduli (GPa) = 115.15882 24.89297 86.70023
#
# Poissons Ratio (x) = 0.10126 0.21305
# Poissons Ratio (y) = 0.46845 0.20829
# Poissons Ratio (z) = 0.28298 0.05980
#
# Static dielectric constant tensor:
#      x y z
#    x 1.844700 0.000000 0.072070 
#    y 0.000000 1.776450 0.000000 
#    z 0.072070 0.000000 1.945810 
# 
# From -- ./inp_files/38195.got.cif
#   From: 2010.05.17/outbox.cif.g08.bks.cpg/sg11_20_cif.got.tgz:38195.got - 2010.06.03 12:22:45.
