data_PCOD9166918
_publ_section_title
;
Structure prediction by ZEFSAII (Michael W. Deem and Ramdas Pophale) SiO2 
 PCOD9166918
Probable space group: P 21/M
;
_chemical_formula_sum "Si O2"
_cell_formula_units_Z 32
_cell_length_a 29.206327
_cell_length_b 8.831647
_cell_length_c 12.690316
_cell_angle_alpha 90.000000
_cell_angle_beta 29.821375
_cell_angle_gamma 90.000000
_cell_volume 1627.824184
_symmetry_space_group_name_H-M "P 21/M"
_symmetry_group_IT_number 11
_symmetry_cell_setting 'monoclinic'
loop_
_space_group_symop_operation_xyz
x,y,z
-x,1/2+y,-z
-x,-y,-z
x,1/2-y,z
loop_
_atom_site_type_symbol
_atom_site_label
_atom_site_fract_x
_atom_site_fract_y
_atom_site_fract_z
Si Si1 0.763964 0.930201 0.801059
Si Si2 0.316102 0.568239 0.251342
Si Si3 0.525746 0.423629 0.558003
Si Si4 0.023994 0.069540 0.566433
Si Si5 0.269354 0.577543 0.920033
Si Si6 0.852657 0.928760 0.007020
Si Si7 0.285231 0.569229 0.547754
Si Si8 0.516948 0.929754 0.793818
O O1 0.750803 0.750000 0.835570
O O2 0.871731 0.965022 0.606820
O O3 0.729729 0.987839 0.756694
O O4 0.712840 0.014525 0.999049
O O5 0.312757 0.750000 0.241697
O O6 0.269206 0.533201 0.456572
O O7 0.424801 0.527094 0.041174
O O8 0.500000 0.500000 0.500000
O O9 0.492550 0.250000 0.631860
O O10 0.636747 0.420026 0.333532
O O11 0.494720 0.522596 0.718286
O O12 0.014612 0.250000 0.577593
O O13 0.000000 0.000000 0.500000
O O14 0.951778 0.005416 0.795416
O O15 0.233786 0.750000 0.996397
O O16 0.199686 0.470447 0.997226
O O17 0.861395 0.750000 0.000078
O O18 0.789335 0.994265 0.226630
O O19 0.282236 0.750000 0.568050
O O20 0.388679 0.512943 0.365738
O O21 0.531293 0.750000 0.773550
#
# Coordination Sequence:
#
# PCOD9166918 Si02
#       8
#     4   4   4   4   4   4   4   4
#     4  11  24  40  63  94 126 160 206 255 308 370
#     4  10  24  43  63  89 124 166 210 255 311 369
#     4  11  23  36  53  82 121 165 206 249 306 367
#     4  11  23  40  64  95 128 163 202 252 309 373
#     4  11  22  37  59  85 122 164 201 246 308 369
#     4  12  24  39  63  94 123 157 204 254 307 368
#     4  11  23  42  65  90 123 165 211 259 310 366
#     4  11  22  38  61  90 122 160 209 259 305 367
#
# _framework density 19.658142999999999
#
# number of rings (size 3 to 8) (size 9 to 14) (size 15 to 20)
#    0.000    1.000    2.500    4.500    0.000    8.000 
#    0.000    0.625    0.000    0.000    0.000    0.000 
#    0.000    0.000    0.000    0.000    0.000    0.000 
#
# Total GULP energy -178966.592814 kJ/mol
# GULP energy per Si atom -5592.706025 kJ/mol
# Density = 1.961340 g / cm^3
# Si number density = 19.658143 Si / 1000 Ang^3
#
#
#
# Elastic Constant Matrix: (Units=GPa)
#
#
# Indices 1 2 3 4 5 6 
#
# 1 73.0844 26.7825 41.4587 0.0000 12.9242 0.0000
# 2 26.7825 74.5750 42.8348 0.0000 0.5852 0.0000
# 3 41.4587 42.8348 121.5399 0.0000 8.6678 0.0000
# 4 0.0000 0.0000 0.0000 21.9890 0.0000 -4.6606
# 5 12.9242 0.5852 8.6678 0.0000 32.9884 0.0000
# 6 0.0000 0.0000 0.0000 -4.6606 0.0000 30.5152
#
#
#
# Elastic Compliance Matrix: (Units=1/GPa)
#
#
# Indices 1 2 3 4 5 6 
#
# 1 0.018849 -0.004111 -0.004544 0.000000 -0.006118 0.000000
# 2 -0.004111 0.017763 -0.005045 0.000000 0.002621 0.000000
# 3 -0.004544 -0.005045 0.011641 0.000000 -0.001189 0.000000
# 4 0.000000 0.000000 0.000000 0.046999 0.000000 0.007178
# 5 -0.006118 0.002621 -0.001189 0.000000 0.032976 0.000000
# 6 0.000000 0.000000 0.000000 0.007178 0.000000 0.033867
#
#
# Mechanical properties :
#
#
# Convention : Reuss Voigt Hill
#
# Bulk Modulus (GPa) = 47.95727 54.59457 51.27592
# Shear Modulus (GPa) = 25.45227 27.64007 26.54617
#
# Velocity S-wave (km/s) = 3.60216 3.75378 3.67875
# Velocity P-wave (km/s) = 6.46137 6.82789 6.64716
#
# Compressibility (1/GPa) = 0.02085190
#
# Stress axis : x y z
#
# Youngs Moduli (GPa) = 53.05266 56.29728 85.90577
#
# Poissons Ratio (x) = 0.23144 0.39040
# Poissons Ratio (y) = 0.21811 0.43338
# Poissons Ratio (z) = 0.24110 0.28401
#
# Static dielectric constant tensor:
#      x y z
#    x 1.689710 0.000000 -0.005570 
#    y 0.000000 1.658660 0.000000 
#    z -0.005570 0.000000 1.719800 
# 
# From -- ./inp_files/38294.got.cif
#   From: 2010.05.17/outbox.cif.g08.bks.cpg/sg11_20_cif.got.tgz:38294.got - 2010.06.03 12:22:45.
