data_PCOD9166403
_publ_section_title
;
Structure prediction by ZEFSAII (Michael W. Deem and Ramdas Pophale) SiO2 
 PCOD9166403
Probable space group: P 21/M
;
_chemical_formula_sum "Si O2"
_cell_formula_units_Z 28
_cell_length_a 8.836954
_cell_length_b 26.561111
_cell_length_c 9.222783
_cell_angle_alpha 90.000000
_cell_angle_beta 33.232115
_cell_angle_gamma 90.000000
_cell_volume 1186.361001
_symmetry_space_group_name_H-M "P 21/M"
_symmetry_group_IT_number 11
_symmetry_cell_setting 'monoclinic'
loop_
_space_group_symop_operation_xyz
x,y,z
-x,1/2+y,-z
-x,-y,-z
x,1/2-y,z
loop_
_atom_site_type_symbol
_atom_site_label
_atom_site_fract_x
_atom_site_fract_y
_atom_site_fract_z
Si Si1 0.502266 0.250000 0.814194
Si Si2 0.830462 0.408467 0.826010
Si Si3 0.618355 0.653022 0.630222
Si Si4 0.394924 0.156045 0.692830
Si Si5 0.641129 0.486578 0.200339
Si Si6 0.994338 0.421609 0.088428
Si Si7 0.856298 0.750000 0.607185
Si Si8 0.240133 0.568858 0.451440
O O1 0.440742 0.202744 0.760558
O O2 0.816689 0.250000 0.621496
O O3 0.301698 0.250000 0.112935
O O4 0.771418 0.417195 0.705203
O O5 0.144142 0.389233 0.579816
O O6 0.624168 0.368879 0.072039
O O7 0.774894 0.460487 0.953598
O O8 0.539380 0.666908 0.527719
O O9 0.760445 0.700703 0.594865
O O10 0.581447 0.112308 0.613204
O O11 0.088532 0.131829 0.953936
O O12 0.697354 0.442492 0.272481
O O13 0.355800 0.512512 0.383842
O O14 0.804883 0.534823 0.130255
O O15 0.031861 0.425359 0.231717
#
# Coordination Sequence:
#
# PCOD9166403 Si02
#       8
#     2   4   4   4   4   4   2   4
#     4  12  29  48  83 108 142 177 237 296 367 423
#     4  12  27  43  72 106 145 192 237 301 351 420
#     4  12  27  48  74 102 148 186 236 290 363 425
#     4  11  25  46  71 108 136 190 237 292 354 435
#     4  10  22  41  63 105 140 198 238 296 350 422
#     4  10  22  41  69 100 143 191 241 297 350 424
#     4  12  27  52  73 110 140 181 229 298 367 429
#     4  11  24  40  70  99 149 187 249 290 359 411
#
# _framework density 23.601586999999999
#
# number of rings (size 3 to 8) (size 9 to 14) (size 15 to 20)
#    0.000    0.857    1.429    4.714   10.000    0.571 
#    0.000    1.429    0.000    0.000    0.000    0.000 
#    0.000    0.000    0.000    0.000    0.000    0.000 
#
# Total GULP energy -156478.991039 kJ/mol
# GULP energy per Si atom -5588.535394 kJ/mol
# Density = 2.354787 g / cm^3
# Si number density = 23.601587 Si / 1000 Ang^3
#
#
#
# Elastic Constant Matrix: (Units=GPa)
#
#
# Indices 1 2 3 4 5 6 
#
# 1 126.8793 33.8554 44.3925 0.0000 45.4396 0.0000
# 2 33.8554 116.6222 8.2645 0.0000 9.8509 0.0000
# 3 44.3925 8.2645 101.7557 0.0000 24.7047 0.0000
# 4 0.0000 0.0000 0.0000 29.1165 0.0000 8.7164
# 5 45.4396 9.8509 24.7047 0.0000 55.2176 0.0000
# 6 0.0000 0.0000 0.0000 8.7164 0.0000 44.2044
#
#
#
# Elastic Compliance Matrix: (Units=1/GPa)
#
#
# Indices 1 2 3 4 5 6 
#
# 1 0.012858 -0.002772 -0.003293 0.000000 -0.008613 0.000000
# 2 -0.002772 0.009316 0.000339 0.000000 0.000467 0.000000
# 3 -0.003293 0.000339 0.011884 0.000000 -0.002668 0.000000
# 4 0.000000 0.000000 0.000000 0.036499 0.000000 -0.007197
# 5 -0.008613 0.000467 -0.002668 0.000000 0.026308 0.000000
# 6 0.000000 0.000000 0.000000 -0.007197 0.000000 0.024041
#
#
# Mechanical properties :
#
#
# Convention : Reuss Voigt Hill
#
# Bulk Modulus (GPa) = 44.23516 57.58691 50.91104
# Shear Modulus (GPa) = 35.74130 42.95734 39.34932
#
# Velocity S-wave (km/s) = 3.89570 4.27090 4.08760
# Velocity P-wave (km/s) = 6.24647 6.98379 6.62540
#
# Compressibility (1/GPa) = 0.02260645
#
# Stress axis : x y z
#
# Youngs Moduli (GPa) = 77.77266 107.34413 84.14488
#
# Poissons Ratio (x) = 0.29753 0.27711
# Poissons Ratio (y) = 0.21557 -0.02854
# Poissons Ratio (z) = 0.25612 -0.03641
#
# Static dielectric constant tensor:
#      x y z
#    x 1.962550 0.000000 -0.065680 
#    y 0.000000 1.865030 0.000000 
#    z -0.065680 0.000000 2.081230 
# 
# From -- ./inp_files/15276.got.cif
#   From: 2010.05.17/outbox.cif.g08.bks.cpg/sg11_8_cif.got.tgz:15276.got - 2010.06.03 12:22:45.
