data_PCOD9166458
_publ_section_title
;
Structure prediction by ZEFSAII (Michael W. Deem and Ramdas Pophale) SiO2 
 PCOD9166458
Probable space group: P 21/M
;
_chemical_formula_sum "Si O2"
_cell_formula_units_Z 16
_cell_length_a 16.643512
_cell_length_b 10.272638
_cell_length_c 8.224756
_cell_angle_alpha 90.000000
_cell_angle_beta 30.328566
_cell_angle_gamma 90.000000
_cell_volume 710.076695
_symmetry_space_group_name_H-M "P 21/M"
_symmetry_group_IT_number 11
_symmetry_cell_setting 'monoclinic'
loop_
_space_group_symop_operation_xyz
x,y,z
-x,1/2+y,-z
-x,-y,-z
x,1/2-y,z
loop_
_atom_site_type_symbol
_atom_site_label
_atom_site_fract_x
_atom_site_fract_y
_atom_site_fract_z
Si Si1 0.338295 0.537011 0.186763
Si Si2 0.940574 0.894758 0.471723
Si Si3 0.555386 0.604980 0.533526
Si Si4 0.212442 0.893710 0.734902
O O1 0.237703 0.423185 0.277794
O O2 0.222241 0.601539 0.522243
O O3 0.500000 0.500000 0.000000
O O4 0.408912 0.616857 0.914309
O O5 0.954854 0.750000 0.516958
O O6 0.000000 0.000000 0.500000
O O7 0.049282 0.898588 0.119357
O O8 0.500000 0.500000 0.500000
O O9 0.599572 0.750000 0.400532
O O10 0.697835 0.525526 0.369427
O O11 0.285053 0.750000 0.653350
#
# Coordination Sequence:
#
# PCOD9166458 Si02
#       4
#     4   4   4   4
#     4  10  23  42  66  95 129 170 216 267 321 381
#     4  11  25  44  68  98 133 173 218 268 326 389
#     4  11  23  39  62  93 129 171 216 265 322 385
#     4  10  22  41  65  94 127 166 214 268 324 385
#
# _framework density 22.532776999999999
#
# number of rings (size 3 to 8) (size 9 to 14) (size 15 to 20)
#    0.000    1.500    0.000    3.750    0.000   16.000 
#    0.000    0.000    0.000    0.000    0.000    0.000 
#    0.000    0.000    0.000    0.000    0.000    0.000 
#
# Total GULP energy -89156.273380 kJ/mol
# GULP energy per Si atom -5572.267086 kJ/mol
# Density = 2.248149 g / cm^3
# Si number density = 22.532777 Si / 1000 Ang^3
#
#
#
# Elastic Constant Matrix: (Units=GPa)
#
#
# Indices 1 2 3 4 5 6 
#
# 1 78.5254 56.9895 28.8983 0.0000 5.0491 0.0000
# 2 56.9895 220.3562 44.9753 0.0000 -2.3484 0.0000
# 3 28.8983 44.9753 100.4852 0.0000 11.2335 0.0000
# 4 0.0000 0.0000 0.0000 24.5201 0.0000 -0.4854
# 5 5.0491 -2.3484 11.2335 0.0000 29.3664 0.0000
# 6 0.0000 0.0000 0.0000 -0.4854 0.0000 23.1880
#
#
#
# Elastic Compliance Matrix: (Units=1/GPa)
#
#
# Indices 1 2 3 4 5 6 
#
# 1 0.016640 -0.003737 -0.002883 0.000000 -0.002057 0.000000
# 2 -0.003737 0.005882 -0.001758 0.000000 0.001785 0.000000
# 3 -0.002883 -0.001758 0.012043 0.000000 -0.004252 0.000000
# 4 0.000000 0.000000 0.000000 0.040800 0.000000 0.000854
# 5 -0.002057 0.001785 -0.004252 0.000000 0.036175 0.000000
# 6 0.000000 0.000000 0.000000 0.000854 0.000000 0.043144
#
#
# Mechanical properties :
#
#
# Convention : Reuss Voigt Hill
#
# Bulk Modulus (GPa) = 56.14824 73.45478 64.80151
# Shear Modulus (GPa) = 28.18873 33.31515 30.75194
#
# Velocity S-wave (km/s) = 3.54080 3.84932 3.69828
# Velocity P-wave (km/s) = 6.45669 7.24060 6.85985
#
# Compressibility (1/GPa) = 0.01781000
#
# Stress axis : x y z
#
# Youngs Moduli (GPa) = 60.09584 169.99935 83.03713
#
# Poissons Ratio (x) = 0.63530 0.23939
# Poissons Ratio (y) = 0.22458 0.14595
# Poissons Ratio (z) = 0.17325 0.29881
#
# Static dielectric constant tensor:
#      x y z
#    x 1.736090 0.000000 0.112230 
#    y 0.000000 0.999220 0.000000 
#    z 0.112230 0.000000 1.818050 
# 
# From -- ./inp_files/11567.got.cif
#   From: 2010.05.17/outbox.cif.g08.bks.cpg/sg11_6_cif.got.tgz:11567.got - 2010.06.03 12:22:45.
