data_PCOD9166210
_publ_section_title
;
Structure prediction by ZEFSAII (Michael W. Deem and Ramdas Pophale) SiO2 
 PCOD9166210
Probable space group: P 21/M
;
_chemical_formula_sum "Si O2"
_cell_formula_units_Z 28
_cell_length_a 13.275170
_cell_length_b 8.864417
_cell_length_c 19.800022
_cell_angle_alpha 90.000000
_cell_angle_beta 143.730114
_cell_angle_gamma 90.000000
_cell_volume 1378.403626
_symmetry_space_group_name_H-M "P 21/M"
_symmetry_group_IT_number 11
_symmetry_cell_setting 'monoclinic'
loop_
_space_group_symop_operation_xyz
x,y,z
-x,1/2+y,-z
-x,-y,-z
x,1/2-y,z
loop_
_atom_site_type_symbol
_atom_site_label
_atom_site_fract_x
_atom_site_fract_y
_atom_site_fract_z
Si Si1 0.497013 0.073291 0.788135
Si Si2 0.616256 0.572790 0.120230
Si Si3 0.861592 0.930646 0.975705
Si Si4 0.068087 0.572017 0.218754
Si Si5 0.987961 0.429116 0.318006
Si Si6 0.544734 0.429298 0.596606
Si Si7 0.285436 0.570320 0.562997
O O1 0.498569 0.250000 0.770861
O O2 0.472401 0.058650 0.854903
O O3 0.675575 0.998986 0.864004
O O4 0.342362 0.993043 0.665981
O O5 0.642005 0.750000 0.119837
O O6 0.797536 0.491187 0.220777
O O7 0.500000 0.500000 0.000000
O O8 0.858014 0.750000 0.966168
O O9 0.925083 0.965074 0.086320
O O10 0.000000 0.000000 0.000000
O O11 0.054872 0.750000 0.229228
O O12 0.053986 0.477815 0.279443
O O13 0.253048 0.550238 0.284964
O O14 0.992916 0.250000 0.327249
O O15 0.110381 0.503786 0.439679
O O16 0.500000 0.500000 0.500000
O O17 0.508113 0.250000 0.577421
O O18 0.432131 0.511773 0.591381
O O19 0.278937 0.750000 0.559487
#
# Coordination Sequence:
#
# PCOD9166210 Si02
#       7
#     4   4   4   4   4   4   4
#     4  11  25  45  67  94 129 170 214 265 324 387
#     4  11  25  46  72  99 130 166 211 266 323 385
#     4  11  23  40  64  94 129 170 214 263 317 379
#     4  10  22  39  61  90 128 169 214 266 320 379
#     4  12  25  41  66  96 128 167 214 266 320 384
#     4  11  21  36  60  92 131 173 215 263 317 380
#     4  12  25  42  65  94 131 172 216 268 324 386
#
# _framework density 20.313352999999999
#
# number of rings (size 3 to 8) (size 9 to 14) (size 15 to 20)
#    0.000    0.857    1.429    6.000    0.000    8.000 
#    0.000    0.000    0.000    0.000    0.000    0.000 
#    0.000    0.000    0.000    0.000    0.000    0.000 
#
# Total GULP energy -156776.199596 kJ/mol
# GULP energy per Si atom -5599.149986 kJ/mol
# Density = 2.026712 g / cm^3
# Si number density = 20.313353 Si / 1000 Ang^3
#
#
#
# Elastic Constant Matrix: (Units=GPa)
#
#
# Indices 1 2 3 4 5 6 
#
# 1 43.1761 47.6261 38.3072 0.0000 6.8935 0.0000
# 2 47.6261 157.3747 89.0119 0.0000 -3.1796 0.0000
# 3 38.3072 89.0119 168.4911 0.0000 4.8553 0.0000
# 4 0.0000 0.0000 0.0000 36.7271 0.0000 0.3487
# 5 6.8935 -3.1796 4.8553 0.0000 33.8278 0.0000
# 6 0.0000 0.0000 0.0000 0.3487 0.0000 34.7186
#
#
#
# Elastic Compliance Matrix: (Units=1/GPa)
#
#
# Indices 1 2 3 4 5 6 
#
# 1 0.038300 -0.009937 -0.003220 0.000000 -0.008277 0.000000
# 2 -0.009937 0.011721 -0.004040 0.000000 0.003706 0.000000
# 3 -0.003220 -0.004040 0.008830 0.000000 -0.000991 0.000000
# 4 0.000000 0.000000 0.000000 0.027230 0.000000 -0.000273
# 5 -0.008277 0.003706 -0.000991 0.000000 0.031739 0.000000
# 6 0.000000 0.000000 0.000000 -0.000273 0.000000 0.028806
#
#
# Mechanical properties :
#
#
# Convention : Reuss Voigt Hill
#
# Bulk Modulus (GPa) = 40.88577 79.88137 60.38357
# Shear Modulus (GPa) = 26.43106 33.99448 30.21277
#
# Velocity S-wave (km/s) = 3.61108 4.09529 3.86078
# Velocity P-wave (km/s) = 6.12844 7.85950 7.04732
#
# Compressibility (1/GPa) = 0.02445839
#
# Stress axis : x y z
#
# Youngs Moduli (GPa) = 26.10968 85.31505 113.25292
#
# Poissons Ratio (x) = 0.84776 0.36464
# Poissons Ratio (y) = 0.25945 0.45752
# Poissons Ratio (z) = 0.08406 0.34466
#
# Static dielectric constant tensor:
#      x y z
#    x 1.714170 0.000000 -0.008740 
#    y 0.000000 1.678130 0.000000 
#    z -0.008740 0.000000 1.709540 
# 
# From -- ./inp_files/65454.got.cif
#   From: 2010.05.17/outbox.cif.g08.bks.cpg/sg11_33_cif.got.tgz:65454.got - 2010.06.03 12:22:45.
