data_PCOD9166187
_publ_section_title
;
Structure prediction by ZEFSAII (Michael W. Deem and Ramdas Pophale) SiO2 
 PCOD9166187
Probable space group: P 21/M
;
_chemical_formula_sum "Si O2"
_cell_formula_units_Z 24
_cell_length_a 12.392904
_cell_length_b 8.790498
_cell_length_c 11.845859
_cell_angle_alpha 90.000000
_cell_angle_beta 111.766601
_cell_angle_gamma 90.000000
_cell_volume 1198.476641
_symmetry_space_group_name_H-M "P 21/M"
_symmetry_group_IT_number 11
_symmetry_cell_setting 'monoclinic'
loop_
_space_group_symop_operation_xyz
x,y,z
-x,1/2+y,-z
-x,-y,-z
x,1/2-y,z
loop_
_atom_site_type_symbol
_atom_site_label
_atom_site_fract_x
_atom_site_fract_y
_atom_site_fract_z
Si Si1 0.459130 0.932940 0.365191
Si Si2 0.886991 0.431477 0.516658
Si Si3 0.042043 0.068114 0.223275
Si Si4 0.674462 0.931752 0.294047
Si Si5 0.769098 0.432315 0.107465
Si Si6 0.229203 0.566603 0.149241
O O1 0.457075 0.750000 0.374945
O O2 0.552102 0.971960 0.303942
O O3 0.331944 0.981422 0.273772
O O4 0.500000 0.000000 0.500000
O O5 0.889848 0.250000 0.512701
O O6 0.893951 0.488761 0.647213
O O7 0.774562 0.492659 0.408731
O O8 0.000000 0.500000 0.500000
O O9 0.049925 0.250000 0.235748
O O10 0.905753 0.027287 0.174343
O O11 0.109582 0.011360 0.139297
O O12 0.687588 0.750000 0.303004
O O13 0.693791 0.988104 0.174308
O O14 0.759773 0.250000 0.118458
O O15 0.737226 0.470042 0.966410
O O16 0.215279 0.750000 0.150053
#
# Coordination Sequence:
#
# PCOD9166187 Si02
#       6
#     4   4   4   4   4   4
#     4  10  23  42  63  88 118 154 201 252 300 355
#     4  12  23  37  59  88 120 156 196 243 298 354
#     4  11  22  37  59  90 124 158 201 250 299 358
#     4  11  23  39  61  90 123 158 200 250 300 356
#     4  10  22  39  60  87 122 161 201 247 303 361
#     4  10  22  41  62  86 119 162 206 249 299 357
#
# _framework density 20.025423
#
# number of rings (size 3 to 8) (size 9 to 14) (size 15 to 20)
#    0.000    1.333    1.667    4.000    0.000    6.667 
#    0.000    0.000    0.000    0.000    0.000    0.000 
#    0.000    0.000    0.000    0.000    0.000    0.000 
#
# Total GULP energy -134216.489419 kJ/mol
# GULP energy per Si atom -5592.353726 kJ/mol
# Density = 1.997984 g / cm^3
# Si number density = 20.025423 Si / 1000 Ang^3
#
#
#
# Elastic Constant Matrix: (Units=GPa)
#
#
# Indices 1 2 3 4 5 6 
#
# 1 110.4500 37.8935 30.2525 0.0000 -20.4469 0.0000
# 2 37.8935 49.7891 25.5908 0.0000 -11.6994 0.0000
# 3 30.2525 25.5908 95.7740 0.0000 -21.5534 0.0000
# 4 0.0000 0.0000 0.0000 31.5110 0.0000 -9.1380
# 5 -20.4469 -11.6994 -21.5534 0.0000 28.8109 0.0000
# 6 0.0000 0.0000 0.0000 -9.1380 0.0000 27.6308
#
#
#
# Elastic Compliance Matrix: (Units=1/GPa)
#
#
# Indices 1 2 3 4 5 6 
#
# 1 0.013108 -0.008352 -0.000696 0.000000 0.005391 0.000000
# 2 -0.008352 0.029430 -0.004653 0.000000 0.002542 0.000000
# 3 -0.000696 -0.004653 0.013669 0.000000 0.007843 0.000000
# 4 0.000000 0.000000 0.000000 0.035101 0.000000 0.011609
# 5 0.005391 0.002542 0.007843 0.000000 0.045434 0.000000
# 6 0.000000 0.000000 0.000000 0.011609 0.000000 0.040031
#
#
# Mechanical properties :
#
#
# Convention : Reuss Voigt Hill
#
# Bulk Modulus (GPa) = 34.71563 49.27629 41.99596
# Shear Modulus (GPa) = 23.38883 28.40897 25.89890
#
# Velocity S-wave (km/s) = 3.42125 3.77058 3.60015
# Velocity P-wave (km/s) = 5.74282 6.60429 6.18856
#
# Compressibility (1/GPa) = 0.02880547
#
# Stress axis : x y z
#
# Youngs Moduli (GPa) = 76.29124 33.97859 73.15639
#
# Poissons Ratio (x) = 0.28378 0.05089
# Poissons Ratio (y) = 0.63717 0.34043
# Poissons Ratio (z) = 0.05307 0.15812
#
# Static dielectric constant tensor:
#      x y z
#    x 1.703400 0.000000 -0.013610 
#    y 0.000000 1.669610 0.000000 
#    z -0.013610 0.000000 1.724150 
# 
# From -- ./inp_files/33699.got.cif
#   From: 2010.05.17/outbox.cif.g08.bks.cpg/sg11_17_cif.got.tgz:33699.got - 2010.06.03 12:22:45.
