data_PCOD9166226
_publ_section_title
;
Structure prediction by ZEFSAII (Michael W. Deem and Ramdas Pophale) SiO2 
 PCOD9166226
Probable space group: P 21/M
;
_chemical_formula_sum "Si O2"
_cell_formula_units_Z 32
_cell_length_a 7.793498
_cell_length_b 15.004477
_cell_length_c 12.477982
_cell_angle_alpha 90.000000
_cell_angle_beta 89.167235
_cell_angle_gamma 90.000000
_cell_volume 1458.988172
_symmetry_space_group_name_H-M "P 21/M"
_symmetry_group_IT_number 11
_symmetry_cell_setting 'monoclinic'
loop_
_space_group_symop_operation_xyz
x,y,z
-x,1/2+y,-z
-x,-y,-z
x,1/2-y,z
loop_
_atom_site_type_symbol
_atom_site_label
_atom_site_fract_x
_atom_site_fract_y
_atom_site_fract_z
Si Si1 0.699455 0.851259 0.342174
Si Si2 0.694861 0.346168 0.591536
Si Si3 0.701246 0.349329 0.049291
Si Si4 0.721596 0.148789 0.818715
Si Si5 0.781907 0.536026 0.781777
Si Si6 0.191487 0.027722 0.468997
Si Si7 0.836395 0.978285 0.154370
Si Si8 0.701286 0.648468 0.974548
O O1 0.760526 0.750000 0.323208
O O2 0.493740 0.847454 0.354739
O O3 0.758201 0.892948 0.453853
O O4 0.757149 0.918967 0.249922
O O5 0.723827 0.250000 0.538839
O O6 0.811618 0.350868 0.699246
O O7 0.709684 0.433211 0.519499
O O8 0.719132 0.250000 0.095078
O O9 0.749153 0.426733 0.129776
O O10 0.504505 0.360304 0.010832
O O11 0.806606 0.352916 0.936193
O O12 0.641161 0.250000 0.822177
O O13 0.653686 0.046207 0.812978
O O14 0.783160 0.552318 0.655364
O O15 0.737896 0.621357 0.852163
O O16 0.968724 0.501173 0.816698
O O17 0.000000 0.000000 0.500000
O O18 0.801200 0.920213 0.048558
O O19 0.748918 0.750000 0.998061
#
# Coordination Sequence:
#
# PCOD9166226 Si02
#       8
#     4   4   4   4   4   4   4   4
#     4  11  24  42  67  96 122 160 213 265 314 370
#     4   9  20  39  66  97 121 156 210 263 313 367
#     4  10  22  39  62  91 126 168 209 251 309 374
#     4   9  18  35  61  91 125 161 203 252 308 372
#     4  11  24  40  61  90 124 165 207 250 314 373
#     4  11  23  44  64  88 126 167 208 259 319 372
#     4  12  23  40  64  94 130 162 206 258 311 369
#     4  11  24  40  61  94 128 165 206 252 311 372
#
# _framework density 21.933008000000001
#
# number of rings (size 3 to 8) (size 9 to 14) (size 15 to 20)
#    0.000    1.500    2.500    2.250    3.500    4.500 
#    0.000    0.625    0.000    0.000    0.000    0.000 
#    0.000    0.000    0.000    0.000    0.000    0.000 
#
# Total GULP energy -178388.923963 kJ/mol
# GULP energy per Si atom -5574.653874 kJ/mol
# Density = 2.188309 g / cm^3
# Si number density = 21.933008 Si / 1000 Ang^3
#
#
#
# Elastic Constant Matrix: (Units=GPa)
#
#
# Indices 1 2 3 4 5 6 
#
# 1 51.3822 22.8920 8.7004 0.0000 8.2314 0.0000
# 2 22.8920 136.6064 51.5374 0.0000 11.9963 0.0000
# 3 8.7004 51.5374 112.3633 0.0000 3.1422 0.0000
# 4 0.0000 0.0000 0.0000 40.4213 0.0000 4.9412
# 5 8.2314 11.9963 3.1422 0.0000 26.0954 0.0000
# 6 0.0000 0.0000 0.0000 4.9412 0.0000 17.5636
#
#
#
# Elastic Compliance Matrix: (Units=1/GPa)
#
#
# Indices 1 2 3 4 5 6 
#
# 1 0.021740 -0.003132 -0.000095 0.000000 -0.005406 0.000000
# 2 -0.003132 0.009652 -0.004102 0.000000 -0.002955 0.000000
# 3 -0.000095 -0.004102 0.010771 0.000000 0.000619 0.000000
# 4 0.000000 0.000000 0.000000 0.025621 0.000000 -0.007208
# 5 -0.005406 -0.002955 0.000619 0.000000 0.041310 0.000000
# 6 0.000000 0.000000 0.000000 -0.007208 0.000000 0.058964
#
#
# Mechanical properties :
#
#
# Convention : Reuss Voigt Hill
#
# Bulk Modulus (GPa) = 36.35876 51.84574 44.10225
# Shear Modulus (GPa) = 26.05725 31.29754 28.67739
#
# Velocity S-wave (km/s) = 3.45053 3.78161 3.61986
# Velocity P-wave (km/s) = 5.69983 6.53888 6.13372
#
# Compressibility (1/GPa) = 0.02750369
#
# Stress axis : x y z
#
# Youngs Moduli (GPa) = 45.99874 103.60241 92.83979
#
# Poissons Ratio (x) = 0.32451 0.00886
# Poissons Ratio (y) = 0.14408 0.38083
# Poissons Ratio (z) = 0.00439 0.42498
#
# Static dielectric constant tensor:
#      x y z
#    x 1.929470 0.000000 0.039480 
#    y 0.000000 1.834540 0.000000 
#    z 0.039480 0.000000 1.854050 
# 
# From -- ./inp_files/31867.got.cif
#   From: 2010.05.17/outbox.cif.g08.bks.cpg/sg11_16_cif.got.tgz:31867.got - 2010.06.03 12:22:45.
