data_PCOD9166536
_publ_section_title
;
Structure prediction by ZEFSAII (Michael W. Deem and Ramdas Pophale) SiO2 
 PCOD9166536
Probable space group: P 21/M
;
_chemical_formula_sum "Si O2"
_cell_formula_units_Z 28
_cell_length_a 9.669307
_cell_length_b 8.751668
_cell_length_c 25.106705
_cell_angle_alpha 90.000000
_cell_angle_beta 138.888376
_cell_angle_gamma 90.000000
_cell_volume 1396.980131
_symmetry_space_group_name_H-M "P 21/M"
_symmetry_group_IT_number 11
_symmetry_cell_setting 'monoclinic'
loop_
_space_group_symop_operation_xyz
x,y,z
-x,1/2+y,-z
-x,-y,-z
x,1/2-y,z
loop_
_atom_site_type_symbol
_atom_site_label
_atom_site_fract_x
_atom_site_fract_y
_atom_site_fract_z
Si Si1 0.664683 0.066081 0.005137
Si Si2 0.655127 0.069292 0.674107
Si Si3 0.774051 0.428633 0.423377
Si Si4 0.559826 0.433502 0.854292
Si Si5 0.129576 0.565452 0.150491
Si Si6 0.719869 0.930962 0.583216
Si Si7 0.171786 0.571140 0.684101
O O1 0.657241 0.250000 0.005091
O O2 0.608153 0.015787 0.928345
O O3 0.500000 0.000000 0.000000
O O4 0.900454 0.008723 0.084499
O O5 0.679773 0.250000 0.672329
O O6 0.751887 0.030579 0.759705
O O7 0.410231 0.024052 0.603073
O O8 0.755335 0.976407 0.654901
O O9 0.765512 0.250000 0.436343
O O10 0.742032 0.439493 0.350617
O O11 0.000000 0.500000 0.500000
O O12 0.566691 0.250000 0.855653
O O13 0.731360 0.486365 0.860050
O O14 0.330317 0.485494 0.768780
O O15 0.109001 0.750000 0.141519
O O16 0.702889 0.750000 0.571764
O O17 0.930887 0.985669 0.614669
O O18 0.500000 0.000000 0.500000
O O19 0.166714 0.750000 0.697649
#
# Coordination Sequence:
#
# PCOD9166536 Si02
#       7
#     4   4   4   4   4   4   4
#     4  11  25  42  65  96 129 164 205 252 307 372
#     4  11  23  40  63  91 125 166 210 259 312 371
#     4  11  22  38  62  92 125 162 207 258 312 371
#     4  10  22  42  66  93 123 162 208 252 307 370
#     4  10  22  42  66  93 126 163 207 256 309 369
#     4  11  24  42  62  90 126 167 214 263 318 377
#     4  10  23  40  61  91 124 159 206 258 309 369
#
# _framework density 20.043234000000002
#
# number of rings (size 3 to 8) (size 9 to 14) (size 15 to 20)
#    0.000    1.429    1.429    3.000    2.000    5.714 
#    0.000    0.000    0.000    0.000    0.000    0.000 
#    0.000    0.000    0.000    0.000    0.000    0.000 
#
# Total GULP energy -156508.450295 kJ/mol
# GULP energy per Si atom -5589.587511 kJ/mol
# Density = 1.999761 g / cm^3
# Si number density = 20.043234 Si / 1000 Ang^3
#
#
#
# Elastic Constant Matrix: (Units=GPa)
#
#
# Indices 1 2 3 4 5 6 
#
# 1 95.9411 15.0248 24.3634 0.0000 8.8194 0.0000
# 2 15.0248 19.3116 24.5318 0.0000 -0.4645 0.0000
# 3 24.3634 24.5318 103.4430 0.0000 7.4716 0.0000
# 4 0.0000 0.0000 0.0000 38.3760 0.0000 2.7819
# 5 8.8194 -0.4645 7.4716 0.0000 34.5838 0.0000
# 6 0.0000 0.0000 0.0000 2.7819 0.0000 30.9937
#
#
#
# Elastic Compliance Matrix: (Units=1/GPa)
#
#
# Indices 1 2 3 4 5 6 
#
# 1 0.012244 -0.008908 -0.000545 0.000000 -0.003124 0.000000
# 2 -0.008908 0.081405 -0.017727 0.000000 0.007195 0.000000
# 3 -0.000545 -0.017727 0.014229 0.000000 -0.003173 0.000000
# 4 0.000000 0.000000 0.000000 0.026229 0.000000 -0.002354
# 5 -0.003124 0.007195 -0.003173 0.000000 0.030494 0.000000
# 6 0.000000 0.000000 0.000000 -0.002354 0.000000 0.032476
#
#
# Mechanical properties :
#
#
# Convention : Reuss Voigt Hill
#
# Bulk Modulus (GPa) = 18.68592 38.50397 28.59494
# Shear Modulus (GPa) = 18.56830 31.10908 24.83869
#
# Velocity S-wave (km/s) = 3.04700 3.94394 3.52413
# Velocity P-wave (km/s) = 4.66069 6.32390 5.55490
#
# Compressibility (1/GPa) = 0.05351624
#
# Stress axis : x y z
#
# Youngs Moduli (GPa) = 81.67380 12.28429 70.27987
#
# Poissons Ratio (x) = 0.10943 0.03834
# Poissons Ratio (y) = 0.72756 1.24585
# Poissons Ratio (z) = 0.04455 0.21776
#
# Static dielectric constant tensor:
#      x y z
#    x 1.746810 0.000000 -0.005530 
#    y 0.000000 1.679660 0.000000 
#    z -0.005530 0.000000 1.690000 
# 
# From -- ./inp_files/70735.got.cif
#   From: 2010.05.17/outbox.cif.g08.bks.cpg/sg11_36_cif.got.tgz:70735.got - 2010.06.03 12:22:45.
