data_PCOD9166584
_publ_section_title
;
Structure prediction by ZEFSAII (Michael W. Deem and Ramdas Pophale) SiO2 
 PCOD9166584
Probable space group: P 21/M
;
_chemical_formula_sum "Si O2"
_cell_formula_units_Z 18
_cell_length_a 9.231331
_cell_length_b 12.400716
_cell_length_c 7.856994
_cell_angle_alpha 90.000000
_cell_angle_beta 129.150899
_cell_angle_gamma 90.000000
_cell_volume 697.495447
_symmetry_space_group_name_H-M "P 21/M"
_symmetry_group_IT_number 11
_symmetry_cell_setting 'monoclinic'
loop_
_space_group_symop_operation_xyz
x,y,z
-x,1/2+y,-z
-x,-y,-z
x,1/2-y,z
loop_
_atom_site_type_symbol
_atom_site_label
_atom_site_fract_x
_atom_site_fract_y
_atom_site_fract_z
Si Si1 0.937853 0.366869 0.287491
Si Si2 0.434932 0.048027 0.218957
Si Si3 0.000000 0.500000 0.000000
Si Si4 0.746148 0.127250 0.702779
Si Si5 0.278836 0.422674 0.764208
O O1 0.846142 0.250000 0.223594
O O2 0.117702 0.365758 0.542210
O O3 0.797302 0.456762 0.252510
O O4 0.000362 0.397351 0.143970
O O5 0.262224 0.987585 0.187025
O O6 0.549021 0.944314 0.235608
O O7 0.573963 0.108422 0.448163
O O8 0.362887 0.114634 0.005881
O O9 0.951467 0.407105 0.798946
O O10 0.732751 0.250000 0.751150
#
# Coordination Sequence:
#
# PCOD9166584 Si02
#       5
#     4   4   2   4   4
#     4  11  24  43  68  95 131 180 217 267 335 385
#     4  10  22  43  65  94 132 165 220 280 320 392
#     4  12  22  44  64  98 130 172 224 264 308 412
#     4  11  24  43  68  95 131 180 217 267 335 385
#     4  10  22  43  65  94 132 165 220 280 320 392
#
# _framework density 25.806619999999999
#
# number of rings (size 3 to 8) (size 9 to 14) (size 15 to 20)
#    0.000    1.333    4.444    0.667    0.000    2.667 
#    0.000    6.667    0.000    0.000    0.000    0.000 
#    0.000    0.000    0.000    0.000    0.000    0.000 
#
# Total GULP energy -100230.028456 kJ/mol
# GULP energy per Si atom -5568.334914 kJ/mol
# Density = 2.574788 g / cm^3
# Si number density = 25.806620 Si / 1000 Ang^3
#
#
#
# Elastic Constant Matrix: (Units=GPa)
#
#
# Indices 1 2 3 4 5 6 
#
# 1 85.3101 20.9436 7.4204 0.0000 11.9156 0.0000
# 2 20.9436 154.0361 42.1392 0.0000 4.6975 0.0000
# 3 7.4204 42.1392 201.3575 0.0000 22.9419 0.0000
# 4 0.0000 0.0000 0.0000 7.1499 0.0000 6.8262
# 5 11.9156 4.6975 22.9419 0.0000 35.8801 0.0000
# 6 0.0000 0.0000 0.0000 6.8262 0.0000 3.6284
#
#
#
# Elastic Compliance Matrix: (Units=1/GPa)
#
#
# Indices 1 2 3 4 5 6 
#
# 1 0.012698 -0.001699 0.000370 0.000000 -0.004231 0.000000
# 2 -0.001699 0.007113 -0.001493 0.000000 0.000587 0.000000
# 3 0.000370 -0.001493 0.005670 0.000000 -0.003553 0.000000
# 4 0.000000 0.000000 0.000000 -0.175676 0.000000 0.330502
# 5 -0.004231 0.000587 -0.003553 0.000000 0.031470 0.000000
# 6 0.000000 0.000000 0.000000 0.330502 0.000000 -0.346177
#
#
# Mechanical properties :
#
#
# Convention : Reuss Voigt Hill
#
# Bulk Modulus (GPa) = 50.41054 64.63447 57.52251
# Shear Modulus (GPa) = -11.04617 34.01171 11.48277
#
# Velocity S-wave (km/s) = -2.07115 3.63429 2.11168
# Velocity P-wave (km/s) = 3.72248 6.53535 5.31825
#
# Compressibility (1/GPa) = 0.01983712
#
# Stress axis : x y z
#
# Youngs Moduli (GPa) = 78.75430 140.57872 176.37016
#
# Poissons Ratio (x) = 0.23878 -0.06518
# Poissons Ratio (y) = 0.13377 0.26332
# Poissons Ratio (z) = -0.02910 0.20988
#
# Static dielectric constant tensor:
#      x y z
#    x 2.182870 0.000000 -0.062390 
#    y 0.000000 1.952340 0.000000 
#    z -0.062390 0.000000 2.174610 
# 
# From -- ./inp_files/16750.got.cif
#   From: 2010.05.17/outbox.cif.g08.bks.cpg/sg11_9_cif.got.tgz:16750.got - 2010.06.03 12:22:45.
