data_PCOD9166171
_publ_section_title
;
Structure prediction by ZEFSAII (Michael W. Deem and Ramdas Pophale) SiO2 
 PCOD9166171
Probable space group: P 21/M
;
_chemical_formula_sum "Si O2"
_cell_formula_units_Z 30
_cell_length_a 20.233192
_cell_length_b 12.307128
_cell_length_c 5.456742
_cell_angle_alpha 90.000000
_cell_angle_beta 73.486675
_cell_angle_gamma 90.000000
_cell_volume 1302.751477
_symmetry_space_group_name_H-M "P 21/M"
_symmetry_group_IT_number 11
_symmetry_cell_setting 'monoclinic'
loop_
_space_group_symop_operation_xyz
x,y,z
-x,1/2+y,-z
-x,-y,-z
x,1/2-y,z
loop_
_atom_site_type_symbol
_atom_site_label
_atom_site_fract_x
_atom_site_fract_y
_atom_site_fract_z
Si Si1 0.461197 0.873079 0.289058
Si Si2 0.291979 0.051725 0.672998
Si Si3 0.287928 0.250000 0.389993
Si Si4 0.219310 0.624841 0.426543
Si Si5 0.953728 0.564336 0.741071
Si Si6 0.081004 0.636301 0.892089
Si Si7 0.194763 0.414516 0.168731
Si Si8 0.410888 0.537650 0.847492
O O1 0.483081 0.750000 0.232871
O O2 0.426946 0.888770 0.591740
O O3 0.527702 0.950086 0.209951
O O4 0.412940 0.904972 0.108878
O O5 0.222636 0.103982 0.864370
O O6 0.328259 0.150343 0.491740
O O7 0.271011 0.944078 0.545663
O O8 0.339860 0.019513 0.851285
O O9 0.241899 0.344366 0.298188
O O10 0.240283 0.750000 0.350994
O O11 0.145935 0.630582 0.643808
O O12 0.205649 0.542860 0.216195
O O13 0.884786 0.616540 0.707773
O O14 0.000000 0.500000 0.500000
O O15 0.008327 0.636362 0.826969
O O16 0.922476 0.472727 0.951490
O O17 0.087174 0.750000 0.030606
#
# Coordination Sequence:
#
# PCOD9166171 Si02
#       8
#     4   4   2   4   4   4   4   4
#     4  10  22  45  69 103 145 180 221 284 326 397
#     4  11  24  45  64  95 131 172 219 272 332 402
#     4  10  26  42  66  92 128 172 220 278 330 400
#     4  10  22  40  62  91 126 164 211 270 328 396
#     4  11  22  39  58  84 115 159 207 264 328 385
#     4  10  22  39  59  84 116 156 208 264 327 401
#     4  11  23  43  62  90 128 166 218 276 330 402
#     4  10  24  42  70 105 137 181 234 269 336 402
#
# _framework density 23.028184
#
# number of rings (size 3 to 8) (size 9 to 14) (size 15 to 20)
#    0.000    1.600    2.667    0.800    5.600    2.667 
#    2.400    0.000    0.000    0.000    0.000    0.000 
#    0.000    0.000    0.000    0.000    0.000    0.000 
#
# Total GULP energy -167083.136463 kJ/mol
# GULP energy per Si atom -5569.437882 kJ/mol
# Density = 2.297577 g / cm^3
# Si number density = 23.028184 Si / 1000 Ang^3
#
#
#
# Elastic Constant Matrix: (Units=GPa)
#
#
# Indices 1 2 3 4 5 6 
#
# 1 54.0228 -9.4485 17.2694 0.0000 12.8354 0.0000
# 2 -9.4485 140.8457 21.3867 0.0000 13.4897 0.0000
# 3 17.2694 21.3867 67.7228 0.0000 11.5818 0.0000
# 4 0.0000 0.0000 0.0000 -10.2657 0.0000 8.2237
# 5 12.8354 13.4897 11.5818 0.0000 40.1959 0.0000
# 6 0.0000 0.0000 0.0000 8.2237 0.0000 2.7168
#
#
#
# Elastic Compliance Matrix: (Units=1/GPa)
#
#
# Indices 1 2 3 4 5 6 
#
# 1 0.022346 0.002963 -0.005515 0.000000 -0.006541 0.000000
# 2 0.002963 0.007994 -0.002797 0.000000 -0.002823 0.000000
# 3 -0.005515 -0.002797 0.017454 0.000000 -0.002329 0.000000
# 4 0.000000 0.000000 0.000000 -0.028442 0.000000 0.086095
# 5 -0.006541 -0.002823 -0.002329 0.000000 0.028585 0.000000
# 6 0.000000 0.000000 0.000000 0.086095 0.000000 0.107473
#
#
# Mechanical properties :
#
#
# Convention : Reuss Voigt Hill
#
# Bulk Modulus (GPa) = 26.95790 35.66739 31.31264
# Shear Modulus (GPa) = 28.01529 22.08831 25.05180
#
# Velocity S-wave (km/s) = 3.49171 3.10043 3.30187
# Velocity P-wave (km/s) = 5.29037 5.32345 5.30693
#
# Compressibility (1/GPa) = 0.03709487
#
# Stress axis : x y z
#
# Youngs Moduli (GPa) = 44.75058 125.09616 57.29279
#
# Poissons Ratio (x) = -0.37066 0.31599
# Poissons Ratio (y) = -0.13260 0.16026
# Poissons Ratio (z) = 0.24682 0.34992
#
# Static dielectric constant tensor:
#      x y z
#    x 1.940790 0.000000 -0.040840 
#    y 0.000000 1.858420 0.000000 
#    z -0.040840 0.000000 1.958460 
# 
# From -- ./inp_files/8834.got.cif
#   From: 2010.05.17/outbox.cif.g08.bks.cpg/sg11_5_cif.got.tgz:8834.got - 2010.06.03 12:22:45.
