data_PCOD9166019
_publ_section_title
;
Structure prediction by ZEFSAII (Michael W. Deem and Ramdas Pophale) SiO2 
 PCOD9166019
Probable space group: P 21/M
;
_chemical_formula_sum "Si O2"
_cell_formula_units_Z 28
_cell_length_a 18.539392
_cell_length_b 11.189885
_cell_length_c 7.821606
_cell_angle_alpha 90.000000
_cell_angle_beta 44.303154
_cell_angle_gamma 90.000000
_cell_volume 1133.327113
_symmetry_space_group_name_H-M "P 21/M"
_symmetry_group_IT_number 11
_symmetry_cell_setting 'monoclinic'
loop_
_space_group_symop_operation_xyz
x,y,z
-x,1/2+y,-z
-x,-y,-z
x,1/2-y,z
loop_
_atom_site_type_symbol
_atom_site_label
_atom_site_fract_x
_atom_site_fract_y
_atom_site_fract_z
Si Si1 0.223914 0.382361 0.611809
Si Si2 0.129092 0.879264 0.061222
Si Si3 0.364187 0.879890 0.695968
Si Si4 0.916847 0.622188 0.811781
Si Si5 0.435323 0.380932 0.137655
Si Si6 0.594161 0.877707 0.186937
Si Si7 0.118975 0.881551 0.696855
O O1 0.204368 0.250000 0.569008
O O2 0.165057 0.380072 0.892087
O O3 0.347298 0.393889 0.428940
O O4 0.185340 0.497979 0.573567
O O5 0.107463 0.750000 0.176541
O O6 0.251031 0.880475 0.805660
O O7 0.074253 0.885701 0.968747
O O8 0.103105 0.989906 0.227250
O O9 0.369701 0.750000 0.779668
O O10 0.468159 0.881394 0.407004
O O11 0.368953 0.999125 0.798097
O O12 0.903291 0.750000 0.743178
O O13 0.027186 0.619538 0.717444
O O14 0.487572 0.250000 0.071193
O O15 0.500000 0.500000 0.000000
O O16 0.374072 0.373531 0.062986
O O17 0.624593 0.750000 0.217019
O O18 0.171653 0.750000 0.593686
#
# Coordination Sequence:
#
# PCOD9166019 Si02
#       7
#     4   4   4   4   4   4   4
#     4   9  17  29  43  64  93 125 157 189 229 280
#     4   9  16  25  42  67  92 120 154 190 235 284
#     4   9  18  32  50  70  90 122 166 210 245 281
#     4   9  17  28  43  69 102 128 155 193 240 292
#     4  10  22  35  49  71  99 132 166 199 239 291
#     4   9  19  35  50  66  93 126 164 205 245 285
#     4   9  17  28  45  70  99 129 156 191 243 294
#
# _framework density 24.706019000000001
#
# number of rings (size 3 to 8) (size 9 to 14) (size 15 to 20)
#    0.000    2.857    0.000    1.714    4.000    3.429 
#    0.000    0.000    0.000    0.000    0.000    4.000 
#    0.000    4.571    0.000    0.000    0.000    0.000 
#
# Total GULP energy -156087.066803 kJ/mol
# GULP energy per Si atom -5574.538100 kJ/mol
# Density = 2.464979 g / cm^3
# Si number density = 24.706019 Si / 1000 Ang^3
#
#
#
# Elastic Constant Matrix: (Units=GPa)
#
#
# Indices 1 2 3 4 5 6 
#
# 1 30.5578 26.0025 17.7781 0.0000 -1.0639 0.0000
# 2 26.0025 302.9642 36.7179 0.0000 -15.5172 0.0000
# 3 17.7781 36.7179 66.4573 0.0000 -1.6835 0.0000
# 4 0.0000 0.0000 0.0000 17.1805 0.0000 -16.0771
# 5 -1.0639 -15.5172 -1.6835 0.0000 19.0429 0.0000
# 6 0.0000 0.0000 0.0000 -16.0771 0.0000 18.8423
#
#
#
# Elastic Compliance Matrix: (Units=1/GPa)
#
#
# Indices 1 2 3 4 5 6 
#
# 1 0.040204 -0.002326 -0.009482 0.000000 -0.000488 0.000000
# 2 -0.002326 0.003818 -0.001415 0.000000 0.002856 0.000000
# 3 -0.009482 -0.001415 0.018364 0.000000 -0.000059 0.000000
# 4 0.000000 0.000000 0.000000 0.288777 0.000000 0.246396
# 5 -0.000488 0.002856 -0.000059 0.000000 0.054808 0.000000
# 6 0.000000 0.000000 0.000000 0.246396 0.000000 0.263307
#
#
# Mechanical properties :
#
#
# Convention : Reuss Voigt Hill
#
# Bulk Modulus (GPa) = 27.82444 62.33069 45.07757
# Shear Modulus (GPa) = 7.06509 32.31187 19.68848
#
# Velocity S-wave (km/s) = 1.69289 3.62035 2.82602
# Velocity P-wave (km/s) = 3.88688 6.53909 5.37901
#
# Compressibility (1/GPa) = 0.03593962
#
# Stress axis : x y z
#
# Youngs Moduli (GPa) = 24.87312 261.90715 54.45426
#
# Poissons Ratio (x) = 0.60930 0.51634
# Poissons Ratio (y) = 0.05786 0.07704
# Poissons Ratio (z) = 0.23585 0.37056
#
# Static dielectric constant tensor:
#      x y z
#    x 1.958100 0.000000 -0.003260 
#    y 0.000000 2.093000 0.000000 
#    z -0.003260 0.000000 1.986300 
# 
# From -- ./inp_files/44116.got.cif
#   From: 2010.05.17/outbox.cif.g08.bks.cpg/sg11_23_cif.got.tgz:44116.got - 2010.06.03 12:22:45.
