data_PCOD9166123
_publ_section_title
;
Structure prediction by ZEFSAII (Michael W. Deem and Ramdas Pophale) SiO2 
 PCOD9166123
Probable space group: P 21/M
;
_chemical_formula_sum "Si O2"
_cell_formula_units_Z 22
_cell_length_a 5.215114
_cell_length_b 17.265996
_cell_length_c 12.327730
_cell_angle_alpha 90.000000
_cell_angle_beta 115.359735
_cell_angle_gamma 90.000000
_cell_volume 1003.072501
_symmetry_space_group_name_H-M "P 21/M"
_symmetry_group_IT_number 11
_symmetry_cell_setting 'monoclinic'
loop_
_space_group_symop_operation_xyz
x,y,z
-x,1/2+y,-z
-x,-y,-z
x,1/2-y,z
loop_
_atom_site_type_symbol
_atom_site_label
_atom_site_fract_x
_atom_site_fract_y
_atom_site_fract_z
Si Si1 0.344009 0.080509 0.941009
Si Si2 0.242960 0.027360 0.692291
Si Si3 0.202722 0.397069 0.461754
Si Si4 0.603387 0.886883 0.726495
Si Si5 0.812765 0.250000 0.340083
Si Si6 0.936495 0.158927 0.042067
O O1 0.199448 0.069422 0.797755
O O2 0.115603 0.109876 0.986793
O O3 0.606165 0.139627 0.979735
O O4 0.500000 0.000000 0.000000
O O5 0.294820 0.083103 0.599595
O O6 0.509319 0.969464 0.752961
O O7 0.985477 0.969961 0.613944
O O8 0.439407 0.388397 0.411311
O O9 0.026815 0.318450 0.422547
O O10 0.414816 0.817841 0.737808
O O11 0.923769 0.865909 0.817330
O O12 0.979750 0.250000 0.034465
#
# Coordination Sequence:
#
# PCOD9166123 Si02
#       6
#     4   4   4   4   2   4
#     4  12  25  46  70 102 135 184 231 279 338 410
#     4  10  23  41  65  93 129 171 222 275 329 399
#     4  10  22  41  64  95 129 166 219 276 337 391
#     4  11  21  38  68  94 124 169 221 276 329 392
#     4  10  22  38  60  98 126 168 214 274 332 404
#     4  12  27  44  70 100 142 177 231 283 345 400
#
# _framework density 21.932613
#
# number of rings (size 3 to 8) (size 9 to 14) (size 15 to 20)
#    0.000    1.091    2.727    3.273    5.091    0.000 
#    3.273    0.000    0.000    0.000    0.000    0.000 
#    0.000    0.000    0.000    0.000    0.000    0.000 
#
# Total GULP energy -122551.768784 kJ/mol
# GULP energy per Si atom -5570.534945 kJ/mol
# Density = 2.188269 g / cm^3
# Si number density = 21.932613 Si / 1000 Ang^3
#
#
#
# Elastic Constant Matrix: (Units=GPa)
#
#
# Indices 1 2 3 4 5 6 
#
# 1 60.8510 16.1046 8.2588 0.0000 -12.6758 0.0000
# 2 16.1046 79.9787 37.4017 0.0000 -6.7783 0.0000
# 3 8.2588 37.4017 115.9488 0.0000 -26.1186 0.0000
# 4 0.0000 0.0000 0.0000 8.4474 0.0000 11.1500
# 5 -12.6758 -6.7783 -26.1186 0.0000 32.0762 0.0000
# 6 0.0000 0.0000 0.0000 11.1500 0.0000 9.8745
#
#
#
# Elastic Compliance Matrix: (Units=1/GPa)
#
#
# Indices 1 2 3 4 5 6 
#
# 1 0.018919 -0.003940 0.001739 0.000000 0.008060 0.000000
# 2 -0.003940 0.015567 -0.005328 0.000000 -0.002605 0.000000
# 3 0.001739 -0.005328 0.012394 0.000000 0.009653 0.000000
# 4 0.000000 0.000000 0.000000 -0.241384 0.000000 0.272563
# 5 0.008060 -0.002605 0.009653 0.000000 0.041670 0.000000
# 6 0.000000 0.000000 0.000000 0.272563 0.000000 -0.206498
#
#
# Mechanical properties :
#
#
# Convention : Reuss Voigt Hill
#
# Bulk Modulus (GPa) = 31.42411 42.25653 36.84032
# Shear Modulus (GPa) = -14.98502 23.08051 4.04775
#
# Velocity S-wave (km/s) = -2.61670 3.24749 1.35998
# Velocity P-wave (km/s) = 2.28674 5.77668 4.39313
#
# Compressibility (1/GPa) = 0.03182270
#
# Stress axis : x y z
#
# Youngs Moduli (GPa) = 52.85649 64.23690 80.68614
#
# Poissons Ratio (x) = 0.25307 -0.14029
# Poissons Ratio (y) = 0.20824 0.42989
# Poissons Ratio (z) = -0.09190 0.34225
#
# Static dielectric constant tensor:
#      x y z
#    x 1.896090 0.000000 -0.030110 
#    y 0.000000 1.744550 0.000000 
#    z -0.030110 0.000000 1.821160 
# 
# From -- ./inp_files/4365.got.cif
#   From: 2010.05.17/outbox.cif.g08.bks.cpg/sg11_3_cif.got.tgz:4365.got - 2010.06.03 12:22:45.
