data_PCOD9166943
_publ_section_title
;
Structure prediction by ZEFSAII (Michael W. Deem and Ramdas Pophale) SiO2 
 PCOD9166943
Probable space group: P 21/M
;
_chemical_formula_sum "Si O2"
_cell_formula_units_Z 30
_cell_length_a 14.728831
_cell_length_b 9.101618
_cell_length_c 12.051632
_cell_angle_alpha 90.000000
_cell_angle_beta 70.959073
_cell_angle_gamma 90.000000
_cell_volume 1527.199836
_symmetry_space_group_name_H-M "P 21/M"
_symmetry_group_IT_number 11
_symmetry_cell_setting 'monoclinic'
loop_
_space_group_symop_operation_xyz
x,y,z
-x,1/2+y,-z
-x,-y,-z
x,1/2-y,z
loop_
_atom_site_type_symbol
_atom_site_label
_atom_site_fract_x
_atom_site_fract_y
_atom_site_fract_z
Si Si1 0.650964 0.508526 0.973430
Si Si2 0.498454 0.423446 0.380738
Si Si3 0.996820 0.424127 0.622290
Si Si4 0.189889 0.081283 0.266119
Si Si5 0.483726 0.750000 0.062275
Si Si6 0.205915 0.422082 0.645607
Si Si7 0.709285 0.419505 0.191547
Si Si8 0.310672 0.574947 0.406165
O O1 0.597878 0.377437 0.930092
O O2 0.701486 0.452151 0.065161
O O3 0.732173 0.575585 0.861907
O O4 0.568308 0.623377 0.038259
O O5 0.500000 0.500000 0.500000
O O6 0.477167 0.250000 0.399871
O O7 0.600991 0.438987 0.281924
O O8 0.414842 0.503185 0.345140
O O9 0.978873 0.250000 0.617027
O O10 0.910082 0.502616 0.721330
O O11 0.000000 0.500000 0.500000
O O12 0.098094 0.442869 0.644087
O O13 0.173130 0.250000 0.307107
O O14 0.235889 0.991210 0.349401
O O15 0.230990 0.250000 0.623114
O O16 0.222927 0.475061 0.763906
O O17 0.274923 0.520267 0.540545
O O18 0.736796 0.250000 0.199593
O O19 0.316773 0.750000 0.398173
#
# Coordination Sequence:
#
# PCOD9166943 Si02
#       8
#     4   4   4   4   2   4   4   4
#     4  11  25  44  68 101 136 180 227 276 334 393
#     4  11  23  38  57  89 131 172 215 265 324 396
#     4  11  24  43  70 101 132 172 222 282 345 405
#     4  12  26  43  67  99 135 171 224 285 338 402
#     4  10  24  44  68  94 134 180 228 270 322 394
#     4  11  24  43  66  95 130 172 218 271 335 403
#     4  11  25  42  65  93 135 179 224 271 331 405
#     4  12  25  38  62  94 130 172 219 271 335 398
#
# _framework density 19.643794
#
# number of rings (size 3 to 8) (size 9 to 14) (size 15 to 20)
#    0.000    0.800    4.000    2.800    6.533    2.133 
#    0.000    0.667    0.000    0.000    0.000    0.000 
#    0.000    0.000    0.000    0.000    0.000    0.000 
#
# Total GULP energy -167273.851578 kJ/mol
# GULP energy per Si atom -5575.795053 kJ/mol
# Density = 1.959908 g / cm^3
# Si number density = 19.643794 Si / 1000 Ang^3
#
#
#
# Elastic Constant Matrix: (Units=GPa)
#
#
# Indices 1 2 3 4 5 6 
#
# 1 102.8183 60.8422 16.1163 0.0000 0.8483 0.0000
# 2 60.8422 156.6168 7.7993 0.0000 -2.2632 0.0000
# 3 16.1163 7.7993 49.5694 0.0000 3.7134 0.0000
# 4 0.0000 0.0000 0.0000 10.4471 0.0000 -3.6581
# 5 0.8483 -2.2632 3.7134 0.0000 12.4984 0.0000
# 6 0.0000 0.0000 0.0000 -3.6581 0.0000 32.0298
#
#
#
# Elastic Compliance Matrix: (Units=1/GPa)
#
#
# Indices 1 2 3 4 5 6 
#
# 1 0.013217 -0.004974 -0.003457 0.000000 -0.000771 0.000000
# 2 -0.004974 0.008335 0.000171 0.000000 0.001796 0.000000
# 3 -0.003457 0.000171 0.021735 0.000000 -0.006192 0.000000
# 4 0.000000 0.000000 0.000000 0.099708 0.000000 0.011388
# 5 -0.000771 0.001796 -0.006192 0.000000 0.082227 0.000000
# 6 0.000000 0.000000 0.000000 0.011388 0.000000 0.032521
#
#
# Mechanical properties :
#
#
# Convention : Reuss Voigt Hill
#
# Bulk Modulus (GPa) = 37.35869 53.16892 45.26380
# Shear Modulus (GPa) = 17.65633 25.94483 21.80058
#
# Velocity S-wave (km/s) = 3.00129 3.63818 3.33497
# Velocity P-wave (km/s) = 5.57402 6.69132 6.15806
#
# Compressibility (1/GPa) = 0.02676754
#
# Stress axis : x y z
#
# Youngs Moduli (GPa) = 75.65895 119.98217 46.00954
#
# Poissons Ratio (x) = 0.59674 0.15905
# Poissons Ratio (y) = 0.37630 -0.00787
# Poissons Ratio (z) = 0.26155 -0.02053
#
# Static dielectric constant tensor:
#      x y z
#    x 1.684810 0.000000 0.003380 
#    y 0.000000 1.669830 0.000000 
#    z 0.003380 0.000000 1.714430 
# 
# From -- ./inp_files/38025.got.cif
#   From: 2010.05.17/outbox.cif.g08.bks.cpg/sg11_20_cif.got.tgz:38025.got - 2010.06.03 12:22:45.
