data_PCOD9166144
_publ_section_title
;
Structure prediction by ZEFSAII (Michael W. Deem and Ramdas Pophale) SiO2 
 PCOD9166144
Probable space group: P 21/M
;
_chemical_formula_sum "Si O2"
_cell_formula_units_Z 30
_cell_length_a 11.525059
_cell_length_b 14.470749
_cell_length_c 8.703802
_cell_angle_alpha 90.000000
_cell_angle_beta 69.891672
_cell_angle_gamma 90.000000
_cell_volume 1363.104801
_symmetry_space_group_name_H-M "P 21/M"
_symmetry_group_IT_number 11
_symmetry_cell_setting 'monoclinic'
loop_
_space_group_symop_operation_xyz
x,y,z
-x,1/2+y,-z
-x,-y,-z
x,1/2-y,z
loop_
_atom_site_type_symbol
_atom_site_label
_atom_site_fract_x
_atom_site_fract_y
_atom_site_fract_z
Si Si1 0.113420 0.852168 0.780674
Si Si2 0.697367 0.599288 0.650563
Si Si3 0.405738 0.410004 0.733786
Si Si4 0.495405 0.641174 0.991586
Si Si5 0.928659 0.522307 0.689404
Si Si6 0.794179 0.143538 0.912277
Si Si7 0.648206 0.425508 0.463938
Si Si8 0.713988 0.750000 0.368913
O O1 0.058786 0.750000 0.785818
O O2 0.237485 0.860931 0.622670
O O3 0.021498 0.931264 0.767311
O O4 0.156992 0.862527 0.935928
O O5 0.816955 0.591947 0.703221
O O6 0.679493 0.498219 0.583726
O O7 0.718312 0.669721 0.502469
O O8 0.577927 0.624719 0.804151
O O9 0.449153 0.413551 0.888965
O O10 0.522784 0.376276 0.574965
O O11 0.374137 0.509133 0.674495
O O12 0.302326 0.333074 0.753545
O O13 0.503096 0.750000 0.027837
O O14 0.351218 0.621124 0.031094
O O15 0.871141 0.428159 0.778486
O O16 0.000000 0.500000 0.500000
O O17 0.810390 0.250000 0.853697
#
# Coordination Sequence:
#
# PCOD9166144 Si02
#       8
#     4   4   4   4   4   4   4   2
#     4  11  26  46  73 101 136 186 237 294 346 411
#     4  11  24  43  67 103 142 180 230 289 353 412
#     4  10  22  38  64  99 140 181 223 278 353 428
#     4  11  23  41  71 109 142 180 230 289 359 426
#     4  12  26  49  72 100 137 187 245 288 341 415
#     4  10  26  48  73 105 142 181 232 293 358 418
#     4  10  23  40  63 101 139 181 228 279 355 419
#     4  10  22  40  64  96 144 180 220 286 348 426
#
# _framework density 22.008579999999998
#
# number of rings (size 3 to 8) (size 9 to 14) (size 15 to 20)
#    0.000    1.333    2.667    1.200    9.333    1.600 
#    0.000    0.000    2.933    0.000    0.000    0.000 
#    0.000    0.000    0.000    0.000    0.000    0.000 
#
# Total GULP energy -167412.599556 kJ/mol
# GULP energy per Si atom -5580.419985 kJ/mol
# Density = 2.195849 g / cm^3
# Si number density = 22.008580 Si / 1000 Ang^3
#
#
#
# Elastic Constant Matrix: (Units=GPa)
#
#
# Indices 1 2 3 4 5 6 
#
# 1 84.9726 34.1346 27.9825 0.0000 9.1237 0.0000
# 2 34.1346 74.4859 32.7902 0.0000 3.2855 0.0000
# 3 27.9825 32.7902 49.8983 0.0000 9.3185 0.0000
# 4 0.0000 0.0000 0.0000 25.1588 0.0000 -4.2506
# 5 9.1237 3.2855 9.3185 0.0000 37.7887 0.0000
# 6 0.0000 0.0000 0.0000 -4.2506 0.0000 27.8159
#
#
#
# Elastic Compliance Matrix: (Units=1/GPa)
#
#
# Indices 1 2 3 4 5 6 
#
# 1 0.015632 -0.004760 -0.005252 0.000000 -0.002065 0.000000
# 2 -0.004760 0.020420 -0.011145 0.000000 0.002122 0.000000
# 3 -0.005252 -0.011145 0.031336 0.000000 -0.005490 0.000000
# 4 0.000000 0.000000 0.000000 0.040801 0.000000 0.006235
# 5 -0.002065 0.002122 -0.005490 0.000000 0.028131 0.000000
# 6 0.000000 0.000000 0.000000 0.006235 0.000000 0.036903
#
#
# Mechanical properties :
#
#
# Convention : Reuss Voigt Hill
#
# Bulk Modulus (GPa) = 39.88667 44.35237 42.11952
# Shear Modulus (GPa) = 22.33177 25.78266 24.05721
#
# Velocity S-wave (km/s) = 3.18887 3.42641 3.30977
# Velocity P-wave (km/s) = 5.63215 5.98746 5.81252
#
# Compressibility (1/GPa) = 0.02507104
#
# Stress axis : x y z
#
# Youngs Moduli (GPa) = 63.97016 48.97230 31.91259
#
# Poissons Ratio (x) = 0.23313 0.16762
# Poissons Ratio (y) = 0.30453 0.35568
# Poissons Ratio (z) = 0.33600 0.54581
#
# Static dielectric constant tensor:
#      x y z
#    x 1.846730 0.000000 0.004360 
#    y 0.000000 1.808610 0.000000 
#    z 0.004360 0.000000 1.791750 
# 
# From -- ./inp_files/18004.got.cif
#   From: 2010.05.17/outbox.cif.g08.bks.cpg/sg11_10_cif.got.tgz:18004.got - 2010.06.03 12:22:45.
