data_PCOD9166957
_publ_section_title
;
Structure prediction by ZEFSAII (Michael W. Deem and Ramdas Pophale) SiO2 
 PCOD9166957
Probable space group: P 21/M
;
_chemical_formula_sum "Si O2"
_cell_formula_units_Z 32
_cell_length_a 15.872030
_cell_length_b 22.337898
_cell_length_c 9.713571
_cell_angle_alpha 90.000000
_cell_angle_beta 27.167211
_cell_angle_gamma 90.000000
_cell_volume 1572.457839
_symmetry_space_group_name_H-M "P 21/M"
_symmetry_group_IT_number 11
_symmetry_cell_setting 'monoclinic'
loop_
_space_group_symop_operation_xyz
x,y,z
-x,1/2+y,-z
-x,-y,-z
x,1/2-y,z
loop_
_atom_site_type_symbol
_atom_site_label
_atom_site_fract_x
_atom_site_fract_y
_atom_site_fract_z
Si Si1 0.758997 0.530053 0.587462
Si Si2 0.451735 0.493059 0.369421
Si Si3 0.057991 0.820934 0.791015
Si Si4 0.621752 0.378504 0.196837
Si Si5 0.873157 0.083207 0.069350
Si Si6 0.170584 0.900289 0.381668
Si Si7 0.247706 0.415107 0.114974
Si Si8 0.662033 0.683386 0.226166
O O1 0.593026 0.525754 0.721577
O O2 0.790187 0.464559 0.606772
O O3 0.732030 0.577456 0.750292
O O4 0.938240 0.548915 0.238560
O O5 0.475143 0.433406 0.423704
O O6 0.285967 0.537182 0.650360
O O7 0.649251 0.525658 0.090050
O O8 0.094350 0.750000 0.760558
O O9 0.095868 0.863922 0.865674
O O10 0.168198 0.849870 0.502983
O O11 0.845424 0.827591 0.050335
O O12 0.795850 0.390169 0.040253
O O13 0.510838 0.323726 0.421292
O O14 0.692798 0.380386 0.938299
O O15 0.966065 0.909040 0.613756
O O16 0.347234 0.361442 0.889450
O O17 0.675541 0.750000 0.150704
#
# Coordination Sequence:
#
# PCOD9166957 Si02
#       8
#     4   4   4   4   4   4   4   4
#     4  12  23  38  62 100 136 167 213 265 328 390
#     4  12  24  37  62  99 134 172 210 264 329 385
#     4  10  24  47  68  90 125 174 222 263 320 388
#     4  12  24  40  66  98 133 166 215 269 326 386
#     4  12  24  41  64  99 132 175 213 266 324 385
#     4  11  23  41  66  97 130 171 209 268 328 389
#     4  11  22  40  63  92 136 165 210 266 324 385
#     4  10  24  45  68  91 124 172 220 267 321 385
#
# _framework density 20.350306
#
# number of rings (size 3 to 8) (size 9 to 14) (size 15 to 20)
#    0.000    0.750    5.000    3.000    3.500    1.000 
#    0.000    0.625    0.000    0.750    0.000    0.000 
#    0.000    0.000    0.000    0.000    0.000    0.000 
#
# Total GULP energy -178830.524914 kJ/mol
# GULP energy per Si atom -5588.453904 kJ/mol
# Density = 2.030399 g / cm^3
# Si number density = 20.350306 Si / 1000 Ang^3
#
#
#
# Elastic Constant Matrix: (Units=GPa)
#
#
# Indices 1 2 3 4 5 6 
#
# 1 72.6421 27.2240 16.1217 0.0000 23.5701 0.0000
# 2 27.2240 71.3715 28.8486 0.0000 5.4311 0.0000
# 3 16.1217 28.8486 101.9180 0.0000 16.9587 0.0000
# 4 0.0000 0.0000 0.0000 19.3148 0.0000 0.7888
# 5 23.5701 5.4311 16.9587 0.0000 25.9261 0.0000
# 6 0.0000 0.0000 0.0000 0.7888 0.0000 28.2330
#
#
#
# Elastic Compliance Matrix: (Units=1/GPa)
#
#
# Indices 1 2 3 4 5 6 
#
# 1 0.022996 -0.008039 0.002061 0.000000 -0.020570 0.000000
# 2 -0.008039 0.018636 -0.005128 0.000000 0.006759 0.000000
# 3 0.002061 -0.005128 0.012422 0.000000 -0.008925 0.000000
# 4 0.000000 0.000000 0.000000 0.051833 0.000000 -0.001448
# 5 -0.020570 0.006759 -0.008925 0.000000 0.061694 0.000000
# 6 0.000000 0.000000 0.000000 -0.001448 0.000000 0.035460
#
#
# Mechanical properties :
#
#
# Convention : Reuss Voigt Hill
#
# Bulk Modulus (GPa) = 31.40560 43.36890 37.38725
# Shear Modulus (GPa) = 21.19824 26.27727 23.73775
#
# Velocity S-wave (km/s) = 3.23099 3.59729 3.41905
# Velocity P-wave (km/s) = 5.42080 6.21381 5.83080
#
# Compressibility (1/GPa) = 0.03184146
#
# Stress axis : x y z
#
# Youngs Moduli (GPa) = 43.48580 53.65917 80.49941
#
# Poissons Ratio (x) = 0.43138 -0.16589
# Poissons Ratio (y) = 0.34959 0.41281
# Poissons Ratio (z) = -0.08961 0.27517
#
# Static dielectric constant tensor:
#      x y z
#    x 1.719500 0.000000 0.009760 
#    y 0.000000 1.715050 0.000000 
#    z 0.009760 0.000000 1.758860 
# 
# From -- ./inp_files/23362.got.cif
#   From: 2010.05.17/outbox.cif.g08.bks.cpg/sg11_12_cif.got.tgz:23362.got - 2010.06.03 12:22:45.
