data_PCOD9166690
_publ_section_title
;
Structure prediction by ZEFSAII (Michael W. Deem and Ramdas Pophale) SiO2 
 PCOD9166690
Probable space group: P 21/M
;
_chemical_formula_sum "Si O2"
_cell_formula_units_Z 28
_cell_length_a 9.114433
_cell_length_b 8.753302
_cell_length_c 29.284383
_cell_angle_alpha 90.000000
_cell_angle_beta 38.913352
_cell_angle_gamma 90.000000
_cell_volume 1467.564303
_symmetry_space_group_name_H-M "P 21/M"
_symmetry_group_IT_number 11
_symmetry_cell_setting 'monoclinic'
loop_
_space_group_symop_operation_xyz
x,y,z
-x,1/2+y,-z
-x,-y,-z
x,1/2-y,z
loop_
_atom_site_type_symbol
_atom_site_label
_atom_site_fract_x
_atom_site_fract_y
_atom_site_fract_z
Si Si1 0.545245 0.433280 0.716579
Si Si2 0.871862 0.933280 0.716579
Si Si3 0.028393 0.566122 0.854074
Si Si4 0.163055 0.066128 1.000000
Si Si5 0.701234 0.433878 0.854074
Si Si6 0.741883 0.432966 0.568517
Si Si7 0.415533 0.932966 0.568517
O O1 0.534091 0.250000 0.723593
O O2 0.716394 0.500000 0.713442
O O3 0.643359 0.470797 0.642569
O O4 0.288748 0.502832 0.784927
O O5 0.847943 0.750000 0.723593
O O6 0.143796 0.970797 0.642569
O O7 0.786617 0.002832 0.784927
O O8 0.030767 0.750000 0.850819
O O9 0.863421 0.500000 0.854631
O O10 0.929403 0.520326 0.927701
O O11 0.153276 0.250000 1.000000
O O12 0.432093 0.020326 0.927701
O O13 0.000000 0.000000 0.000000
O O14 0.715139 0.250000 0.850819
O O15 0.750411 0.250000 0.562126
O O16 0.572337 0.500000 0.571065
O O17 0.000000 0.500000 0.500000
O O18 0.438957 0.750000 0.562126
O O19 0.500000 0.000000 0.500000
#
# Coordination Sequence:
#
# PCOD9166690 Si02
#       7
#     4   4   4   4   4   4   4
#     4  11  24  41  62  90 122 158 199 246 297 353
#     4  11  24  41  62  90 122 158 199 246 297 353
#     4  11  23  40  62  89 121 158 200 247 298 354
#     4  10  23  40  60  88 120 156 199 246 297 352
#     4  11  23  40  62  89 121 158 200 247 298 354
#     4  11  24  41  63  90 122 158 199 246 297 353
#     4  11  24  41  63  90 122 158 199 246 297 353
#
# _framework density 19.079232000000001
#
# number of rings (size 3 to 8) (size 9 to 14) (size 15 to 20)
#    0.000    1.143    0.000    5.571    0.000   13.714 
#    0.000    0.000    0.000    0.000    0.000    0.000 
#    0.000    0.000    0.000    0.000    0.000    0.000 
#
# Total GULP energy -156709.888417 kJ/mol
# GULP energy per Si atom -5596.781729 kJ/mol
# Density = 1.903581 g / cm^3
# Si number density = 19.079232 Si / 1000 Ang^3
#
#
#
# Elastic Constant Matrix: (Units=GPa)
#
#
# Indices 1 2 3 4 5 6 
#
# 1 247.1687 79.8534 147.6123 0.0000 0.8781 0.0000
# 2 79.8534 67.0388 91.1500 0.0000 -0.5793 0.0000
# 3 147.6123 91.1500 235.7910 0.0000 -0.2945 0.0000
# 4 0.0000 0.0000 0.0000 32.3399 0.0000 0.6291
# 5 0.8781 -0.5793 -0.2945 0.0000 41.2777 0.0000
# 6 0.0000 0.0000 0.0000 0.6291 0.0000 44.6072
#
#
#
# Elastic Compliance Matrix: (Units=1/GPa)
#
#
# Indices 1 2 3 4 5 6 
#
# 1 0.007227 -0.005182 -0.002521 0.000000 -0.000244 0.000000
# 2 -0.005182 0.035165 -0.010349 0.000000 0.000530 0.000000
# 3 -0.002521 -0.010349 0.009820 0.000000 -0.000022 0.000000
# 4 0.000000 0.000000 0.000000 0.030930 0.000000 -0.000436
# 5 -0.000244 0.000530 -0.000022 0.000000 0.024239 0.000000
# 6 0.000000 0.000000 0.000000 -0.000436 0.000000 0.022424
#
#
# Mechanical properties :
#
#
# Convention : Reuss Voigt Hill
#
# Bulk Modulus (GPa) = 62.08416 131.91443 96.99930
# Shear Modulus (GPa) = 29.19231 39.07048 34.13139
#
# Velocity S-wave (km/s) = 3.91584 4.53017 4.23416
# Velocity P-wave (km/s) = 7.28395 9.83126 8.65187
#
# Compressibility (1/GPa) = 0.01610717
#
# Stress axis : x y z
#
# Youngs Moduli (GPa) = 138.37922 28.43712 101.83467
#
# Poissons Ratio (x) = 0.14737 0.25672
# Poissons Ratio (y) = 0.71712 1.05388
# Poissons Ratio (z) = 0.34885 0.29429
#
# Static dielectric constant tensor:
#      x y z
#    x 1.611950 0.000000 -0.001290 
#    y 0.000000 1.642340 0.000000 
#    z -0.001290 0.000000 1.637060 
# 
# From -- ./inp_files/70787.got.cif
#   From: 2010.05.17/outbox.cif.g08.bks.cpg/sg11_36_cif.got.tgz:70787.got - 2010.06.03 12:22:45.
