data_PCOD9166104
_publ_section_title
;
Structure prediction by ZEFSAII (Michael W. Deem and Ramdas Pophale) SiO2 
 PCOD9166104
Probable space group: P 21/M
;
_chemical_formula_sum "Si O2"
_cell_formula_units_Z 30
_cell_length_a 12.371011
_cell_length_b 8.113589
_cell_length_c 23.949477
_cell_angle_alpha 90.000000
_cell_angle_beta 40.360880
_cell_angle_gamma 90.000000
_cell_volume 1556.757376
_symmetry_space_group_name_H-M "P 21/M"
_symmetry_group_IT_number 11
_symmetry_cell_setting 'monoclinic'
loop_
_space_group_symop_operation_xyz
x,y,z
-x,1/2+y,-z
-x,-y,-z
x,1/2-y,z
loop_
_atom_site_type_symbol
_atom_site_label
_atom_site_fract_x
_atom_site_fract_y
_atom_site_fract_z
Si Si1 0.773909 0.750000 0.018720
Si Si2 0.528250 0.060794 0.581083
Si Si3 0.854902 0.944995 0.395251
Si Si4 0.080646 0.946968 0.409655
Si Si5 0.743884 0.930366 0.146710
Si Si6 0.936765 0.441715 0.908295
Si Si7 0.850176 0.439078 0.274779
Si Si8 0.587350 0.936740 0.676778
O O1 0.812066 0.597117 0.960017
O O2 0.747196 0.890973 0.080013
O O3 0.513153 0.250000 0.570144
O O4 0.663322 0.975549 0.488251
O O5 0.345617 0.981813 0.653312
O O6 0.595391 0.045602 0.617978
O O7 0.880065 0.750000 0.378081
O O8 0.970564 0.005274 0.400778
O O9 0.894627 0.032648 0.321702
O O10 0.082815 0.750000 0.406888
O O11 0.269319 0.011699 0.336718
O O12 0.000000 0.000000 0.500000
O O13 0.711558 0.750000 0.187091
O O14 0.922817 0.983975 0.099518
O O15 0.594055 0.045070 0.224487
O O16 0.880489 0.250000 0.939268
O O17 0.039566 0.451643 0.810044
O O18 0.872872 0.250000 0.249215
O O19 0.617291 0.750000 0.646534
#
# Coordination Sequence:
#
# PCOD9166104 Si02
#       8
#     2   4   4   4   4   4   4   4
#     4  10  22  38  58  88 124 156 202 242 310 372
#     4  12  23  37  57  83 120 166 205 249 297 354
#     4  11  24  41  59  85 116 158 213 256 296 353
#     4  11  23  39  62  85 118 156 202 256 300 347
#     4   9  21  35  54  83 119 153 197 237 300 359
#     4  11  21  36  58  87 123 162 198 246 303 367
#     4  12  24  39  58  84 124 166 205 246 302 363
#     4  12  23  36  58  86 123 162 202 248 302 360
#
# _framework density 19.270826
#
# number of rings (size 3 to 8) (size 9 to 14) (size 15 to 20)
#    0.400    0.533    3.333    5.200    0.933    2.133 
#    0.000    0.000    0.000    0.000    0.000    0.933 
#    0.000    0.000    0.000    0.000    0.000    0.000 
#
# Total GULP energy -167012.067959 kJ/mol
# GULP energy per Si atom -5567.068932 kJ/mol
# Density = 1.922696 g / cm^3
# Si number density = 19.270826 Si / 1000 Ang^3
#
#
#
# Elastic Constant Matrix: (Units=GPa)
#
#
# Indices 1 2 3 4 5 6 
#
# 1 57.4344 3.7441 3.7920 0.0000 8.9263 0.0000
# 2 3.7441 79.7462 2.7824 0.0000 -6.2709 0.0000
# 3 3.7920 2.7824 41.2968 0.0000 17.1505 0.0000
# 4 0.0000 0.0000 0.0000 32.7540 0.0000 2.6337
# 5 8.9263 -6.2709 17.1505 0.0000 19.6368 0.0000
# 6 0.0000 0.0000 0.0000 2.6337 0.0000 18.6740
#
#
#
# Elastic Compliance Matrix: (Units=1/GPa)
#
#
# Indices 1 2 3 4 5 6 
#
# 1 0.019250 -0.002011 0.003560 0.000000 -0.012502 0.000000
# 2 -0.002011 0.013517 -0.004548 0.000000 0.009203 0.000000
# 3 0.003560 -0.004548 0.039966 0.000000 -0.037976 0.000000
# 4 0.000000 0.000000 0.000000 0.030881 0.000000 -0.004355
# 5 -0.012502 0.009203 -0.037976 0.000000 0.092714 0.000000
# 6 0.000000 0.000000 0.000000 -0.004355 0.000000 0.054165
#
#
# Mechanical properties :
#
#
# Convention : Reuss Voigt Hill
#
# Bulk Modulus (GPa) = 14.98472 22.12381 18.55426
# Shear Modulus (GPa) = 17.93816 25.42355 21.68086
#
# Velocity S-wave (km/s) = 3.05429 3.63613 3.35783
# Velocity P-wave (km/s) = 4.49788 5.39759 4.96814
#
# Compressibility (1/GPa) = 0.06673466
#
# Stress axis : x y z
#
# Youngs Moduli (GPa) = 51.94729 73.98347 25.02135
#
# Poissons Ratio (x) = 0.14879 -0.08907
# Poissons Ratio (y) = 0.10447 0.11379
# Poissons Ratio (z) = -0.18493 0.33646
#
# Static dielectric constant tensor:
#      x y z
#    x 1.689030 0.000000 -0.008760 
#    y 0.000000 1.684900 0.000000 
#    z -0.008760 0.000000 1.674190 
# 
# From -- ./inp_files/68397.got.cif
#   From: 2010.05.17/outbox.cif.g08.bks.cpg/sg11_35_cif.got.tgz:68397.got - 2010.06.03 12:22:45.
