data_PCOD9166654
_publ_section_title
;
Structure prediction by ZEFSAII (Michael W. Deem and Ramdas Pophale) SiO2 
 PCOD9166654
Probable space group: P 21/M
;
_chemical_formula_sum "Si O2"
_cell_formula_units_Z 30
_cell_length_a 11.075021
_cell_length_b 23.774548
_cell_length_c 9.116619
_cell_angle_alpha 90.000000
_cell_angle_beta 141.537724
_cell_angle_gamma 90.000000
_cell_volume 1493.071058
_symmetry_space_group_name_H-M "P 21/M"
_symmetry_group_IT_number 11
_symmetry_cell_setting 'monoclinic'
loop_
_space_group_symop_operation_xyz
x,y,z
-x,1/2+y,-z
-x,-y,-z
x,1/2-y,z
loop_
_atom_site_type_symbol
_atom_site_label
_atom_site_fract_x
_atom_site_fract_y
_atom_site_fract_z
Si Si1 0.590355 0.811688 0.453754
Si Si2 0.692966 0.021683 0.891657
Si Si3 0.416876 0.107198 0.145869
Si Si4 0.581923 0.604906 0.193729
Si Si5 0.239151 0.933118 0.359601
Si Si6 0.211671 0.750000 0.210991
Si Si7 0.080660 0.474527 0.425297
Si Si8 0.099309 0.350269 0.029067
O O1 0.685494 0.750000 0.531144
O O2 0.556554 0.839437 0.264749
O O3 0.381722 0.798231 0.328931
O O4 0.742710 0.849920 0.688625
O O5 0.550441 0.057702 0.856868
O O6 0.675271 0.038503 0.705160
O O7 0.659342 0.955884 0.890283
O O8 0.905251 0.038217 0.149900
O O9 0.610983 0.111110 0.427236
O O10 0.247023 0.149916 0.031251
O O11 0.463164 0.111887 0.019278
O O12 0.797246 0.580029 0.416549
O O13 0.204485 0.979288 0.453514
O O14 0.036836 0.904569 0.121402
O O15 0.049077 0.799174 0.092637
O O16 0.000000 0.500000 0.500000
#
# Coordination Sequence:
#
# PCOD9166654 Si02
#       8
#     4   4   4   4   4   2   4   4
#     4  10  25  47  72  95 122 172 231 284 338 396
#     4  12  23  39  63  98 142 186 221 269 326 406
#     4  12  25  39  64 102 140 182 218 270 336 408
#     4  12  24  44  67  93 142 187 220 274 336 397
#     4  12  25  38  64 103 139 176 229 270 330 409
#     4  10  22  46  70  96 120 162 226 288 340 388
#     4  12  23  40  63  99 144 184 219 270 335 407
#     4  12  22  44  71  96 129 168 219 290 337 389
#
# _framework density 20.092814000000001
#
# number of rings (size 3 to 8) (size 9 to 14) (size 15 to 20)
#    0.400    0.000    4.667    5.200    1.867    0.000 
#    1.200    0.000    0.000    0.000    0.000    0.000 
#    0.000    0.000    0.000    0.000    0.000    0.000 
#
# Total GULP energy -167029.895558 kJ/mol
# GULP energy per Si atom -5567.663185 kJ/mol
# Density = 2.004708 g / cm^3
# Si number density = 20.092814 Si / 1000 Ang^3
#
#
#
# Elastic Constant Matrix: (Units=GPa)
#
#
# Indices 1 2 3 4 5 6 
#
# 1 130.8428 39.4836 69.4250 0.0000 -12.4437 0.0000
# 2 39.4836 28.3215 29.8320 0.0000 -15.5589 0.0000
# 3 69.4250 29.8320 112.7610 0.0000 -5.5143 0.0000
# 4 0.0000 0.0000 0.0000 11.7705 0.0000 20.2340
# 5 -12.4437 -15.5589 -5.5143 0.0000 38.3426 0.0000
# 6 0.0000 0.0000 0.0000 20.2340 0.0000 17.5588
#
#
#
# Elastic Compliance Matrix: (Units=1/GPa)
#
#
# Indices 1 2 3 4 5 6 
#
# 1 0.015339 -0.017919 -0.004849 0.000000 -0.002991 0.000000
# 2 -0.017919 0.086691 -0.010541 0.000000 0.027847 0.000000
# 3 -0.004849 -0.010541 0.014458 0.000000 -0.003772 0.000000
# 4 0.000000 0.000000 0.000000 -0.086607 0.000000 0.099802
# 5 -0.002991 0.027847 -0.003772 0.000000 0.035867 0.000000
# 6 0.000000 0.000000 0.000000 0.099802 0.000000 -0.058057
#
#
# Mechanical properties :
#
#
# Convention : Reuss Voigt Hill
#
# Bulk Modulus (GPa) = 20.05224 61.04516 40.54870
# Shear Modulus (GPa) = 54.98536 22.41336 38.69936
#
# Velocity S-wave (km/s) = 5.23690 3.34352 4.39342
# Velocity P-wave (km/s) = 6.82409 6.73447 6.77943
#
# Compressibility (1/GPa) = 0.04986975
#
# Stress axis : x y z
#
# Youngs Moduli (GPa) = 65.19447 11.53520 69.16480
#
# Poissons Ratio (x) = 0.20670 0.33541
# Poissons Ratio (y) = 1.16822 0.72905
# Poissons Ratio (z) = 0.31615 0.12159
#
# Static dielectric constant tensor:
#      x y z
#    x 1.741730 0.000000 0.039020 
#    y 0.000000 1.730910 0.000000 
#    z 0.039020 0.000000 1.736540 
# 
# From -- ./inp_files/19797.got.cif
#   From: 2010.05.17/outbox.cif.g08.bks.cpg/sg11_10_cif.got.tgz:19797.got - 2010.06.03 12:22:45.
