data_PCOD9166111
_publ_section_title
;
Structure prediction by ZEFSAII (Michael W. Deem and Ramdas Pophale) SiO2 
 PCOD9166111
Probable space group: P 21/M
;
_chemical_formula_sum "Si O2"
_cell_formula_units_Z 32
_cell_length_a 24.854403
_cell_length_b 8.822955
_cell_length_c 16.274890
_cell_angle_alpha 90.000000
_cell_angle_beta 153.471255
_cell_angle_gamma 90.000000
_cell_volume 1594.041528
_symmetry_space_group_name_H-M "P 21/M"
_symmetry_group_IT_number 11
_symmetry_cell_setting 'monoclinic'
loop_
_space_group_symop_operation_xyz
x,y,z
-x,1/2+y,-z
-x,-y,-z
x,1/2-y,z
loop_
_atom_site_type_symbol
_atom_site_label
_atom_site_fract_x
_atom_site_fract_y
_atom_site_fract_z
Si Si1 0.590553 0.568486 0.556681
Si Si2 0.712043 0.569786 0.440304
Si Si3 0.267611 0.568699 0.882886
Si Si4 0.839020 0.926426 0.984861
Si Si5 0.511317 0.430115 0.275391
Si Si6 0.063393 0.928743 0.725473
Si Si7 0.059720 0.927702 0.161680
Si Si8 0.802512 0.430066 0.395321
O O1 0.500000 0.500000 0.500000
O O2 0.576895 0.750000 0.533912
O O3 0.725816 0.535488 0.772740
O O4 0.562059 0.498775 0.429330
O O5 0.701751 0.750000 0.428933
O O6 0.591676 0.494467 0.310886
O O7 0.821065 0.514702 0.647691
O O8 0.745536 0.514537 0.394921
O O9 0.283701 0.750000 0.915917
O O10 0.139175 0.529396 0.748212
O O11 0.264506 0.536334 0.781799
O O12 0.374822 0.482853 0.074370
O O13 0.825546 0.750000 0.992295
O O14 0.961253 0.938961 0.099596
O O15 0.851251 0.031637 0.080649
O O16 0.519147 0.250000 0.289131
O O17 0.036385 0.750000 0.686878
O O18 0.940572 0.019578 0.570842
O O19 0.086529 0.750000 0.185104
O O20 0.000000 0.000000 0.000000
O O21 0.799180 0.250000 0.406096
#
# Coordination Sequence:
#
# PCOD9166111 Si02
#       8
#     4   4   4   4   4   4   4   4
#     4  11  23  41  64  94 131 173 219 266 320 379
#     4  12  25  43  66  93 129 169 214 269 324 386
#     4  10  24  44  66  94 128 169 216 268 324 386
#     4  10  22  38  59  87 123 165 207 255 312 373
#     4  12  26  44  67  95 128 171 220 269 326 389
#     4  11  22  38  64  97 131 167 211 263 321 385
#     4  11  22  38  61  90 124 163 210 259 314 377
#     4  11  23  42  67  95 130 169 213 267 327 388
#
# _framework density 20.074757999999999
#
# number of rings (size 3 to 8) (size 9 to 14) (size 15 to 20)
#    0.000    1.000    1.250    5.625    0.000    7.000 
#    0.000    0.000    0.000    0.000    0.000    0.000 
#    0.000    0.000    0.000    0.000    0.000    0.000 
#
# Total GULP energy -179100.070971 kJ/mol
# GULP energy per Si atom -5596.877218 kJ/mol
# Density = 2.002907 g / cm^3
# Si number density = 20.074758 Si / 1000 Ang^3
#
#
#
# Elastic Constant Matrix: (Units=GPa)
#
#
# Indices 1 2 3 4 5 6 
#
# 1 76.7906 21.2629 -1.1383 0.0000 -1.7019 0.0000
# 2 21.2629 69.0496 19.7948 0.0000 -4.0272 0.0000
# 3 -1.1383 19.7948 51.6005 0.0000 1.4963 0.0000
# 4 0.0000 0.0000 0.0000 26.1741 0.0000 -0.0138
# 5 -1.7019 -4.0272 1.4963 0.0000 34.6464 0.0000
# 6 0.0000 0.0000 0.0000 -0.0138 0.0000 29.8796
#
#
#
# Elastic Compliance Matrix: (Units=1/GPa)
#
#
# Indices 1 2 3 4 5 6 
#
# 1 0.014471 -0.005108 0.002278 0.000000 0.000019 0.000000
# 2 -0.005108 0.018239 -0.007173 0.000000 0.002179 0.000000
# 3 0.002278 -0.007173 0.022230 0.000000 -0.001682 0.000000
# 4 0.000000 0.000000 0.000000 0.038206 0.000000 0.000018
# 5 0.000019 0.002179 -0.001682 0.000000 0.029190 0.000000
# 6 0.000000 0.000000 0.000000 0.000018 0.000000 0.033468
#
#
# Mechanical properties :
#
#
# Convention : Reuss Voigt Hill
#
# Bulk Modulus (GPa) = 28.62460 30.80883 29.71672
# Shear Modulus (GPa) = 26.67335 28.64143 27.65739
#
# Velocity S-wave (km/s) = 3.64909 3.78132 3.71579
# Velocity P-wave (km/s) = 5.66078 5.86897 5.76582
#
# Compressibility (1/GPa) = 0.03493499
#
# Stress axis : x y z
#
# Youngs Moduli (GPa) = 69.10349 54.82872 44.98388
#
# Poissons Ratio (x) = 0.28008 -0.10249
# Poissons Ratio (y) = 0.35300 0.32265
# Poissons Ratio (z) = -0.15744 0.39326
#
# Static dielectric constant tensor:
#      x y z
#    x 1.700710 0.000000 0.000740 
#    y 0.000000 1.672000 0.000000 
#    z 0.000740 0.000000 1.696630 
# 
# From -- ./inp_files/55722.got.cif
#   From: 2010.05.17/outbox.cif.g08.bks.cpg/sg11_28_cif.got.tgz:55722.got - 2010.06.03 12:22:45.
