data_PCOD9166381
_publ_section_title
;
Structure prediction by ZEFSAII (Michael W. Deem and Ramdas Pophale) SiO2 
 PCOD9166381
Probable space group: P 21/M
;
_chemical_formula_sum "Si O2"
_cell_formula_units_Z 18
_cell_length_a 8.434703
_cell_length_b 15.166473
_cell_length_c 8.199182
_cell_angle_alpha 90.000000
_cell_angle_beta 63.753195
_cell_angle_gamma 90.000000
_cell_volume 940.735829
_symmetry_space_group_name_H-M "P 21/M"
_symmetry_group_IT_number 11
_symmetry_cell_setting 'monoclinic'
loop_
_space_group_symop_operation_xyz
x,y,z
-x,1/2+y,-z
-x,-y,-z
x,1/2-y,z
loop_
_atom_site_type_symbol
_atom_site_label
_atom_site_fract_x
_atom_site_fract_y
_atom_site_fract_z
Si Si1 0.637160 0.250000 0.522299
Si Si2 0.503578 0.928232 0.359633
Si Si3 0.142316 0.949968 0.324787
Si Si4 0.858156 0.933638 0.988562
Si Si5 0.931278 0.250000 0.105756
Si Si6 0.847576 0.250000 0.765665
O O1 0.518383 0.334236 0.546850
O O2 0.799768 0.250000 0.321361
O O3 0.699092 0.250000 0.686440
O O4 0.326447 0.939044 0.334706
O O5 0.680667 0.930776 0.174469
O O6 0.500000 0.000000 0.500000
O O7 0.077517 0.850515 0.301341
O O8 0.000000 0.000000 0.500000
O O9 0.181464 0.017850 0.162190
O O10 0.947784 0.837522 0.937227
O O11 0.000000 0.000000 0.000000
O O12 0.831659 0.250000 0.972518
#
# Coordination Sequence:
#
# PCOD9166381 Si02
#       6
#     2   4   4   4   2   2
#     4  10  23  45  64  97 134 171 230 277 337 398
#     4  11  24  42  64  96 134 173 221 276 333 400
#     4  11  23  43  68  98 134 177 224 279 339 398
#     4  12  23  41  66  97 132 176 222 272 335 396
#     4  12  23  41  72  97 133 179 227 275 345 396
#     4  10  22  40  70  92 133 176 223 274 332 396
#
# _framework density 19.133956999999999
#
# number of rings (size 3 to 8) (size 9 to 14) (size 15 to 20)
#    0.000    0.889    2.222    6.667    0.000    0.000 
#    0.000    1.111    0.000    0.000    0.000    0.000 
#    0.000    0.000    0.000    0.000    0.000    0.000 
#
# Total GULP energy -100301.557359 kJ/mol
# GULP energy per Si atom -5572.308742 kJ/mol
# Density = 1.909041 g / cm^3
# Si number density = 19.133957 Si / 1000 Ang^3
#
#
#
# Elastic Constant Matrix: (Units=GPa)
#
#
# Indices 1 2 3 4 5 6 
#
# 1 74.1498 54.3128 53.1527 0.0000 -14.2955 0.0000
# 2 54.3128 226.6560 89.7126 0.0000 -11.9573 0.0000
# 3 53.1527 89.7126 151.9363 0.0000 -32.1641 0.0000
# 4 0.0000 0.0000 0.0000 32.5643 0.0000 -0.0522
# 5 -14.2955 -11.9573 -32.1641 0.0000 47.0983 0.0000
# 6 0.0000 0.0000 0.0000 -0.0522 0.0000 38.1201
#
#
#
# Elastic Compliance Matrix: (Units=1/GPa)
#
#
# Indices 1 2 3 4 5 6 
#
# 1 0.019181 -0.002609 -0.004766 0.000000 0.001905 0.000000
# 2 -0.002609 0.006154 -0.002990 0.000000 -0.001271 0.000000
# 3 -0.004766 -0.002990 0.011161 0.000000 0.005416 0.000000
# 4 0.000000 0.000000 0.000000 0.030709 0.000000 0.000042
# 5 0.001905 -0.001271 0.005416 0.000000 0.025186 0.000000
# 6 0.000000 0.000000 0.000000 0.000042 0.000000 0.026233
#
#
# Mechanical properties :
#
#
# Convention : Reuss Voigt Hill
#
# Bulk Modulus (GPa) = 63.43170 94.12203 78.77687
# Shear Modulus (GPa) = 34.57580 40.59414 37.58497
#
# Velocity S-wave (km/s) = 4.25554 4.61105 4.43686
# Velocity P-wave (km/s) = 7.57427 8.81175 8.21634
#
# Compressibility (1/GPa) = 0.01576499
#
# Stress axis : x y z
#
# Youngs Moduli (GPa) = 52.13401 162.50836 89.59663
#
# Poissons Ratio (x) = 0.42403 0.42706
# Poissons Ratio (y) = 0.13603 0.26787
# Poissons Ratio (z) = 0.24849 0.48586
#
# Static dielectric constant tensor:
#      x y z
#    x 1.673170 0.000000 0.069630 
#    y 0.000000 1.610000 0.000000 
#    z 0.069630 0.000000 1.728180 
# 
# From -- ./inp_files/11712.got.cif
#   From: 2010.05.17/outbox.cif.g08.bks.cpg/sg11_6_cif.got.tgz:11712.got - 2010.06.03 12:22:45.
