data_PCOD9166758
_publ_section_title
;
Structure prediction by ZEFSAII (Michael W. Deem and Ramdas Pophale) SiO2 
 PCOD9166758
Probable space group: P 21/M
;
_chemical_formula_sum "Si O2"
_cell_formula_units_Z 22
_cell_length_a 11.855255
_cell_length_b 11.313779
_cell_length_c 14.307441
_cell_angle_alpha 90.000000
_cell_angle_beta 150.801784
_cell_angle_gamma 90.000000
_cell_volume 936.162555
_symmetry_space_group_name_H-M "P 21/M"
_symmetry_group_IT_number 11
_symmetry_cell_setting 'monoclinic'
loop_
_space_group_symop_operation_xyz
x,y,z
-x,1/2+y,-z
-x,-y,-z
x,1/2-y,z
loop_
_atom_site_type_symbol
_atom_site_label
_atom_site_fract_x
_atom_site_fract_y
_atom_site_fract_z
Si Si1 0.128977 0.750000 0.586271
Si Si2 0.552568 0.016557 0.150135
Si Si3 0.459319 0.124064 0.353577
Si Si4 0.091880 0.750000 0.768645
Si Si5 0.229760 0.439871 0.371082
Si Si6 0.360540 0.250000 0.791070
Si Si7 0.878828 0.615928 0.051993
O O1 0.279153 0.627617 0.699454
O O2 0.013826 0.750000 0.605680
O O3 0.902699 0.750000 0.355052
O O4 0.632842 0.886278 0.242348
O O5 0.312767 0.054504 0.022811
O O6 0.500000 0.000000 0.000000
O O7 0.569198 0.250000 0.405881
O O8 0.392954 0.123728 0.414483
O O9 0.614638 0.011232 0.443079
O O10 0.223849 0.116307 0.125812
O O11 0.968746 0.859788 0.729888
O O12 0.372426 0.750000 0.973295
O O13 0.110743 0.544469 0.227389
O O14 0.909817 0.750000 0.104983
#
# Coordination Sequence:
#
# PCOD9166758 Si02
#       7
#     2   4   4   2   4   2   4
#     4  12  26  46  67  98 132 176 227 272 335 399
#     4  12  23  47  67  96 134 175 222 279 337 393
#     4  10  23  42  65  98 132 168 219 265 326 393
#     4  12  24  42  67  95 130 169 219 270 323 400
#     4  11  22  42  67  94 133 172 210 269 329 386
#     4  12  26  44  70  95 132 173 226 276 336 393
#     4  11  23  41  66  95 128 170 219 270 326 391
#
# _framework density 23.500191999999998
#
# number of rings (size 3 to 8) (size 9 to 14) (size 15 to 20)
#    0.000    0.727    5.455    1.636    2.545    0.000 
#    3.273    0.000    0.000    0.000    0.000    0.000 
#    0.000    0.000    0.000    0.000    0.000    0.000 
#
# Total GULP energy -122661.240095 kJ/mol
# GULP energy per Si atom -5575.510913 kJ/mol
# Density = 2.344670 g / cm^3
# Si number density = 23.500192 Si / 1000 Ang^3
#
#
#
# Elastic Constant Matrix: (Units=GPa)
#
#
# Indices 1 2 3 4 5 6 
#
# 1 56.1986 20.0942 8.0164 0.0000 3.8800 0.0000
# 2 20.0942 206.2023 45.7070 0.0000 18.2942 0.0000
# 3 8.0164 45.7070 100.3539 0.0000 23.5888 0.0000
# 4 0.0000 0.0000 0.0000 79.5760 0.0000 33.9441
# 5 3.8800 18.2942 23.5888 0.0000 28.8254 0.0000
# 6 0.0000 0.0000 0.0000 33.9441 0.0000 38.1721
#
#
#
# Elastic Compliance Matrix: (Units=1/GPa)
#
#
# Indices 1 2 3 4 5 6 
#
# 1 0.018511 -0.001598 -0.000500 0.000000 -0.001068 0.000000
# 2 -0.001598 0.005604 -0.002030 0.000000 -0.001681 0.000000
# 3 -0.000500 -0.002030 0.013138 0.000000 -0.009395 0.000000
# 4 0.000000 0.000000 0.000000 0.020246 0.000000 -0.018004
# 5 -0.001068 -0.001681 -0.009395 0.000000 0.043591 0.000000
# 6 0.000000 0.000000 0.000000 -0.018004 0.000000 0.042207
#
#
# Mechanical properties :
#
#
# Convention : Reuss Voigt Hill
#
# Bulk Modulus (GPa) = 34.48615 56.71000 45.59808
# Shear Modulus (GPa) = 31.01397 48.57718 39.79557
#
# Velocity S-wave (km/s) = 3.63675 4.55147 4.11958
# Velocity P-wave (km/s) = 5.68694 7.19759 6.48639
#
# Compressibility (1/GPa) = 0.02899715
#
# Stress axis : x y z
#
# Youngs Moduli (GPa) = 54.02326 178.43106 76.11739
#
# Poissons Ratio (x) = 0.28519 0.03802
# Poissons Ratio (y) = 0.08635 0.15451
# Poissons Ratio (z) = 0.02699 0.36219
#
# Static dielectric constant tensor:
#      x y z
#    x 1.852630 0.000000 -0.035520 
#    y 0.000000 1.967940 0.000000 
#    z -0.035520 0.000000 1.934470 
# 
# From -- ./inp_files/50125.got.cif
#   From: 2010.05.17/outbox.cif.g08.bks.cpg/sg11_26_cif.got.tgz:50125.got - 2010.06.03 12:22:45.
