data_PCOD9166876
_publ_section_title
;
Structure prediction by ZEFSAII (Michael W. Deem and Ramdas Pophale) SiO2 
 PCOD9166876
Probable space group: P 21/M
;
_chemical_formula_sum "Si O2"
_cell_formula_units_Z 20
_cell_length_a 4.897711
_cell_length_b 20.146737
_cell_length_c 8.860558
_cell_angle_alpha 90.000000
_cell_angle_beta 105.641879
_cell_angle_gamma 90.000000
_cell_volume 841.917981
_symmetry_space_group_name_H-M "P 21/M"
_symmetry_group_IT_number 11
_symmetry_cell_setting 'monoclinic'
loop_
_space_group_symop_operation_xyz
x,y,z
-x,1/2+y,-z
-x,-y,-z
x,1/2-y,z
loop_
_atom_site_type_symbol
_atom_site_label
_atom_site_fract_x
_atom_site_fract_y
_atom_site_fract_z
Si Si1 0.302894 0.173377 0.571732
Si Si2 0.749340 0.410182 0.493005
Si Si3 0.999998 0.484955 0.250000
Si Si4 0.697097 0.326623 0.928265
Si Si5 0.250653 0.410181 0.006995
O O1 0.289548 0.250000 0.523011
O O2 0.993679 0.144664 0.557888
O O3 0.499994 0.169013 0.749999
O O4 0.453206 0.126468 0.471541
O O5 0.790434 0.467333 0.624261
O O6 0.825778 0.443091 0.345668
O O7 0.790435 0.532668 0.124260
O O8 0.174212 0.443089 0.154331
O O9 0.710446 0.250000 0.976986
O O10 0.006311 0.355336 0.942108
O O11 0.546786 0.373531 0.028459
#
# Coordination Sequence:
#
# PCOD9166876 Si02
#       5
#     4   4   4   4   4
#     4  11  22  40  64  89 120 159 204 246 293 356
#     4  11  23  41  62  93 118 161 196 250 297 357
#     4  10  24  40  64  88 128 154 200 244 304 356
#     4  11  22  40  64  89 120 159 204 246 293 356
#     4  11  23  41  62  93 118 161 196 250 297 357
#
# _framework density 23.755284
#
# number of rings (size 3 to 8) (size 9 to 14) (size 15 to 20)
#    0.000    1.200    4.000    1.200    0.000   14.400 
#    0.000    6.000    0.000    0.000    0.000    0.000 
#    0.000    0.000    0.000    0.000    0.000    0.000 
#
# Total GULP energy -112225.606101 kJ/mol
# GULP energy per Si atom -5611.280305 kJ/mol
# Density = 2.370122 g / cm^3
# Si number density = 23.755284 Si / 1000 Ang^3
#
#
#
# Elastic Constant Matrix: (Units=GPa)
#
#
# Indices 1 2 3 4 5 6 
#
# 1 84.7658 12.3793 4.4980 0.0000 -9.2526 0.0000
# 2 12.3793 136.7572 64.8912 0.0000 -11.3485 0.0000
# 3 4.4980 64.8912 120.7307 0.0000 -14.3070 0.0000
# 4 0.0000 0.0000 0.0000 -16.5238 0.0000 -6.6173
# 5 -9.2526 -11.3485 -14.3070 0.0000 32.5980 0.0000
# 6 0.0000 0.0000 0.0000 -6.6173 0.0000 16.9854
#
#
#
# Elastic Compliance Matrix: (Units=1/GPa)
#
#
# Indices 1 2 3 4 5 6 
#
# 1 0.012292 -0.001082 0.000519 0.000000 0.003340 0.000000
# 2 -0.001082 0.009953 -0.005206 0.000000 0.000873 0.000000
# 3 0.000519 -0.005206 0.011460 0.000000 0.003365 0.000000
# 4 0.000000 0.000000 0.000000 -0.052351 0.000000 -0.020395
# 5 0.003340 0.000873 0.003365 0.000000 0.033406 0.000000
# 6 0.000000 0.000000 0.000000 -0.020395 0.000000 0.050928
#
#
# Mechanical properties :
#
#
# Convention : Reuss Voigt Hill
#
# Bulk Modulus (GPa) = 45.10845 56.19898 50.65371
# Shear Modulus (GPa) = 59.09165 23.97760 41.53463
#
# Velocity S-wave (km/s) = 4.99291 3.18049 4.18597
# Velocity P-wave (km/s) = 7.22972 6.09886 6.68824
#
# Compressibility (1/GPa) = 0.02216880
#
# Stress axis : x y z
#
# Youngs Moduli (GPa) = 81.35195 100.47510 87.25777
#
# Poissons Ratio (x) = 0.10871 -0.04532
# Poissons Ratio (y) = 0.08802 0.45424
# Poissons Ratio (z) = -0.04226 0.52304
#
# Static dielectric constant tensor:
#      x y z
#    x 1.858820 0.000000 0.044390 
#    y 0.000000 1.861490 0.000000 
#    z 0.044390 0.000000 1.916550 
# 
# From -- ./inp_files/10258.got.cif
#   From: 2010.05.17/outbox.cif.g08.bks.cpg/sg11_6_cif.got.tgz:10258.got - 2010.06.03 12:22:45.
