data_PCOD9166359
_publ_section_title
;
Structure prediction by ZEFSAII (Michael W. Deem and Ramdas Pophale) SiO2 
 PCOD9166359
Probable space group: P 21/M
;
_chemical_formula_sum "Si O2"
_cell_formula_units_Z 28
_cell_length_a 9.629615
_cell_length_b 15.315506
_cell_length_c 20.721505
_cell_angle_alpha 90.000000
_cell_angle_beta 27.687626
_cell_angle_gamma 90.000000
_cell_volume 1419.999776
_symmetry_space_group_name_H-M "P 21/M"
_symmetry_group_IT_number 11
_symmetry_cell_setting 'monoclinic'
loop_
_space_group_symop_operation_xyz
x,y,z
-x,1/2+y,-z
-x,-y,-z
x,1/2-y,z
loop_
_atom_site_type_symbol
_atom_site_label
_atom_site_fract_x
_atom_site_fract_y
_atom_site_fract_z
Si Si1 0.791664 0.850811 0.539850
Si Si2 0.207394 0.149529 0.788584
Si Si3 0.146400 0.514037 0.147065
Si Si4 0.868379 0.149114 0.465021
Si Si5 0.089830 0.650589 0.825622
Si Si6 0.899690 0.477476 0.687930
Si Si7 0.238803 0.424416 0.916761
O O1 0.846040 0.750000 0.497649
O O2 0.439863 0.861240 0.697413
O O3 0.970480 0.865761 0.532351
O O4 0.902533 0.916963 0.439988
O O5 0.114041 0.250000 0.820245
O O6 0.516159 0.136549 0.622453
O O7 0.272552 0.129112 0.836662
O O8 0.965519 0.083104 0.859779
O O9 0.062469 0.545761 0.252896
O O10 0.997826 0.421781 0.190368
O O11 0.500000 0.500000 0.000000
O O12 0.920605 0.250000 0.424616
O O13 0.000573 0.077263 0.363251
O O14 0.043995 0.750000 0.822678
O O15 0.894990 0.631878 0.969574
O O16 0.556578 0.463313 0.807693
O O17 0.000000 0.500000 0.000000
#
# Coordination Sequence:
#
# PCOD9166359 Si02
#       7
#     4   4   4   4   4   4   4
#     4  10  22  40  66 102 131 164 220 278 332 385
#     4  11  24  43  69  98 133 172 220 276 327 388
#     4  12  26  46  60  96 136 176 221 265 326 394
#     4  10  22  40  66 102 132 165 220 279 332 386
#     4  11  24  42  67  95 134 175 218 273 328 391
#     4  12  24  40  71  93 132 180 213 272 331 391
#     4  12  22  41  70  98 129 169 227 271 327 390
#
# _framework density 19.718312999999998
#
# number of rings (size 3 to 8) (size 9 to 14) (size 15 to 20)
#    0.000    0.857    4.286    2.571    0.000    4.571 
#    0.000    6.429    0.000    0.000    0.000    0.000 
#    0.000    0.000    0.000    0.000    0.000    0.000 
#
# Total GULP energy -156608.513718 kJ/mol
# GULP energy per Si atom -5593.161204 kJ/mol
# Density = 1.967343 g / cm^3
# Si number density = 19.718313 Si / 1000 Ang^3
#
#
#
# Elastic Constant Matrix: (Units=GPa)
#
#
# Indices 1 2 3 4 5 6 
#
# 1 67.6044 20.7676 9.4996 0.0000 -3.7304 0.0000
# 2 20.7676 72.7698 25.1385 0.0000 -11.2018 0.0000
# 3 9.4996 25.1385 70.2971 0.0000 -5.8989 0.0000
# 4 0.0000 0.0000 0.0000 26.2418 0.0000 1.3879
# 5 -3.7304 -11.2018 -5.8989 0.0000 31.5042 0.0000
# 6 0.0000 0.0000 0.0000 1.3879 0.0000 8.4345
#
#
#
# Elastic Compliance Matrix: (Units=1/GPa)
#
#
# Indices 1 2 3 4 5 6 
#
# 1 0.016238 -0.004387 -0.000605 0.000000 0.000250 0.000000
# 2 -0.004387 0.017548 -0.005285 0.000000 0.004730 0.000000
# 3 -0.000605 -0.005285 0.016289 0.000000 0.001099 0.000000
# 4 0.000000 0.000000 0.000000 0.038442 0.000000 -0.006326
# 5 0.000250 0.004730 0.001099 0.000000 0.033659 0.000000
# 6 0.000000 0.000000 0.000000 -0.006326 0.000000 0.119601
#
#
# Mechanical properties :
#
#
# Convention : Reuss Voigt Hill
#
# Bulk Modulus (GPa) = 33.87342 35.72029 34.79686
# Shear Modulus (GPa) = 18.37073 23.58714 20.97894
#
# Velocity S-wave (km/s) = 3.05562 3.46237 3.26533
# Velocity P-wave (km/s) = 5.44656 5.84283 5.64817
#
# Compressibility (1/GPa) = 0.02952167
#
# Stress axis : x y z
#
# Youngs Moduli (GPa) = 61.58286 56.98677 61.38979
#
# Poissons Ratio (x) = 0.24999 0.03712
# Poissons Ratio (y) = 0.27016 0.32447
# Poissons Ratio (z) = 0.03724 0.30120
#
# Static dielectric constant tensor:
#      x y z
#    x 1.662780 0.000000 0.002800 
#    y 0.000000 1.684030 0.000000 
#    z 0.002800 0.000000 1.679990 
# 
# From -- ./inp_files/63860.got.cif
#   From: 2010.05.17/outbox.cif.g08.bks.cpg/sg11_32_cif.got.tgz:63860.got - 2010.06.03 12:22:45.
