data_PCOD9166392
_publ_section_title
;
Structure prediction by ZEFSAII (Michael W. Deem and Ramdas Pophale) SiO2 
 PCOD9166392
Probable space group: P 21/M
;
_chemical_formula_sum "Si O2"
_cell_formula_units_Z 28
_cell_length_a 27.528702
_cell_length_b 8.752793
_cell_length_c 9.888794
_cell_angle_alpha 90.000000
_cell_angle_beta 38.365564
_cell_angle_gamma 90.000000
_cell_volume 1478.907906
_symmetry_space_group_name_H-M "P 21/M"
_symmetry_group_IT_number 11
_symmetry_cell_setting 'monoclinic'
loop_
_space_group_symop_operation_xyz
x,y,z
-x,1/2+y,-z
-x,-y,-z
x,1/2-y,z
loop_
_atom_site_type_symbol
_atom_site_label
_atom_site_fract_x
_atom_site_fract_y
_atom_site_fract_z
Si Si1 0.012077 0.933394 0.825330
Si Si2 0.807404 0.066680 0.621649
Si Si3 0.932551 0.432580 0.743912
Si Si4 0.680999 0.066627 0.686341
Si Si5 0.355942 0.934280 0.541843
Si Si6 0.476609 0.432683 0.905190
Si Si7 0.228682 0.068579 0.016490
O O1 0.003558 0.750000 0.843076
O O2 0.100886 0.970673 0.586168
O O3 0.952806 0.009080 0.849272
O O4 0.000000 0.000000 0.000000
O O5 0.801071 0.250000 0.653220
O O6 0.761780 0.025939 0.583509
O O7 0.769122 0.985379 0.833257
O O8 0.934273 0.250000 0.733417
O O9 0.848784 0.492384 0.878332
O O10 0.000000 0.500000 0.500000
O O11 0.673370 0.250000 0.702516
O O12 0.672427 0.018580 0.548065
O O13 0.609157 0.999906 0.930789
O O14 0.347683 0.750000 0.568395
O O15 0.448504 0.971578 0.350554
O O16 0.303018 0.012103 0.769433
O O17 0.472153 0.250000 0.922683
O O18 0.500000 0.500000 0.000000
O O19 0.221615 0.250000 0.024768
#
# Coordination Sequence:
#
# PCOD9166392 Si02
#       7
#     4   4   4   4   4   4   4
#     4  11  24  41  63  91 121 157 198 243 295 348
#     4  10  22  41  61  83 118 160 194 236 297 352
#     4  12  24  42  65  87 116 156 200 244 294 352
#     4   9  19  36  60  88 116 152 193 237 294 348
#     4   9  19  36  59  86 117 152 192 239 291 347
#     4   9  17  32  56  85 116 152 190 235 290 343
#     4  12  25  39  59  88 118 154 199 244 294 347
#
# _framework density 18.93289
#
# number of rings (size 3 to 8) (size 9 to 14) (size 15 to 20)
#    0.000    1.714    1.429    4.286    2.000    4.000 
#    0.000    0.714    0.000    0.000    0.000    0.000 
#    0.000    0.000    0.000    0.000    0.000    0.000 
#
# Total GULP energy -156367.440154 kJ/mol
# GULP energy per Si atom -5584.551434 kJ/mol
# Density = 1.888980 g / cm^3
# Si number density = 18.932890 Si / 1000 Ang^3
#
#
#
# Elastic Constant Matrix: (Units=GPa)
#
#
# Indices 1 2 3 4 5 6 
#
# 1 29.4550 4.2019 -11.6598 0.0000 10.2444 0.0000
# 2 4.2019 49.8230 26.9131 0.0000 5.1188 0.0000
# 3 -11.6598 26.9131 89.4709 0.0000 12.4561 0.0000
# 4 0.0000 0.0000 0.0000 33.3879 0.0000 -0.9959
# 5 10.2444 5.1188 12.4561 0.0000 29.2458 0.0000
# 6 0.0000 0.0000 0.0000 -0.9959 0.0000 27.3925
#
#
#
# Elastic Compliance Matrix: (Units=1/GPa)
#
#
# Indices 1 2 3 4 5 6 
#
# 1 0.046296 -0.007910 0.011138 0.000000 -0.019576 0.000000
# 2 -0.007910 0.025356 -0.008957 0.000000 0.002148 0.000000
# 3 0.011138 -0.008957 0.016634 0.000000 -0.009418 0.000000
# 4 0.000000 0.000000 0.000000 0.029984 0.000000 0.001090
# 5 -0.019576 0.002148 -0.009418 0.000000 0.044686 0.000000
# 6 0.000000 0.000000 0.000000 0.001090 0.000000 0.036546
#
#
# Mechanical properties :
#
#
# Convention : Reuss Voigt Hill
#
# Bulk Modulus (GPa) = 13.01603 23.07327 18.04465
# Shear Modulus (GPa) = 21.13564 27.95814 24.54689
#
# Velocity S-wave (km/s) = 3.34480 3.84695 3.60463
# Velocity P-wave (km/s) = 4.66976 5.65202 5.18421
#
# Compressibility (1/GPa) = 0.07682836
#
# Stress axis : x y z
#
# Youngs Moduli (GPa) = 21.60014 39.43884 60.11873
#
# Poissons Ratio (x) = 0.31195 -0.66960
# Poissons Ratio (y) = 0.17085 0.53847
# Poissons Ratio (z) = -0.24058 0.35325
#
# Static dielectric constant tensor:
#      x y z
#    x 1.658100 0.000000 -0.000420 
#    y 0.000000 1.629710 0.000000 
#    z -0.000420 0.000000 1.663990 
# 
# From -- ./inp_files/28310.got.cif
#   From: 2010.05.17/outbox.cif.g08.bks.cpg/sg11_15_cif.got.tgz:28310.got - 2010.06.03 12:22:45.
