data_PCOD9166218
_publ_section_title
;
Structure prediction by ZEFSAII (Michael W. Deem and Ramdas Pophale) SiO2 
 PCOD9166218
Probable space group: P 21/M
;
_chemical_formula_sum "Si O2"
_cell_formula_units_Z 32
_cell_length_a 11.910360
_cell_length_b 7.494782
_cell_length_c 29.441313
_cell_angle_alpha 90.000000
_cell_angle_beta 31.938251
_cell_angle_gamma 90.000000
_cell_volume 1390.275409
_symmetry_space_group_name_H-M "P 21/M"
_symmetry_group_IT_number 11
_symmetry_cell_setting 'monoclinic'
loop_
_space_group_symop_operation_xyz
x,y,z
-x,1/2+y,-z
-x,-y,-z
x,1/2-y,z
loop_
_atom_site_type_symbol
_atom_site_label
_atom_site_fract_x
_atom_site_fract_y
_atom_site_fract_z
Si Si1 0.750060 0.538162 0.415781
Si Si2 0.776581 0.967081 0.307463
Si Si3 0.812773 0.466792 0.883325
Si Si4 0.551111 0.542976 0.059668
Si Si5 0.524135 0.452444 0.737421
Si Si6 0.016789 0.453422 0.410309
Si Si7 0.357983 0.968910 0.402558
Si Si8 0.251316 0.035058 0.914137
O O1 0.500000 0.500000 0.500000
O O2 0.780901 0.750000 0.409141
O O3 0.837051 0.476109 0.337232
O O4 0.867583 0.453323 0.417629
O O5 0.773628 0.750000 0.308865
O O6 0.541252 0.023453 0.374657
O O7 0.951844 0.021840 0.211083
O O8 0.802112 0.250000 0.888194
O O9 0.650238 0.530476 0.899568
O O10 0.736853 0.531953 0.958303
O O11 0.498508 0.750000 0.086292
O O12 0.633325 0.467728 0.079341
O O13 0.447301 0.250000 0.755750
O O14 0.563801 0.529470 0.673643
O O15 0.367574 0.533173 0.828574
O O16 0.763293 0.449683 0.674800
O O17 0.072305 0.250000 0.402484
O O18 0.869634 0.531128 0.500981
O O19 0.346532 0.750000 0.405972
O O20 0.276757 0.250000 0.905502
O O21 0.000000 0.000000 0.000000
#
# Coordination Sequence:
#
# PCOD9166218 Si02
#       8
#     4   4   4   4   4   4   4   4
#     4  11  21  36  58  83 116 153 191 230 280 338
#     4   9  18  32  56  84 110 145 185 231 277 330
#     4   9  18  33  59  84 105 142 187 224 273 339
#     4   9  19  36  54  80 116 143 174 229 287 334
#     4  10  22  39  62  86 109 150 200 238 280 341
#     4  11  22  38  59  85 120 153 188 240 292 339
#     4   9  18  35  57  84 116 147 190 239 281 331
#     4  10  23  40  60  84 114 149 190 238 287 340
#
# _framework density 23.017022999999998
#
# number of rings (size 3 to 8) (size 9 to 14) (size 15 to 20)
#    0.000    2.250    1.250    1.125    3.500    1.000 
#    0.000    1.875    0.000    0.000    0.000    0.000 
#    0.000    0.000    0.000    0.000    0.000    0.000 
#
# Total GULP energy -178722.738392 kJ/mol
# GULP energy per Si atom -5585.085575 kJ/mol
# Density = 2.296464 g / cm^3
# Si number density = 23.017023 Si / 1000 Ang^3
#
#
#
# Elastic Constant Matrix: (Units=GPa)
#
#
# Indices 1 2 3 4 5 6 
#
# 1 100.5837 0.0650 21.0950 0.0000 16.8453 0.0000
# 2 0.0650 71.1595 -3.3682 0.0000 4.8608 0.0000
# 3 21.0950 -3.3682 132.1637 0.0000 9.0763 0.0000
# 4 0.0000 0.0000 0.0000 13.5266 0.0000 -3.7784
# 5 16.8453 4.8608 9.0763 0.0000 25.7722 0.0000
# 6 0.0000 0.0000 0.0000 -3.7784 0.0000 16.5768
#
#
#
# Elastic Compliance Matrix: (Units=1/GPa)
#
#
# Indices 1 2 3 4 5 6 
#
# 1 0.011402 0.000409 -0.001324 0.000000 -0.007064 0.000000
# 2 0.000409 0.014292 0.000515 0.000000 -0.003144 0.000000
# 3 -0.001324 0.000515 0.007930 0.000000 -0.002024 0.000000
# 4 0.000000 0.000000 0.000000 0.078955 0.000000 0.017996
# 5 -0.007064 -0.003144 -0.002024 0.000000 0.044724 0.000000
# 6 0.000000 0.000000 0.000000 0.017996 0.000000 0.064427
#
#
# Mechanical properties :
#
#
# Convention : Reuss Voigt Hill
#
# Bulk Modulus (GPa) = 30.46586 37.72118 34.09352
# Shear Modulus (GPa) = 21.41578 30.24946 25.83262
#
# Velocity S-wave (km/s) = 3.05361 3.62915 3.35375
# Velocity P-wave (km/s) = 5.06929 5.82966 5.46272
#
# Compressibility (1/GPa) = 0.03282362
#
# Stress axis : x y z
#
# Youngs Moduli (GPa) = 87.70030 69.97063 126.10507
#
# Poissons Ratio (x) = -0.02865 0.16702
# Poissons Ratio (y) = -0.03591 -0.06492
# Poissons Ratio (z) = 0.11615 -0.03602
#
# Static dielectric constant tensor:
#      x y z
#    x 1.789570 0.000000 0.047870 
#    y 0.000000 1.942670 0.000000 
#    z 0.047870 0.000000 1.821930 
# 
# From -- ./inp_files/73053.got.cif
#   From: 2010.05.17/outbox.cif.g08.bks.cpg/sg11_37_cif.got.tgz:73053.got - 2010.06.03 12:22:45.
