data_PCOD9166138
_publ_section_title
;
Structure prediction by ZEFSAII (Michael W. Deem and Ramdas Pophale) SiO2 
 PCOD9166138
Probable space group: P 21/M
;
_chemical_formula_sum "Si O2"
_cell_formula_units_Z 28
_cell_length_a 6.923537
_cell_length_b 14.195157
_cell_length_c 16.614671
_cell_angle_alpha 90.000000
_cell_angle_beta 120.193333
_cell_angle_gamma 90.000000
_cell_volume 1411.371109
_symmetry_space_group_name_H-M "P 21/M"
_symmetry_group_IT_number 11
_symmetry_cell_setting 'monoclinic'
loop_
_space_group_symop_operation_xyz
x,y,z
-x,1/2+y,-z
-x,-y,-z
x,1/2-y,z
loop_
_atom_site_type_symbol
_atom_site_label
_atom_site_fract_x
_atom_site_fract_y
_atom_site_fract_z
Si Si1 0.121884 0.637134 0.593043
Si Si2 0.408877 0.858020 0.813615
Si Si3 0.671637 0.545312 0.121519
Si Si4 0.844366 0.911269 0.986424
Si Si5 0.120497 0.637756 0.273502
Si Si6 0.701855 0.145922 0.857174
Si Si7 0.757472 0.023529 0.542822
O O1 0.074665 0.750000 0.573645
O O2 0.307544 0.629156 0.703096
O O3 0.205729 0.587520 0.528823
O O4 0.907695 0.571885 0.570802
O O5 0.364138 0.750000 0.828984
O O6 0.292645 0.937119 0.844860
O O7 0.675742 0.875595 0.882396
O O8 0.689204 0.564754 0.030610
O O9 0.447404 0.581104 0.117478
O O10 0.870766 0.607620 0.199174
O O11 0.044461 0.844964 0.057912
O O12 0.000000 0.000000 0.000000
O O13 0.139630 0.750000 0.284959
O O14 0.274075 0.608750 0.229041
O O15 0.176589 0.584938 0.366421
O O16 0.599661 0.250000 0.834096
O O17 0.500000 0.000000 0.500000
#
# Coordination Sequence:
#
# PCOD9166138 Si02
#       7
#     4   4   4   4   4   4   4
#     4  10  24  45  66  96 133 173 218 267 330 401
#     4  11  23  42  65  91 129 173 215 260 317 385
#     4  11  22  41  66  91 127 169 211 263 321 381
#     4  11  23  40  63  91 130 170 216 265 311 374
#     4  10  22  40  64  95 125 159 212 265 321 386
#     4  10  22  38  63  93 125 162 207 264 317 371
#     4  11  24  41  71  96 128 169 214 275 330 390
#
# _framework density 19.838864999999998
#
# number of rings (size 3 to 8) (size 9 to 14) (size 15 to 20)
#    0.000    1.429    2.857    1.714    2.000    2.857 
#    0.000    2.143    0.000    0.000    0.000    0.000 
#    0.000    0.000    0.000    0.000    0.000    0.000 
#
# Total GULP energy -156173.110082 kJ/mol
# GULP energy per Si atom -5577.611074 kJ/mol
# Density = 1.979371 g / cm^3
# Si number density = 19.838865 Si / 1000 Ang^3
#
#
#
# Elastic Constant Matrix: (Units=GPa)
#
#
# Indices 1 2 3 4 5 6 
#
# 1 142.6704 70.2793 66.9934 0.0000 -4.6482 0.0000
# 2 70.2793 147.2410 61.3271 0.0000 -12.3847 0.0000
# 3 66.9934 61.3271 140.8531 0.0000 -5.3061 0.0000
# 4 0.0000 0.0000 0.0000 17.1840 0.0000 7.8157
# 5 -4.6482 -12.3847 -5.3061 0.0000 19.8491 0.0000
# 6 0.0000 0.0000 0.0000 7.8157 0.0000 21.2018
#
#
#
# Elastic Compliance Matrix: (Units=1/GPa)
#
#
# Indices 1 2 3 4 5 6 
#
# 1 0.010342 -0.003587 -0.003384 0.000000 -0.000721 0.000000
# 2 -0.003587 0.009912 -0.002433 0.000000 0.004694 0.000000
# 3 -0.003384 -0.002433 0.009780 0.000000 0.000304 0.000000
# 4 0.000000 0.000000 0.000000 0.069916 0.000000 -0.025773
# 5 -0.000721 0.004694 0.000304 0.000000 0.053221 0.000000
# 6 0.000000 0.000000 0.000000 -0.025773 0.000000 0.056667
#
#
# Mechanical properties :
#
#
# Convention : Reuss Voigt Hill
#
# Bulk Modulus (GPa) = 89.08321 91.99601 90.53961
# Shear Modulus (GPa) = 21.51581 27.12464 24.32023
#
# Velocity S-wave (km/s) = 3.29679 3.70164 3.50507
# Velocity P-wave (km/s) = 7.71315 8.04623 7.88145
#
# Compressibility (1/GPa) = 0.01122546
#
# Stress axis : x y z
#
# Youngs Moduli (GPa) = 96.69422 100.88904 102.25252
#
# Poissons Ratio (x) = 0.36193 0.34603
# Poissons Ratio (y) = 0.34688 0.24873
# Poissons Ratio (z) = 0.32722 0.24541
#
# Static dielectric constant tensor:
#      x y z
#    x 1.677730 0.000000 0.010950 
#    y 0.000000 1.759220 0.000000 
#    z 0.010950 0.000000 1.751080 
# 
# From -- ./inp_files/57120.got.cif
#   From: 2010.05.17/outbox.cif.g08.bks.cpg/sg11_29_cif.got.tgz:57120.got - 2010.06.03 12:22:45.
