data_PCOD9166035
_publ_section_title
;
Structure prediction by ZEFSAII (Michael W. Deem and Ramdas Pophale) SiO2 
 PCOD9166035
Probable space group: P 21/M
;
_chemical_formula_sum "Si O2"
_cell_formula_units_Z 30
_cell_length_a 5.287723
_cell_length_b 19.721334
_cell_length_c 12.057574
_cell_angle_alpha 90.000000
_cell_angle_beta 81.551767
_cell_angle_gamma 90.000000
_cell_volume 1243.731517
_symmetry_space_group_name_H-M "P 21/M"
_symmetry_group_IT_number 11
_symmetry_cell_setting 'monoclinic'
loop_
_space_group_symop_operation_xyz
x,y,z
-x,1/2+y,-z
-x,-y,-z
x,1/2-y,z
loop_
_atom_site_type_symbol
_atom_site_label
_atom_site_fract_x
_atom_site_fract_y
_atom_site_fract_z
Si Si1 0.607695 0.250000 0.654209
Si Si2 0.509167 0.441423 0.157590
Si Si3 0.247950 0.363023 0.757773
Si Si4 0.180150 0.673785 0.778177
Si Si5 0.731269 0.826565 0.629517
Si Si6 0.445176 0.981529 0.376732
Si Si7 0.066139 0.635105 0.419546
Si Si8 0.794044 0.559200 0.029410
O O1 0.477097 0.309984 0.740952
O O2 0.717256 0.189478 0.563028
O O3 0.748323 0.389634 0.147439
O O4 0.422502 0.457958 0.288736
O O5 0.569408 0.516026 0.104954
O O6 0.310943 0.413624 0.080067
O O7 0.337664 0.431365 0.687307
O O8 0.141833 0.383913 0.884130
O O9 0.039371 0.332474 0.687568
O O10 0.167124 0.750000 0.828957
O O11 0.928792 0.664479 0.719567
O O12 0.438265 0.672531 0.686358
O O13 0.774564 0.750000 0.583695
O O14 0.841533 0.870593 0.522663
O O15 0.190478 0.937048 0.391260
O O16 0.500000 0.000000 0.500000
O O17 0.000000 0.500000 0.000000
#
# Coordination Sequence:
#
# PCOD9166035 Si02
#       8
#     2   4   4   4   4   4   4   4
#     4  10  22  38  62  86 132 160 218 268 340 390
#     4  10  22  41  66  90 126 169 214 272 332 391
#     4  10  23  39  62  94 125 166 221 272 330 401
#     4  10  23  41  63  94 130 170 222 268 324 400
#     4  10  22  36  61  91 131 179 214 254 325 403
#     4  10  22  38  58  94 132 163 213 269 329 393
#     4  11  21  35  60  90 127 174 209 264 326 394
#     4  10  22  43  68  90 120 172 224 273 335 399
#
# _framework density 24.12096
#
# number of rings (size 3 to 8) (size 9 to 14) (size 15 to 20)
#    0.000    1.867    0.667    2.000    7.467    1.600 
#    1.200    0.000    1.467    0.000    0.000    0.000 
#    0.000    0.000    0.000    0.000    0.000    0.000 
#
# Total GULP energy -167034.354434 kJ/mol
# GULP energy per Si atom -5567.811814 kJ/mol
# Density = 2.406606 g / cm^3
# Si number density = 24.120960 Si / 1000 Ang^3
#
#
#
# Elastic Constant Matrix: (Units=GPa)
#
#
# Indices 1 2 3 4 5 6 
#
# 1 63.3327 -7.3474 27.4508 0.0000 -0.2962 0.0000
# 2 -7.3474 87.8300 31.2138 0.0000 3.7001 0.0000
# 3 27.4508 31.2138 126.1672 0.0000 14.4210 0.0000
# 4 0.0000 0.0000 0.0000 27.1904 0.0000 -6.7513
# 5 -0.2962 3.7001 14.4210 0.0000 30.3394 0.0000
# 6 0.0000 0.0000 0.0000 -6.7513 0.0000 -5.1239
#
#
#
# Elastic Compliance Matrix: (Units=1/GPa)
#
#
# Indices 1 2 3 4 5 6 
#
# 1 0.018362 0.003237 -0.005046 0.000000 0.002183 0.000000
# 2 0.003237 0.013054 -0.003971 0.000000 0.000327 0.000000
# 3 -0.005046 -0.003971 0.010529 0.000000 -0.004569 0.000000
# 4 0.000000 0.000000 0.000000 0.027712 0.000000 -0.036513
# 5 0.002183 0.000327 -0.004569 0.000000 0.035114 0.000000
# 6 0.000000 0.000000 0.000000 -0.036513 0.000000 -0.147054
#
#
# Mechanical properties :
#
#
# Convention : Reuss Voigt Hill
#
# Bulk Modulus (GPa) = 32.91017 42.21824 37.56420
# Shear Modulus (GPa) = -242.77309 25.54870 -108.61219
#
# Velocity S-wave (km/s) = -10.04324 3.25805 -6.71758
# Velocity P-wave (km/s) = 10.99161 5.62974 6.67539
#
# Compressibility (1/GPa) = 0.03038575
#
# Stress axis : x y z
#
# Youngs Moduli (GPa) = 54.45921 76.60471 94.97963
#
# Poissons Ratio (x) = -0.24799 0.47923
# Poissons Ratio (y) = -0.17630 0.37720
# Poissons Ratio (z) = 0.27478 0.30422
#
# Static dielectric constant tensor:
#      x y z
#    x 2.045170 0.000000 0.018120 
#    y 0.000000 1.997930 0.000000 
#    z 0.018120 0.000000 2.033550 
# 
# From -- ./inp_files/30008.got.cif
#   From: 2010.05.17/outbox.cif.g08.bks.cpg/sg11_16_cif.got.tgz:30008.got - 2010.06.03 12:22:45.
