data_PCOD9166949
_publ_section_title
;
Structure prediction by ZEFSAII (Michael W. Deem and Ramdas Pophale) SiO2 
 PCOD9166949
Probable space group: P 21/M
;
_chemical_formula_sum "Si O2"
_cell_formula_units_Z 20
_cell_length_a 9.085249
_cell_length_b 9.839466
_cell_length_c 13.122441
_cell_angle_alpha 90.000000
_cell_angle_beta 133.816002
_cell_angle_gamma 90.000000
_cell_volume 846.446652
_symmetry_space_group_name_H-M "P 21/M"
_symmetry_group_IT_number 11
_symmetry_cell_setting 'monoclinic'
loop_
_space_group_symop_operation_xyz
x,y,z
-x,1/2+y,-z
-x,-y,-z
x,1/2-y,z
loop_
_atom_site_type_symbol
_atom_site_label
_atom_site_fract_x
_atom_site_fract_y
_atom_site_fract_z
Si Si1 0.222481 0.250000 0.083148
Si Si2 0.213770 0.049374 0.691969
Si Si3 0.670168 0.549374 0.691969
Si Si4 0.663075 0.250000 0.195095
Si Si5 0.227115 0.750000 0.195095
Si Si6 0.783043 0.000000 0.533043
Si Si7 0.556186 0.250000 0.916853
O O1 0.232118 0.122044 0.164499
O O2 0.424736 0.250000 0.112086
O O3 0.017322 0.250000 0.920747
O O4 0.240272 0.887383 0.715508
O O5 0.993313 0.082998 0.632054
O O6 0.216158 0.081782 0.572921
O O7 0.403120 0.122044 0.835501
O O8 0.690745 0.387383 0.715508
O O9 0.429684 0.581782 0.572921
O O10 0.770795 0.582998 0.632054
O O11 0.675828 0.250000 0.079253
O O12 0.299435 0.750000 0.112086
#
# Coordination Sequence:
#
# PCOD9166949 Si02
#       7
#     2   4   4   2   2   4   2
#     4  12  26  45  67  96 132 173 220 268 318 387
#     4  11  25  44  69  98 132 168 220 265 329 381
#     4  11  25  44  69  98 132 168 220 265 329 381
#     4  12  26  45  67  96 132 173 220 268 318 387
#     4  12  26  45  67  96 132 173 220 268 318 387
#     4  10  24  44  70  98 132 172 210 274 324 390
#     4  12  26  45  67  96 132 173 220 268 318 387
#
# _framework density 23.628188000000002
#
# number of rings (size 3 to 8) (size 9 to 14) (size 15 to 20)
#    0.000    0.800    4.000    1.200    5.600    9.600 
#    0.000    0.000    0.000    0.000    0.000    0.000 
#    0.000    0.000    0.000    0.000    0.000    0.000 
#
# Total GULP energy -111980.769879 kJ/mol
# GULP energy per Si atom -5599.038494 kJ/mol
# Density = 2.357441 g / cm^3
# Si number density = 23.628188 Si / 1000 Ang^3
#
#
#
# Elastic Constant Matrix: (Units=GPa)
#
#
# Indices 1 2 3 4 5 6 
#
# 1 144.2687 6.1619 35.5294 0.0000 -0.5246 0.0000
# 2 6.1619 143.3555 20.7479 0.0000 1.0153 0.0000
# 3 35.5294 20.7479 73.5802 0.0000 -4.3958 0.0000
# 4 0.0000 0.0000 0.0000 12.8530 0.0000 0.3322
# 5 -0.5246 1.0153 -4.3958 0.0000 50.3326 0.0000
# 6 0.0000 0.0000 0.0000 0.3322 0.0000 8.0795
#
#
#
# Elastic Compliance Matrix: (Units=1/GPa)
#
#
# Indices 1 2 3 4 5 6 
#
# 1 0.007877 0.000225 -0.003883 0.000000 -0.000262 0.000000
# 2 0.000225 0.007284 -0.002183 0.000000 -0.000335 0.000000
# 3 -0.003883 -0.002183 0.016166 0.000000 0.001415 0.000000
# 4 0.000000 0.000000 0.000000 0.077885 0.000000 -0.003203
# 5 -0.000262 -0.000335 0.001415 0.000000 0.019995 0.000000
# 6 0.000000 0.000000 0.000000 -0.003203 0.000000 0.123901
#
#
# Mechanical properties :
#
#
# Convention : Reuss Voigt Hill
#
# Bulk Modulus (GPa) = 50.90006 54.00918 52.45462
# Shear Modulus (GPa) = 18.42717 34.17072 26.29895
#
# Velocity S-wave (km/s) = 2.79566 3.80700 3.33983
# Velocity P-wave (km/s) = 5.65772 6.49861 6.09269
#
# Compressibility (1/GPa) = 0.01964634
#
# Stress axis : x y z
#
# Youngs Moduli (GPa) = 126.94947 137.28212 61.86011
#
# Poissons Ratio (x) = -0.03092 0.24019
# Poissons Ratio (y) = -0.02859 0.13503
# Poissons Ratio (z) = 0.49291 0.29966
#
# Static dielectric constant tensor:
#      x y z
#    x 1.883620 0.000000 -0.004040 
#    y 0.000000 1.893090 0.000000 
#    z -0.004040 0.000000 1.825610 
# 
# From -- ./inp_files/31250.got.cif
#   From: 2010.05.17/outbox.cif.g08.bks.cpg/sg11_16_cif.got.tgz:31250.got - 2010.06.03 12:22:45.
