data_PCOD9166638
_publ_section_title
;
Structure prediction by ZEFSAII (Michael W. Deem and Ramdas Pophale) SiO2 
 PCOD9166638
Probable space group: P 21/M
;
_chemical_formula_sum "Si O2"
_cell_formula_units_Z 20
_cell_length_a 5.602108
_cell_length_b 25.939281
_cell_length_c 6.217215
_cell_angle_alpha 90.000000
_cell_angle_beta 78.299953
_cell_angle_gamma 90.000000
_cell_volume 884.681091
_symmetry_space_group_name_H-M "P 21/M"
_symmetry_group_IT_number 11
_symmetry_cell_setting 'monoclinic'
loop_
_space_group_symop_operation_xyz
x,y,z
-x,1/2+y,-z
-x,-y,-z
x,1/2-y,z
loop_
_atom_site_type_symbol
_atom_site_label
_atom_site_fract_x
_atom_site_fract_y
_atom_site_fract_z
Si Si1 0.972333 0.453783 0.330012
Si Si2 0.547079 0.189539 0.236445
Si Si3 0.101207 0.310206 0.978039
Si Si4 0.734063 0.883945 0.418402
Si Si5 0.686545 0.519809 0.134764
O O1 0.077897 0.405600 0.436781
O O2 0.000000 0.500000 0.500000
O O3 0.711283 0.469400 0.284642
O O4 0.109311 0.460065 0.074646
O O5 0.525359 0.250000 0.304547
O O6 0.337000 0.181474 0.091054
O O7 0.474729 0.149708 0.434014
O O8 0.829419 0.180923 0.122037
O O9 0.110053 0.250000 0.914783
O O10 0.127234 0.346539 0.769407
O O11 0.637258 0.931645 0.294726
O O12 0.500000 0.500000 0.000000
#
# Coordination Sequence:
#
# PCOD9166638 Si02
#       5
#     4   4   4   4   4
#     4   9  21  43  62  91 131 175 224 281 342 405
#     4  10  23  46  71 102 143 183 227 287 351 419
#     4  10  23  46  71 104 145 180 228 291 350 418
#     4  11  22  43  68 107 133 183 238 281 350 422
#     4  10  22  45  65  93 136 180 229 293 347 405
#
# _framework density 22.607016000000002
#
# number of rings (size 3 to 8) (size 9 to 14) (size 15 to 20)
#    0.000    2.000    0.000    1.800    0.000    4.800 
#   46.800    6.000    0.000    0.000    0.000    0.000 
#    0.000    0.000    0.000    0.000    0.000    0.000 
#
# Total GULP energy -111450.323073 kJ/mol
# GULP energy per Si atom -5572.516154 kJ/mol
# Density = 2.255556 g / cm^3
# Si number density = 22.607016 Si / 1000 Ang^3
#
#
#
# Elastic Constant Matrix: (Units=GPa)
#
#
# Indices 1 2 3 4 5 6 
#
# 1 102.7897 52.8643 49.5139 0.0000 13.8011 0.0000
# 2 52.8643 94.0364 78.5190 0.0000 -13.9586 0.0000
# 3 49.5139 78.5190 121.1759 0.0000 4.0796 0.0000
# 4 0.0000 0.0000 0.0000 47.5493 0.0000 -15.6822
# 5 13.8011 -13.9586 4.0796 0.0000 47.6365 0.0000
# 6 0.0000 0.0000 0.0000 -15.6822 0.0000 -7.3865
#
#
#
# Elastic Compliance Matrix: (Units=1/GPa)
#
#
# Indices 1 2 3 4 5 6 
#
# 1 0.015950 -0.010684 0.000668 0.000000 -0.007809 0.000000
# 2 -0.010684 0.033926 -0.018109 0.000000 0.014587 0.000000
# 3 0.000668 -0.018109 0.019956 0.000000 -0.007209 0.000000
# 4 0.000000 0.000000 0.000000 0.012369 0.000000 -0.026262
# 5 -0.007809 0.014587 -0.007209 0.000000 0.028146 0.000000
# 6 0.000000 0.000000 0.000000 -0.026262 0.000000 -0.079627
#
#
# Mechanical properties :
#
#
# Convention : Reuss Voigt Hill
#
# Bulk Modulus (GPa) = 73.61780 75.53293 74.57537
# Shear Modulus (GPa) = 54.64630 26.70018 40.67324
#
# Velocity S-wave (km/s) = 4.92186 3.44038 4.24623
# Velocity P-wave (km/s) = 8.05819 7.01893 7.55645
#
# Compressibility (1/GPa) = 0.01358367
#
# Stress axis : x y z
#
# Youngs Moduli (GPa) = 62.69764 29.47578 50.10958
#
# Poissons Ratio (x) = 0.31490 -0.03349
# Poissons Ratio (y) = 0.66983 0.90743
# Poissons Ratio (z) = -0.04190 0.53378
#
# Static dielectric constant tensor:
#      x y z
#    x 5.494570 0.000000 -2.241040 
#    y 0.000000 1.850010 0.000000 
#    z -2.241040 0.000000 3.195200 
# 
# From -- ./inp_files/793.got.cif
#   From: 2010.05.17/outbox.cif.g08.bks.cpg/sg11_1_cif.got.tgz:793.got - 2010.06.03 12:22:45.
