data_PCOD9166963
_publ_section_title
;
Structure prediction by ZEFSAII (Michael W. Deem and Ramdas Pophale) SiO2 
 PCOD9166963
Probable space group: P 21/M
;
_chemical_formula_sum "Si O2"
_cell_formula_units_Z 20
_cell_length_a 5.708772
_cell_length_b 20.755790
_cell_length_c 7.556676
_cell_angle_alpha 90.000000
_cell_angle_beta 113.047074
_cell_angle_gamma 90.000000
_cell_volume 823.924124
_symmetry_space_group_name_H-M "P 21/M"
_symmetry_group_IT_number 11
_symmetry_cell_setting 'monoclinic'
loop_
_space_group_symop_operation_xyz
x,y,z
-x,1/2+y,-z
-x,-y,-z
x,1/2-y,z
loop_
_atom_site_type_symbol
_atom_site_label
_atom_site_fract_x
_atom_site_fract_y
_atom_site_fract_z
Si Si1 0.581628 0.623361 0.653314
Si Si2 0.756189 0.482282 0.313388
Si Si3 0.299861 0.750000 0.501540
Si Si4 0.554505 0.882711 0.245189
Si Si5 0.686342 0.750000 0.271264
Si Si6 0.947092 0.424813 0.025978
O O1 0.444270 0.554373 0.624964
O O2 0.398106 0.684432 0.622787
O O3 0.673127 0.626195 0.476012
O O4 0.807924 0.617465 0.859595
O O5 0.656991 0.549549 0.204866
O O6 0.809541 0.431865 0.174613
O O7 0.000000 0.500000 0.500000
O O8 0.470005 0.750000 0.367886
O O9 0.992106 0.750000 0.398300
O O10 0.624280 0.818179 0.162729
O O11 0.250466 0.892841 0.167061
O O12 0.000000 0.500000 0.000000
#
# Coordination Sequence:
#
# PCOD9166963 Si02
#       6
#     4   4   2   4   2   4
#     4  11  24  44  67  98 134 185 226 293 348 421
#     4  12  22  40  69  98 134 181 230 294 348 411
#     4  10  24  45  73  98 143 181 243 282 355 425
#     4  11  23  44  69  97 140 178 236 287 354 418
#     4  10  24  47  69 104 135 191 229 292 349 427
#     4  12  25  41  66 105 139 175 240 290 354 417
#
# _framework density 24.274080000000001
#
# number of rings (size 3 to 8) (size 9 to 14) (size 15 to 20)
#    0.000    0.800    4.000    3.600    2.800    2.400 
#    0.000    1.000    0.000    0.000    0.000    0.000 
#    0.000    0.000    0.000    0.000    0.000    0.000 
#
# Total GULP energy -111754.861013 kJ/mol
# GULP energy per Si atom -5587.743051 kJ/mol
# Density = 2.421883 g / cm^3
# Si number density = 24.274080 Si / 1000 Ang^3
#
#
#
# Elastic Constant Matrix: (Units=GPa)
#
#
# Indices 1 2 3 4 5 6 
#
# 1 79.4062 42.3385 26.0878 0.0000 25.4699 0.0000
# 2 42.3385 181.1251 20.5110 0.0000 25.3017 0.0000
# 3 26.0878 20.5110 89.8135 0.0000 32.2421 0.0000
# 4 0.0000 0.0000 0.0000 24.0954 0.0000 15.9481
# 5 25.4699 25.3017 32.2421 0.0000 58.9675 0.0000
# 6 0.0000 0.0000 0.0000 15.9481 0.0000 40.9961
#
#
#
# Elastic Compliance Matrix: (Units=1/GPa)
#
#
# Indices 1 2 3 4 5 6 
#
# 1 0.016407 -0.002929 -0.002493 0.000000 -0.004467 0.000000
# 2 -0.002929 0.006417 -0.000100 0.000000 -0.001434 0.000000
# 3 -0.002493 -0.000100 0.014283 0.000000 -0.006690 0.000000
# 4 0.000000 0.000000 0.000000 0.055893 0.000000 -0.021743
# 5 -0.004467 -0.001434 -0.006690 0.000000 0.023161 0.000000
# 6 0.000000 0.000000 0.000000 -0.021743 0.000000 0.032851
#
#
# Mechanical properties :
#
#
# Convention : Reuss Voigt Hill
#
# Bulk Modulus (GPa) = 38.36942 58.69106 48.53024
# Shear Modulus (GPa) = 29.63077 42.23900 35.93488
#
# Velocity S-wave (km/s) = 3.49761 4.17596 3.85175
# Velocity P-wave (km/s) = 5.67028 6.89075 6.31009
#
# Compressibility (1/GPa) = 0.02606242
#
# Stress axis : x y z
#
# Youngs Moduli (GPa) = 60.94979 155.82905 70.01455
#
# Poissons Ratio (x) = 0.45640 0.17457
# Poissons Ratio (y) = 0.17851 0.00701
# Poissons Ratio (z) = 0.15197 0.01560
#
# Static dielectric constant tensor:
#      x y z
#    x 2.119020 0.000000 -0.019080 
#    y 0.000000 1.956500 0.000000 
#    z -0.019080 0.000000 1.942110 
# 
# From -- ./inp_files/2142.got.cif
#   From: 2010.05.17/outbox.cif.g08.bks.cpg/sg11_2_cif.got.tgz:2142.got - 2010.06.03 12:22:45.
