data_PCOD9166684
_publ_section_title
;
Structure prediction by ZEFSAII (Michael W. Deem and Ramdas Pophale) SiO2 
 PCOD9166684
Probable space group: P 21/M
;
_chemical_formula_sum "Si O2"
_cell_formula_units_Z 28
_cell_length_a 9.192208
_cell_length_b 8.797057
_cell_length_c 29.592557
_cell_angle_alpha 90.000000
_cell_angle_beta 140.832777
_cell_angle_gamma 90.000000
_cell_volume 1511.374719
_symmetry_space_group_name_H-M "P 21/M"
_symmetry_group_IT_number 11
_symmetry_cell_setting 'monoclinic'
loop_
_space_group_symop_operation_xyz
x,y,z
-x,1/2+y,-z
-x,-y,-z
x,1/2-y,z
loop_
_atom_site_type_symbol
_atom_site_label
_atom_site_fract_x
_atom_site_fract_y
_atom_site_fract_z
Si Si1 0.570401 0.932694 0.793806
Si Si2 0.881573 0.432174 0.789575
Si Si3 0.331973 0.931664 0.497782
Si Si4 0.042196 0.932253 0.649020
Si Si5 0.587601 0.932940 0.068111
Si Si6 0.747676 0.432947 0.930565
Si Si7 0.716562 0.567227 0.655940
O O1 0.581989 0.750000 0.799607
O O2 0.306924 0.975982 0.718976
O O3 0.736602 0.991623 0.794541
O O4 0.647978 0.004179 0.859769
O O5 0.867910 0.250000 0.790133
O O6 0.783477 0.485176 0.717871
O O7 0.149448 0.478145 0.858530
O O8 0.331748 0.750000 0.494067
O O9 0.461134 0.971019 0.575574
O O10 0.500000 0.000000 0.500000
O O11 0.083349 0.995142 0.424524
O O12 0.027610 0.750000 0.641103
O O13 0.897064 0.972903 0.659291
O O14 0.581545 0.750000 0.063642
O O15 0.420597 0.978340 0.068888
O O16 0.500000 0.000000 0.000000
O O17 0.759317 0.250000 0.931653
O O18 0.000000 0.500000 0.000000
O O19 0.728085 0.750000 0.665011
#
# Coordination Sequence:
#
# PCOD9166684 Si02
#       7
#     4   4   4   4   4   4   4
#     4  11  23  39  58  82 113 149 186 230 281 331
#     4  11  23  38  56  81 111 146 187 229 273 328
#     4   9  17  30  52  81 112 144 183 230 280 333
#     4   9  19  35  56  82 111 144 186 232 281 334
#     4  10  23  40  59  84 113 144 181 224 270 321
#     4  11  23  40  61  87 116 147 185 228 275 329
#     4   9  18  34  55  81 110 142 181 227 277 330
#
# _framework density 18.526181000000001
#
# number of rings (size 3 to 8) (size 9 to 14) (size 15 to 20)
#    0.000    2.000    0.000    4.286    0.000    8.571 
#    0.000    0.714    0.000    0.000    0.000    0.000 
#    0.000    0.000    0.000    0.000    0.000    0.000 
#
# Total GULP energy -156356.436508 kJ/mol
# GULP energy per Si atom -5584.158447 kJ/mol
# Density = 1.848401 g / cm^3
# Si number density = 18.526181 Si / 1000 Ang^3
#
#
#
# Elastic Constant Matrix: (Units=GPa)
#
#
# Indices 1 2 3 4 5 6 
#
# 1 133.5582 44.9646 102.1347 0.0000 5.8135 0.0000
# 2 44.9646 42.7764 63.1744 0.0000 3.6637 0.0000
# 3 102.1347 63.1744 218.6398 0.0000 7.0349 0.0000
# 4 0.0000 0.0000 0.0000 40.9936 0.0000 -3.3248
# 5 5.8135 3.6637 7.0349 0.0000 29.9956 0.0000
# 6 0.0000 0.0000 0.0000 -3.3248 0.0000 28.0802
#
#
#
# Elastic Compliance Matrix: (Units=1/GPa)
#
#
# Indices 1 2 3 4 5 6 
#
# 1 0.013152 -0.008244 -0.003740 0.000000 -0.000665 0.000000
# 2 -0.008244 0.046095 -0.009409 0.000000 -0.001826 0.000000
# 3 -0.003740 -0.009409 0.009048 0.000000 -0.000248 0.000000
# 4 0.000000 0.000000 0.000000 0.024631 0.000000 0.002916
# 5 -0.000665 -0.001826 -0.000248 0.000000 0.033748 0.000000
# 6 0.000000 0.000000 0.000000 0.002916 0.000000 0.035958
#
#
# Mechanical properties :
#
#
# Convention : Reuss Voigt Hill
#
# Bulk Modulus (GPa) = 39.20318 90.61355 64.90836
# Shear Modulus (GPa) = 23.37311 32.12726 27.75018
#
# Velocity S-wave (km/s) = 3.55579 4.16884 3.87446
# Velocity P-wave (km/s) = 6.16969 8.49644 7.42478
#
# Compressibility (1/GPa) = 0.02550814
#
# Stress axis : x y z
#
# Youngs Moduli (GPa) = 76.03319 21.69423 110.52522
#
# Poissons Ratio (x) = 0.17884 0.41341
# Poissons Ratio (y) = 0.62681 1.03994
# Poissons Ratio (z) = 0.28440 0.20412
#
# Static dielectric constant tensor:
#      x y z
#    x 1.626000 0.000000 0.022880 
#    y 0.000000 1.623110 0.000000 
#    z 0.022880 0.000000 1.639590 
# 
# From -- ./inp_files/28335.got.cif
#   From: 2010.05.17/outbox.cif.g08.bks.cpg/sg11_15_cif.got.tgz:28335.got - 2010.06.03 12:22:45.
