data_PCOD9166501
_publ_section_title
;
Structure prediction by ZEFSAII (Michael W. Deem and Ramdas Pophale) SiO2 
 PCOD9166501
Probable space group: P 21/M
;
_chemical_formula_sum "Si O2"
_cell_formula_units_Z 30
_cell_length_a 14.834443
_cell_length_b 8.336653
_cell_length_c 12.333171
_cell_angle_alpha 90.000000
_cell_angle_beta 91.350030
_cell_angle_gamma 90.000000
_cell_volume 1524.814992
_symmetry_space_group_name_H-M "P 21/M"
_symmetry_group_IT_number 11
_symmetry_cell_setting 'monoclinic'
loop_
_space_group_symop_operation_xyz
x,y,z
-x,1/2+y,-z
-x,-y,-z
x,1/2-y,z
loop_
_atom_site_type_symbol
_atom_site_label
_atom_site_fract_x
_atom_site_fract_y
_atom_site_fract_z
Si Si1 0.339730 0.056640 0.385457
Si Si2 0.305446 0.934777 0.984560
Si Si3 0.500000 0.500000 0.000000
Si Si4 0.791971 0.560838 0.808639
Si Si5 0.983156 0.062530 0.877225
Si Si6 0.504577 0.557911 0.246810
Si Si7 0.688515 0.943930 0.367993
Si Si8 0.163802 0.937741 0.786101
O O1 0.350060 0.250000 0.386627
O O2 0.254576 0.017840 0.306290
O O3 0.324965 0.003588 0.508400
O O4 0.428225 0.983914 0.332385
O O5 0.341322 0.750000 0.982865
O O6 0.231814 0.958059 0.889709
O O7 0.393830 0.039366 0.969795
O O8 0.258095 0.966396 0.097004
O O9 0.519999 0.517023 0.869523
O O10 0.777742 0.750000 0.826855
O O11 0.897387 0.523683 0.821972
O O12 0.962764 0.250000 0.883868
O O13 0.073180 0.032299 0.810726
O O14 0.000000 0.000000 0.000000
O O15 0.505601 0.750000 0.230733
O O16 0.601511 0.504106 0.295351
O O17 0.690570 0.750000 0.365923
O O18 0.779501 0.007323 0.316029
O O19 0.141499 0.750000 0.778109
#
# Coordination Sequence:
#
# PCOD9166501 Si02
#       8
#     4   4   2   4   4   4   4   4
#     4  10  23  41  62  86 120 163 209 258 303 355
#     4  11  23  38  58  86 125 166 201 247 305 362
#     4  12  22  36  56  92 130 162 198 244 302 362
#     4  11  23  39  62  91 121 159 203 251 307 366
#     4  12  24  40  64  94 126 159 195 245 305 371
#     4  11  23  37  60  89 122 164 207 251 303 365
#     4  10  22  42  61  85 121 164 211 256 303 357
#     4  11  23  40  62  91 122 158 204 253 303 362
#
# _framework density 19.674517999999999
#
# number of rings (size 3 to 8) (size 9 to 14) (size 15 to 20)
#    0.000    1.067    4.000    2.800    0.000    4.267 
#    0.000    0.667    0.000    0.000    0.000    0.000 
#    0.000    0.000    0.000    0.000    0.000    0.000 
#
# Total GULP energy -167239.407309 kJ/mol
# GULP energy per Si atom -5574.646910 kJ/mol
# Density = 1.962974 g / cm^3
# Si number density = 19.674518 Si / 1000 Ang^3
#
#
#
# Elastic Constant Matrix: (Units=GPa)
#
#
# Indices 1 2 3 4 5 6 
#
# 1 88.7868 -0.9382 18.3175 0.0000 -12.2024 0.0000
# 2 -0.9382 22.9474 5.8663 0.0000 2.0364 0.0000
# 3 18.3175 5.8663 117.8995 0.0000 -19.7881 0.0000
# 4 0.0000 0.0000 0.0000 13.4785 0.0000 -3.6455
# 5 -12.2024 2.0364 -19.7881 0.0000 25.6691 0.0000
# 6 0.0000 0.0000 0.0000 -3.6455 0.0000 -8.0977
#
#
#
# Elastic Compliance Matrix: (Units=1/GPa)
#
#
# Indices 1 2 3 4 5 6 
#
# 1 0.012166 0.000337 -0.001081 0.000000 0.004924 0.000000
# 2 0.000337 0.044959 -0.003286 0.000000 -0.005940 0.000000
# 3 -0.001081 -0.003286 0.010074 0.000000 0.007513 0.000000
# 4 0.000000 0.000000 0.000000 0.066139 0.000000 -0.029775
# 5 0.004924 -0.005940 0.007513 0.000000 0.047561 0.000000
# 6 0.000000 0.000000 0.000000 -0.029775 0.000000 -0.110088
#
#
# Mechanical properties :
#
#
# Convention : Reuss Voigt Hill
#
# Bulk Modulus (GPa) = 16.90933 30.68056 23.79494
# Shear Modulus (GPa) = 50.71748 19.96918 35.34333
#
# Velocity S-wave (km/s) = 5.08274 3.18933 4.24300
# Velocity P-wave (km/s) = 6.56192 5.40281 6.01037
#
# Compressibility (1/GPa) = 0.05913895
#
# Stress axis : x y z
#
# Youngs Moduli (GPa) = 82.19556 22.24246 99.26338
#
# Poissons Ratio (x) = -0.00749 0.10726
# Poissons Ratio (y) = -0.02767 0.32621
# Poissons Ratio (z) = 0.08882 0.07310
#
# Static dielectric constant tensor:
#      x y z
#    x 1.660360 0.000000 0.014500 
#    y 0.000000 1.730290 0.000000 
#    z 0.014500 0.000000 1.665620 
# 
# From -- ./inp_files/37605.got.cif
#   From: 2010.05.17/outbox.cif.g08.bks.cpg/sg11_19_cif.got.tgz:37605.got - 2010.06.03 12:22:45.
