data_PCOD9166552
_publ_section_title
;
Structure prediction by ZEFSAII (Michael W. Deem and Ramdas Pophale) SiO2 
 PCOD9166552
Probable space group: P 21/M
;
_chemical_formula_sum "Si O2"
_cell_formula_units_Z 30
_cell_length_a 10.868733
_cell_length_b 8.542901
_cell_length_c 14.063605
_cell_angle_alpha 90.000000
_cell_angle_beta 80.192851
_cell_angle_gamma 90.000000
_cell_volume 1286.730600
_symmetry_space_group_name_H-M "P 21/M"
_symmetry_group_IT_number 11
_symmetry_cell_setting 'monoclinic'
loop_
_space_group_symop_operation_xyz
x,y,z
-x,1/2+y,-z
-x,-y,-z
x,1/2-y,z
loop_
_atom_site_type_symbol
_atom_site_label
_atom_site_fract_x
_atom_site_fract_y
_atom_site_fract_z
Si Si1 0.190947 0.077458 0.721038
Si Si2 0.523394 0.060759 0.889427
Si Si3 0.028654 0.946172 0.405633
Si Si4 0.148402 0.750000 0.501465
Si Si5 0.789365 0.437273 0.773528
Si Si6 0.623569 0.075554 0.440525
Si Si7 0.272341 0.570056 0.887593
Si Si8 0.897655 0.931703 0.942639
O O1 0.197140 0.250000 0.763571
O O2 0.079908 0.074311 0.659543
O O3 0.314576 0.036322 0.645235
O O4 0.185195 0.954592 0.807213
O O5 0.519805 0.250000 0.890386
O O6 0.653828 0.005648 0.826036
O O7 0.409910 0.988328 0.844528
O O8 0.500000 0.000000 0.000000
O O9 0.082576 0.750000 0.401439
O O10 0.150717 0.006697 0.330653
O O11 0.963830 0.102743 0.469388
O O12 0.260301 0.614955 0.503288
O O13 0.775953 0.250000 0.770319
O O14 0.884068 0.477118 0.846437
O O15 0.595078 0.250000 0.404228
O O16 0.500000 0.000000 0.500000
O O17 0.271035 0.750000 0.918170
O O18 0.226939 0.463231 0.980057
O O19 0.917522 0.750000 0.922544
O O20 0.000000 0.000000 0.000000
#
# Coordination Sequence:
#
# PCOD9166552 Si02
#       8
#     4   4   4   2   4   4   4   4
#     4  12  24  41  70 102 139 189 238 299 372 442
#     4  11  23  43  73 104 146 191 242 302 366 437
#     4  12  23  46  72 104 144 188 241 304 365 439
#     4  10  22  42  72 100 142 190 236 310 360 436
#     4  11  24  43  73 103 139 191 242 295 366 434
#     4  10  22  42  68  98 140 185 241 300 366 435
#     4  12  26  45  71 101 145 190 241 302 366 434
#     4  12  25  44  68 103 143 181 236 295 367 446
#
# _framework density 23.314905
#
# number of rings (size 3 to 8) (size 9 to 14) (size 15 to 20)
#    0.400    0.267    4.000    4.400    0.000    1.600 
#    1.200    0.000    0.000    0.000    0.000    0.000 
#    0.000    0.000    0.000    0.000    0.000    0.000 
#
# Total GULP energy -167133.241599 kJ/mol
# GULP energy per Si atom -5571.108053 kJ/mol
# Density = 2.326184 g / cm^3
# Si number density = 23.314905 Si / 1000 Ang^3
#
#
#
# Elastic Constant Matrix: (Units=GPa)
#
#
# Indices 1 2 3 4 5 6 
#
# 1 119.4130 30.9374 54.4404 0.0000 -14.8373 0.0000
# 2 30.9374 76.7001 11.7124 0.0000 -10.8591 0.0000
# 3 54.4404 11.7124 125.3131 0.0000 -17.0680 0.0000
# 4 0.0000 0.0000 0.0000 34.4869 0.0000 3.7497
# 5 -14.8373 -10.8591 -17.0680 0.0000 44.6365 0.0000
# 6 0.0000 0.0000 0.0000 3.7497 0.0000 42.6171
#
#
#
# Elastic Compliance Matrix: (Units=1/GPa)
#
#
# Indices 1 2 3 4 5 6 
#
# 1 0.011563 -0.003807 -0.004505 0.000000 0.001195 0.000000
# 2 -0.003807 0.014845 0.000618 0.000000 0.002582 0.000000
# 3 -0.004505 0.000618 0.010228 0.000000 0.002564 0.000000
# 4 0.000000 0.000000 0.000000 0.029277 0.000000 -0.002576
# 5 0.001195 0.002582 0.002564 0.000000 0.024409 0.000000
# 6 0.000000 0.000000 0.000000 -0.002576 0.000000 0.023691
#
#
# Mechanical properties :
#
#
# Convention : Reuss Voigt Hill
#
# Bulk Modulus (GPa) = 47.06138 57.28962 52.17550
# Shear Modulus (GPa) = 36.63472 39.30385 37.96929
#
# Velocity S-wave (km/s) = 3.96826 4.11028 4.03990
# Velocity P-wave (km/s) = 6.42068 6.86668 6.64742
#
# Compressibility (1/GPa) = 0.02124884
#
# Stress axis : x y z
#
# Youngs Moduli (GPa) = 86.48479 67.36492 97.76623
#
# Poissons Ratio (x) = 0.25645 0.44041
# Poissons Ratio (y) = 0.32923 -0.06043
# Poissons Ratio (z) = 0.38959 -0.04164
#
# Static dielectric constant tensor:
#      x y z
#    x 1.962180 0.000000 0.007510 
#    y 0.000000 1.902290 0.000000 
#    z 0.007510 0.000000 1.898390 
# 
# From -- ./inp_files/58649.got.cif
#   From: 2010.05.17/outbox.cif.g08.bks.cpg/sg11_30_cif.got.tgz:58649.got - 2010.06.03 12:22:45.
