data_PCOD9166259
_publ_section_title
;
Structure prediction by ZEFSAII (Michael W. Deem and Ramdas Pophale) SiO2 
 PCOD9166259
Probable space group: P 21/M
;
_chemical_formula_sum "Si O2"
_cell_formula_units_Z 28
_cell_length_a 30.845256
_cell_length_b 7.876294
_cell_length_c 10.454512
_cell_angle_alpha 90.000000
_cell_angle_beta 34.049224
_cell_angle_gamma 90.000000
_cell_volume 1422.094193
_symmetry_space_group_name_H-M "P 21/M"
_symmetry_group_IT_number 11
_symmetry_cell_setting 'monoclinic'
loop_
_space_group_symop_operation_xyz
x,y,z
-x,1/2+y,-z
-x,-y,-z
x,1/2-y,z
loop_
_atom_site_type_symbol
_atom_site_label
_atom_site_fract_x
_atom_site_fract_y
_atom_site_fract_z
Si Si1 0.164406 0.450152 0.831178
Si Si2 0.575146 0.546565 0.150294
Si Si3 0.757741 0.447104 0.100718
Si Si4 0.731864 0.541802 0.655183
Si Si5 0.002372 0.953798 0.844445
Si Si6 0.169008 0.448996 0.340297
Si Si7 0.404335 0.956027 0.604436
O O1 0.157890 0.250000 0.819255
O O2 0.197276 0.470598 0.892136
O O3 0.224447 0.518642 0.578579
O O4 0.077659 0.517935 0.022692
O O5 0.572061 0.750000 0.144225
O O6 0.598548 0.508319 0.239771
O O7 0.487297 0.482949 0.348198
O O8 0.643735 0.483026 0.891631
O O9 0.749388 0.250000 0.154472
O O10 0.671703 0.517905 0.283212
O O11 0.804511 0.462643 0.854177
O O12 0.730582 0.750000 0.656707
O O13 0.781821 0.490639 0.657216
O O14 0.007209 0.750000 0.820912
O O15 0.079084 0.027691 0.592584
O O16 0.000000 0.000000 0.000000
O O17 0.185960 0.250000 0.282282
O O18 0.403485 0.750000 0.603996
#
# Coordination Sequence:
#
# PCOD9166259 Si02
#       7
#     4   4   4   4   4   4   4
#     4  10  22  40  58  79 110 149 189 227 273 338
#     4   9  16  30  55  82 108 142 183 227 275 326
#     4  11  23  38  54  82 118 151 186 229 284 335
#     4   9  17  33  57  84 108 139 187 230 268 325
#     4  11  22  38  60  87 116 145 185 235 283 332
#     4  11  21  37  61  86 111 146 190 233 279 335
#     4   9  18  31  50  80 115 144 177 227 278 328
#
# _framework density 19.689271999999999
#
# number of rings (size 3 to 8) (size 9 to 14) (size 15 to 20)
#    0.000    2.000    2.857    1.286    0.000    2.286 
#    0.000    1.429    0.000    0.000    0.000    0.000 
#    0.000    0.000    0.000    0.000    0.000    0.000 
#
# Total GULP energy -156291.464003 kJ/mol
# GULP energy per Si atom -5581.838000 kJ/mol
# Density = 1.964446 g / cm^3
# Si number density = 19.689272 Si / 1000 Ang^3
#
#
#
# Elastic Constant Matrix: (Units=GPa)
#
#
# Indices 1 2 3 4 5 6 
#
# 1 106.3753 -14.5581 54.6497 0.0000 -16.3803 0.0000
# 2 -14.5581 18.8075 -9.7894 0.0000 -1.8557 0.0000
# 3 54.6497 -9.7894 125.9501 0.0000 -21.6592 0.0000
# 4 0.0000 0.0000 0.0000 17.9478 0.0000 0.6432
# 5 -16.3803 -1.8557 -21.6592 0.0000 34.1140 0.0000
# 6 0.0000 0.0000 0.0000 0.6432 0.0000 7.8599
#
#
#
# Elastic Compliance Matrix: (Units=1/GPa)
#
#
# Indices 1 2 3 4 5 6 
#
# 1 0.013506 0.008519 -0.004494 0.000000 0.004095 0.000000
# 2 0.008519 0.062081 0.002709 0.000000 0.009187 0.000000
# 3 -0.004494 0.002709 0.010950 0.000000 0.004942 0.000000
# 4 0.000000 0.000000 0.000000 0.055881 0.000000 -0.004573
# 5 0.004095 0.009187 0.004942 0.000000 0.034917 0.000000
# 6 0.000000 0.000000 0.000000 -0.004573 0.000000 0.127602
#
#
# Mechanical properties :
#
#
# Convention : Reuss Voigt Hill
#
# Bulk Modulus (GPa) = 9.99947 34.63746 22.31846
# Shear Modulus (GPa) = 15.39392 26.70638 21.05015
#
# Velocity S-wave (km/s) = 2.79918 3.68692 3.27328
# Velocity P-wave (km/s) = 3.94168 5.97953 5.06417
#
# Compressibility (1/GPa) = 0.10000535
#
# Stress axis : x y z
#
# Youngs Moduli (GPa) = 74.04179 16.10794 91.32559
#
# Poissons Ratio (x) = -0.13723 0.41040
# Poissons Ratio (y) = -0.63079 -0.24736
# Poissons Ratio (z) = 0.33273 -0.04363
#
# Static dielectric constant tensor:
#      x y z
#    x 1.666490 0.000000 -0.046400 
#    y 0.000000 1.714410 0.000000 
#    z -0.046400 0.000000 1.708570 
# 
# From -- ./inp_files/28400.got.cif
#   From: 2010.05.17/outbox.cif.g08.bks.cpg/sg11_15_cif.got.tgz:28400.got - 2010.06.03 12:22:45.
