data_PCOD9166779
_publ_section_title
;
Structure prediction by ZEFSAII (Michael W. Deem and Ramdas Pophale) SiO2 
 PCOD9166779
Probable space group: P 21/M
;
_chemical_formula_sum "Si O2"
_cell_formula_units_Z 26
_cell_length_a 10.726278
_cell_length_b 23.482295
_cell_length_c 7.482824
_cell_angle_alpha 90.000000
_cell_angle_beta 138.919104
_cell_angle_gamma 90.000000
_cell_volume 1238.518263
_symmetry_space_group_name_H-M "P 21/M"
_symmetry_group_IT_number 11
_symmetry_cell_setting 'monoclinic'
loop_
_space_group_symop_operation_xyz
x,y,z
-x,1/2+y,-z
-x,-y,-z
x,1/2-y,z
loop_
_atom_site_type_symbol
_atom_site_label
_atom_site_fract_x
_atom_site_fract_y
_atom_site_fract_z
Si Si1 0.246450 0.469451 0.314484
Si Si2 0.140562 0.542090 0.545883
Si Si3 0.055561 0.250000 0.014407
Si Si4 0.347413 0.940100 0.131545
Si Si5 0.968176 0.655001 0.438537
Si Si6 0.011384 0.629807 0.876444
Si Si7 0.762216 0.250000 0.366739
Si Si8 0.322394 0.250000 0.003650
O O1 0.209229 0.512657 0.439040
O O2 0.436418 0.436859 0.577883
O O3 0.273851 0.504022 0.160632
O O4 0.084967 0.422404 0.126356
O O5 0.000000 0.500000 0.500000
O O6 0.031737 0.601303 0.390434
O O7 0.302828 0.554560 0.872058
O O8 0.264741 0.250000 0.150354
O O9 0.893126 0.250000 0.686085
O O10 0.025003 0.191705 0.085735
O O11 0.229245 0.887296 0.082157
O O12 0.924358 0.629606 0.583894
O O13 0.793042 0.694340 0.190458
O O14 0.155061 0.695416 0.648608
O O15 0.540826 0.250000 0.178516
#
# Coordination Sequence:
#
# PCOD9166779 Si02
#       8
#     4   4   2   4   4   4   2   2
#     4  11  23  41  64  94 129 166 205 252 310 369
#     4  11  21  40  65  93 128 167 202 254 313 363
#     4  10  24  40  64  88 120 158 206 252 308 366
#     4  10  24  39  62  97 127 164 208 250 309 372
#     4   9  21  40  64  91 115 161 207 247 306 361
#     4  11  22  43  64  85 124 161 204 258 300 362
#     4  10  23  43  61  89 123 156 200 260 308 360
#     4  10  23  43  63  91 119 158 208 248 308 370
#
# _framework density 20.992826999999998
#
# number of rings (size 3 to 8) (size 9 to 14) (size 15 to 20)
#    0.000    1.846    3.077    1.846    4.308    3.692 
#    5.538    1.538    0.000    0.000    0.000    0.000 
#    0.000    0.000    0.000    0.000    0.000    0.000 
#
# Total GULP energy -145136.532608 kJ/mol
# GULP energy per Si atom -5582.174331 kJ/mol
# Density = 2.094505 g / cm^3
# Si number density = 20.992827 Si / 1000 Ang^3
#
#
#
# Elastic Constant Matrix: (Units=GPa)
#
#
# Indices 1 2 3 4 5 6 
#
# 1 75.5203 24.8048 30.4844 0.0000 5.3612 0.0000
# 2 24.8048 71.8894 3.2559 0.0000 8.2974 0.0000
# 3 30.4844 3.2559 62.6278 0.0000 3.4951 0.0000
# 4 0.0000 0.0000 0.0000 11.6866 0.0000 4.1688
# 5 5.3612 8.2974 3.4951 0.0000 41.3376 0.0000
# 6 0.0000 0.0000 0.0000 4.1688 0.0000 7.6193
#
#
#
# Elastic Compliance Matrix: (Units=1/GPa)
#
#
# Indices 1 2 3 4 5 6 
#
# 1 0.018819 -0.006038 -0.008819 0.000000 -0.000483 0.000000
# 2 -0.006038 0.016199 0.002245 0.000000 -0.002658 0.000000
# 3 -0.008819 0.002245 0.020200 0.000000 -0.001015 0.000000
# 4 0.000000 0.000000 0.000000 0.106318 0.000000 -0.058171
# 5 -0.000483 -0.002658 -0.001015 0.000000 0.024873 0.000000
# 6 0.000000 0.000000 0.000000 -0.058171 0.000000 0.163074
#
#
# Mechanical properties :
#
#
# Convention : Reuss Voigt Hill
#
# Bulk Modulus (GPa) = 33.34059 36.34751 34.84405
# Shear Modulus (GPa) = 12.99697 22.22818 17.61258
#
# Velocity S-wave (km/s) = 2.49090 3.25752 2.89966
# Velocity P-wave (km/s) = 4.91825 5.61253 5.27682
#
# Compressibility (1/GPa) = 0.02999347
#
# Stress axis : x y z
#
# Youngs Moduli (GPa) = 53.13773 61.73306 49.50462
#
# Poissons Ratio (x) = 0.37275 0.43660
# Poissons Ratio (y) = 0.32085 -0.11115
# Poissons Ratio (z) = 0.46864 -0.13861
#
# Static dielectric constant tensor:
#      x y z
#    x 1.793340 0.000000 -0.022180 
#    y 0.000000 2.029120 0.000000 
#    z -0.022180 0.000000 1.777000 
# 
# From -- ./inp_files/19479.got.cif
#   From: 2010.05.17/outbox.cif.g08.bks.cpg/sg11_10_cif.got.tgz:19479.got - 2010.06.03 12:22:45.
