data_PCOD9166125
_publ_section_title
;
Structure prediction by ZEFSAII (Michael W. Deem and Ramdas Pophale) SiO2 
 PCOD9166125
Probable space group: P 21/M
;
_chemical_formula_sum "Si O2"
_cell_formula_units_Z 24
_cell_length_a 5.052927
_cell_length_b 15.221911
_cell_length_c 12.605138
_cell_angle_alpha 90.000000
_cell_angle_beta 88.209391
_cell_angle_gamma 90.000000
_cell_volume 969.053350
_symmetry_space_group_name_H-M "P 21/M"
_symmetry_group_IT_number 11
_symmetry_cell_setting 'monoclinic'
loop_
_space_group_symop_operation_xyz
x,y,z
-x,1/2+y,-z
-x,-y,-z
x,1/2-y,z
loop_
_atom_site_type_symbol
_atom_site_label
_atom_site_fract_x
_atom_site_fract_y
_atom_site_fract_z
Si Si1 0.301372 0.750000 0.942187
Si Si2 0.212195 0.967370 0.361848
Si Si3 0.746422 0.462026 0.067027
Si Si4 0.221997 0.750000 0.554440
Si Si5 0.380287 0.393615 0.775576
Si Si6 0.699716 0.072388 0.399680
Si Si7 0.261557 0.250000 0.600334
Si Si8 0.218987 0.250000 0.940908
O O1 0.618956 0.750000 0.952095
O O2 0.094545 0.750000 0.044162
O O3 0.250662 0.855574 0.911894
O O4 0.409961 0.050780 0.362258
O O5 0.914972 0.998230 0.374475
O O6 0.313797 0.910359 0.262401
O O7 0.296382 0.923027 0.471555
O O8 0.726644 0.513317 0.179379
O O9 0.500000 0.500000 0.000000
O O10 0.000000 0.500000 0.000000
O O11 0.200291 0.666914 0.631246
O O12 0.502401 0.750000 0.488629
O O13 0.000491 0.750000 0.466561
O O14 0.274091 0.334275 0.678408
O O15 0.328418 0.332423 0.875809
#
# Coordination Sequence:
#
# PCOD9166125 Si02
#       8
#     2   4   4   2   4   4   2   2
#     4  12  22  47  66 103 132 181 227 270 340 420
#     4  10  22  38  61  89 127 166 217 257 327 394
#     4  12  25  44  70  97 139 184 221 277 350 411
#     4  12  22  43  62  97 129 170 221 280 336 382
#     4  11  24  43  65 105 132 174 219 286 339 392
#     4  10  22  39  60  88 127 172 207 262 327 398
#     4  11  26  36  66 101 133 160 226 291 332 384
#     4  11  24  40  72  99 136 161 228 287 342 398
#
# _framework density 24.766439999999999
#
# number of rings (size 3 to 8) (size 9 to 14) (size 15 to 20)
#    0.000    1.000    5.000    1.000    4.667    6.667 
#    0.000    1.667    0.000    0.000    0.000    0.000 
#    0.000    0.000    0.000    0.000    0.000    0.000 
#
# Total GULP energy -133847.345532 kJ/mol
# GULP energy per Si atom -5576.972730 kJ/mol
# Density = 2.471007 g / cm^3
# Si number density = 24.766440 Si / 1000 Ang^3
#
#
#
# Elastic Constant Matrix: (Units=GPa)
#
#
# Indices 1 2 3 4 5 6 
#
# 1 103.8953 17.0153 21.0888 0.0000 -11.0192 0.0000
# 2 17.0153 211.6712 15.9328 0.0000 -1.9317 0.0000
# 3 21.0888 15.9328 57.0115 0.0000 -12.9389 0.0000
# 4 0.0000 0.0000 0.0000 48.1548 0.0000 -3.9009
# 5 -11.0192 -1.9317 -12.9389 0.0000 38.3633 0.0000
# 6 0.0000 0.0000 0.0000 -3.9009 0.0000 16.9699
#
#
#
# Elastic Compliance Matrix: (Units=1/GPa)
#
#
# Indices 1 2 3 4 5 6 
#
# 1 0.010597 -0.000584 -0.003327 0.000000 0.001892 0.000000
# 2 -0.000584 0.004860 -0.001218 0.000000 -0.000334 0.000000
# 3 -0.003327 -0.001218 0.020446 0.000000 0.005879 0.000000
# 4 0.000000 0.000000 0.000000 0.021160 0.000000 0.004864
# 5 0.001892 -0.000334 0.005879 0.000000 0.028576 0.000000
# 6 0.000000 0.000000 0.000000 0.004864 0.000000 0.060046
#
#
# Mechanical properties :
#
#
# Convention : Reuss Voigt Hill
#
# Bulk Modulus (GPa) = 38.99540 53.40575 46.20058
# Shear Modulus (GPa) = 30.39681 41.93367 36.16524
#
# Velocity S-wave (km/s) = 3.50714 4.11927 3.82547
# Velocity P-wave (km/s) = 5.67270 6.65095 6.18120
#
# Compressibility (1/GPa) = 0.02564405
#
# Stress axis : x y z
#
# Youngs Moduli (GPa) = 94.36841 205.76609 48.91025
#
# Poissons Ratio (x) = 0.12019 0.16273
# Poissons Ratio (y) = 0.05512 0.05957
# Poissons Ratio (z) = 0.31397 0.25060
#
# Static dielectric constant tensor:
#      x y z
#    x 1.928850 0.000000 0.041290 
#    y 0.000000 2.109730 0.000000 
#    z 0.041290 0.000000 2.019690 
# 
# From -- ./inp_files/45741.got.cif
#   From: 2010.05.17/outbox.cif.g08.bks.cpg/sg11_23_cif.got.tgz:45741.got - 2010.06.03 12:22:45.
