data_PCOD9166192
_publ_section_title
;
Structure prediction by ZEFSAII (Michael W. Deem and Ramdas Pophale) SiO2 
 PCOD9166192
Probable space group: P 21/M
;
_chemical_formula_sum "Si O2"
_cell_formula_units_Z 32
_cell_length_a 18.289006
_cell_length_b 15.052748
_cell_length_c 11.774534
_cell_angle_alpha 90.000000
_cell_angle_beta 27.275061
_cell_angle_gamma 90.000000
_cell_volume 1485.470921
_symmetry_space_group_name_H-M "P 21/M"
_symmetry_group_IT_number 11
_symmetry_cell_setting 'monoclinic'
loop_
_space_group_symop_operation_xyz
x,y,z
-x,1/2+y,-z
-x,-y,-z
x,1/2-y,z
loop_
_atom_site_type_symbol
_atom_site_label
_atom_site_fract_x
_atom_site_fract_y
_atom_site_fract_z
Si Si1 0.624053 0.572614 0.380573
Si Si2 0.305713 0.355713 0.083492
Si Si3 0.911903 0.475367 0.006457
Si Si4 0.985049 0.149164 0.402148
Si Si5 0.820460 0.972684 0.531759
Si Si6 0.333417 0.847800 0.724525
Si Si7 0.279527 0.851478 0.058059
Si Si8 0.464525 0.486527 0.249545
O O1 0.500000 0.500000 0.500000
O O2 0.808964 0.558475 0.099188
O O3 0.525731 0.654171 0.465969
O O4 0.609442 0.559866 0.536206
O O5 0.336667 0.250000 0.058969
O O6 0.170368 0.363909 0.173830
O O7 0.231406 0.405683 0.296844
O O8 0.457736 0.416358 0.839916
O O9 0.764378 0.408045 0.227050
O O10 0.000000 0.500000 0.000000
O O11 0.040639 0.435855 0.742613
O O12 0.959374 0.250000 0.390824
O O13 0.895593 0.148658 0.648369
O O14 0.898379 0.066941 0.461304
O O15 0.664531 0.989441 0.670729
O O16 0.272195 0.750000 0.793051
O O17 0.283968 0.878868 0.920348
O O18 0.341601 0.750000 0.978627
O O19 0.388249 0.919644 0.978090
#
# Coordination Sequence:
#
# PCOD9166192 Si02
#       8
#     4   4   4   4   4   4   4   4
#     4   9  20  39  65  89 119 163 209 245 303 369
#     4  11  25  41  62  95 124 161 214 261 311 376
#     4  11  22  40  62  89 123 164 208 256 308 377
#     4  10  22  39  60  89 121 160 207 251 309 376
#     4  12  24  39  64  88 129 167 204 254 322 372
#     4   9  19  37  64  93 118 158 209 259 309 361
#     4   9  18  35  62  92 123 155 205 256 303 372
#     4  11  22  39  61  95 125 164 201 252 323 370
#
# _framework density 21.541990999999999
#
# number of rings (size 3 to 8) (size 9 to 14) (size 15 to 20)
#    0.000    1.750    2.500    1.500    5.250    2.500 
#    0.000    4.375    0.000    0.000    0.000    0.000 
#    0.000    0.000    0.000    0.000    0.000    0.000 
#
# Total GULP energy -178318.251699 kJ/mol
# GULP energy per Si atom -5572.445366 kJ/mol
# Density = 2.149296 g / cm^3
# Si number density = 21.541991 Si / 1000 Ang^3
#
#
#
# Elastic Constant Matrix: (Units=GPa)
#
#
# Indices 1 2 3 4 5 6 
#
# 1 105.7626 53.7010 17.4881 0.0000 -34.2004 0.0000
# 2 53.7010 117.0536 13.1625 0.0000 -22.0952 0.0000
# 3 17.4881 13.1625 78.6532 0.0000 -18.9287 0.0000
# 4 0.0000 0.0000 0.0000 18.9919 0.0000 -2.8635
# 5 -34.2004 -22.0952 -18.9287 0.0000 37.8318 0.0000
# 6 0.0000 0.0000 0.0000 -2.8635 0.0000 15.2663
#
#
#
# Elastic Compliance Matrix: (Units=1/GPa)
#
#
# Indices 1 2 3 4 5 6 
#
# 1 0.015644 -0.005067 0.000069 0.000000 0.011217 0.000000
# 2 -0.005067 0.011249 -0.000315 0.000000 0.001831 0.000000
# 3 0.000069 -0.000315 0.014464 0.000000 0.007115 0.000000
# 4 0.000000 0.000000 0.000000 0.054186 0.000000 0.010164
# 5 0.011217 0.001831 0.007115 0.000000 0.041203 0.000000
# 6 0.000000 0.000000 0.000000 0.010164 0.000000 0.067410
#
#
# Mechanical properties :
#
#
# Convention : Reuss Voigt Hill
#
# Bulk Modulus (GPa) = 32.54129 52.24141 42.39135
# Shear Modulus (GPa) = 22.21962 28.89253 25.55607
#
# Velocity S-wave (km/s) = 3.21511 3.66624 3.44806
# Velocity P-wave (km/s) = 5.37786 6.49810 5.96434
#
# Compressibility (1/GPa) = 0.03073019
#
# Stress axis : x y z
#
# Youngs Moduli (GPa) = 63.92205 88.89699 69.13839
#
# Poissons Ratio (x) = 0.45048 -0.00479
# Poissons Ratio (y) = 0.32392 0.02179
# Poissons Ratio (z) = -0.00443 0.02801
#
# Static dielectric constant tensor:
#      x y z
#    x 1.755100 0.000000 0.033550 
#    y 0.000000 1.969700 0.000000 
#    z 0.033550 0.000000 1.878520 
# 
# From -- ./inp_files/41634.got.cif
#   From: 2010.05.17/outbox.cif.g08.bks.cpg/sg11_21_cif.got.tgz:41634.got - 2010.06.03 12:22:45.
