data_PCOD9166775
_publ_section_title
;
Structure prediction by ZEFSAII (Michael W. Deem and Ramdas Pophale) SiO2 
 PCOD9166775
Probable space group: P 21/M
;
_chemical_formula_sum "Si O2"
_cell_formula_units_Z 22
_cell_length_a 8.641527
_cell_length_b 23.408811
_cell_length_c 5.050533
_cell_angle_alpha 90.000000
_cell_angle_beta 57.891394
_cell_angle_gamma 90.000000
_cell_volume 865.390360
_symmetry_space_group_name_H-M "P 21/M"
_symmetry_group_IT_number 11
_symmetry_cell_setting 'monoclinic'
loop_
_space_group_symop_operation_xyz
x,y,z
-x,1/2+y,-z
-x,-y,-z
x,1/2-y,z
loop_
_atom_site_type_symbol
_atom_site_label
_atom_site_fract_x
_atom_site_fract_y
_atom_site_fract_z
Si Si1 0.030398 0.937552 0.213743
Si Si2 0.469317 0.750000 0.020411
Si Si3 0.826646 0.250000 0.154318
Si Si4 0.308927 0.469106 0.102269
Si Si5 0.658778 0.655963 0.092305
Si Si6 0.783201 0.750000 0.390539
Si Si7 0.944471 0.138419 0.335354
O O1 0.124483 0.897336 0.353560
O O2 0.830313 0.953744 0.522001
O O3 0.168997 0.990828 0.064551
O O4 0.028968 0.902721 0.942944
O O5 0.346576 0.750000 0.875675
O O6 0.479490 0.688734 0.151704
O O7 0.682217 0.750000 0.753919
O O8 0.848730 0.194765 0.315427
O O9 0.001572 0.250000 0.804784
O O10 0.369419 0.412050 0.887286
O O11 0.500000 0.500000 0.000000
O O12 0.852440 0.657116 0.762077
O O13 0.711276 0.693224 0.303023
#
# Coordination Sequence:
#
# PCOD9166775 Si02
#       7
#     4   2   2   4   4   2   4
#     4  10  24  46  69  99 141 184 228 288 339 413
#     4  11  23  43  65  99 135 171 230 285 354 400
#     4  10  24  40  69 104 124 181 235 281 339 423
#     4  10  23  42  70 102 139 182 233 280 346 409
#     4   9  22  41  63  99 132 174 225 280 342 408
#     4   9  21  43  66  89 133 180 215 290 345 401
#     4  10  23  46  72 100 140 184 232 284 352 407
#
# _framework density 25.422053999999999
#
# number of rings (size 3 to 8) (size 9 to 14) (size 15 to 20)
#    0.000    2.182    0.000    0.545   12.727    8.727 
#    3.273    8.182    0.000    0.000    0.000    0.000 
#    0.000    0.000    0.000    0.000    0.000    0.000 
#
# Total GULP energy -122813.333338 kJ/mol
# GULP energy per Si atom -5582.424243 kJ/mol
# Density = 2.536419 g / cm^3
# Si number density = 25.422054 Si / 1000 Ang^3
#
#
#
# Elastic Constant Matrix: (Units=GPa)
#
#
# Indices 1 2 3 4 5 6 
#
# 1 130.1476 104.7173 23.9047 0.0000 -6.8135 0.0000
# 2 104.7173 201.4444 24.2530 0.0000 4.5650 0.0000
# 3 23.9047 24.2530 64.6046 0.0000 -10.2670 0.0000
# 4 0.0000 0.0000 0.0000 -14.7948 0.0000 35.0860
# 5 -6.8135 4.5650 -10.2670 0.0000 44.6500 0.0000
# 6 0.0000 0.0000 0.0000 35.0860 0.0000 12.4202
#
#
#
# Elastic Compliance Matrix: (Units=1/GPa)
#
#
# Indices 1 2 3 4 5 6 
#
# 1 0.013807 -0.006975 -0.002120 0.000000 0.002333 0.000000
# 2 -0.006975 0.008768 -0.001061 0.000000 -0.002205 0.000000
# 3 -0.002120 -0.001061 0.017258 0.000000 0.003753 0.000000
# 4 0.000000 0.000000 0.000000 -0.008779 0.000000 0.024800
# 5 0.002333 -0.002205 0.003753 0.000000 0.023841 0.000000
# 6 0.000000 0.000000 0.000000 0.024800 0.000000 0.010457
#
#
# Mechanical properties :
#
#
# Convention : Reuss Voigt Hill
#
# Bulk Modulus (GPa) = 51.22594 77.99406 64.61000
# Shear Modulus (GPa) = 54.24715 24.67651 39.46183
#
# Velocity S-wave (km/s) = 4.62439 3.11894 3.94416
# Velocity P-wave (km/s) = 6.97905 6.61186 6.79794
#
# Compressibility (1/GPa) = 0.01952136
#
# Stress axis : x y z
#
# Youngs Moduli (GPa) = 72.42579 114.05458 57.94457
#
# Poissons Ratio (x) = 0.79554 0.12282
# Poissons Ratio (y) = 0.50518 0.06148
# Poissons Ratio (z) = 0.15352 0.12101
#
# Static dielectric constant tensor:
#      x y z
#    x 1.966780 0.000000 -0.008850 
#    y 0.000000 2.670150 0.000000 
#    z -0.008850 0.000000 2.027100 
# 
# From -- ./inp_files/2599.got.cif
#   From: 2010.05.17/outbox.cif.g08.bks.cpg/sg11_2_cif.got.tgz:2599.got - 2010.06.03 12:22:45.
