data_PCOD9166356
_publ_section_title
;
Structure prediction by ZEFSAII (Michael W. Deem and Ramdas Pophale) SiO2 
 PCOD9166356
Probable space group: P 21/M
;
_chemical_formula_sum "Si O2"
_cell_formula_units_Z 20
_cell_length_a 7.989417
_cell_length_b 20.894733
_cell_length_c 5.408798
_cell_angle_alpha 90.000000
_cell_angle_beta 102.835354
_cell_angle_gamma 90.000000
_cell_volume 880.365155
_symmetry_space_group_name_H-M "P 21/M"
_symmetry_group_IT_number 11
_symmetry_cell_setting 'monoclinic'
loop_
_space_group_symop_operation_xyz
x,y,z
-x,1/2+y,-z
-x,-y,-z
x,1/2-y,z
loop_
_atom_site_type_symbol
_atom_site_label
_atom_site_fract_x
_atom_site_fract_y
_atom_site_fract_z
Si Si1 0.691140 0.510110 0.857844
Si Si2 0.844344 0.750000 0.735091
Si Si3 0.002481 0.948339 0.255122
Si Si4 0.371637 0.250000 0.833392
Si Si5 0.462697 0.886320 0.969341
Si Si6 0.071058 0.626031 0.766737
O O1 0.587748 0.576783 0.815941
O O2 0.828854 0.493552 0.692648
O O3 0.821517 0.518077 0.135037
O O4 0.572974 0.447197 0.857075
O O5 0.759864 0.750000 0.978516
O O6 0.968270 0.690644 0.744328
O O7 0.707829 0.750000 0.466645
O O8 0.002881 0.909169 0.502297
O O9 0.034550 0.905506 0.021969
O O10 0.466366 0.319431 0.899491
O O11 0.275796 0.869298 0.803592
#
# Coordination Sequence:
#
# PCOD9166356 Si02
#       6
#     4   2   4   2   4   4
#     4   9  20  40  66  97 131 168 210 260 315 376
#     4  12  25  44  67  88 126 174 216 258 317 388
#     4  10  22  40  65  95 129 168 212 256 312 381
#     4  12  27  46  67  92 128 170 214 264 321 382
#     4  10  22  41  66  97 131 165 211 267 319 370
#     4  11  23  41  65  95 128 167 214 263 314 377
#
# _framework density 22.717846000000002
#
# number of rings (size 3 to 8) (size 9 to 14) (size 15 to 20)
#    0.000    1.600    0.000    4.200    0.000   11.200 
#    0.000   11.000    0.000    0.000    0.000    0.000 
#    0.000    0.000    0.000    0.000    0.000    0.000 
#
# Total GULP energy -111640.702694 kJ/mol
# GULP energy per Si atom -5582.035135 kJ/mol
# Density = 2.266614 g / cm^3
# Si number density = 22.717846 Si / 1000 Ang^3
#
#
#
# Elastic Constant Matrix: (Units=GPa)
#
#
# Indices 1 2 3 4 5 6 
#
# 1 94.3773 56.7013 9.0552 0.0000 1.9526 0.0000
# 2 56.7013 119.9390 24.7616 0.0000 9.6137 0.0000
# 3 9.0552 24.7616 97.8027 0.0000 -13.7748 0.0000
# 4 0.0000 0.0000 0.0000 21.5754 0.0000 -3.5647
# 5 1.9526 9.6137 -13.7748 0.0000 16.7550 0.0000
# 6 0.0000 0.0000 0.0000 -3.5647 0.0000 93.4845
#
#
#
# Elastic Compliance Matrix: (Units=1/GPa)
#
#
# Indices 1 2 3 4 5 6 
#
# 1 0.014970 -0.007560 0.001010 0.000000 0.003424 0.000000
# 2 -0.007560 0.013614 -0.004210 0.000000 -0.010392 0.000000
# 3 0.001010 -0.004210 0.013029 0.000000 0.013010 0.000000
# 4 0.000000 0.000000 0.000000 0.046643 0.000000 0.001779
# 5 0.003424 -0.010392 0.013010 0.000000 0.075943 0.000000
# 6 0.000000 0.000000 0.000000 0.001779 0.000000 0.010765
#
#
# Mechanical properties :
#
#
# Convention : Reuss Voigt Hill
#
# Bulk Modulus (GPa) = 49.76889 54.79503 52.28196
# Shear Modulus (GPa) = 24.60847 41.13640 32.87243
#
# Velocity S-wave (km/s) = 3.29480 4.25991 3.80806
# Velocity P-wave (km/s) = 6.03567 6.95471 6.51142
#
# Compressibility (1/GPa) = 0.02009287
#
# Stress axis : x y z
#
# Youngs Moduli (GPa) = 66.79995 73.45471 76.74913
#
# Poissons Ratio (x) = 0.55533 -0.07754
# Poissons Ratio (y) = 0.50502 0.32314
# Poissons Ratio (z) = -0.06749 0.30927
#
# Static dielectric constant tensor:
#      x y z
#    x 1.893730 0.000000 -0.005090 
#    y 0.000000 1.925970 0.000000 
#    z -0.005090 0.000000 1.813230 
# 
# From -- ./inp_files/2410.got.cif
#   From: 2010.05.17/outbox.cif.g08.bks.cpg/sg11_2_cif.got.tgz:2410.got - 2010.06.03 12:22:45.
