data_PCOD9166717
_publ_section_title
;
Structure prediction by ZEFSAII (Michael W. Deem and Ramdas Pophale) SiO2 
 PCOD9166717
Probable space group: P 21/M
;
_chemical_formula_sum "Si O2"
_cell_formula_units_Z 32
_cell_length_a 11.933015
_cell_length_b 8.992524
_cell_length_c 14.762436
_cell_angle_alpha 90.000000
_cell_angle_beta 92.540012
_cell_angle_gamma 90.000000
_cell_volume 1582.569980
_symmetry_space_group_name_H-M "P 21/M"
_symmetry_group_IT_number 11
_symmetry_cell_setting 'monoclinic'
loop_
_space_group_symop_operation_xyz
x,y,z
-x,1/2+y,-z
-x,-y,-z
x,1/2-y,z
loop_
_atom_site_type_symbol
_atom_site_label
_atom_site_fract_x
_atom_site_fract_y
_atom_site_fract_z
Si Si1 0.482212 0.927448 0.292092
Si Si2 0.563294 0.427812 0.917017
Si Si3 0.290506 0.574741 0.661575
Si Si4 0.798414 0.573791 0.964153
Si Si5 0.816068 0.921856 0.179067
Si Si6 0.246255 0.424462 0.327152
Si Si7 0.922621 0.424220 0.819349
Si Si8 0.878373 0.924814 0.485120
O O1 0.483504 0.750000 0.303474
O O2 0.488939 0.958799 0.183792
O O3 0.587839 0.000643 0.345563
O O4 0.365020 0.993538 0.322880
O O5 0.566163 0.250000 0.928521
O O6 0.500000 0.500000 0.000000
O O7 0.687629 0.495496 0.921631
O O8 0.296094 0.750000 0.647504
O O9 0.252190 0.533699 0.761761
O O10 0.196853 0.502415 0.593889
O O11 0.795911 0.750000 0.946754
O O12 0.800626 0.552497 0.071906
O O13 0.901480 0.500021 0.915418
O O14 0.781922 0.750000 0.197423
O O15 0.948111 0.937025 0.203923
O O16 0.261600 0.250000 0.307229
O O17 0.159127 0.495760 0.253671
O O18 0.190419 0.438239 0.423753
O O19 0.894707 0.250000 0.824027
O O20 0.892746 0.750000 0.464564
O O21 0.000000 0.000000 0.500000
#
# Coordination Sequence:
#
# PCOD9166717 Si02
#       8
#     4   4   4   4   4   4   4   4
#     4  11  24  43  66  92 128 171 215 264 323 384
#     4  11  23  38  59  88 123 168 218 266 322 382
#     4  12  26  43  67  97 129 168 214 264 321 383
#     4  11  22  37  59  88 124 166 214 267 320 380
#     4  10  23  41  61  89 127 171 216 266 324 382
#     4  11  24  42  67  97 128 166 215 266 321 385
#     4  11  22  38  61  90 127 169 212 262 321 383
#     4  11  25  46  72 102 134 169 212 264 321 385
#
# _framework density 20.220272999999999
#
# number of rings (size 3 to 8) (size 9 to 14) (size 15 to 20)
#    0.000    1.000    1.250    5.250    0.000   11.000 
#    0.000    0.000    0.000    0.000    0.000    0.000 
#    0.000    0.000    0.000    0.000    0.000    0.000 
#
# Total GULP energy -179096.410020 kJ/mol
# GULP energy per Si atom -5596.762813 kJ/mol
# Density = 2.017425 g / cm^3
# Si number density = 20.220273 Si / 1000 Ang^3
#
#
#
# Elastic Constant Matrix: (Units=GPa)
#
#
# Indices 1 2 3 4 5 6 
#
# 1 107.4680 73.5146 37.7837 0.0000 23.5765 0.0000
# 2 73.5146 139.8027 57.2625 0.0000 10.7996 0.0000
# 3 37.7837 57.2625 53.6620 0.0000 7.5304 0.0000
# 4 0.0000 0.0000 0.0000 26.0809 0.0000 -3.1046
# 5 23.5765 10.7996 7.5304 0.0000 30.6712 0.0000
# 6 0.0000 0.0000 0.0000 -3.1046 0.0000 34.7482
#
#
#
# Elastic Compliance Matrix: (Units=1/GPa)
#
#
# Indices 1 2 3 4 5 6 
#
# 1 0.017561 -0.007050 -0.003413 0.000000 -0.010178 0.000000
# 2 -0.007050 0.015579 -0.012067 0.000000 0.002896 0.000000
# 3 -0.003413 -0.012067 0.034126 0.000000 -0.001506 0.000000
# 4 0.000000 0.000000 0.000000 0.038754 0.000000 0.003462
# 5 -0.010178 0.002896 -0.001506 0.000000 0.039778 0.000000
# 6 0.000000 0.000000 0.000000 0.003462 0.000000 0.029088
#
#
# Mechanical properties :
#
#
# Convention : Reuss Voigt Hill
#
# Bulk Modulus (GPa) = 45.03322 70.89492 57.96407
# Shear Modulus (GPa) = 21.99281 27.12485 24.55883
#
# Velocity S-wave (km/s) = 3.30155 3.66658 3.48884
# Velocity P-wave (km/s) = 6.07069 7.28440 6.70507
#
# Compressibility (1/GPa) = 0.02220583
#
# Stress axis : x y z
#
# Youngs Moduli (GPa) = 56.94582 64.18996 29.30300
#
# Poissons Ratio (x) = 0.45253 0.10002
# Poissons Ratio (y) = 0.40146 0.35359
# Poissons Ratio (z) = 0.19438 0.77456
#
# Static dielectric constant tensor:
#      x y z
#    x 1.717390 0.000000 -0.009180 
#    y 0.000000 1.679430 0.000000 
#    z -0.009180 0.000000 1.726810 
# 
# From -- ./inp_files/49401.got.cif
#   From: 2010.05.17/outbox.cif.g08.bks.cpg/sg11_25_cif.got.tgz:49401.got - 2010.06.03 12:22:45.
