data_PCOD9166174
_publ_section_title
;
Structure prediction by ZEFSAII (Michael W. Deem and Ramdas Pophale) SiO2 
 PCOD9166174
Probable space group: P 21/M
;
_chemical_formula_sum "Si O2"
_cell_formula_units_Z 24
_cell_length_a 10.111515
_cell_length_b 8.614739
_cell_length_c 14.352027
_cell_angle_alpha 90.000000
_cell_angle_beta 79.722470
_cell_angle_gamma 90.000000
_cell_volume 1230.118278
_symmetry_space_group_name_H-M "P 21/M"
_symmetry_group_IT_number 11
_symmetry_cell_setting 'monoclinic'
loop_
_space_group_symop_operation_xyz
x,y,z
-x,1/2+y,-z
-x,-y,-z
x,1/2-y,z
loop_
_atom_site_type_symbol
_atom_site_label
_atom_site_fract_x
_atom_site_fract_y
_atom_site_fract_z
Si Si1 0.117850 0.564534 0.918228
Si Si2 0.757057 0.936951 0.770652
Si Si3 0.048396 0.436171 0.723267
Si Si4 0.650865 0.936545 0.987321
Si Si5 0.564156 0.937439 0.631618
Si Si6 0.301406 0.063285 0.577981
O O1 0.111822 0.750000 0.919373
O O2 0.092746 0.502757 0.817675
O O3 0.260090 0.507498 0.941275
O O4 0.000000 0.500000 0.000000
O O5 0.766482 0.750000 0.765115
O O6 0.724269 0.979215 0.881020
O O7 0.637663 0.986184 0.716737
O O8 0.898506 0.006709 0.722493
O O9 0.049791 0.250000 0.728125
O O10 0.156358 0.488025 0.632338
O O11 0.648961 0.750000 0.995497
O O12 0.500000 0.000000 0.000000
O O13 0.555188 0.750000 0.632153
O O14 0.653922 0.987142 0.531014
O O15 0.416812 0.004706 0.633314
O O16 0.302994 0.250000 0.577688
#
# Coordination Sequence:
#
# PCOD9166174 Si02
#       6
#     4   4   4   4   4   4
#     4  12  24  41  63  87 118 157 197 243 294 351
#     4  10  22  39  59  85 117 155 197 241 291 348
#     4  11  23  38  59  88 119 156 197 241 292 350
#     4  11  24  41  60  88 122 158 198 242 291 350
#     4   9  19  38  61  85 117 153 192 241 293 348
#     4   9  20  38  59  87 118 150 193 241 291 348
#
# _framework density 19.510318999999999
#
# number of rings (size 3 to 8) (size 9 to 14) (size 15 to 20)
#    0.000    1.667    1.667    2.500    2.333    3.333 
#    0.000    0.000    0.000    0.000    0.000    0.000 
#    0.000    0.000    0.000    0.000    0.000    0.000 
#
# Total GULP energy -134131.349461 kJ/mol
# GULP energy per Si atom -5588.806228 kJ/mol
# Density = 1.946591 g / cm^3
# Si number density = 19.510319 Si / 1000 Ang^3
#
#
#
# Elastic Constant Matrix: (Units=GPa)
#
#
# Indices 1 2 3 4 5 6 
#
# 1 59.1032 3.5959 -16.3578 0.0000 -9.2510 0.0000
# 2 3.5959 23.5973 0.6201 0.0000 -4.2784 0.0000
# 3 -16.3578 0.6201 8.8061 0.0000 -1.5331 0.0000
# 4 0.0000 0.0000 0.0000 20.9365 0.0000 0.7784
# 5 -9.2510 -4.2784 -1.5331 0.0000 42.7864 0.0000
# 6 0.0000 0.0000 0.0000 0.7784 0.0000 37.8309
#
#
#
# Elastic Compliance Matrix: (Units=1/GPa)
#
#
# Indices 1 2 3 4 5 6 
#
# 1 0.040441 -0.006222 0.077457 0.000000 0.010897 0.000000
# 2 -0.006222 0.044164 -0.014222 0.000000 0.002561 0.000000
# 3 0.077457 -0.014222 0.262745 0.000000 0.024739 0.000000
# 4 0.000000 0.000000 0.000000 0.047800 0.000000 -0.000983
# 5 0.010897 0.002561 0.024739 0.000000 0.026871 0.000000
# 6 0.000000 0.000000 0.000000 -0.000983 0.000000 0.026454
#
#
# Mechanical properties :
#
#
# Convention : Reuss Voigt Hill
#
# Bulk Modulus (GPa) = 2.16743 7.46922 4.81832
# Shear Modulus (GPa) = 10.24082 27.22067 18.73074
#
# Velocity S-wave (km/s) = 2.29354 3.73928 3.10182
# Velocity P-wave (km/s) = 2.85080 4.74127 3.91195
#
# Compressibility (1/GPa) = 0.46137518
#
# Stress axis : x y z
#
# Youngs Moduli (GPa) = 24.72717 22.64289 3.80597
#
# Poissons Ratio (x) = 0.14089 -0.29480
# Poissons Ratio (y) = 0.15386 0.05413
# Poissons Ratio (z) = -1.91529 0.32204
#
# Static dielectric constant tensor:
#      x y z
#    x 1.656320 0.000000 -0.013210 
#    y 0.000000 1.658210 0.000000 
#    z -0.013210 0.000000 1.678690 
# 
# From -- ./inp_files/46477.got.cif
#   From: 2010.05.17/outbox.cif.g08.bks.cpg/sg11_24_cif.got.tgz:46477.got - 2010.06.03 12:22:45.
