data_PCOD9166603
_publ_section_title
;
Structure prediction by ZEFSAII (Michael W. Deem and Ramdas Pophale) SiO2 
 PCOD9166603
Probable space group: P 21/M
;
_chemical_formula_sum "Si O2"
_cell_formula_units_Z 24
_cell_length_a 10.884812
_cell_length_b 20.786880
_cell_length_c 6.602503
_cell_angle_alpha 90.000000
_cell_angle_beta 40.314506
_cell_angle_gamma 90.000000
_cell_volume 966.521717
_symmetry_space_group_name_H-M "P 21/M"
_symmetry_group_IT_number 11
_symmetry_cell_setting 'monoclinic'
loop_
_space_group_symop_operation_xyz
x,y,z
-x,1/2+y,-z
-x,-y,-z
x,1/2-y,z
loop_
_atom_site_type_symbol
_atom_site_label
_atom_site_fract_x
_atom_site_fract_y
_atom_site_fract_z
Si Si1 0.046439 0.044986 0.636469
Si Si2 0.947717 0.323402 0.325323
Si Si3 0.271347 0.885283 0.736870
Si Si4 0.577547 0.494820 0.633022
Si Si5 0.758135 0.823260 0.744746
Si Si6 0.606567 0.376655 0.991961
O O1 0.209029 0.013320 0.570277
O O2 0.135229 0.115153 0.481186
O O3 0.000000 0.000000 0.500000
O O4 0.854799 0.059095 0.998215
O O5 0.893125 0.250000 0.428472
O O6 0.882345 0.342169 0.184504
O O7 0.167708 0.329643 0.114588
O O8 0.815168 0.365606 0.639735
O O9 0.383693 0.855313 0.783048
O O10 0.408014 0.916939 0.394250
O O11 0.500000 0.500000 0.500000
O O12 0.455741 0.547524 0.913491
O O13 0.815195 0.750000 0.614525
O O14 0.545352 0.833530 0.935521
#
# Coordination Sequence:
#
# PCOD9166603 Si02
#       6
#     4   4   4   4   4   4
#     4  11  22  42  69 100 137 186 225 287 353 411
#     4  11  24  43  67  95 132 177 226 281 340 410
#     4  11  23  43  67 101 137 176 230 283 346 410
#     4   9  21  40  63 100 134 175 219 280 338 410
#     4  10  22  43  68  96 131 182 233 279 346 418
#     4  10  22  45  67  95 137 176 222 281 346 409
#
# _framework density 24.831309999999998
#
# number of rings (size 3 to 8) (size 9 to 14) (size 15 to 20)
#    0.000    1.667    1.667    2.000    0.000    2.667 
#   24.000    0.000    0.000    0.000    0.000    0.000 
#    0.000    0.000    0.000    0.000    0.000    0.000 
#
# Total GULP energy -133750.184285 kJ/mol
# GULP energy per Si atom -5572.924345 kJ/mol
# Density = 2.477479 g / cm^3
# Si number density = 24.831310 Si / 1000 Ang^3
#
#
#
# Elastic Constant Matrix: (Units=GPa)
#
#
# Indices 1 2 3 4 5 6 
#
# 1 225.0315 62.1409 23.5834 0.0000 0.8625 0.0000
# 2 62.1409 126.2109 34.3427 0.0000 20.6057 0.0000
# 3 23.5834 34.3427 60.8577 0.0000 1.0369 0.0000
# 4 0.0000 0.0000 0.0000 22.8721 0.0000 -2.3446
# 5 0.8625 20.6057 1.0369 0.0000 26.8587 0.0000
# 6 0.0000 0.0000 0.0000 -2.3446 0.0000 43.2950
#
#
#
# Elastic Compliance Matrix: (Units=1/GPa)
#
#
# Indices 1 2 3 4 5 6 
#
# 1 0.005255 -0.002773 -0.000505 0.000000 0.001978 0.000000
# 2 -0.002773 0.012345 -0.005736 0.000000 -0.009160 0.000000
# 3 -0.000505 -0.005736 0.019802 0.000000 0.003652 0.000000
# 4 0.000000 0.000000 0.000000 0.043965 0.000000 0.002381
# 5 0.001978 -0.009160 0.003652 0.000000 0.044055 0.000000
# 6 0.000000 0.000000 0.000000 0.002381 0.000000 0.023226
#
#
# Mechanical properties :
#
#
# Convention : Reuss Voigt Hill
#
# Bulk Modulus (GPa) = 51.61531 72.47044 62.04288
# Shear Modulus (GPa) = 28.87941 38.07406 33.47674
#
# Velocity S-wave (km/s) = 3.41401 3.92000 3.67572
# Velocity P-wave (km/s) = 6.03093 7.05244 6.56160
#
# Compressibility (1/GPa) = 0.01937410
#
# Stress axis : x y z
#
# Youngs Moduli (GPa) = 190.30003 81.00687 50.49971
#
# Poissons Ratio (x) = 0.22461 0.02552
# Poissons Ratio (y) = 0.52764 0.28965
# Poissons Ratio (z) = 0.09618 0.46463
#
# Static dielectric constant tensor:
#      x y z
#    x 2.104030 0.000000 0.074260 
#    y 0.000000 2.024440 0.000000 
#    z 0.074260 0.000000 2.004620 
# 
# From -- ./inp_files/5332.got.cif
#   From: 2010.05.17/outbox.cif.g08.bks.cpg/sg11_3_cif.got.tgz:5332.got - 2010.06.03 12:22:45.
