data_PCOD9166496
_publ_section_title
;
Structure prediction by ZEFSAII (Michael W. Deem and Ramdas Pophale) SiO2 
 PCOD9166496
Probable space group: P 21/M
;
_chemical_formula_sum "Si O2"
_cell_formula_units_Z 24
_cell_length_a 10.887594
_cell_length_b 19.295276
_cell_length_c 5.057676
_cell_angle_alpha 90.000000
_cell_angle_beta 67.280925
_cell_angle_gamma 90.000000
_cell_volume 980.071394
_symmetry_space_group_name_H-M "P 21/M"
_symmetry_group_IT_number 11
_symmetry_cell_setting 'monoclinic'
loop_
_space_group_symop_operation_xyz
x,y,z
-x,1/2+y,-z
-x,-y,-z
x,1/2-y,z
loop_
_atom_site_type_symbol
_atom_site_label
_atom_site_fract_x
_atom_site_fract_y
_atom_site_fract_z
Si Si1 0.200871 0.921297 0.581196
Si Si2 0.092686 0.080453 0.291431
Si Si3 0.577173 0.675466 0.717458
Si Si4 0.645761 0.527328 0.816741
Si Si5 0.154624 0.329026 0.753550
Si Si6 0.265542 0.669506 0.012682
O O1 0.195543 0.876580 0.850083
O O2 0.053500 0.948703 0.640898
O O3 0.306856 0.984312 0.481836
O O4 0.246797 0.868778 0.308087
O O5 0.214176 0.026549 0.140225
O O6 0.106713 0.117149 0.566846
O O7 0.108816 0.143038 0.070825
O O8 0.598132 0.750000 0.833641
O O9 0.619444 0.608711 0.839760
O O10 0.683456 0.672568 0.392005
O O11 0.421061 0.669356 0.794671
O O12 0.500000 0.500000 0.000000
O O13 0.110328 0.250000 0.737316
O O14 0.223833 0.750000 0.060561
#
# Coordination Sequence:
#
# PCOD9166496 Si02
#       6
#     4   4   4   4   4   4
#     4  12  26  44  70 103 143 185 231 287 348 414
#     4  11  25  43  66 103 142 180 230 288 346 411
#     4   9  21  43  70 103 138 178 235 294 345 405
#     4  11  24  46  74 102 139 184 238 283 351 413
#     4  10  22  41  71 100 137 184 234 287 344 410
#     4  11  25  44  71 105 144 186 233 288 348 411
#
# _framework density 24.488015000000001
#
# number of rings (size 3 to 8) (size 9 to 14) (size 15 to 20)
#    0.000    1.333    1.667    2.500    2.333    8.000 
#    0.000   10.833    0.000    0.000    0.000    0.000 
#    0.000    0.000    0.000    0.000    0.000    0.000 
#
# Total GULP energy -134050.361552 kJ/mol
# GULP energy per Si atom -5585.431731 kJ/mol
# Density = 2.443228 g / cm^3
# Si number density = 24.488015 Si / 1000 Ang^3
#
#
#
# Elastic Constant Matrix: (Units=GPa)
#
#
# Indices 1 2 3 4 5 6 
#
# 1 93.6421 41.8782 26.1355 0.0000 -36.4557 0.0000
# 2 41.8782 128.5087 34.8498 0.0000 -1.2716 0.0000
# 3 26.1355 34.8498 63.7350 0.0000 1.7478 0.0000
# 4 0.0000 0.0000 0.0000 18.0398 0.0000 2.9487
# 5 -36.4557 -1.2716 1.7478 0.0000 54.6369 0.0000
# 6 0.0000 0.0000 0.0000 2.9487 0.0000 29.2411
#
#
#
# Elastic Compliance Matrix: (Units=1/GPa)
#
#
# Indices 1 2 3 4 5 6 
#
# 1 0.019456 -0.004638 -0.005800 0.000000 0.013060 0.000000
# 2 -0.004638 0.010250 -0.003627 0.000000 -0.002740 0.000000
# 3 -0.005800 -0.003627 0.020178 0.000000 -0.004600 0.000000
# 4 0.000000 0.000000 0.000000 0.056362 0.000000 -0.005684
# 5 0.013060 -0.002740 -0.004600 0.000000 0.027100 0.000000
# 6 0.000000 0.000000 0.000000 -0.005684 0.000000 0.034772
#
#
# Mechanical properties :
#
#
# Convention : Reuss Voigt Hill
#
# Bulk Modulus (GPa) = 45.97228 54.62365 50.29797
# Shear Modulus (GPa) = 24.57003 32.58503 28.57753
#
# Velocity S-wave (km/s) = 3.17100 3.65177 3.41985
# Velocity P-wave (km/s) = 5.67637 6.33524 6.01483
#
# Compressibility (1/GPa) = 0.02175224
#
# Stress axis : x y z
#
# Youngs Moduli (GPa) = 51.39716 97.56461 49.55890
#
# Poissons Ratio (x) = 0.45252 0.28746
# Poissons Ratio (y) = 0.23839 0.17977
# Poissons Ratio (z) = 0.29812 0.35390
#
# Static dielectric constant tensor:
#      x y z
#    x 2.017520 0.000000 -0.036720 
#    y 0.000000 1.957760 0.000000 
#    z -0.036720 0.000000 1.950520 
# 
# From -- ./inp_files/4821.got.cif
#   From: 2010.05.17/outbox.cif.g08.bks.cpg/sg11_3_cif.got.tgz:4821.got - 2010.06.03 12:22:45.
