data_PCOD9166405
_publ_section_title
;
Structure prediction by ZEFSAII (Michael W. Deem and Ramdas Pophale) SiO2 
 PCOD9166405
Probable space group: P 21/M
;
_chemical_formula_sum "Si O2"
_cell_formula_units_Z 20
_cell_length_a 10.394278
_cell_length_b 8.768144
_cell_length_c 11.755027
_cell_angle_alpha 90.000000
_cell_angle_beta 89.944919
_cell_angle_gamma 90.000000
_cell_volume 1071.335342
_symmetry_space_group_name_H-M "P 21/M"
_symmetry_group_IT_number 11
_symmetry_cell_setting 'monoclinic'
loop_
_space_group_symop_operation_xyz
x,y,z
-x,1/2+y,-z
-x,-y,-z
x,1/2-y,z
loop_
_atom_site_type_symbol
_atom_site_label
_atom_site_fract_x
_atom_site_fract_y
_atom_site_fract_z
Si Si1 0.144748 0.431809 0.504681
Si Si2 0.498220 0.933632 0.872648
Si Si3 0.243398 0.933210 0.735631
Si Si4 0.994254 0.569004 0.125146
Si Si5 0.235864 0.432492 0.251758
O O1 0.132921 0.250000 0.519739
O O2 0.222995 0.501482 0.609654
O O3 0.217593 0.461265 0.385811
O O4 0.000000 0.500000 0.500000
O O5 0.493860 0.750000 0.882395
O O6 0.373253 0.981970 0.800450
O O7 0.626762 0.973116 0.802200
O O8 0.500000 0.000000 0.000000
O O9 0.241255 0.750000 0.730545
O O10 0.122938 0.992900 0.807700
O O11 0.977395 0.750000 0.121360
O O12 0.125107 0.524458 0.188299
O O13 0.000000 0.500000 0.000000
O O14 0.215808 0.250000 0.234218
#
# Coordination Sequence:
#
# PCOD9166405 Si02
#       5
#     4   4   4   4   4
#     4  11  22  38  63  92 125 162 206 257 308 362
#     4  10  23  42  63  89 123 163 204 253 309 367
#     4  11  23  40  62  90 125 162 204 254 307 365
#     4  12  24  38  60  89 120 158 207 255 308 366
#     4  10  22  41  63  88 122 161 204 254 308 363
#
# _framework density 18.668291
#
# number of rings (size 3 to 8) (size 9 to 14) (size 15 to 20)
#    0.000    1.200    2.000    4.200    0.000    7.200 
#    0.000    0.000    0.000    0.000    0.000    0.000 
#    0.000    0.000    0.000    0.000    0.000    0.000 
#
# Total GULP energy -111822.094927 kJ/mol
# GULP energy per Si atom -5591.104746 kJ/mol
# Density = 1.862580 g / cm^3
# Si number density = 18.668291 Si / 1000 Ang^3
#
#
#
# Elastic Constant Matrix: (Units=GPa)
#
#
# Indices 1 2 3 4 5 6 
#
# 1 163.1744 56.4475 86.5964 0.0000 6.5592 0.0000
# 2 56.4475 70.6115 73.3576 0.0000 4.9478 0.0000
# 3 86.5964 73.3576 177.5181 0.0000 9.6193 0.0000
# 4 0.0000 0.0000 0.0000 33.4065 0.0000 19.4529
# 5 6.5592 4.9478 9.6193 0.0000 43.3548 0.0000
# 6 0.0000 0.0000 0.0000 19.4529 0.0000 -9.4658
#
#
#
# Elastic Compliance Matrix: (Units=1/GPa)
#
#
# Indices 1 2 3 4 5 6 
#
# 1 0.009067 -0.004642 -0.002489 0.000000 -0.000290 0.000000
# 2 -0.004642 0.027206 -0.008956 0.000000 -0.000415 0.000000
# 3 -0.002489 -0.008956 0.010600 0.000000 -0.000953 0.000000
# 4 0.000000 0.000000 0.000000 0.013627 0.000000 0.028004
# 5 -0.000290 -0.000415 -0.000953 0.000000 0.023368 0.000000
# 6 0.000000 0.000000 0.000000 0.028004 0.000000 -0.048092
#
#
# Mechanical properties :
#
#
# Convention : Reuss Voigt Hill
#
# Bulk Modulus (GPa) = 68.03013 93.78966 80.90990
# Shear Modulus (GPa) = 68.63558 26.45259 47.54409
#
# Velocity S-wave (km/s) = 6.07006 3.76836 5.05204
# Velocity P-wave (km/s) = 9.25463 8.32366 8.80146
#
# Compressibility (1/GPa) = 0.01469937
#
# Stress axis : x y z
#
# Youngs Moduli (GPa) = 110.29284 36.75682 94.34091
#
# Poissons Ratio (x) = 0.17062 0.23481
# Poissons Ratio (y) = 0.51198 0.84488
# Poissons Ratio (z) = 0.27452 0.32918
#
# Static dielectric constant tensor:
#      x y z
#    x 1.620020 0.000000 0.002390 
#    y 0.000000 1.627390 0.000000 
#    z 0.002390 0.000000 1.628870 
# 
# From -- ./inp_files/15872.got.cif
#   From: 2010.05.17/outbox.cif.g08.bks.cpg/sg11_8_cif.got.tgz:15872.got - 2010.06.03 12:22:45.
