data_PCOD9166953
_publ_section_title
;
Structure prediction by ZEFSAII (Michael W. Deem and Ramdas Pophale) SiO2 
 PCOD9166953
Probable space group: P 21/M
;
_chemical_formula_sum "Si O2"
_cell_formula_units_Z 26
_cell_length_a 8.273138
_cell_length_b 21.495179
_cell_length_c 8.720260
_cell_angle_alpha 90.000000
_cell_angle_beta 130.256816
_cell_angle_gamma 90.000000
_cell_volume 1183.460764
_symmetry_space_group_name_H-M "P 21/M"
_symmetry_group_IT_number 11
_symmetry_cell_setting 'monoclinic'
loop_
_space_group_symop_operation_xyz
x,y,z
-x,1/2+y,-z
-x,-y,-z
x,1/2-y,z
loop_
_atom_site_type_symbol
_atom_site_label
_atom_site_fract_x
_atom_site_fract_y
_atom_site_fract_z
Si Si1 0.869313 0.750000 0.997931
Si Si2 0.208547 0.818496 0.000563
Si Si3 0.947091 0.022078 0.797944
Si Si4 0.566539 0.911174 0.226041
Si Si5 0.038201 0.905956 0.635937
Si Si6 0.706077 0.878493 0.983170
Si Si7 0.603025 0.452429 0.373601
O O1 0.732682 0.805512 0.993946
O O2 0.017411 0.803482 0.000041
O O3 0.304310 0.750000 0.026973
O O4 0.113093 0.849997 0.790122
O O5 0.381937 0.866070 0.173201
O O6 0.704609 0.032910 0.600583
O O7 0.077210 0.084885 0.857840
O O8 0.028059 0.968370 0.732933
O O9 0.000000 0.000000 0.000000
O O10 0.566410 0.900155 0.043264
O O11 0.800717 0.894055 0.430033
O O12 0.539384 0.983381 0.250890
O O13 0.200922 0.921463 0.599807
O O14 0.591351 0.905303 0.760735
#
# Coordination Sequence:
#
# PCOD9166953 Si02
#       7
#     2   4   4   4   4   4   4
#     4  10  28  46  58  94 142 184 226 280 338 408
#     4  10  24  45  64  93 132 185 231 273 333 399
#     4  11  23  40  67 104 146 176 207 284 358 402
#     4  11  21  39  76 104 127 175 231 287 334 407
#     4  11  20  42  71 103 134 168 233 283 333 408
#     4  12  22  42  70  95 137 184 227 278 337 402
#     4  11  22  40  71 113 130 170 234 279 342 416
#
# _framework density 21.969466000000001
#
# number of rings (size 3 to 8) (size 9 to 14) (size 15 to 20)
#    0.462    0.615    4.615    3.231    1.077    1.231 
#    0.000    6.923    0.000    0.000    0.000    0.000 
#    0.000    0.000    0.000    0.000    0.000    0.000 
#
# Total GULP energy -144907.231265 kJ/mol
# GULP energy per Si atom -5573.355049 kJ/mol
# Density = 2.191946 g / cm^3
# Si number density = 21.969466 Si / 1000 Ang^3
#
#
#
# Elastic Constant Matrix: (Units=GPa)
#
#
# Indices 1 2 3 4 5 6 
#
# 1 47.6987 19.6694 23.7086 0.0000 -1.8172 0.0000
# 2 19.6694 152.3038 52.3091 0.0000 6.1179 0.0000
# 3 23.7086 52.3091 130.0533 0.0000 12.4379 0.0000
# 4 0.0000 0.0000 0.0000 10.0330 0.0000 6.1926
# 5 -1.8172 6.1179 12.4379 0.0000 26.0315 0.0000
# 6 0.0000 0.0000 0.0000 6.1926 0.0000 42.3321
#
#
#
# Elastic Compliance Matrix: (Units=1/GPa)
#
#
# Indices 1 2 3 4 5 6 
#
# 1 0.023870 -0.001877 -0.003980 0.000000 0.004009 0.000000
# 2 -0.001877 0.007769 -0.002720 0.000000 -0.000657 0.000000
# 3 -0.003980 -0.002720 0.009928 0.000000 -0.004382 0.000000
# 4 0.000000 0.000000 0.000000 0.109564 0.000000 -0.016028
# 5 0.004009 -0.000657 -0.004382 0.000000 0.040943 0.000000
# 6 0.000000 0.000000 0.000000 -0.016028 0.000000 0.025967
#
#
# Mechanical properties :
#
#
# Convention : Reuss Voigt Hill
#
# Bulk Modulus (GPa) = 40.96127 57.93667 49.44897
# Shear Modulus (GPa) = 20.54809 31.30391 25.92600
#
# Velocity S-wave (km/s) = 3.06159 3.77886 3.43897
# Velocity P-wave (km/s) = 5.58416 6.74302 6.19077
#
# Compressibility (1/GPa) = 0.02441331
#
# Stress axis : x y z
#
# Youngs Moduli (GPa) = 41.89387 128.72195 100.72848
#
# Poissons Ratio (x) = 0.24158 0.40090
# Poissons Ratio (y) = 0.07863 0.27395
# Poissons Ratio (z) = 0.16674 0.35008
#
# Static dielectric constant tensor:
#      x y z
#    x 1.899260 0.000000 -0.012510 
#    y 0.000000 1.781420 0.000000 
#    z -0.012510 0.000000 1.830860 
# 
# From -- ./inp_files/14564.got.cif
#   From: 2010.05.17/outbox.cif.g08.bks.cpg/sg11_8_cif.got.tgz:14564.got - 2010.06.03 12:22:45.
