data_PCOD9166367
_publ_section_title
;
Structure prediction by ZEFSAII (Michael W. Deem and Ramdas Pophale) SiO2 
 PCOD9166367
Probable space group: P 21/M
;
_chemical_formula_sum "Si O2"
_cell_formula_units_Z 28
_cell_length_a 8.849010
_cell_length_b 14.423804
_cell_length_c 12.209365
_cell_angle_alpha 90.000000
_cell_angle_beta 115.988231
_cell_angle_gamma 90.000000
_cell_volume 1400.784283
_symmetry_space_group_name_H-M "P 21/M"
_symmetry_group_IT_number 11
_symmetry_cell_setting 'monoclinic'
loop_
_space_group_symop_operation_xyz
x,y,z
-x,1/2+y,-z
-x,-y,-z
x,1/2-y,z
loop_
_atom_site_type_symbol
_atom_site_label
_atom_site_fract_x
_atom_site_fract_y
_atom_site_fract_z
Si Si1 0.185483 0.640366 0.191324
Si Si2 0.201627 0.147622 0.955877
Si Si3 0.420095 0.484238 0.171936
Si Si4 0.301496 0.147178 0.504463
Si Si5 0.748553 0.912559 0.271123
Si Si6 0.130511 0.542949 0.407698
Si Si7 0.563704 0.141891 0.403679
O O1 0.227908 0.750000 0.211059
O O2 0.317858 0.577402 0.168791
O O3 0.167802 0.594493 0.305267
O O4 0.996216 0.633052 0.082530
O O5 0.249780 0.250000 0.010553
O O6 0.223821 0.144045 0.831426
O O7 0.316089 0.071691 0.049333
O O8 0.608621 0.511441 0.197868
O O9 0.447692 0.418134 0.286124
O O10 0.236407 0.250000 0.457831
O O11 0.317909 0.137653 0.640452
O O12 0.477071 0.136153 0.496034
O O13 0.186678 0.063565 0.425950
O O14 0.932570 0.948759 0.363509
O O15 0.252792 0.595750 0.531440
O O16 0.572152 0.250000 0.375749
#
# Coordination Sequence:
#
# PCOD9166367 Si02
#       7
#     4   4   4   4   4   4   4
#     4  10  22  40  67  92 119 160 210 257 304 363
#     4  10  23  43  64  90 120 164 209 251 308 365
#     4  12  22  41  63  92 127 158 203 259 307 362
#     4  11  22  38  61  92 123 160 205 255 303 360
#     4  11  24  39  63  88 126 165 210 251 299 363
#     4  11  21  42  58  91 128 163 201 252 307 371
#     4  11  23  38  62  92 123 161 202 252 316 368
#
# _framework density 19.988802
#
# number of rings (size 3 to 8) (size 9 to 14) (size 15 to 20)
#    0.000    1.143    2.857    3.857    0.000    4.000 
#    0.000    0.714    0.000    0.000    0.000    0.000 
#    0.000    0.000    0.000    0.000    0.000    0.000 
#
# Total GULP energy -156394.181692 kJ/mol
# GULP energy per Si atom -5585.506489 kJ/mol
# Density = 1.994331 g / cm^3
# Si number density = 19.988802 Si / 1000 Ang^3
#
#
#
# Elastic Constant Matrix: (Units=GPa)
#
#
# Indices 1 2 3 4 5 6 
#
# 1 97.5969 61.3877 42.4862 0.0000 13.4781 0.0000
# 2 61.3877 172.0586 55.8502 0.0000 22.6401 0.0000
# 3 42.4862 55.8502 82.9261 0.0000 14.9548 0.0000
# 4 0.0000 0.0000 0.0000 23.6396 0.0000 -2.1482
# 5 13.4781 22.6401 14.9548 0.0000 21.7016 0.0000
# 6 0.0000 0.0000 0.0000 -2.1482 0.0000 6.4753
#
#
#
# Elastic Compliance Matrix: (Units=1/GPa)
#
#
# Indices 1 2 3 4 5 6 
#
# 1 0.014833 -0.003402 -0.004896 0.000000 -0.002290 0.000000
# 2 -0.003402 0.008708 -0.003271 0.000000 -0.004718 0.000000
# 3 -0.004896 -0.003271 0.017821 0.000000 -0.005828 0.000000
# 4 0.000000 0.000000 0.000000 0.043617 0.000000 0.014470
# 5 -0.002290 -0.004718 -0.005828 0.000000 0.056439 0.000000
# 6 0.000000 0.000000 0.000000 0.014470 0.000000 0.159233
#
#
# Mechanical properties :
#
#
# Convention : Reuss Voigt Hill
#
# Bulk Modulus (GPa) = 54.86837 74.66999 64.76918
# Shear Modulus (GPa) = 15.15770 23.22048 19.18909
#
# Velocity S-wave (km/s) = 2.75673 3.41203 3.10174
# Velocity P-wave (km/s) = 6.13530 7.27734 6.73058
#
# Compressibility (1/GPa) = 0.01822544
#
# Stress axis : x y z
#
# Youngs Moduli (GPa) = 67.41546 114.83204 56.11270
#
# Poissons Ratio (x) = 0.39064 0.27471
# Poissons Ratio (y) = 0.22934 0.18356
# Poissons Ratio (z) = 0.33004 0.37565
#
# Static dielectric constant tensor:
#      x y z
#    x 1.726440 0.000000 -0.011580 
#    y 0.000000 1.697660 0.000000 
#    z -0.011580 0.000000 1.710400 
# 
# From -- ./inp_files/31737.got.cif
#   From: 2010.05.17/outbox.cif.g08.bks.cpg/sg11_16_cif.got.tgz:31737.got - 2010.06.03 12:22:45.
