data_PCOD9166746
_publ_section_title
;
Structure prediction by ZEFSAII (Michael W. Deem and Ramdas Pophale) SiO2 
 PCOD9166746
Probable space group: P 21/M
;
_chemical_formula_sum "Si O2"
_cell_formula_units_Z 24
_cell_length_a 11.901031
_cell_length_b 14.104086
_cell_length_c 14.152490
_cell_angle_alpha 90.000000
_cell_angle_beta 150.710539
_cell_angle_gamma 90.000000
_cell_volume 1162.166628
_symmetry_space_group_name_H-M "P 21/M"
_symmetry_group_IT_number 11
_symmetry_cell_setting 'monoclinic'
loop_
_space_group_symop_operation_xyz
x,y,z
-x,1/2+y,-z
-x,-y,-z
x,1/2-y,z
loop_
_atom_site_type_symbol
_atom_site_label
_atom_site_fract_x
_atom_site_fract_y
_atom_site_fract_z
Si Si1 0.271979 0.483882 0.703110
Si Si2 0.377802 0.134942 0.967042
Si Si3 0.517409 0.888322 0.511770
Si Si4 0.985555 0.141721 0.820944
Si Si5 0.997853 0.360684 0.038109
Si Si6 0.517744 0.141643 0.736347
O O1 0.343509 0.410487 0.838713
O O2 0.356578 0.433583 0.669230
O O3 0.000000 0.500000 0.500000
O O4 0.408343 0.581414 0.826220
O O5 0.401318 0.250000 0.980386
O O6 0.150467 0.105111 0.860440
O O7 0.755821 0.862915 0.734391
O O8 0.515986 0.856861 0.401724
O O9 0.287185 0.855675 0.396715
O O10 0.500000 0.000000 0.500000
O O11 0.067203 0.250000 0.891867
O O12 0.005587 0.094210 0.939178
O O13 0.936028 0.250000 0.977916
O O14 0.782206 0.392676 0.942382
O O15 0.484692 0.250000 0.747377
#
# Coordination Sequence:
#
# PCOD9166746 Si02
#       6
#     4   4   4   4   4   4
#     4  11  26  43  69  95 127 167 226 273 325 383
#     4  10  24  45  67  93 129 169 214 271 329 383
#     4  11  23  32  60  94 127 162 205 257 314 382
#     4   9  20  38  60  87 123 160 201 251 309 380
#     4   9  19  37  59  85 120 165 203 247 312 377
#     4  10  23  42  62  90 129 168 213 265 318 382
#
# _framework density 20.651083
#
# number of rings (size 3 to 8) (size 9 to 14) (size 15 to 20)
#    0.000    2.000    0.000    3.000    7.000    4.000 
#    0.000    3.333    0.000    0.000    0.000    0.000 
#    0.000    0.000    0.000    0.000    0.000    0.000 
#
# Total GULP energy -133887.820725 kJ/mol
# GULP energy per Si atom -5578.659197 kJ/mol
# Density = 2.060408 g / cm^3
# Si number density = 20.651083 Si / 1000 Ang^3
#
#
#
# Elastic Constant Matrix: (Units=GPa)
#
#
# Indices 1 2 3 4 5 6 
#
# 1 75.6341 18.3487 28.3367 0.0000 27.4021 0.0000
# 2 18.3487 112.3182 12.7582 0.0000 7.9692 0.0000
# 3 28.3367 12.7582 130.5357 0.0000 25.8551 0.0000
# 4 0.0000 0.0000 0.0000 25.0895 0.0000 5.8582
# 5 27.4021 7.9692 25.8551 0.0000 27.5524 0.0000
# 6 0.0000 0.0000 0.0000 5.8582 0.0000 31.0006
#
#
#
# Elastic Compliance Matrix: (Units=1/GPa)
#
#
# Indices 1 2 3 4 5 6 
#
# 1 0.021119 -0.001981 -0.000423 0.000000 -0.020034 0.000000
# 2 -0.001981 0.009297 -0.000413 0.000000 -0.000332 0.000000
# 3 -0.000423 -0.000413 0.009441 0.000000 -0.008319 0.000000
# 4 0.000000 0.000000 0.000000 0.041697 0.000000 -0.007880
# 5 -0.020034 -0.000332 -0.008319 0.000000 0.064122 0.000000
# 6 0.000000 0.000000 0.000000 -0.007880 0.000000 0.033746
#
#
# Mechanical properties :
#
#
# Convention : Reuss Voigt Hill
#
# Bulk Modulus (GPa) = 29.21934 48.59724 38.90829
# Shear Modulus (GPa) = 25.45011 33.99812 29.72412
#
# Velocity S-wave (km/s) = 3.51434 4.06188 3.79799
# Velocity P-wave (km/s) = 5.53600 6.75145 6.17371
#
# Compressibility (1/GPa) = 0.03422391
#
# Stress axis : x y z
#
# Youngs Moduli (GPa) = 47.35146 107.55835 105.92494
#
# Poissons Ratio (x) = 0.21302 0.04478
# Poissons Ratio (y) = 0.09378 0.04375
# Poissons Ratio (z) = 0.02002 0.04443
#
# Static dielectric constant tensor:
#      x y z
#    x 1.769310 0.000000 0.006720 
#    y 0.000000 1.415220 0.000000 
#    z 0.006720 0.000000 1.741790 
# 
# From -- ./inp_files/50438.got.cif
#   From: 2010.05.17/outbox.cif.g08.bks.cpg/sg11_26_cif.got.tgz:50438.got - 2010.06.03 12:22:45.
