data_PCOD9166217
_publ_section_title
;
Structure prediction by ZEFSAII (Michael W. Deem and Ramdas Pophale) SiO2 
 PCOD9166217
Probable space group: P 21/M
;
_chemical_formula_sum "Si O2"
_cell_formula_units_Z 20
_cell_length_a 11.631839
_cell_length_b 9.762788
_cell_length_c 8.825390
_cell_angle_alpha 90.000000
_cell_angle_beta 65.645723
_cell_angle_gamma 90.000000
_cell_volume 913.020940
_symmetry_space_group_name_H-M "P 21/M"
_symmetry_group_IT_number 11
_symmetry_cell_setting 'monoclinic'
loop_
_space_group_symop_operation_xyz
x,y,z
-x,1/2+y,-z
-x,-y,-z
x,1/2-y,z
loop_
_atom_site_type_symbol
_atom_site_label
_atom_site_fract_x
_atom_site_fract_y
_atom_site_fract_z
Si Si1 0.008615 0.250000 0.847922
Si Si2 0.788994 0.250000 0.204406
Si Si3 0.373205 0.024509 0.751935
Si Si4 0.077275 0.423767 0.541351
Si Si5 0.219979 0.250000 0.987429
Si Si6 0.997792 0.750000 0.645771
Si Si7 0.635289 0.595161 0.591421
O O1 0.022325 0.385491 0.737682
O O2 0.125193 0.250000 0.897012
O O3 0.881423 0.250000 0.010255
O O4 0.701594 0.383799 0.239584
O O5 0.880898 0.250000 0.301190
O O6 0.305663 0.116192 0.915268
O O7 0.372048 0.097282 0.588177
O O8 0.518364 0.993786 0.711417
O O9 0.089138 0.250000 0.489575
O O10 0.019353 0.589241 0.562973
O O11 0.225677 0.457866 0.445810
O O12 0.127826 0.250000 0.180542
O O13 0.620103 0.750000 0.655913
#
# Coordination Sequence:
#
# PCOD9166217 Si02
#       7
#     2   2   4   4   2   2   4
#     4  10  22  39  62  85 131 159 203 250 317 351
#     4  11  24  37  62 103 116 158 206 264 294 362
#     4  11  22  38  66  92 124 151 219 250 304 357
#     4  11  21  40  63  89 123 169 199 246 311 377
#     4  11  22  41  60  95 120 166 196 266 306 352
#     4  10  24  35  62  89 129 157 209 246 311 371
#     4  11  20  40  64  90 121 167 198 257 308 359
#
# _framework density 21.905304999999998
#
# number of rings (size 3 to 8) (size 9 to 14) (size 15 to 20)
#    0.000    1.200    6.000    1.200    2.800    1.600 
#    0.000    3.000    4.400    0.000    0.000    0.000 
#    0.000    0.000    0.000    0.000    0.000    0.000 
#
# Total GULP energy -111688.103135 kJ/mol
# GULP energy per Si atom -5584.405157 kJ/mol
# Density = 2.185545 g / cm^3
# Si number density = 21.905305 Si / 1000 Ang^3
#
#
#
# Elastic Constant Matrix: (Units=GPa)
#
#
# Indices 1 2 3 4 5 6 
#
# 1 132.7170 67.0342 63.1194 0.0000 -35.0613 0.0000
# 2 67.0342 144.1462 64.0194 0.0000 -23.9304 0.0000
# 3 63.1194 64.0194 101.8364 0.0000 -20.7017 0.0000
# 4 0.0000 0.0000 0.0000 16.4182 0.0000 4.9843
# 5 -35.0613 -23.9304 -20.7017 0.0000 41.5466 0.0000
# 6 0.0000 0.0000 0.0000 4.9843 0.0000 20.1193
#
#
#
# Elastic Compliance Matrix: (Units=1/GPa)
#
#
# Indices 1 2 3 4 5 6 
#
# 1 0.013151 -0.002723 -0.005009 0.000000 0.007033 0.000000
# 2 -0.002723 0.010494 -0.004615 0.000000 0.001447 0.000000
# 3 -0.005009 -0.004615 0.016052 0.000000 0.001113 0.000000
# 4 0.000000 0.000000 0.000000 0.065862 0.000000 -0.016316
# 5 0.007033 0.001447 0.001113 0.000000 0.031393 0.000000
# 6 0.000000 0.000000 0.000000 -0.016316 0.000000 0.053746
#
#
# Mechanical properties :
#
#
# Convention : Reuss Voigt Hill
#
# Bulk Modulus (GPa) = 66.66007 85.22730 75.94369
# Shear Modulus (GPa) = 22.68693 27.91857 25.30275
#
# Velocity S-wave (km/s) = 3.22169 3.57390 3.40236
# Velocity P-wave (km/s) = 6.65854 7.48478 7.08372
#
# Compressibility (1/GPa) = 0.01500148
#
# Stress axis : x y z
#
# Youngs Moduli (GPa) = 76.04096 95.29669 62.29842
#
# Poissons Ratio (x) = 0.25952 0.31207
# Poissons Ratio (y) = 0.20708 0.28749
# Poissons Ratio (z) = 0.38091 0.43977
#
# Static dielectric constant tensor:
#      x y z
#    x 1.809950 0.000000 0.049950 
#    y 0.000000 1.904190 0.000000 
#    z 0.049950 0.000000 1.752620 
# 
# From -- ./inp_files/36961.got.cif
#   From: 2010.05.17/outbox.cif.g08.bks.cpg/sg11_19_cif.got.tgz:36961.got - 2010.06.03 12:22:45.
