data_PCOD9166189
_publ_section_title
;
Structure prediction by ZEFSAII (Michael W. Deem and Ramdas Pophale) SiO2 
 PCOD9166189
Probable space group: P 21/M
;
_chemical_formula_sum "Si O2"
_cell_formula_units_Z 28
_cell_length_a 7.643233
_cell_length_b 13.702511
_cell_length_c 11.811060
_cell_angle_alpha 90.000000
_cell_angle_beta 115.399959
_cell_angle_gamma 90.000000
_cell_volume 1117.416963
_symmetry_space_group_name_H-M "P 21/M"
_symmetry_group_IT_number 11
_symmetry_cell_setting 'monoclinic'
loop_
_space_group_symop_operation_xyz
x,y,z
-x,1/2+y,-z
-x,-y,-z
x,1/2-y,z
loop_
_atom_site_type_symbol
_atom_site_label
_atom_site_fract_x
_atom_site_fract_y
_atom_site_fract_z
Si Si1 0.147743 0.870217 0.883770
Si Si2 0.419708 0.638408 0.274899
Si Si3 0.352448 0.353385 0.437956
Si Si4 0.050537 0.584332 0.603412
Si Si5 0.525643 0.434726 0.280109
Si Si6 0.992091 0.867971 0.078024
Si Si7 0.579650 0.635746 0.992721
O O1 0.141727 0.750000 0.865493
O O2 0.087181 0.920458 0.749840
O O3 0.014330 0.897016 0.952581
O O4 0.369654 0.897265 0.978625
O O5 0.450747 0.750000 0.239682
O O6 0.481054 0.641572 0.422699
O O7 0.547395 0.550240 0.258903
O O8 0.195646 0.612079 0.194167
O O9 0.358798 0.250000 0.377770
O O10 0.387052 0.430666 0.350036
O O11 0.151174 0.357926 0.449416
O O12 0.268946 0.613586 0.628829
O O13 0.000000 0.500000 0.500000
O O14 0.443615 0.380872 0.148618
O O15 0.979616 0.750000 0.072350
O O16 0.793358 0.903630 0.078929
O O17 0.583923 0.750000 0.019707
#
# Coordination Sequence:
#
# PCOD9166189 Si02
#       7
#     4   4   4   4   4   4   4
#     4   9  18  34  57  84 112 149 199 248 297 354
#     4  10  22  39  60  87 125 169 208 249 305 371
#     4  11  23  41  65  92 123 163 205 253 314 371
#     4  11  22  37  61  90 124 156 197 257 305 361
#     4  11  22  40  65  89 126 161 205 261 305 363
#     4   9  18  37  59  82 119 161 200 249 304 357
#     4   9  18  33  57  89 115 146 200 257 304 353
#
# _framework density 25.057791000000002
#
# number of rings (size 3 to 8) (size 9 to 14) (size 15 to 20)
#    0.000    2.000    1.429    2.143    0.000    3.429 
#    0.000    5.714    0.000    7.714    0.000    0.000 
#    0.000    0.000    0.000    0.000    0.000    0.000 
#
# Total GULP energy -156302.424917 kJ/mol
# GULP energy per Si atom -5582.229461 kJ/mol
# Density = 2.500076 g / cm^3
# Si number density = 25.057791 Si / 1000 Ang^3
#
#
#
# Elastic Constant Matrix: (Units=GPa)
#
#
# Indices 1 2 3 4 5 6 
#
# 1 118.6242 44.9727 33.6049 0.0000 23.4545 0.0000
# 2 44.9727 97.7995 28.0534 0.0000 -13.9320 0.0000
# 3 33.6049 28.0534 111.9581 0.0000 13.0786 0.0000
# 4 0.0000 0.0000 0.0000 25.3318 0.0000 -4.1347
# 5 23.4545 -13.9320 13.0786 0.0000 36.0207 0.0000
# 6 0.0000 0.0000 0.0000 -4.1347 0.0000 27.1349
#
#
#
# Elastic Compliance Matrix: (Units=1/GPa)
#
#
# Indices 1 2 3 4 5 6 
#
# 1 0.014005 -0.007889 -0.000841 0.000000 -0.011866 0.000000
# 2 -0.007889 0.016612 -0.003284 0.000000 0.012755 0.000000
# 3 -0.000841 -0.003284 0.010539 0.000000 -0.004549 0.000000
# 4 0.000000 0.000000 0.000000 0.040483 0.000000 0.006169
# 5 -0.011866 0.012755 -0.004549 0.000000 0.042073 0.000000
# 6 0.000000 0.000000 0.000000 0.006169 0.000000 0.037793
#
#
# Mechanical properties :
#
#
# Convention : Reuss Voigt Hill
#
# Bulk Modulus (GPa) = 58.38823 60.18266 59.28544
# Shear Modulus (GPa) = 26.14477 32.48086 29.31281
#
# Velocity S-wave (km/s) = 3.23364 3.60424 3.42396
# Velocity P-wave (km/s) = 6.10688 6.43354 6.27233
#
# Compressibility (1/GPa) = 0.01712674
#
# Stress axis : x y z
#
# Youngs Moduli (GPa) = 71.40178 60.19750 94.88841
#
# Poissons Ratio (x) = 0.47492 0.07979
# Poissons Ratio (y) = 0.56332 0.31165
# Poissons Ratio (z) = 0.06004 0.19771
#
# Static dielectric constant tensor:
#      x y z
#    x 1.968250 0.000000 0.059410 
#    y 0.000000 2.274960 0.000000 
#    z 0.059410 0.000000 1.919880 
# 
# From -- ./inp_files/47672.got.cif
#   From: 2010.05.17/outbox.cif.g08.bks.cpg/sg11_24_cif.got.tgz:47672.got - 2010.06.03 12:22:45.
