data_PCOD9166017
_publ_section_title
;
Structure prediction by ZEFSAII (Michael W. Deem and Ramdas Pophale) SiO2 
 PCOD9166017
Probable space group: P 21/M
;
_chemical_formula_sum "Si O2"
_cell_formula_units_Z 24
_cell_length_a 6.816925
_cell_length_b 24.332229
_cell_length_c 5.385882
_cell_angle_alpha 90.000000
_cell_angle_beta 68.727182
_cell_angle_gamma 90.000000
_cell_volume 832.490958
_symmetry_space_group_name_H-M "P 21/M"
_symmetry_group_IT_number 11
_symmetry_cell_setting 'monoclinic'
loop_
_space_group_symop_operation_xyz
x,y,z
-x,1/2+y,-z
-x,-y,-z
x,1/2-y,z
loop_
_atom_site_type_symbol
_atom_site_label
_atom_site_fract_x
_atom_site_fract_y
_atom_site_fract_z
Si Si1 0.196959 0.750000 0.721702
Si Si2 0.136148 0.866793 0.904448
Si Si3 0.912034 0.957373 0.240670
Si Si4 0.128620 0.750000 0.250623
Si Si5 0.541891 0.631869 0.044892
Si Si6 0.309940 0.952585 0.421820
Si Si7 0.288634 0.313144 0.527892
O O1 0.282800 0.750000 0.953073
O O2 0.083736 0.809718 0.790302
O O3 0.274637 0.750000 0.415657
O O4 0.264139 0.907677 0.658208
O O5 0.929551 0.900140 0.085132
O O6 0.305805 0.858022 0.046085
O O7 0.094232 0.950730 0.360977
O O8 0.708419 0.985067 0.461366
O O9 0.000000 0.000000 0.000000
O O10 0.959190 0.799921 0.324352
O O11 0.502155 0.568652 0.161104
O O12 0.601630 0.665873 0.267648
O O13 0.671578 0.648511 0.733592
O O14 0.363954 0.250000 0.445774
#
# Coordination Sequence:
#
# PCOD9166017 Si02
#       7
#     2   4   4   2   4   4   4
#     4  12  26  38  57  79 120 154 198 227 270 353
#     4  10  22  33  56  90 124 150 180 227 296 346
#     4   8  16  32  52  78 125 158 182 211 269 369
#     4  10  26  44  53  73 104 170 210 227 270 333
#     4  11  19  33  57  89 110 142 178 246 303 329
#     4   9  17  32  52  87 124 145 182 221 290 358
#     4  10  22  37  58  72 111 146 202 239 280 334
#
# _framework density 28.829139000000001
#
# number of rings (size 3 to 8) (size 9 to 14) (size 15 to 20)
#    0.500    1.667    1.667    1.500    7.000    0.000 
#    1.500    0.000    0.000    0.000    0.000    7.000 
#    0.000    0.000    0.000    0.000    0.000    0.000 
#
# Total GULP energy -133867.079023 kJ/mol
# GULP energy per Si atom -5577.794959 kJ/mol
# Density = 2.876352 g / cm^3
# Si number density = 28.829139 Si / 1000 Ang^3
#
#
#
# Elastic Constant Matrix: (Units=GPa)
#
#
# Indices 1 2 3 4 5 6 
#
# 1 101.4658 14.3027 47.6141 0.0000 -15.9584 0.0000
# 2 14.3027 168.8964 24.2164 0.0000 19.1802 0.0000
# 3 47.6141 24.2164 211.8832 0.0000 33.6275 0.0000
# 4 0.0000 0.0000 0.0000 59.4781 0.0000 0.9652
# 5 -15.9584 19.1802 33.6275 0.0000 40.3391 0.0000
# 6 0.0000 0.0000 0.0000 0.9652 0.0000 33.7097
#
#
#
# Elastic Compliance Matrix: (Units=1/GPa)
#
#
# Indices 1 2 3 4 5 6 
#
# 1 0.013762 -0.001654 -0.004486 0.000000 0.009970 0.000000
# 2 -0.001654 0.006472 0.000259 0.000000 -0.003947 0.000000
# 3 -0.004486 0.000259 0.006914 0.000000 -0.007661 0.000000
# 4 0.000000 0.000000 0.000000 0.016821 0.000000 -0.000482
# 5 0.009970 -0.003947 -0.007661 0.000000 0.036998 0.000000
# 6 0.000000 0.000000 0.000000 -0.000482 0.000000 0.029679
#
#
# Mechanical properties :
#
#
# Convention : Reuss Voigt Hill
#
# Bulk Modulus (GPa) = 65.00065 72.72352 68.86209
# Shear Modulus (GPa) = 39.20430 53.11285 46.15858
#
# Velocity S-wave (km/s) = 3.69166 4.29690 4.00573
# Velocity P-wave (km/s) = 6.38490 7.06387 6.73295
#
# Compressibility (1/GPa) = 0.01538446
#
# Stress axis : x y z
#
# Youngs Moduli (GPa) = 72.66411 154.50939 144.63441
#
# Poissons Ratio (x) = 0.25563 0.64881
# Poissons Ratio (y) = 0.12022 -0.03740
# Poissons Ratio (z) = 0.32596 -0.03995
#
# Static dielectric constant tensor:
#      x y z
#    x 2.229510 0.000000 -0.050270 
#    y 0.000000 2.570870 0.000000 
#    z -0.050270 0.000000 2.251530 
# 
# From -- ./inp_files/2753.got.cif
#   From: 2010.05.17/outbox.cif.g08.bks.cpg/sg11_2_cif.got.tgz:2753.got - 2010.06.03 12:22:45.
