data_PCOD9166004
_publ_section_title
;
Structure prediction by ZEFSAII (Michael W. Deem and Ramdas Pophale) SiO2 
 PCOD9166004
Probable space group: P 21/M
;
_chemical_formula_sum "Si O2"
_cell_formula_units_Z 26
_cell_length_a 14.088923
_cell_length_b 13.714727
_cell_length_c 9.057845
_cell_angle_alpha 90.000000
_cell_angle_beta 46.346489
_cell_angle_gamma 90.000000
_cell_volume 1266.324117
_symmetry_space_group_name_H-M "P 21/M"
_symmetry_group_IT_number 11
_symmetry_cell_setting 'monoclinic'
loop_
_space_group_symop_operation_xyz
x,y,z
-x,1/2+y,-z
-x,-y,-z
x,1/2-y,z
loop_
_atom_site_type_symbol
_atom_site_label
_atom_site_fract_x
_atom_site_fract_y
_atom_site_fract_z
Si Si1 0.145210 0.955797 0.824111
Si Si2 0.304281 0.425499 0.883133
Si Si3 0.829910 0.057457 0.551121
Si Si4 0.480616 0.250000 0.603356
Si Si5 0.757889 0.250000 0.182042
Si Si6 0.413360 0.927289 0.000839
Si Si7 0.109920 0.361385 0.343129
Si Si8 0.517134 0.250000 0.235797
O O1 0.176132 0.943053 0.618464
O O2 0.161632 0.849423 0.883171
O O3 0.244539 0.030240 0.797979
O O4 0.000000 0.000000 0.000000
O O5 0.418346 0.346893 0.737484
O O6 0.355462 0.516479 0.922452
O O7 0.192223 0.376161 0.103938
O O8 0.705217 0.104281 0.766094
O O9 0.960002 0.112885 0.465565
O O10 0.841312 0.945467 0.597411
O O11 0.638387 0.250000 0.430609
O O12 0.442742 0.250000 0.469856
O O13 0.671555 0.250000 0.123864
O O14 0.503109 0.842611 0.842366
O O15 0.500000 0.000000 0.000000
O O16 0.123586 0.250000 0.380164
#
# Coordination Sequence:
#
# PCOD9166004 Si02
#       8
#     4   4   4   2   2   4   4   2
#     4  12  25  45  71 102 141 178 237 288 350 411
#     4  11  22  44  69 100 140 181 224 289 339 411
#     4  10  25  41  66  99 130 182 222 281 342 400
#     4  10  24  42  74  96 136 186 229 284 352 401
#     4  10  26  42  71 100 139 179 231 285 351 416
#     4  11  26  44  68  98 141 178 233 282 340 419
#     4  10  21  44  64  96 136 177 226 274 337 406
#     4  10  24  46  65 104 127 187 224 281 347 405
#
# _framework density 20.531869
#
# number of rings (size 3 to 8) (size 9 to 14) (size 15 to 20)
#    0.462    0.923    3.846    0.000    6.462    2.462 
#    4.154    0.000    0.000    0.000    0.000    0.000 
#    0.000    0.000    0.000    0.000    0.000    0.000 
#
# Total GULP energy -145255.623874 kJ/mol
# GULP energy per Si atom -5586.754764 kJ/mol
# Density = 2.048514 g / cm^3
# Si number density = 20.531869 Si / 1000 Ang^3
#
#
#
# Elastic Constant Matrix: (Units=GPa)
#
#
# Indices 1 2 3 4 5 6 
#
# 1 42.0845 -15.6147 -14.8376 0.0000 8.5672 0.0000
# 2 -15.6147 88.3786 -3.2907 0.0000 -0.6127 0.0000
# 3 -14.8376 -3.2907 62.0191 0.0000 -2.8648 0.0000
# 4 0.0000 0.0000 0.0000 28.4658 0.0000 -3.9435
# 5 8.5672 -0.6127 -2.8648 0.0000 38.9947 0.0000
# 6 0.0000 0.0000 0.0000 -3.9435 0.0000 28.6672
#
#
#
# Elastic Compliance Matrix: (Units=1/GPa)
#
#
# Indices 1 2 3 4 5 6 
#
# 1 0.029461 0.005428 0.007065 0.000000 -0.005868 0.000000
# 2 0.005428 0.012339 0.001914 0.000000 -0.000858 0.000000
# 3 0.007065 0.001914 0.017906 0.000000 -0.000207 0.000000
# 4 0.000000 0.000000 0.000000 0.035812 0.000000 0.004926
# 5 -0.005868 -0.000858 -0.000207 0.000000 0.026905 0.000000
# 6 0.000000 0.000000 0.000000 0.004926 0.000000 0.035561
#
#
# Mechanical properties :
#
#
# Convention : Reuss Voigt Hill
#
# Bulk Modulus (GPa) = 11.29696 13.88847 12.59272
# Shear Modulus (GPa) = 31.51024 34.30722 32.90873
#
# Velocity S-wave (km/s) = 3.92177 4.09213 4.00786
# Velocity P-wave (km/s) = 5.10110 5.39504 5.25012
#
# Compressibility (1/GPa) = 0.08851940
#
# Stress axis : x y z
#
# Youngs Moduli (GPa) = 33.94307 81.04255 55.84609
#
# Poissons Ratio (x) = -0.43986 -0.39457
# Poissons Ratio (y) = -0.18423 -0.10687
# Poissons Ratio (z) = -0.23982 -0.15508
#
# Static dielectric constant tensor:
#      x y z
#    x 1.739520 0.000000 0.002160 
#    y 0.000000 1.717440 0.000000 
#    z 0.002160 0.000000 1.724940 
# 
# From -- ./inp_files/22426.got.cif
#   From: 2010.05.17/outbox.cif.g08.bks.cpg/sg11_12_cif.got.tgz:22426.got - 2010.06.03 12:22:45.
