data_PCOD9166034
_publ_section_title
;
Structure prediction by ZEFSAII (Michael W. Deem and Ramdas Pophale) SiO2 
 PCOD9166034
Probable space group: P 21/M
;
_chemical_formula_sum "Si O2"
_cell_formula_units_Z 26
_cell_length_a 13.477643
_cell_length_b 14.163736
_cell_length_c 9.336151
_cell_angle_alpha 90.000000
_cell_angle_beta 43.423694
_cell_angle_gamma 90.000000
_cell_volume 1225.071774
_symmetry_space_group_name_H-M "P 21/M"
_symmetry_group_IT_number 11
_symmetry_cell_setting 'monoclinic'
loop_
_space_group_symop_operation_xyz
x,y,z
-x,1/2+y,-z
-x,-y,-z
x,1/2-y,z
loop_
_atom_site_type_symbol
_atom_site_label
_atom_site_fract_x
_atom_site_fract_y
_atom_site_fract_z
Si Si1 0.618142 0.750000 0.801937
Si Si2 0.741875 0.358839 0.549418
Si Si3 0.000583 0.481222 0.260108
Si Si4 0.513131 0.357657 0.557558
Si Si5 0.909515 0.854451 0.566640
Si Si6 0.402130 0.577327 0.024468
Si Si7 0.709602 0.482068 0.165449
O O1 0.741340 0.830861 0.716831
O O2 0.500785 0.667240 0.888092
O O3 0.787873 0.250000 0.486824
O O4 0.584250 0.363768 0.640867
O O5 0.720987 0.389869 0.734890
O O6 0.853823 0.431319 0.362606
O O7 0.063671 0.406756 0.311248
O O8 0.964002 0.576678 0.384549
O O9 0.120435 0.501263 0.015736
O O10 0.474351 0.250000 0.567810
O O11 0.641797 0.394706 0.322205
O O12 0.377698 0.426603 0.687090
O O13 0.980479 0.750000 0.489893
O O14 0.500000 0.500000 0.000000
O O15 0.333863 0.535252 0.953558
#
# Coordination Sequence:
#
# PCOD9166034 Si02
#       7
#     2   4   4   4   4   4   4
#     4  10  22  36  60  96 134 166 202 260 318 374
#     4  11  23  39  63  95 126 163 208 261 313 377
#     4  11  21  39  61  89 130 165 208 257 318 382
#     4  10  25  45  62  87 126 164 215 262 310 379
#     4   9  21  35  56  92 133 164 198 253 319 373
#     4  12  21  38  66  98 127 159 213 263 317 366
#     4  11  25  41  66  92 122 172 206 260 323 374
#
# _framework density 21.223246
#
# number of rings (size 3 to 8) (size 9 to 14) (size 15 to 20)
#    0.462    0.923    2.308    4.154    1.077    2.462 
#    0.000    0.000    0.000    0.000    0.000    0.000 
#    0.000    0.000    0.000    0.000    0.000    0.000 
#
# Total GULP energy -144781.181702 kJ/mol
# GULP energy per Si atom -5568.506989 kJ/mol
# Density = 2.117494 g / cm^3
# Si number density = 21.223246 Si / 1000 Ang^3
#
#
#
# Elastic Constant Matrix: (Units=GPa)
#
#
# Indices 1 2 3 4 5 6 
#
# 1 25.6999 0.1074 -5.5974 0.0000 -10.3948 0.0000
# 2 0.1074 129.1079 2.3373 0.0000 -3.9917 0.0000
# 3 -5.5974 2.3373 40.7748 0.0000 -0.4238 0.0000
# 4 0.0000 0.0000 0.0000 19.6045 0.0000 -11.3591
# 5 -10.3948 -3.9917 -0.4238 0.0000 29.2917 0.0000
# 6 0.0000 0.0000 0.0000 -11.3591 0.0000 36.3929
#
#
#
# Elastic Compliance Matrix: (Units=1/GPa)
#
#
# Indices 1 2 3 4 5 6 
#
# 1 0.047185 0.000363 0.006632 0.000000 0.016890 0.000000
# 2 0.000363 0.007789 -0.000384 0.000000 0.001185 0.000000
# 3 0.006632 -0.000384 0.025485 0.000000 0.002670 0.000000
# 4 0.000000 0.000000 0.000000 0.062270 0.000000 0.019436
# 5 0.016890 0.001185 0.002670 0.000000 0.040333 0.000000
# 6 0.000000 0.000000 0.000000 0.019436 0.000000 0.033544
#
#
# Mechanical properties :
#
#
# Convention : Reuss Voigt Hill
#
# Bulk Modulus (GPa) = 10.67462 21.03081 15.85272
# Shear Modulus (GPa) = 21.31176 30.30683 25.80930
#
# Velocity S-wave (km/s) = 3.17230 3.78299 3.49103
# Velocity P-wave (km/s) = 4.29635 5.38630 4.87190
#
# Compressibility (1/GPa) = 0.09368016
#
# Stress axis : x y z
#
# Youngs Moduli (GPa) = 21.19315 128.39046 39.23858
#
# Poissons Ratio (x) = -0.04659 -0.26023
# Poissons Ratio (y) = -0.00769 0.01508
# Poissons Ratio (z) = -0.14055 0.04935
#
# Static dielectric constant tensor:
#      x y z
#    x 1.797390 0.000000 -0.004990 
#    y 0.000000 1.747090 0.000000 
#    z -0.004990 0.000000 1.796680 
# 
# From -- ./inp_files/22415.got.cif
#   From: 2010.05.17/outbox.cif.g08.bks.cpg/sg11_12_cif.got.tgz:22415.got - 2010.06.03 12:22:45.
