data_PCOD9166673
_publ_section_title
;
Structure prediction by ZEFSAII (Michael W. Deem and Ramdas Pophale) SiO2 
 PCOD9166673
Probable space group: P 21/M
;
_chemical_formula_sum "Si O2"
_cell_formula_units_Z 32
_cell_length_a 14.751002
_cell_length_b 22.798536
_cell_length_c 9.019270
_cell_angle_alpha 90.000000
_cell_angle_beta 147.547955
_cell_angle_gamma 90.000000
_cell_volume 1627.591066
_symmetry_space_group_name_H-M "P 21/M"
_symmetry_group_IT_number 11
_symmetry_cell_setting 'monoclinic'
loop_
_space_group_symop_operation_xyz
x,y,z
-x,1/2+y,-z
-x,-y,-z
x,1/2-y,z
loop_
_atom_site_type_symbol
_atom_site_label
_atom_site_fract_x
_atom_site_fract_y
_atom_site_fract_z
Si Si1 0.062984 0.577644 0.377832
Si Si2 0.679534 0.518764 0.175997
Si Si3 0.540182 0.498494 0.383786
Si Si4 0.712075 0.374221 0.550731
Si Si5 0.383898 0.315626 0.196204
Si Si6 0.131443 0.365996 0.622910
Si Si7 0.989265 0.680115 0.853730
Si Si8 0.242410 0.104490 0.255486
O O1 0.167874 0.518541 0.547191
O O2 0.190303 0.622616 0.470868
O O3 0.996566 0.599945 0.444243
O O4 0.906064 0.573560 0.046767
O O5 0.732947 0.586319 0.250275
O O6 0.500000 0.500000 0.000000
O O7 0.636793 0.502863 0.947096
O O8 0.500000 0.500000 0.500000
O O9 0.643550 0.439794 0.487312
O O10 0.652692 0.555982 0.510390
O O11 0.551761 0.332336 0.338911
O O12 0.842559 0.351786 0.854408
O O13 0.392006 0.250000 0.266247
O O14 0.355507 0.361589 0.290188
O O15 0.230007 0.322854 0.869443
O O16 0.045644 0.335317 0.365251
O O17 0.999518 0.750000 0.889464
O O18 0.842579 0.651336 0.752495
#
# Coordination Sequence:
#
# PCOD9166673 Si02
#       8
#     4   4   4   4   4   4   4   4
#     4  10  23  39  60  90 124 163 201 247 313 374
#     4  12  22  39  60  90 129 161 198 254 316 375
#     4  12  22  38  63  97 126 156 202 260 317 370
#     4  11  23  41  62  92 126 163 204 251 312 371
#     4  11  21  42  65  86 118 165 210 248 300 370
#     4  11  23  40  61  91 120 164 209 255 307 365
#     4  11  25  42  61  90 124 162 207 257 303 359
#     4  10  23  40  64  91 123 159 204 252 314 370
#
# _framework density 19.660958999999998
#
# number of rings (size 3 to 8) (size 9 to 14) (size 15 to 20)
#    0.000    1.000    3.750    3.000    3.500    1.000 
#    0.000    1.875    0.000    0.000    0.000    0.000 
#    0.000    0.000    0.000    0.000    0.000    0.000 
#
# Total GULP energy -178766.156765 kJ/mol
# GULP energy per Si atom -5586.442399 kJ/mol
# Density = 1.961621 g / cm^3
# Si number density = 19.660959 Si / 1000 Ang^3
#
#
#
# Elastic Constant Matrix: (Units=GPa)
#
#
# Indices 1 2 3 4 5 6 
#
# 1 64.6592 -0.8957 -0.5240 0.0000 0.8558 0.0000
# 2 -0.8957 107.3026 34.7623 0.0000 4.0803 0.0000
# 3 -0.5240 34.7623 50.9032 0.0000 -4.8135 0.0000
# 4 0.0000 0.0000 0.0000 18.2804 0.0000 -5.6739
# 5 0.8558 4.0803 -4.8135 0.0000 34.9019 0.0000
# 6 0.0000 0.0000 0.0000 -5.6739 0.0000 16.7005
#
#
#
# Elastic Compliance Matrix: (Units=1/GPa)
#
#
# Indices 1 2 3 4 5 6 
#
# 1 0.015473 0.000134 0.000031 0.000000 -0.000391 0.000000
# 2 0.000134 0.012198 -0.008576 0.000000 -0.002612 0.000000
# 3 0.000031 -0.008576 0.025935 0.000000 0.004579 0.000000
# 4 0.000000 0.000000 0.000000 0.061152 0.000000 0.020776
# 5 -0.000391 -0.002612 0.004579 0.000000 0.029598 0.000000
# 6 0.000000 0.000000 0.000000 0.020776 0.000000 0.066937
#
#
# Mechanical properties :
#
#
# Convention : Reuss Voigt Hill
#
# Bulk Modulus (GPa) = 27.18571 32.17225 29.67898
# Shear Modulus (GPa) = 20.80068 26.61138 23.70603
#
# Velocity S-wave (km/s) = 3.25617 3.68300 3.47615
# Velocity P-wave (km/s) = 5.29095 5.87240 5.58924
#
# Compressibility (1/GPa) = 0.03678403
#
# Stress axis : x y z
#
# Youngs Moduli (GPa) = 64.62874 81.97952 38.55799
#
# Poissons Ratio (x) = -0.01099 -0.00119
# Poissons Ratio (y) = -0.00866 0.33067
# Poissons Ratio (z) = -0.00199 0.70305
#
# Static dielectric constant tensor:
#      x y z
#    x 1.732070 0.000000 0.001590 
#    y 0.000000 1.684650 0.000000 
#    z 0.001590 0.000000 1.696990 
# 
# From -- ./inp_files/23349.got.cif
#   From: 2010.05.17/outbox.cif.g08.bks.cpg/sg11_12_cif.got.tgz:23349.got - 2010.06.03 12:22:45.
