data_PCOD9166022
_publ_section_title
;
Structure prediction by ZEFSAII (Michael W. Deem and Ramdas Pophale) SiO2 
 PCOD9166022
Probable space group: P 21/M
;
_chemical_formula_sum "Si O2"
_cell_formula_units_Z 32
_cell_length_a 10.025092
_cell_length_b 24.520450
_cell_length_c 16.221690
_cell_angle_alpha 90.000000
_cell_angle_beta 154.733393
_cell_angle_gamma 90.000000
_cell_volume 1702.035946
_symmetry_space_group_name_H-M "P 21/M"
_symmetry_group_IT_number 11
_symmetry_cell_setting 'monoclinic'
loop_
_space_group_symop_operation_xyz
x,y,z
-x,1/2+y,-z
-x,-y,-z
x,1/2-y,z
loop_
_atom_site_type_symbol
_atom_site_label
_atom_site_fract_x
_atom_site_fract_y
_atom_site_fract_z
Si Si1 0.174479 0.128309 0.036983
Si Si2 0.348740 0.961086 0.245046
Si Si3 0.298783 0.080272 0.269769
Si Si4 0.000579 0.395940 0.690240
Si Si5 0.188694 0.101090 0.385328
Si Si6 0.562730 0.424702 0.123713
Si Si7 0.261204 0.034512 0.696435
Si Si8 0.751971 0.313364 0.676897
O O1 0.926153 0.079661 0.887066
O O2 0.002028 0.176359 0.891005
O O3 0.244387 0.128513 0.173412
O O4 0.482449 0.107599 0.162722
O O5 0.620638 0.946860 0.462404
O O6 0.484894 0.950103 0.230349
O O7 0.243021 0.022878 0.195264
O O8 0.107292 0.087177 0.245743
O O9 0.659024 0.077317 0.499456
O O10 0.132530 0.413032 0.673959
O O11 0.912360 0.337544 0.682790
O O12 0.260018 0.418701 0.897222
O O13 0.434287 0.151868 0.518667
O O14 0.864316 0.103892 0.252453
O O15 0.616222 0.488316 0.172464
O O16 0.000000 0.000000 0.500000
O O17 0.681834 0.250000 0.629601
#
# Coordination Sequence:
#
# PCOD9166022 Si02
#       8
#     4   4   4   4   4   4   4   4
#     4  10  22  37  59  87 116 159 203 239 291 359
#     4  11  21  34  53  83 127 171 197 229 288 354
#     4  11  20  37  53  85 125 161 198 231 286 357
#     4  10  22  35  57  87 120 162 200 240 293 357
#     4  10  22  35  58  86 113 153 199 247 291 353
#     4  11  21  36  53  88 126 159 197 238 296 359
#     4  12  20  33  55  89 131 170 195 243 287 354
#     4   9  21  45  66  81 109 150 199 257 309 351
#
# _framework density 18.801013000000001
#
# number of rings (size 3 to 8) (size 9 to 14) (size 15 to 20)
#    0.000    1.500    3.750    1.875    1.750    3.000 
#    0.000    5.000    0.000    3.000    0.000    0.000 
#    0.000    0.000    0.000    0.000    0.000    0.000 
#
# Total GULP energy -178378.695837 kJ/mol
# GULP energy per Si atom -5574.334245 kJ/mol
# Density = 1.875822 g / cm^3
# Si number density = 18.801013 Si / 1000 Ang^3
#
#
#
# Elastic Constant Matrix: (Units=GPa)
#
#
# Indices 1 2 3 4 5 6 
#
# 1 152.4702 32.4417 18.8495 0.0000 10.9790 0.0000
# 2 32.4417 81.1982 8.5980 0.0000 -3.8403 0.0000
# 3 18.8495 8.5980 69.3982 0.0000 -5.1251 0.0000
# 4 0.0000 0.0000 0.0000 9.9742 0.0000 -0.3885
# 5 10.9790 -3.8403 -5.1251 0.0000 28.4227 0.0000
# 6 0.0000 0.0000 0.0000 -0.3885 0.0000 17.3983
#
#
#
# Elastic Compliance Matrix: (Units=1/GPa)
#
#
# Indices 1 2 3 4 5 6 
#
# 1 0.007726 -0.003053 -0.001998 0.000000 -0.003757 0.000000
# 2 -0.003053 0.013743 -0.000658 0.000000 0.002917 0.000000
# 3 -0.001998 -0.000658 0.015288 0.000000 0.003439 0.000000
# 4 0.000000 0.000000 0.000000 0.100346 0.000000 0.002241
# 5 -0.003757 0.002917 0.003439 0.000000 0.037649 0.000000
# 6 0.000000 0.000000 0.000000 0.002241 0.000000 0.057527
#
#
# Mechanical properties :
#
#
# Convention : Reuss Voigt Hill
#
# Bulk Modulus (GPa) = 39.46433 46.98278 43.22356
# Shear Modulus (GPa) = 19.83010 27.37085 23.60048
#
# Velocity S-wave (km/s) = 3.25119 3.81966 3.54683
# Velocity P-wave (km/s) = 5.92704 6.67059 6.30978
#
# Compressibility (1/GPa) = 0.02533934
#
# Stress axis : x y z
#
# Youngs Moduli (GPa) = 129.43776 72.76460 65.41202
#
# Poissons Ratio (x) = 0.22214 0.13067
# Poissons Ratio (y) = 0.39516 0.04304
# Poissons Ratio (z) = 0.25857 0.04788
#
# Static dielectric constant tensor:
#      x y z
#    x 1.727960 0.000000 -0.029330 
#    y 0.000000 1.617370 0.000000 
#    z -0.029330 0.000000 1.721970 
# 
# From -- ./inp_files/23440.got.cif
#   From: 2010.05.17/outbox.cif.g08.bks.cpg/sg11_12_cif.got.tgz:23440.got - 2010.06.03 12:22:45.
