data_PCOD9166615
_publ_section_title
;
Structure prediction by ZEFSAII (Michael W. Deem and Ramdas Pophale) SiO2 
 PCOD9166615
Probable space group: P 21/M
;
_chemical_formula_sum "Si O2"
_cell_formula_units_Z 30
_cell_length_a 12.025270
_cell_length_b 18.742801
_cell_length_c 11.794336
_cell_angle_alpha 90.000000
_cell_angle_beta 34.047514
_cell_angle_gamma 90.000000
_cell_volume 1488.325575
_symmetry_space_group_name_H-M "P 21/M"
_symmetry_group_IT_number 11
_symmetry_cell_setting 'monoclinic'
loop_
_space_group_symop_operation_xyz
x,y,z
-x,1/2+y,-z
-x,-y,-z
x,1/2-y,z
loop_
_atom_site_type_symbol
_atom_site_label
_atom_site_fract_x
_atom_site_fract_y
_atom_site_fract_z
Si Si1 0.017354 0.888372 0.073167
Si Si2 0.914259 0.881429 0.841932
Si Si3 0.046227 0.413548 0.616071
Si Si4 0.721190 0.665518 0.772293
Si Si5 0.618566 0.427835 0.871057
Si Si6 0.694139 0.053454 0.551996
Si Si7 0.931902 0.750000 0.993767
Si Si8 0.724213 0.983160 0.180265
O O1 0.005766 0.881974 0.217531
O O2 0.835401 0.939623 0.185117
O O3 0.998896 0.813718 0.025955
O O4 0.210799 0.934551 0.873637
O O5 0.833471 0.870710 0.784088
O O6 0.151382 0.892800 0.635984
O O7 0.867362 0.812732 0.956578
O O8 0.820261 0.949722 0.984004
O O9 0.170806 0.360435 0.432199
O O10 0.179068 0.483725 0.522898
O O11 0.843097 0.433261 0.723830
O O12 0.728445 0.750000 0.777305
O O13 0.498272 0.635387 0.967831
O O14 0.617895 0.415914 0.736370
O O15 0.500000 0.500000 0.000000
O O16 0.508008 0.032367 0.632018
#
# Coordination Sequence:
#
# PCOD9166615 Si02
#       8
#     4   4   4   4   4   4   2   4
#     4  10  23  45  67  97 137 183 223 281 342 397
#     4  11  21  44  69 102 129 173 231 286 335 397
#     4  12  25  41  66 103 139 176 225 279 343 413
#     4  12  26  43  68 101 143 183 223 279 352 415
#     4  12  23  41  68 103 140 178 224 280 346 404
#     4  12  22  39  74 103 131 171 231 289 333 394
#     4  10  24  46  70  86 136 186 220 282 346 394
#     4  10  22  43  71  98 133 174 233 287 326 394
#
# _framework density 20.156880999999998
#
# number of rings (size 3 to 8) (size 9 to 14) (size 15 to 20)
#    0.000    0.800    6.000    2.000    0.933    1.067 
#    1.200    2.667    0.000    0.000    0.000    0.000 
#    0.000    0.000    0.000    0.000    0.000    0.000 
#
# Total GULP energy -167299.757161 kJ/mol
# GULP energy per Si atom -5576.658572 kJ/mol
# Density = 2.011100 g / cm^3
# Si number density = 20.156881 Si / 1000 Ang^3
#
#
#
# Elastic Constant Matrix: (Units=GPa)
#
#
# Indices 1 2 3 4 5 6 
#
# 1 75.8693 5.2074 0.8203 0.0000 -7.7963 0.0000
# 2 5.2074 81.7559 4.9672 0.0000 5.5072 0.0000
# 3 0.8203 4.9672 50.9945 0.0000 -20.7368 0.0000
# 4 0.0000 0.0000 0.0000 12.9215 0.0000 10.1360
# 5 -7.7963 5.5072 -20.7368 0.0000 42.6701 0.0000
# 6 0.0000 0.0000 0.0000 10.1360 0.0000 38.6829
#
#
#
# Elastic Compliance Matrix: (Units=1/GPa)
#
#
# Indices 1 2 3 4 5 6 
#
# 1 0.013577 -0.001154 0.001201 0.000000 0.003213 0.000000
# 2 -0.001154 0.012658 -0.002448 0.000000 -0.003034 0.000000
# 3 0.001201 -0.002448 0.024984 0.000000 0.012677 0.000000
# 4 0.000000 0.000000 0.000000 0.097413 0.000000 -0.025525
# 5 0.003213 -0.003034 0.012677 0.000000 0.030575 0.000000
# 6 0.000000 0.000000 0.000000 -0.025525 0.000000 0.032539
#
#
# Mechanical properties :
#
#
# Convention : Reuss Voigt Hill
#
# Bulk Modulus (GPa) = 21.54446 25.62326 23.58386
# Shear Modulus (GPa) = 21.54961 32.02989 26.78975
#
# Velocity S-wave (km/s) = 3.27325 3.99059 3.64959
# Velocity P-wave (km/s) = 4.99971 5.82860 5.43000
#
# Compressibility (1/GPa) = 0.04641565
#
# Stress axis : x y z
#
# Youngs Moduli (GPa) = 73.65408 79.00014 40.02511
#
# Poissons Ratio (x) = 0.09118 -0.04806
# Poissons Ratio (y) = 0.08501 0.09800
# Poissons Ratio (z) = -0.08843 0.19342
#
# Static dielectric constant tensor:
#      x y z
#    x 1.736110 0.000000 0.012880 
#    y 0.000000 1.696310 0.000000 
#    z 0.012880 0.000000 1.742330 
# 
# From -- ./inp_files/36437.got.cif
#   From: 2010.05.17/outbox.cif.g08.bks.cpg/sg11_19_cif.got.tgz:36437.got - 2010.06.03 12:22:45.
