data_PCOD9166076
_publ_section_title
;
Structure prediction by ZEFSAII (Michael W. Deem and Ramdas Pophale) SiO2 
 PCOD9166076
Probable space group: P 21/M
;
_chemical_formula_sum "Si O2"
_cell_formula_units_Z 20
_cell_length_a 6.941716
_cell_length_b 18.891611
_cell_length_c 8.040665
_cell_angle_alpha 90.000000
_cell_angle_beta 114.394363
_cell_angle_gamma 90.000000
_cell_volume 960.317247
_symmetry_space_group_name_H-M "P 21/M"
_symmetry_group_IT_number 11
_symmetry_cell_setting 'monoclinic'
loop_
_space_group_symop_operation_xyz
x,y,z
-x,1/2+y,-z
-x,-y,-z
x,1/2-y,z
loop_
_atom_site_type_symbol
_atom_site_label
_atom_site_fract_x
_atom_site_fract_y
_atom_site_fract_z
Si Si1 0.651056 0.954315 0.669811
Si Si2 0.668934 0.398688 0.169893
Si Si3 0.072547 0.125181 0.496086
Si Si4 0.943796 0.535485 0.188448
Si Si5 0.287885 0.171772 0.889918
O O1 0.500917 0.919742 0.751217
O O2 0.771766 0.900000 0.592899
O O3 0.500000 0.000000 0.500000
O O4 0.838755 0.004855 0.804764
O O5 0.775114 0.471684 0.143239
O O6 0.856185 0.354769 0.326038
O O7 0.528492 0.356471 0.986066
O O8 0.013974 0.061916 0.605730
O O9 0.199518 0.173904 0.669954
O O10 0.855476 0.608838 0.081120
O O11 0.270593 0.250000 0.958435
#
# Coordination Sequence:
#
# PCOD9166076 Si02
#       5
#     4   4   4   4   4
#     4  11  15  31  61  86 106 135 175 232 285 313
#     4  11  19  35  61  84 109 140 185 233 277 317
#     4   9  20  35  55  84 109 137 181 230 267 331
#     4   9  19  34  57  84 109 135 186 231 266 325
#     4  10  22  38  54  77 115 155 182 218 277 333
#
# _framework density 20.826452
#
# number of rings (size 3 to 8) (size 9 to 14) (size 15 to 20)
#    1.200    0.800    4.000    1.800    0.000    1.600 
#    0.000    7.000    0.000   22.800    0.000    0.000 
#    0.000    0.000    0.000    0.000    0.000    0.000 
#
# Total GULP energy -111375.755780 kJ/mol
# GULP energy per Si atom -5568.787789 kJ/mol
# Density = 2.077905 g / cm^3
# Si number density = 20.826452 Si / 1000 Ang^3
#
#
#
# Elastic Constant Matrix: (Units=GPa)
#
#
# Indices 1 2 3 4 5 6 
#
# 1 123.2918 18.8455 42.4531 0.0000 18.7037 0.0000
# 2 18.8455 87.4726 45.7601 0.0000 26.1046 0.0000
# 3 42.4531 45.7601 110.0490 0.0000 37.3115 0.0000
# 4 0.0000 0.0000 0.0000 5.3618 0.0000 -5.7912
# 5 18.7037 26.1046 37.3115 0.0000 45.8067 0.0000
# 6 0.0000 0.0000 0.0000 -5.7912 0.0000 -1.5839
#
#
#
# Elastic Compliance Matrix: (Units=1/GPa)
#
#
# Indices 1 2 3 4 5 6 
#
# 1 0.009403 0.000027 -0.003221 0.000000 -0.001231 0.000000
# 2 0.000027 0.015370 -0.004736 0.000000 -0.004912 0.000000
# 3 -0.003221 -0.004736 0.015111 0.000000 -0.008294 0.000000
# 4 0.000000 0.000000 0.000000 0.037685 0.000000 -0.137785
# 5 -0.001231 -0.004912 -0.008294 0.000000 0.031889 0.000000
# 6 0.000000 0.000000 0.000000 -0.137785 0.000000 -0.127570
#
#
# Mechanical properties :
#
#
# Convention : Reuss Voigt Hill
#
# Bulk Modulus (GPa) = 41.62683 59.43677 50.53180
# Shear Modulus (GPa) = 868.64750 24.16722 446.40736
#
# Velocity S-wave (km/s) = 20.44490 3.41017 14.65645
# Velocity P-wave (km/s) = 24.02824 6.64129 17.62758
#
# Compressibility (1/GPa) = 0.02402297
#
# Stress axis : x y z
#
# Youngs Moduli (GPa) = 106.35399 65.06215 66.17808
#
# Poissons Ratio (x) = -0.00173 0.21316
# Poissons Ratio (y) = -0.00283 0.31340
# Poissons Ratio (z) = 0.34256 0.30812
#
# Static dielectric constant tensor:
#      x y z
#    x 1.705040 0.000000 -0.004580 
#    y 0.000000 1.702000 0.000000 
#    z -0.004580 0.000000 1.885360 
# 
# From -- ./inp_files/10395.got.cif
#   From: 2010.05.17/outbox.cif.g08.bks.cpg/sg11_6_cif.got.tgz:10395.got - 2010.06.03 12:22:45.
