data_PCOD9166232
_publ_section_title
;
Structure prediction by ZEFSAII (Michael W. Deem and Ramdas Pophale) SiO2 
 PCOD9166232
Probable space group: P 21/M
;
_chemical_formula_sum "Si O2"
_cell_formula_units_Z 32
_cell_length_a 11.464267
_cell_length_b 27.843524
_cell_length_c 8.677284
_cell_angle_alpha 90.000000
_cell_angle_beta 147.045458
_cell_angle_gamma 90.000000
_cell_volume 1506.718162
_symmetry_space_group_name_H-M "P 21/M"
_symmetry_group_IT_number 11
_symmetry_cell_setting 'monoclinic'
loop_
_space_group_symop_operation_xyz
x,y,z
-x,1/2+y,-z
-x,-y,-z
x,1/2-y,z
loop_
_atom_site_type_symbol
_atom_site_label
_atom_site_fract_x
_atom_site_fract_y
_atom_site_fract_z
Si Si1 0.964316 0.195949 0.728510
Si Si2 0.525439 0.557701 0.704343
Si Si3 0.630532 0.804569 0.462846
Si Si4 0.212596 0.122043 0.810903
Si Si5 0.311222 0.852156 0.323571
Si Si6 0.210589 0.025603 0.302989
Si Si7 0.962637 0.883431 0.709763
Si Si8 0.449093 0.802588 0.940669
O O1 0.055799 0.250000 0.836013
O O2 0.117944 0.152934 0.846980
O O3 0.846711 0.182345 0.756804
O O4 0.780148 0.196141 0.392991
O O5 0.383003 0.604817 0.513938
O O6 0.657812 0.547323 0.695081
O O7 0.367380 0.513216 0.555610
O O8 0.691121 0.572301 0.020919
O O9 0.706467 0.750000 0.563836
O O10 0.516504 0.823781 0.488747
O O11 0.815026 0.839731 0.607907
O O12 0.452480 0.804802 0.128937
O O13 0.047695 0.116295 0.486561
O O14 0.404489 0.154756 0.957709
O O15 0.189841 0.875857 0.043868
O O16 0.139400 0.067727 0.337713
O O17 0.000000 0.000000 0.000000
O O18 0.547033 0.750000 0.009594
#
# Coordination Sequence:
#
# PCOD9166232 Si02
#       8
#     4   4   4   4   4   4   4   4
#     4  11  23  37  61  94 133 176 215 257 314 380
#     4  11  24  41  68  93 125 164 211 266 326 383
#     4  10  22  39  62  93 131 167 211 261 311 376
#     4  11  23  41  62  94 129 168 212 264 318 381
#     4  12  22  40  63  95 126 168 214 260 315 374
#     4  11  23  45  71  95 123 165 212 271 331 382
#     4  11  24  42  68  94 129 169 213 265 320 382
#     4   9  19  38  60  86 125 172 209 254 314 374
#
# _framework density 21.238212000000001
#
# number of rings (size 3 to 8) (size 9 to 14) (size 15 to 20)
#    0.000    1.250    3.750    2.250    0.000    2.000 
#    0.000    0.625    0.000    0.000    0.000    0.000 
#    0.000    0.000    0.000    0.000    0.000    0.000 
#
# Total GULP energy -178892.431166 kJ/mol
# GULP energy per Si atom -5590.388474 kJ/mol
# Density = 2.118987 g / cm^3
# Si number density = 21.238212 Si / 1000 Ang^3
#
#
#
# Elastic Constant Matrix: (Units=GPa)
#
#
# Indices 1 2 3 4 5 6 
#
# 1 42.7497 3.8256 -9.0273 0.0000 -5.3902 0.0000
# 2 3.8256 76.1282 -3.7376 0.0000 -6.7423 0.0000
# 3 -9.0273 -3.7376 77.5663 0.0000 -26.0351 0.0000
# 4 0.0000 0.0000 0.0000 26.3900 0.0000 -3.4723
# 5 -5.3902 -6.7423 -26.0351 0.0000 23.9483 0.0000
# 6 0.0000 0.0000 0.0000 -3.4723 0.0000 41.4039
#
#
#
# Elastic Compliance Matrix: (Units=1/GPa)
#
#
# Indices 1 2 3 4 5 6 
#
# 1 0.027010 0.000390 0.008250 0.000000 0.015158 0.000000
# 2 0.000390 0.013944 0.003251 0.000000 0.007547 0.000000
# 3 0.008250 0.003251 0.023523 0.000000 0.028345 0.000000
# 4 0.000000 0.000000 0.000000 0.038316 0.000000 0.003213
# 5 0.015158 0.007547 0.028345 0.000000 0.078108 0.000000
# 6 0.000000 0.000000 0.000000 0.003213 0.000000 0.024422
#
#
# Mechanical properties :
#
#
# Convention : Reuss Voigt Hill
#
# Bulk Modulus (GPa) = 11.33023 19.84064 15.58543
# Shear Modulus (GPa) = 23.70111 32.04067 27.87089
#
# Velocity S-wave (km/s) = 3.34423 3.88833 3.62650
# Velocity P-wave (km/s) = 4.50092 5.43332 4.98895
#
# Compressibility (1/GPa) = 0.08825950
#
# Stress axis : x y z
#
# Youngs Moduli (GPa) = 37.02267 71.71462 42.51188
#
# Poissons Ratio (x) = -0.02798 -0.35073
# Poissons Ratio (y) = -0.01445 -0.13819
# Poissons Ratio (z) = -0.30544 -0.23312
#
# Static dielectric constant tensor:
#      x y z
#    x 1.737400 0.000000 -0.017400 
#    y 0.000000 1.735350 0.000000 
#    z -0.017400 0.000000 1.796720 
# 
# From -- ./inp_files/19897.got.cif
#   From: 2010.05.17/outbox.cif.g08.bks.cpg/sg11_10_cif.got.tgz:19897.got - 2010.06.03 12:22:45.
