data_PCOD9166099
_publ_section_title
;
Structure prediction by ZEFSAII (Michael W. Deem and Ramdas Pophale) SiO2 
 PCOD9166099
Probable space group: P 21/M
;
_chemical_formula_sum "Si O2"
_cell_formula_units_Z 28
_cell_length_a 10.150255
_cell_length_b 15.403268
_cell_length_c 17.238862
_cell_angle_alpha 90.000000
_cell_angle_beta 34.435652
_cell_angle_gamma 90.000000
_cell_volume 1524.108588
_symmetry_space_group_name_H-M "P 21/M"
_symmetry_group_IT_number 11
_symmetry_cell_setting 'monoclinic'
loop_
_space_group_symop_operation_xyz
x,y,z
-x,1/2+y,-z
-x,-y,-z
x,1/2-y,z
loop_
_atom_site_type_symbol
_atom_site_label
_atom_site_fract_x
_atom_site_fract_y
_atom_site_fract_z
Si Si1 0.625591 0.346756 0.915026
Si Si2 0.912292 0.610394 0.859320
Si Si3 0.058862 0.650513 0.625434
Si Si4 0.735047 0.011636 0.736907
Si Si5 0.634826 0.149703 0.664644
Si Si6 0.771159 0.065482 0.993331
Si Si7 0.911392 0.652533 0.037520
O O1 0.680550 0.250000 0.860871
O O2 0.737366 0.421840 0.808241
O O3 0.346911 0.360750 0.042385
O O4 0.704951 0.359801 0.964699
O O5 0.078820 0.636947 0.708158
O O6 0.902170 0.508051 0.879927
O O7 0.954688 0.647525 0.924383
O O8 0.968318 0.750000 0.657269
O O9 0.291738 0.644102 0.460793
O O10 0.895658 0.572021 0.673807
O O11 0.771316 0.075462 0.646137
O O12 0.472011 0.975466 0.861023
O O13 0.686909 0.250000 0.663867
O O14 0.361767 0.135807 0.813868
O O15 0.925855 0.091672 0.990759
O O16 0.959602 0.750000 0.040643
#
# Coordination Sequence:
#
# PCOD9166099 Si02
#       7
#     4   4   4   4   4   4   4
#     4  11  19  33  58  88 118 146 185 239 288 336
#     4  11  20  36  58  85 112 148 194 236 282 337
#     4  11  22  37  58  85 116 152 194 238 283 337
#     4  11  20  36  59  86 115 149 192 239 287 337
#     4  10  22  38  58  83 116 156 194 230 279 347
#     4  11  21  34  57  87 119 143 186 239 295 330
#     4  11  22  37  58  85 115 151 192 234 284 346
#
# _framework density 18.371395
#
# number of rings (size 3 to 8) (size 9 to 14) (size 15 to 20)
#    0.000    1.143    5.714    3.857    0.000    0.571 
#    0.000    0.714    0.000    0.000    0.000    0.000 
#    0.000    0.000    0.000    0.000    0.000    0.000 
#
# Total GULP energy -156118.463449 kJ/mol
# GULP energy per Si atom -5575.659409 kJ/mol
# Density = 1.832958 g / cm^3
# Si number density = 18.371395 Si / 1000 Ang^3
#
#
#
# Elastic Constant Matrix: (Units=GPa)
#
#
# Indices 1 2 3 4 5 6 
#
# 1 87.5085 47.8275 38.6672 0.0000 25.0494 0.0000
# 2 47.8275 115.9745 31.7320 0.0000 5.9387 0.0000
# 3 38.6672 31.7320 102.1883 0.0000 31.6959 0.0000
# 4 0.0000 0.0000 0.0000 22.5547 0.0000 12.6218
# 5 25.0494 5.9387 31.6959 0.0000 18.5134 0.0000
# 6 0.0000 0.0000 0.0000 12.6218 0.0000 27.1097
#
#
#
# Elastic Compliance Matrix: (Units=1/GPa)
#
#
# Indices 1 2 3 4 5 6 
#
# 1 0.027330 -0.010917 0.007318 0.000000 -0.046006 0.000000
# 2 -0.010917 0.013943 -0.007235 0.000000 0.022686 0.000000
# 3 0.007318 -0.007235 0.024767 0.000000 -0.049983 0.000000
# 4 0.000000 0.000000 0.000000 0.059958 0.000000 -0.027916
# 5 -0.046006 0.022686 -0.049983 0.000000 0.194558 0.000000
# 6 0.000000 0.000000 0.000000 -0.027916 0.000000 0.049884
#
#
# Mechanical properties :
#
#
# Convention : Reuss Voigt Hill
#
# Bulk Modulus (GPa) = 22.53719 60.23608 41.38663
# Shear Modulus (GPa) = 12.28809 26.13188 19.20998
#
# Velocity S-wave (km/s) = 2.58906 3.77559 3.23715
# Velocity P-wave (km/s) = 4.60780 7.20180 6.04557
#
# Compressibility (1/GPa) = 0.04437111
#
# Stress axis : x y z
#
# Youngs Moduli (GPa) = 36.59035 71.72183 40.37705
#
# Poissons Ratio (x) = 0.78301 -0.29550
# Poissons Ratio (y) = 0.39947 0.29213
# Poissons Ratio (z) = -0.26778 0.51891
#
# Static dielectric constant tensor:
#      x y z
#    x 1.619050 0.000000 0.028350 
#    y 0.000000 1.695420 0.000000 
#    z 0.028350 0.000000 1.647350 
# 
# From -- ./inp_files/47564.got.cif
#   From: 2010.05.17/outbox.cif.g08.bks.cpg/sg11_24_cif.got.tgz:47564.got - 2010.06.03 12:22:45.
