data_PCOD9166695
_publ_section_title
;
Structure prediction by ZEFSAII (Michael W. Deem and Ramdas Pophale) SiO2 
 PCOD9166695
Probable space group: P 21/M
;
_chemical_formula_sum "Si O2"
_cell_formula_units_Z 24
_cell_length_a 8.396153
_cell_length_b 8.254236
_cell_length_c 14.647503
_cell_angle_alpha 90.000000
_cell_angle_beta 90.028131
_cell_angle_gamma 90.000000
_cell_volume 1015.127911
_symmetry_space_group_name_H-M "P 21/M"
_symmetry_group_IT_number 11
_symmetry_cell_setting 'monoclinic'
loop_
_space_group_symop_operation_xyz
x,y,z
-x,1/2+y,-z
-x,-y,-z
x,1/2-y,z
loop_
_atom_site_type_symbol
_atom_site_label
_atom_site_fract_x
_atom_site_fract_y
_atom_site_fract_z
Si Si1 0.342592 0.062349 0.949494
Si Si2 0.326837 0.059955 0.278612
Si Si3 0.842046 0.437188 0.887554
Si Si4 0.642092 0.560012 0.370679
Si Si5 0.843864 0.062213 0.213875
Si Si6 0.833143 0.554793 0.540362
O O1 0.358246 0.250000 0.924343
O O2 0.296242 0.960693 0.860626
O O3 0.500000 0.000000 0.000000
O O4 0.201619 0.039522 0.023440
O O5 0.301682 0.250000 0.258385
O O6 0.000824 0.995891 0.164536
O O7 0.202779 0.003330 0.356592
O O8 0.298747 0.962040 0.186434
O O9 0.855140 0.250000 0.913667
O O10 0.502702 0.535291 0.674734
O O11 0.601314 0.750000 0.374636
O O12 0.792197 0.534563 0.303486
O O13 0.304750 0.499941 0.529683
O O14 0.865134 0.250000 0.237354
O O15 0.828897 0.750000 0.540415
O O16 0.000000 0.500000 0.500000
#
# Coordination Sequence:
#
# PCOD9166695 Si02
#       6
#     4   4   4   4   4   4
#     4  12  25  44  67  94 126 164 206 254 307 366
#     4  11  23  41  63  92 125 164 208 256 309 367
#     4  12  25  43  65  93 126 164 206 255 308 367
#     4  11  23  41  63  92 125 164 208 256 309 367
#     4  12  25  43  65  93 126 164 206 255 308 367
#     4  10  23  40  62  90 124 162 207 256 309 366
#
# _framework density 23.642341999999999
#
# number of rings (size 3 to 8) (size 9 to 14) (size 15 to 20)
#    0.000    0.667    0.000    8.500    0.000    5.333 
#    0.000    0.000    0.000    0.000    0.000    0.000 
#    0.000    0.000    0.000    0.000    0.000    0.000 
#
# Total GULP energy -134557.321147 kJ/mol
# GULP energy per Si atom -5606.555048 kJ/mol
# Density = 2.358853 g / cm^3
# Si number density = 23.642342 Si / 1000 Ang^3
#
#
#
# Elastic Constant Matrix: (Units=GPa)
#
#
# Indices 1 2 3 4 5 6 
#
# 1 67.4305 -5.3310 -11.5122 0.0000 0.8418 0.0000
# 2 -5.3310 66.3520 -8.7709 0.0000 2.1361 0.0000
# 3 -11.5122 -8.7709 87.0758 0.0000 1.7050 0.0000
# 4 0.0000 0.0000 0.0000 25.7962 0.0000 -0.1141
# 5 0.8418 2.1361 1.7050 0.0000 44.1108 0.0000
# 6 0.0000 0.0000 0.0000 -0.1141 0.0000 39.0341
#
#
#
# Elastic Compliance Matrix: (Units=1/GPa)
#
#
# Indices 1 2 3 4 5 6 
#
# 1 0.015331 0.001536 0.002190 0.000000 -0.000452 0.000000
# 2 0.001536 0.015457 0.001777 0.000000 -0.000846 0.000000
# 3 0.002190 0.001777 0.011964 0.000000 -0.000590 0.000000
# 4 0.000000 0.000000 0.000000 0.038766 0.000000 0.000113
# 5 -0.000452 -0.000846 -0.000590 0.000000 0.022743 0.000000
# 6 0.000000 0.000000 0.000000 0.000113 0.000000 0.025619
#
#
# Mechanical properties :
#
#
# Convention : Reuss Voigt Hill
#
# Bulk Modulus (GPa) = 18.60197 18.84779 18.72488
# Shear Modulus (GPa) = 36.55152 38.21969 37.38560
#
# Velocity S-wave (km/s) = 3.93621 4.02503 3.98087
# Velocity P-wave (km/s) = 5.34261 5.43972 5.39138
#
# Compressibility (1/GPa) = 0.05375775
#
# Stress axis : x y z
#
# Youngs Moduli (GPa) = 65.22683 64.69718 83.58165
#
# Poissons Ratio (x) = -0.09937 -0.18308
# Poissons Ratio (y) = -0.10018 -0.14848
# Poissons Ratio (z) = -0.14288 -0.11494
#
# Static dielectric constant tensor:
#      x y z
#    x 1.952980 0.000000 -0.006480 
#    y 0.000000 1.761830 0.000000 
#    z -0.006480 0.000000 1.869840 
# 
# From -- ./inp_files/20371.got.cif
#   From: 2010.05.17/outbox.cif.g08.bks.cpg/sg11_11_cif.got.tgz:20371.got - 2010.06.03 12:22:45.
