data_PCOD9166951
_publ_section_title
;
Structure prediction by ZEFSAII (Michael W. Deem and Ramdas Pophale) SiO2 
 PCOD9166951
Probable space group: P 21/M
;
_chemical_formula_sum "Si O2"
_cell_formula_units_Z 20
_cell_length_a 5.368787
_cell_length_b 17.917360
_cell_length_c 9.005773
_cell_angle_alpha 90.000000
_cell_angle_beta 98.752398
_cell_angle_gamma 90.000000
_cell_volume 856.217729
_symmetry_space_group_name_H-M "P 21/M"
_symmetry_group_IT_number 11
_symmetry_cell_setting 'monoclinic'
loop_
_space_group_symop_operation_xyz
x,y,z
-x,1/2+y,-z
-x,-y,-z
x,1/2-y,z
loop_
_atom_site_type_symbol
_atom_site_label
_atom_site_fract_x
_atom_site_fract_y
_atom_site_fract_z
Si Si1 0.905262 0.165399 0.354223
Si Si2 0.904329 0.955954 0.846298
Si Si3 0.021587 0.402005 0.679707
Si Si4 0.447210 0.167391 0.131826
Si Si5 0.446510 0.667038 0.195166
O O1 0.002383 0.250000 0.373267
O O2 0.978645 0.120387 0.506295
O O3 0.607912 0.170913 0.297235
O O4 0.988569 0.120522 0.215422
O O5 0.646581 0.918410 0.874407
O O6 0.938362 0.014945 0.717453
O O7 0.000000 0.000000 0.000000
O O8 0.819371 0.353958 0.756022
O O9 0.313164 0.385464 0.746704
O O10 0.309720 0.250000 0.112610
O O11 0.585015 0.168777 0.984614
O O12 0.519577 0.750000 0.253475
#
# Coordination Sequence:
#
# PCOD9166951 Si02
#       5
#     4   4   4   4   4
#     4  11  26  47  71 105 146 194 244 302 371 441
#     4  12  25  45  73 106 149 190 248 304 369 431
#     4  12  27  45  76 108 146 192 241 309 370 430
#     4  10  24  44  72 101 143 196 248 299 365 441
#     4  11  24  46  72 106 144 193 246 295 361 441
#
# _framework density 23.358546
#
# number of rings (size 3 to 8) (size 9 to 14) (size 15 to 20)
#    0.000    0.800    2.000    4.200    5.600    2.400 
#    0.000    0.000    0.000    0.000    0.000    0.000 
#    0.000    0.000    0.000    0.000    0.000    0.000 
#
# Total GULP energy -111382.808456 kJ/mol
# GULP energy per Si atom -5569.140423 kJ/mol
# Density = 2.330538 g / cm^3
# Si number density = 23.358546 Si / 1000 Ang^3
#
#
#
# Elastic Constant Matrix: (Units=GPa)
#
#
# Indices 1 2 3 4 5 6 
#
# 1 12.4429 -19.9246 2.8567 0.0000 -3.0857 0.0000
# 2 -19.9246 106.0024 43.7474 0.0000 0.9833 0.0000
# 3 2.8567 43.7474 126.8167 0.0000 14.7235 0.0000
# 4 0.0000 0.0000 0.0000 23.8805 0.0000 -25.8212
# 5 -3.0857 0.9833 14.7235 0.0000 22.7056 0.0000
# 6 0.0000 0.0000 0.0000 -25.8212 0.0000 0.0904
#
#
#
# Elastic Compliance Matrix: (Units=1/GPa)
#
#
# Indices 1 2 3 4 5 6 
#
# 1 0.150240 0.035974 -0.019448 0.000000 0.031471 0.000000
# 2 0.035974 0.019711 -0.008736 0.000000 0.009700 0.000000
# 3 -0.019448 -0.008736 0.012544 0.000000 -0.010399 0.000000
# 4 0.000000 0.000000 0.000000 -0.000136 0.000000 -0.038854
# 5 0.031471 0.009700 -0.010399 0.000000 0.054642 0.000000
# 6 0.000000 0.000000 0.000000 -0.038854 0.000000 -0.035934
#
#
# Mechanical properties :
#
#
# Convention : Reuss Voigt Hill
#
# Bulk Modulus (GPa) = 5.04857 33.18010 19.11434
# Shear Modulus (GPa) = 19.87964 23.90748 21.89356
#
# Velocity S-wave (km/s) = 2.92047 3.20269 3.06483
# Velocity P-wave (km/s) = 3.67943 5.28316 4.55247
#
# Compressibility (1/GPa) = 0.19807578
#
# Stress axis : x y z
#
# Youngs Moduli (GPa) = 6.65600 50.73313 79.71627
#
# Poissons Ratio (x) = -1.82507 1.55031
# Poissons Ratio (y) = -0.23944 0.69641
# Poissons Ratio (z) = 0.12944 0.44321
#
# Static dielectric constant tensor:
#      x y z
#    x 2.597190 0.000000 0.023490 
#    y 0.000000 2.001870 0.000000 
#    z 0.023490 0.000000 1.828340 
# 
# From -- ./inp_files/1881.got.cif
#   From: 2010.05.17/outbox.cif.g08.bks.cpg/sg11_1_cif.got.tgz:1881.got - 2010.06.03 12:22:45.
