data_PCOD9166355
_publ_section_title
;
Structure prediction by ZEFSAII (Michael W. Deem and Ramdas Pophale) SiO2 
 PCOD9166355
Probable space group: P 21/M
;
_chemical_formula_sum "Si O2"
_cell_formula_units_Z 28
_cell_length_a 11.899755
_cell_length_b 8.962862
_cell_length_c 15.600241
_cell_angle_alpha 90.000000
_cell_angle_beta 125.114111
_cell_angle_gamma 90.000000
_cell_volume 1361.048590
_symmetry_space_group_name_H-M "P 21/M"
_symmetry_group_IT_number 11
_symmetry_cell_setting 'monoclinic'
loop_
_space_group_symop_operation_xyz
x,y,z
-x,1/2+y,-z
-x,-y,-z
x,1/2-y,z
loop_
_atom_site_type_symbol
_atom_site_label
_atom_site_fract_x
_atom_site_fract_y
_atom_site_fract_z
Si Si1 0.090519 0.071432 0.963338
Si Si2 0.597791 0.928441 0.114904
Si Si3 0.892592 0.426412 0.208268
Si Si4 0.632915 0.426748 0.853239
Si Si5 0.079501 0.424126 0.458125
Si Si6 0.372309 0.419736 0.330760
Si Si7 0.689485 0.419196 0.527768
O O1 0.079444 0.250000 0.960677
O O2 0.052992 0.007317 0.853378
O O3 0.247622 0.018184 0.046690
O O4 0.000000 0.000000 0.000000
O O5 0.609988 0.750000 0.107869
O O6 0.514659 0.954466 0.167091
O O7 0.746366 0.003355 0.171743
O O8 0.500000 0.000000 0.000000
O O9 0.874898 0.250000 0.182450
O O10 0.994773 0.443195 0.332939
O O11 0.661415 0.250000 0.872826
O O12 0.637486 0.480060 0.757486
O O13 0.096923 0.250000 0.482423
O O14 0.224461 0.502142 0.507819
O O15 0.000000 0.500000 0.500000
O O16 0.326961 0.250000 0.293101
O O17 0.530857 0.416283 0.430382
O O18 0.294835 0.489140 0.377689
O O19 0.736284 0.250000 0.561182
#
# Coordination Sequence:
#
# PCOD9166355 Si02
#       7
#     4   4   4   4   4   4   4
#     4  12  26  44  68  96 132 173 216 265 321 388
#     4  11  23  40  65  94 127 165 208 259 313 373
#     4  11  25  45  67  94 130 171 217 268 323 383
#     4  11  24  41  64  96 130 167 212 262 317 381
#     4  11  26  45  67  94 129 170 216 268 323 383
#     4  10  22  40  65  95 127 166 211 264 321 378
#     4  10  22  42  66  93 127 166 213 265 321 382
#
# _framework density 20.572374
#
# number of rings (size 3 to 8) (size 9 to 14) (size 15 to 20)
#    0.000    1.143    1.429    3.857    4.000    5.714 
#    0.000    0.000    0.000    0.000    0.000    0.000 
#    0.000    0.000    0.000    0.000    0.000    0.000 
#
# Total GULP energy -156667.451842 kJ/mol
# GULP energy per Si atom -5595.266137 kJ/mol
# Density = 2.052555 g / cm^3
# Si number density = 20.572374 Si / 1000 Ang^3
#
#
#
# Elastic Constant Matrix: (Units=GPa)
#
#
# Indices 1 2 3 4 5 6 
#
# 1 115.5655 67.5790 13.8239 0.0000 -26.9594 0.0000
# 2 67.5790 152.6097 33.8688 0.0000 -14.0491 0.0000
# 3 13.8239 33.8688 29.6559 0.0000 -20.2252 0.0000
# 4 0.0000 0.0000 0.0000 33.6305 0.0000 -4.3380
# 5 -26.9594 -14.0491 -20.2252 0.0000 35.5647 0.0000
# 6 0.0000 0.0000 0.0000 -4.3380 0.0000 38.2277
#
#
#
# Elastic Compliance Matrix: (Units=1/GPa)
#
#
# Indices 1 2 3 4 5 6 
#
# 1 0.015792 -0.008469 0.013384 0.000000 0.016237 0.000000
# 2 -0.008469 0.013618 -0.020117 0.000000 -0.012480 0.000000
# 3 0.013384 -0.020117 0.084873 0.000000 0.050465 0.000000
# 4 0.000000 0.000000 0.000000 0.030177 0.000000 0.003424
# 5 0.016237 -0.012480 0.050465 0.000000 0.064195 0.000000
# 6 0.000000 0.000000 0.000000 0.003424 0.000000 0.026548
#
#
# Mechanical properties :
#
#
# Convention : Reuss Voigt Hill
#
# Bulk Modulus (GPa) = 11.92182 58.70827 35.31504
# Shear Modulus (GPa) = 17.03200 33.65521 25.34361
#
# Velocity S-wave (km/s) = 2.88046 4.04907 3.51369
# Velocity P-wave (km/s) = 4.10735 7.10347 5.80214
#
# Compressibility (1/GPa) = 0.08387980
#
# Stress axis : x y z
#
# Youngs Moduli (GPa) = 63.32281 73.43014 11.78238
#
# Poissons Ratio (x) = 0.62185 -0.15769
# Poissons Ratio (y) = 0.53626 0.23702
# Poissons Ratio (z) = -0.84750 1.47717
#
# Static dielectric constant tensor:
#      x y z
#    x 1.725700 0.000000 0.007730 
#    y 0.000000 1.700190 0.000000 
#    z 0.007730 0.000000 1.721000 
# 
# From -- ./inp_files/49476.got.cif
#   From: 2010.05.17/outbox.cif.g08.bks.cpg/sg11_25_cif.got.tgz:49476.got - 2010.06.03 12:22:45.
