data_PCOD9166796
_publ_section_title
;
Structure prediction by ZEFSAII (Michael W. Deem and Ramdas Pophale) SiO2 
 PCOD9166796
Probable space group: P 21/M
;
_chemical_formula_sum "Si O2"
_cell_formula_units_Z 26
_cell_length_a 10.345723
_cell_length_b 19.796921
_cell_length_c 5.265578
_cell_angle_alpha 90.000000
_cell_angle_beta 83.358458
_cell_angle_gamma 90.000000
_cell_volume 1071.223884
_symmetry_space_group_name_H-M "P 21/M"
_symmetry_group_IT_number 11
_symmetry_cell_setting 'monoclinic'
loop_
_space_group_symop_operation_xyz
x,y,z
-x,1/2+y,-z
-x,-y,-z
x,1/2-y,z
loop_
_atom_site_type_symbol
_atom_site_label
_atom_site_fract_x
_atom_site_fract_y
_atom_site_fract_z
Si Si1 0.174227 0.010944 0.673268
Si Si2 0.414112 0.941056 0.901077
Si Si3 0.751940 0.326235 0.899253
Si Si4 0.140323 0.133904 0.988272
Si Si5 0.661334 0.880678 0.669577
Si Si6 0.221226 0.250000 0.615915
Si Si7 0.091190 0.634966 0.624394
O O1 0.246469 0.059088 0.455549
O O2 0.291622 0.976365 0.800609
O O3 0.096072 0.946440 0.591297
O O4 0.098884 0.062896 0.874794
O O5 0.512459 0.902885 0.690001
O O6 0.356840 0.884260 0.101759
O O7 0.500000 0.000000 0.000000
O O8 0.700283 0.250000 0.914569
O O9 0.851712 0.333920 0.643415
O O10 0.822601 0.341514 0.152543
O O11 0.288696 0.127952 0.051926
O O12 0.053222 0.153596 0.250306
O O13 0.136345 0.191709 0.784631
O O14 0.689661 0.810229 0.530650
#
# Coordination Sequence:
#
# PCOD9166796 Si02
#       7
#     4   4   4   4   4   2   4
#     4  10  23  43  66 106 130 181 232 287 350 414
#     4  11  22  45  73 100 139 181 235 295 349 416
#     4  11  27  47  69 106 138 192 236 286 350 424
#     4  11  24  42  67 100 137 180 229 289 350 416
#     4  11  23  42  70  97 139 179 231 288 354 417
#     4  10  26  42  60 104 134 184 230 278 356 422
#     4  11  26  44  73  99 144 180 236 288 352 418
#
# _framework density 24.271305999999999
#
# number of rings (size 3 to 8) (size 9 to 14) (size 15 to 20)
#    0.000    1.231    1.538    2.769    9.692    1.846 
#    0.000    0.000    0.000    0.000    0.000    0.000 
#    0.000    0.000    0.000    0.000    0.000    0.000 
#
# Total GULP energy -145045.069850 kJ/mol
# GULP energy per Si atom -5578.656533 kJ/mol
# Density = 2.421606 g / cm^3
# Si number density = 24.271306 Si / 1000 Ang^3
#
#
#
# Elastic Constant Matrix: (Units=GPa)
#
#
# Indices 1 2 3 4 5 6 
#
# 1 38.5582 32.4155 13.7962 0.0000 -6.1661 0.0000
# 2 32.4155 190.7058 51.5647 0.0000 -8.5845 0.0000
# 3 13.7962 51.5647 110.5176 0.0000 -11.0253 0.0000
# 4 0.0000 0.0000 0.0000 41.1219 0.0000 -21.4566
# 5 -6.1661 -8.5845 -11.0253 0.0000 33.9653 0.0000
# 6 0.0000 0.0000 0.0000 -21.4566 0.0000 9.3100
#
#
#
# Elastic Compliance Matrix: (Units=1/GPa)
#
#
# Indices 1 2 3 4 5 6 
#
# 1 0.031023 -0.004753 -0.001254 0.000000 0.004024 0.000000
# 2 -0.004753 0.006742 -0.002551 0.000000 0.000013 0.000000
# 3 -0.001254 -0.002551 0.010653 0.000000 0.002586 0.000000
# 4 0.000000 0.000000 0.000000 -0.120065 0.000000 -0.276712
# 5 0.004024 0.000013 0.002586 0.000000 0.031015 0.000000
# 6 0.000000 0.000000 0.000000 -0.276712 0.000000 -0.530322
#
#
# Mechanical properties :
#
#
# Convention : Reuss Voigt Hill
#
# Bulk Modulus (GPa) = 31.94649 59.48159 45.71404
# Shear Modulus (GPa) = -9.20122 33.01313 11.90595
#
# Velocity S-wave (km/s) = -1.94916 3.69205 2.21721
# Velocity P-wave (km/s) = 2.85047 6.53721 5.04283
#
# Compressibility (1/GPa) = 0.03130234
#
# Stress axis : x y z
#
# Youngs Moduli (GPa) = 32.23455 148.32558 93.87034
#
# Poissons Ratio (x) = 0.70500 0.11767
# Poissons Ratio (y) = 0.15321 0.23946
# Poissons Ratio (z) = 0.04041 0.37837
#
# Static dielectric constant tensor:
#      x y z
#    x 1.993000 0.000000 0.052370 
#    y 0.000000 1.878610 0.000000 
#    z 0.052370 0.000000 1.989530 
# 
# From -- ./inp_files/4984.got.cif
#   From: 2010.05.17/outbox.cif.g08.bks.cpg/sg11_3_cif.got.tgz:4984.got - 2010.06.03 12:22:45.
