data_PCOD9166557
_publ_section_title
;
Structure prediction by ZEFSAII (Michael W. Deem and Ramdas Pophale) SiO2 
 PCOD9166557
Probable space group: P 21/M
;
_chemical_formula_sum "Si O2"
_cell_formula_units_Z 16
_cell_length_a 11.563349
_cell_length_b 13.206936
_cell_length_c 10.596138
_cell_angle_alpha 90.000000
_cell_angle_beta 27.497231
_cell_angle_gamma 90.000000
_cell_volume 747.134156
_symmetry_space_group_name_H-M "P 21/M"
_symmetry_group_IT_number 11
_symmetry_cell_setting 'monoclinic'
loop_
_space_group_symop_operation_xyz
x,y,z
-x,1/2+y,-z
-x,-y,-z
x,1/2-y,z
loop_
_atom_site_type_symbol
_atom_site_label
_atom_site_fract_x
_atom_site_fract_y
_atom_site_fract_z
Si Si1 0.235439 0.956710 0.171770
Si Si2 0.113448 0.872542 0.552338
Si Si3 0.760300 0.504395 0.322103
Si Si4 0.284158 0.135630 0.418806
O O1 0.726622 0.082733 0.721377
O O2 0.466762 0.921385 0.866044
O O3 0.155049 0.072764 0.218877
O O4 0.978408 0.899835 0.384489
O O5 0.108346 0.750000 0.558659
O O6 0.206176 0.921557 0.595919
O O7 0.500000 0.500000 0.500000
O O8 0.753422 0.612362 0.398448
O O9 0.000000 0.500000 0.000000
O O10 0.324801 0.250000 0.346162
#
# Coordination Sequence:
#
# PCOD9166557 Si02
#       4
#     4   4   4   4
#     4  10  23  41  65 102 132 159 216 278 330 400
#     4  10  22  42  69  97 132 175 216 272 339 394
#     4  11  25  42  59  89 128 167 219 266 306 380
#     4  11  22  41  67  92 128 173 214 270 337 390
#
# _framework density 21.415161999999999
#
# number of rings (size 3 to 8) (size 9 to 14) (size 15 to 20)
#    0.000    1.500    0.000    5.250    0.000   13.000 
#    0.000   17.500    0.000    0.000    0.000    0.000 
#    0.000    0.000    0.000    0.000    0.000    0.000 
#
# Total GULP energy -89217.668374 kJ/mol
# GULP energy per Si atom -5576.104273 kJ/mol
# Density = 2.136642 g / cm^3
# Si number density = 21.415162 Si / 1000 Ang^3
#
#
#
# Elastic Constant Matrix: (Units=GPa)
#
#
# Indices 1 2 3 4 5 6 
#
# 1 153.6482 28.3379 57.1788 0.0000 -8.1445 0.0000
# 2 28.3379 137.0590 16.7133 0.0000 -11.8800 0.0000
# 3 57.1788 16.7133 157.3714 0.0000 3.9001 0.0000
# 4 0.0000 0.0000 0.0000 20.2926 0.0000 0.0620
# 5 -8.1445 -11.8800 3.9001 0.0000 44.9455 0.0000
# 6 0.0000 0.0000 0.0000 0.0620 0.0000 17.6033
#
#
#
# Elastic Compliance Matrix: (Units=1/GPa)
#
#
# Indices 1 2 3 4 5 6 
#
# 1 0.007818 -0.001164 -0.002750 0.000000 0.001348 0.000000
# 2 -0.001164 0.007754 -0.000447 0.000000 0.001877 0.000000
# 3 -0.002750 -0.000447 0.007432 0.000000 -0.001261 0.000000
# 4 0.000000 0.000000 0.000000 0.049280 0.000000 -0.000174
# 5 0.001348 0.001877 -0.001261 0.000000 0.023099 0.000000
# 6 0.000000 0.000000 0.000000 -0.000174 0.000000 0.056808
#
#
# Mechanical properties :
#
#
# Convention : Reuss Voigt Hill
#
# Bulk Modulus (GPa) = 70.02134 72.50430 71.26282
# Shear Modulus (GPa) = 30.17957 39.62484 34.90221
#
# Velocity S-wave (km/s) = 3.75809 4.30620 4.04144
# Velocity P-wave (km/s) = 7.18325 7.65862 7.42474
#
# Compressibility (1/GPa) = 0.01428136
#
# Stress axis : x y z
#
# Youngs Moduli (GPa) = 127.90912 128.96429 134.54551
#
# Poissons Ratio (x) = 0.15015 0.37005
# Poissons Ratio (y) = 0.14892 0.06014
# Poissons Ratio (z) = 0.35179 0.05765
#
# Static dielectric constant tensor:
#      x y z
#    x 1.865100 0.000000 0.006860 
#    y 0.000000 1.815450 0.000000 
#    z 0.006860 0.000000 1.749700 
# 
# From -- ./inp_files/52385.got.cif
#   From: 2010.05.17/outbox.cif.g08.bks.cpg/sg11_27_cif.got.tgz:52385.got - 2010.06.03 12:22:45.
