data_PCOD9166822
_publ_section_title
;
Structure prediction by ZEFSAII (Michael W. Deem and Ramdas Pophale) SiO2 
 PCOD9166822
Probable space group: P 21/M
;
_chemical_formula_sum "Si O2"
_cell_formula_units_Z 18
_cell_length_a 11.641484
_cell_length_b 7.458236
_cell_length_c 16.475256
_cell_angle_alpha 90.000000
_cell_angle_beta 150.892074
_cell_angle_gamma 90.000000
_cell_volume 695.857681
_symmetry_space_group_name_H-M "P 21/M"
_symmetry_group_IT_number 11
_symmetry_cell_setting 'monoclinic'
loop_
_space_group_symop_operation_xyz
x,y,z
-x,1/2+y,-z
-x,-y,-z
x,1/2-y,z
loop_
_atom_site_type_symbol
_atom_site_label
_atom_site_fract_x
_atom_site_fract_y
_atom_site_fract_z
Si Si1 0.004211 0.750000 0.274417
Si Si2 0.397148 0.033669 0.553715
Si Si3 0.937937 0.037511 0.868321
Si Si4 0.681929 0.048464 0.027055
Si Si5 0.722623 0.962695 0.335931
O O1 0.207546 0.591595 0.394579
O O2 0.801614 0.592414 0.160177
O O3 0.358871 0.250000 0.521860
O O4 0.663133 0.991425 0.690924
O O5 0.367848 0.983199 0.631016
O O6 0.968888 0.250000 0.865902
O O7 0.130122 0.943635 0.931710
O O8 0.000000 0.000000 0.000000
O O9 0.658348 0.250000 0.043749
O O10 0.447178 0.969774 0.839678
O O11 0.692442 0.750000 0.313293
O O12 0.000000 0.000000 0.500000
#
# Coordination Sequence:
#
# PCOD9166822 Si02
#       5
#     2   4   4   4   4
#     4  12  26  42  68  94 138 192 202 260 334 414
#     4  10  24  44  64 100 135 169 225 270 326 387
#     4  11  21  38  67  98 131 173 219 276 324 377
#     4  11  24  44  65 100 136 169 225 271 325 389
#     4  10  23  43  74  98 124 167 225 291 322 372
#
# _framework density 25.867359
#
# number of rings (size 3 to 8) (size 9 to 14) (size 15 to 20)
#    0.000    1.333    3.333    1.333    6.222    0.889 
#    0.000    1.111    0.000    0.000    0.000    0.000 
#    0.000    0.000    0.000    0.000    0.000    0.000 
#
# Total GULP energy -100410.523686 kJ/mol
# GULP energy per Si atom -5578.362427 kJ/mol
# Density = 2.580848 g / cm^3
# Si number density = 25.867359 Si / 1000 Ang^3
#
#
#
# Elastic Constant Matrix: (Units=GPa)
#
#
# Indices 1 2 3 4 5 6 
#
# 1 132.2572 23.2019 41.6892 0.0000 31.6402 0.0000
# 2 23.2019 142.6523 66.7419 0.0000 4.6292 0.0000
# 3 41.6892 66.7419 196.4257 0.0000 31.1966 0.0000
# 4 0.0000 0.0000 0.0000 44.0679 0.0000 2.6888
# 5 31.6402 4.6292 31.1966 0.0000 30.1669 0.0000
# 6 0.0000 0.0000 0.0000 2.6888 0.0000 22.2941
#
#
#
# Elastic Compliance Matrix: (Units=1/GPa)
#
#
# Indices 1 2 3 4 5 6 
#
# 1 0.010342 -0.001305 -0.000072 0.000000 -0.010572 0.000000
# 2 -0.001305 0.008599 -0.003174 0.000000 0.003332 0.000000
# 3 -0.000072 -0.003174 0.007293 0.000000 -0.006979 0.000000
# 4 0.000000 0.000000 0.000000 0.022861 0.000000 -0.002757
# 5 -0.010572 0.003332 -0.006979 0.000000 0.050943 0.000000
# 6 0.000000 0.000000 0.000000 -0.002757 0.000000 0.045188
#
#
# Mechanical properties :
#
#
# Convention : Reuss Voigt Hill
#
# Bulk Modulus (GPa) = 58.37285 81.62237 69.99761
# Shear Modulus (GPa) = 31.24236 41.95258 36.59747
#
# Velocity S-wave (km/s) = 3.47910 4.03157 3.76548
# Velocity P-wave (km/s) = 6.22527 7.30028 6.78410
#
# Compressibility (1/GPa) = 0.01713125
#
# Stress axis : x y z
#
# Youngs Moduli (GPa) = 96.69362 116.28975 137.11268
#
# Poissons Ratio (x) = 0.15177 0.00994
# Poissons Ratio (y) = 0.12620 0.43520
# Poissons Ratio (z) = 0.00701 0.36910
#
# Static dielectric constant tensor:
#      x y z
#    x 1.930810 0.000000 -0.146740 
#    y 0.000000 1.971240 0.000000 
#    z -0.146740 0.000000 1.836120 
# 
# From -- ./inp_files/15753.got.cif
#   From: 2010.05.17/outbox.cif.g08.bks.cpg/sg11_8_cif.got.tgz:15753.got - 2010.06.03 12:22:45.
