data_PCOD9166521
_publ_section_title
;
Structure prediction by ZEFSAII (Michael W. Deem and Ramdas Pophale) SiO2 
 PCOD9166521
Probable space group: P 21/M
;
_chemical_formula_sum "Si O2"
_cell_formula_units_Z 28
_cell_length_a 11.349482
_cell_length_b 8.571673
_cell_length_c 15.899671
_cell_angle_alpha 90.000000
_cell_angle_beta 117.824360
_cell_angle_gamma 90.000000
_cell_volume 1367.949185
_symmetry_space_group_name_H-M "P 21/M"
_symmetry_group_IT_number 11
_symmetry_cell_setting 'monoclinic'
loop_
_space_group_symop_operation_xyz
x,y,z
-x,1/2+y,-z
-x,-y,-z
x,1/2-y,z
loop_
_atom_site_type_symbol
_atom_site_label
_atom_site_fract_x
_atom_site_fract_y
_atom_site_fract_z
Si Si1 0.411981 0.564854 0.046859
Si Si2 0.672570 0.565220 0.394968
Si Si3 0.855601 0.063973 0.599107
Si Si4 0.138843 0.436748 0.211872
Si Si5 0.852167 0.564206 0.116586
Si Si6 0.421048 0.435593 0.231398
Si Si7 0.855959 0.063161 0.307812
O O1 0.425511 0.750000 0.056129
O O2 0.455288 0.489530 0.149007
O O3 0.500000 0.500000 0.000000
O O4 0.260580 0.516126 0.976587
O O5 0.871869 0.250000 0.608744
O O6 0.739323 0.482256 0.496868
O O7 0.519879 0.518554 0.329118
O O8 0.752422 0.506128 0.339450
O O9 0.845876 0.250000 0.301979
O O10 0.995071 0.987898 0.616012
O O11 0.831858 0.996122 0.684046
O O12 0.119556 0.250000 0.207160
O O13 0.267115 0.473852 0.198718
O O14 0.000917 0.516244 0.139019
O O15 0.836377 0.750000 0.108660
O O16 0.835854 0.504976 0.207423
O O17 0.437879 0.250000 0.244620
O O18 0.686844 0.750000 0.408143
#
# Coordination Sequence:
#
# PCOD9166521 Si02
#       7
#     4   4   4   4   4   4   4
#     4  12  25  43  66  93 125 159 198 243 298 357
#     4  12  24  39  59  86 121 161 204 248 302 359
#     4  11  22  38  61  89 121 158 202 249 299 356
#     4  10  22  42  65  90 121 157 200 249 299 353
#     4  11  22  39  64  92 123 160 201 245 297 355
#     4  11  25  44  64  89 121 157 201 250 299 354
#     4  11  21  37  60  89 124 158 199 249 303 359
#
# _framework density 20.468596999999999
#
# number of rings (size 3 to 8) (size 9 to 14) (size 15 to 20)
#    0.000    0.857    0.000   10.286    0.000    3.429 
#    0.000    0.000    0.000    0.000    0.000    0.000 
#    0.000    0.000    0.000    0.000    0.000    0.000 
#
# Total GULP energy -156783.891327 kJ/mol
# GULP energy per Si atom -5599.424690 kJ/mol
# Density = 2.042201 g / cm^3
# Si number density = 20.468597 Si / 1000 Ang^3
#
#
#
# Elastic Constant Matrix: (Units=GPa)
#
#
# Indices 1 2 3 4 5 6 
#
# 1 63.2893 3.6772 -3.2011 0.0000 -4.3274 0.0000
# 2 3.6772 51.6927 -34.6142 0.0000 -17.1406 0.0000
# 3 -3.2011 -34.6142 47.9878 0.0000 14.8748 0.0000
# 4 0.0000 0.0000 0.0000 35.1013 0.0000 5.0477
# 5 -4.3274 -17.1406 14.8748 0.0000 18.7239 0.0000
# 6 0.0000 0.0000 0.0000 5.0477 0.0000 33.2919
#
#
#
# Elastic Compliance Matrix: (Units=1/GPa)
#
#
# Indices 1 2 3 4 5 6 
#
# 1 0.016055 0.000099 -0.000048 0.000000 0.003839 0.000000
# 2 0.000099 0.041995 0.024378 0.000000 0.019101 0.000000
# 3 -0.000048 0.024378 0.041798 0.000000 -0.010900 0.000000
# 4 0.000000 0.000000 0.000000 0.029124 0.000000 -0.004416
# 5 0.003839 0.019101 -0.010900 0.000000 0.080440 0.000000
# 6 0.000000 0.000000 0.000000 -0.004416 0.000000 0.030707
#
#
# Mechanical properties :
#
#
# Convention : Reuss Voigt Hill
#
# Bulk Modulus (GPa) = 6.72467 10.52150 8.62308
# Shear Modulus (GPa) = 20.76159 30.56395 25.66277
#
# Velocity S-wave (km/s) = 3.18829 3.86840 3.54469
# Velocity P-wave (km/s) = 4.10439 5.01041 4.57986
#
# Compressibility (1/GPa) = 0.14870627
#
# Stress axis : x y z
#
# Youngs Moduli (GPa) = 62.28669 23.81226 23.92451
#
# Poissons Ratio (x) = -0.00236 0.00114
# Poissons Ratio (y) = -0.00617 -0.58322
# Poissons Ratio (z) = 0.00296 -0.58049
#
# Static dielectric constant tensor:
#      x y z
#    x 1.731500 0.000000 0.011780 
#    y 0.000000 1.681560 0.000000 
#    z 0.011780 0.000000 1.710620 
# 
# From -- ./inp_files/38459.got.cif
#   From: 2010.05.17/outbox.cif.g08.bks.cpg/sg11_20_cif.got.tgz:38459.got - 2010.06.03 12:22:45.
