data_PCOD9166268
_publ_section_title
;
Structure prediction by ZEFSAII (Michael W. Deem and Ramdas Pophale) SiO2 
 PCOD9166268
Probable space group: P 21/M
;
_chemical_formula_sum "Si O2"
_cell_formula_units_Z 28
_cell_length_a 12.055339
_cell_length_b 8.913053
_cell_length_c 15.266832
_cell_angle_alpha 90.000000
_cell_angle_beta 61.158937
_cell_angle_gamma 90.000000
_cell_volume 1436.943551
_symmetry_space_group_name_H-M "P 21/M"
_symmetry_group_IT_number 11
_symmetry_cell_setting 'monoclinic'
loop_
_space_group_symop_operation_xyz
x,y,z
-x,1/2+y,-z
-x,-y,-z
x,1/2-y,z
loop_
_atom_site_type_symbol
_atom_site_label
_atom_site_fract_x
_atom_site_fract_y
_atom_site_fract_z
Si Si1 0.622458 0.075652 0.995369
Si Si2 0.627200 0.425454 0.202314
Si Si3 0.635188 0.427835 0.680655
Si Si4 0.081815 0.568688 0.888892
Si Si5 0.878489 0.571714 0.496227
Si Si6 0.745331 0.920580 0.805103
Si Si7 0.036976 0.577463 0.705496
O O1 0.631309 0.250000 0.968102
O O2 0.618968 0.064770 0.100265
O O3 0.500000 0.000000 0.000000
O O4 0.733521 0.982795 0.907532
O O5 0.616509 0.250000 0.231621
O O6 0.506237 0.513406 0.285630
O O7 0.769947 0.477791 0.167478
O O8 0.642009 0.250000 0.668497
O O9 0.747146 0.506249 0.583364
O O10 0.668686 0.476182 0.767591
O O11 0.077710 0.750000 0.901080
O O12 0.036127 0.532354 0.807771
O O13 0.000000 0.500000 0.000000
O O14 0.882299 0.750000 0.506985
O O15 0.889173 0.526829 0.390031
O O16 0.000000 0.500000 0.500000
O O17 0.696333 0.750000 0.818001
O O18 0.892538 0.921215 0.726777
O O19 0.084606 0.750000 0.682890
#
# Coordination Sequence:
#
# PCOD9166268 Si02
#       7
#     4   4   4   4   4   4   4
#     4  11  21  32  51  80 117 157 200 247 303 366
#     4  10  22  40  60  85 123 166 208 258 313 367
#     4  12  24  38  60  89 122 160 204 252 310 372
#     4  10  22  42  67  94 126 168 213 260 308 366
#     4  12  24  40  64  93 127 164 205 256 315 376
#     4  11  21  34  55  84 122 159 197 249 308 368
#     4  10  22  40  63  91 124 163 209 258 310 368
#
# _framework density 19.485804999999999
#
# number of rings (size 3 to 8) (size 9 to 14) (size 15 to 20)
#    0.000    1.143    2.857    4.286    0.000    2.286 
#    0.000    0.714    0.000    0.000    0.000    0.000 
#    0.000    0.000    0.000    0.000    0.000    0.000 
#
# Total GULP energy -156367.075254 kJ/mol
# GULP energy per Si atom -5584.538402 kJ/mol
# Density = 1.944145 g / cm^3
# Si number density = 19.485805 Si / 1000 Ang^3
#
#
#
# Elastic Constant Matrix: (Units=GPa)
#
#
# Indices 1 2 3 4 5 6 
#
# 1 104.5340 36.1248 39.9639 0.0000 -16.1795 0.0000
# 2 36.1248 117.5474 62.1094 0.0000 -16.8694 0.0000
# 3 39.9639 62.1094 124.0671 0.0000 -21.4865 0.0000
# 4 0.0000 0.0000 0.0000 36.9249 0.0000 -4.8103
# 5 -16.1795 -16.8694 -21.4865 0.0000 33.3354 0.0000
# 6 0.0000 0.0000 0.0000 -4.8103 0.0000 19.7249
#
#
#
# Elastic Compliance Matrix: (Units=1/GPa)
#
#
# Indices 1 2 3 4 5 6 
#
# 1 0.011574 -0.001930 -0.002204 0.000000 0.003220 0.000000
# 2 -0.001930 0.012060 -0.005089 0.000000 0.001886 0.000000
# 3 -0.002204 -0.005089 0.012029 0.000000 0.004108 0.000000
# 4 0.000000 0.000000 0.000000 0.027971 0.000000 0.006821
# 5 0.003220 0.001886 0.004108 0.000000 0.035163 0.000000
# 6 0.000000 0.000000 0.000000 0.006821 0.000000 0.052361
#
#
# Mechanical properties :
#
#
# Convention : Reuss Voigt Hill
#
# Bulk Modulus (GPa) = 58.08338 69.17163 63.62750
# Shear Modulus (GPa) = 28.51529 31.86042 30.18785
#
# Velocity S-wave (km/s) = 3.82958 4.04797 3.94029
# Velocity P-wave (km/s) = 7.03043 7.57784 7.30926
#
# Compressibility (1/GPa) = 0.01721663
#
# Stress axis : x y z
#
# Youngs Moduli (GPa) = 86.39729 82.91895 83.13039
#
# Poissons Ratio (x) = 0.16005 0.18325
# Poissons Ratio (y) = 0.16677 0.42305
# Poissons Ratio (z) = 0.19045 0.42197
#
# Static dielectric constant tensor:
#      x y z
#    x 1.696690 0.000000 -0.009900 
#    y 0.000000 1.668880 0.000000 
#    z -0.009900 0.000000 1.700060 
# 
# From -- ./inp_files/49127.got.cif
#   From: 2010.05.17/outbox.cif.g08.bks.cpg/sg11_25_cif.got.tgz:49127.got - 2010.06.03 12:22:45.
