data_PCOD9166425
_publ_section_title
;
Structure prediction by ZEFSAII (Michael W. Deem and Ramdas Pophale) SiO2 
 PCOD9166425
Probable space group: P 21/M
;
_chemical_formula_sum "Si O2"
_cell_formula_units_Z 32
_cell_length_a 15.651796
_cell_length_b 8.924003
_cell_length_c 12.157504
_cell_angle_alpha 90.000000
_cell_angle_beta 89.670512
_cell_angle_gamma 90.000000
_cell_volume 1698.091650
_symmetry_space_group_name_H-M "P 21/M"
_symmetry_group_IT_number 11
_symmetry_cell_setting 'monoclinic'
loop_
_space_group_symop_operation_xyz
x,y,z
-x,1/2+y,-z
-x,-y,-z
x,1/2-y,z
loop_
_atom_site_type_symbol
_atom_site_label
_atom_site_fract_x
_atom_site_fract_y
_atom_site_fract_z
Si Si1 0.153831 0.923641 0.757627
Si Si2 0.254569 0.569195 0.363360
Si Si3 0.671588 0.921229 0.254867
Si Si4 0.907172 0.071887 0.490132
Si Si5 0.590369 0.925369 0.022269
Si Si6 0.406885 0.073851 0.502864
Si Si7 0.248815 0.929992 0.103617
Si Si8 0.909275 0.572409 0.027441
O O1 0.136760 0.750000 0.785213
O O2 0.124185 0.953013 0.633985
O O3 0.253801 0.959711 0.760812
O O4 0.110472 0.030099 0.846550
O O5 0.259508 0.750000 0.374644
O O6 0.167641 0.518393 0.426453
O O7 0.337500 0.500066 0.421982
O O8 0.250862 0.533968 0.233774
O O9 0.707111 0.750000 0.250938
O O10 0.608979 0.935075 0.152324
O O11 0.628032 0.941584 0.372600
O O12 0.915636 0.250000 0.507607
O O13 0.000000 0.000000 0.500000
O O14 0.589734 0.750000 0.991941
O O15 0.500000 0.000000 0.000000
O O16 0.667074 0.005911 0.956663
O O17 0.413745 0.250000 0.477283
O O18 0.500000 0.000000 0.500000
O O19 0.246002 0.750000 0.091837
O O20 0.166049 0.000963 0.045717
O O21 0.910674 0.750000 0.011375
O O22 0.000000 0.500000 0.000000
#
# Coordination Sequence:
#
# PCOD9166425 Si02
#       8
#     4   4   4   4   4   4   4   4
#     4  11  22  40  67  95 124 161 210 260 312 371
#     4  10  23  44  64  89 128 168 207 256 312 370
#     4  10  22  41  64  90 123 164 208 261 314 368
#     4  10  23  41  63  94 126 165 209 255 308 369
#     4  11  24  42  64  93 127 166 212 259 315 375
#     4  11  24  41  64  94 126 165 211 258 315 373
#     4  11  24  43  66  93 128 168 210 260 318 375
#     4  12  26  44  66  94 129 166 211 260 314 375
#
# _framework density 18.844684000000001
#
# number of rings (size 3 to 8) (size 9 to 14) (size 15 to 20)
#    0.000    1.250    2.500    2.625    3.500    3.500 
#    0.000    0.000    0.000    0.000    0.000    0.000 
#    0.000    0.000    0.000    0.000    0.000    0.000 
#
# Total GULP energy -178854.571053 kJ/mol
# GULP energy per Si atom -5589.205345 kJ/mol
# Density = 1.880179 g / cm^3
# Si number density = 18.844684 Si / 1000 Ang^3
#
#
#
# Elastic Constant Matrix: (Units=GPa)
#
#
# Indices 1 2 3 4 5 6 
#
# 1 135.8660 57.0429 38.9104 0.0000 2.7269 0.0000
# 2 57.0429 89.9640 59.4187 0.0000 4.0661 0.0000
# 3 38.9104 59.4187 85.1581 0.0000 -1.4620 0.0000
# 4 0.0000 0.0000 0.0000 27.4148 0.0000 -0.4010
# 5 2.7269 4.0661 -1.4620 0.0000 21.9907 0.0000
# 6 0.0000 0.0000 0.0000 -0.4010 0.0000 40.8121
#
#
#
# Elastic Compliance Matrix: (Units=1/GPa)
#
#
# Indices 1 2 3 4 5 6 
#
# 1 0.010034 -0.006171 -0.000281 0.000000 -0.000122 0.000000
# 2 -0.006171 0.024925 -0.014654 0.000000 -0.004818 0.000000
# 3 -0.000281 -0.014654 0.022169 0.000000 0.004218 0.000000
# 4 0.000000 0.000000 0.000000 0.036482 0.000000 0.000358
# 5 -0.000122 -0.004818 0.004218 0.000000 0.046660 0.000000
# 6 0.000000 0.000000 0.000000 0.000358 0.000000 0.024506
#
#
# Mechanical properties :
#
#
# Convention : Reuss Voigt Hill
#
# Bulk Modulus (GPa) = 67.04721 69.08133 68.06427
# Shear Modulus (GPa) = 23.58936 28.41792 26.00364
#
# Velocity S-wave (km/s) = 3.54189 3.88752 3.71872
# Velocity P-wave (km/s) = 7.23759 7.54243 7.39158
#
# Compressibility (1/GPa) = 0.01491486
#
# Stress axis : x y z
#
# Youngs Moduli (GPa) = 99.66068 40.12046 45.10890
#
# Poissons Ratio (x) = 0.24759 0.01267
# Poissons Ratio (y) = 0.61502 0.66104
# Poissons Ratio (z) = 0.02800 0.58793
#
# Static dielectric constant tensor:
#      x y z
#    x 1.633190 0.000000 0.015290 
#    y 0.000000 1.647740 0.000000 
#    z 0.015290 0.000000 1.641550 
# 
# From -- ./inp_files/38076.got.cif
#   From: 2010.05.17/outbox.cif.g08.bks.cpg/sg11_20_cif.got.tgz:38076.got - 2010.06.03 12:22:45.
