data_PCOD9166161
_publ_section_title
;
Structure prediction by ZEFSAII (Michael W. Deem and Ramdas Pophale) SiO2 
 PCOD9166161
Probable space group: P 21/M
;
_chemical_formula_sum "Si O2"
_cell_formula_units_Z 28
_cell_length_a 12.916243
_cell_length_b 9.229993
_cell_length_c 16.009292
_cell_angle_alpha 90.000000
_cell_angle_beta 52.273958
_cell_angle_gamma 90.000000
_cell_volume 1509.580456
_symmetry_space_group_name_H-M "P 21/M"
_symmetry_group_IT_number 11
_symmetry_cell_setting 'monoclinic'
loop_
_space_group_symop_operation_xyz
x,y,z
-x,1/2+y,-z
-x,-y,-z
x,1/2-y,z
loop_
_atom_site_type_symbol
_atom_site_label
_atom_site_fract_x
_atom_site_fract_y
_atom_site_fract_z
Si Si1 0.615919 0.077460 0.491169
Si Si2 0.386537 0.422720 0.157734
Si Si3 0.963011 0.908796 0.438680
Si Si4 0.883464 0.925119 0.305999
Si Si5 0.658613 0.587208 0.630656
Si Si6 0.689534 0.423378 0.969894
Si Si7 0.051171 0.576133 0.058733
O O1 0.613519 0.250000 0.485300
O O2 0.500000 0.000000 0.500000
O O3 0.750695 0.013105 0.386680
O O4 0.599804 0.026482 0.595240
O O5 0.369949 0.250000 0.154699
O O6 0.341405 0.459860 0.273309
O O7 0.310713 0.503206 0.121107
O O8 0.542454 0.454335 0.075484
O O9 0.024327 0.750000 0.414409
O O10 0.979430 0.964761 0.336336
O O11 0.806769 0.897513 0.526221
O O12 0.000000 0.000000 0.500000
O O13 0.860883 0.750000 0.323679
O O14 0.951005 0.953018 0.184405
O O15 0.598110 0.750000 0.655745
O O16 0.702689 0.250000 0.953190
O O17 0.805445 0.468898 0.975911
O O18 0.055456 0.750000 0.042949
O O19 0.000000 0.500000 0.000000
#
# Coordination Sequence:
#
# PCOD9166161 Si02
#       7
#     4   4   4   4   4   4   4
#     4  11  22  37  58  83 110 144 184 228 278 337
#     4   9  18  34  56  82 112 146 184 230 283 339
#     4   9  18  31  49  74 105 140 176 219 273 329
#     4   9  20  39  56  76 112 150 184 231 283 330
#     4   9  19  35  52  76 111 145 179 224 273 329
#     4   9  19  35  55  80 111 146 186 233 286 338
#     4  10  22  39  58  82 114 153 196 243 291 341
#
# _framework density 18.548200000000001
#
# number of rings (size 3 to 8) (size 9 to 14) (size 15 to 20)
#    0.000    2.571    0.000    2.143    2.000    5.143 
#    0.000    1.429    0.000    0.000    0.000    0.000 
#    0.000    0.000    0.000    0.000    0.000    0.000 
#
# Total GULP energy -156006.861481 kJ/mol
# GULP energy per Si atom -5571.673624 kJ/mol
# Density = 1.850598 g / cm^3
# Si number density = 18.548200 Si / 1000 Ang^3
#
#
#
# Elastic Constant Matrix: (Units=GPa)
#
#
# Indices 1 2 3 4 5 6 
#
# 1 132.9829 56.0828 52.1160 0.0000 29.9717 0.0000
# 2 56.0828 60.8450 32.7094 0.0000 17.0191 0.0000
# 3 52.1160 32.7094 113.1509 0.0000 35.8774 0.0000
# 4 0.0000 0.0000 0.0000 27.8216 0.0000 9.6163
# 5 29.9717 17.0191 35.8774 0.0000 30.8974 0.0000
# 6 0.0000 0.0000 0.0000 9.6163 0.0000 31.7554
#
#
#
# Elastic Compliance Matrix: (Units=1/GPa)
#
#
# Indices 1 2 3 4 5 6 
#
# 1 0.013757 -0.010204 -0.001484 0.000000 -0.006001 0.000000
# 2 -0.010204 0.027925 -0.002586 0.000000 -0.002480 0.000000
# 3 -0.001484 -0.002586 0.014815 0.000000 -0.014340 0.000000
# 4 0.000000 0.000000 0.000000 0.040145 0.000000 -0.012157
# 5 -0.006001 -0.002480 -0.014340 0.000000 0.056204 0.000000
# 6 0.000000 0.000000 0.000000 -0.012157 0.000000 0.035172
#
#
# Mechanical properties :
#
#
# Convention : Reuss Voigt Hill
#
# Bulk Modulus (GPa) = 35.77861 65.42171 50.60016
# Shear Modulus (GPa) = 22.13532 29.16626 25.65079
#
# Velocity S-wave (km/s) = 3.45830 3.96972 3.72281
# Velocity P-wave (km/s) = 5.93952 7.50729 6.76895
#
# Compressibility (1/GPa) = 0.02794966
#
# Stress axis : x y z
#
# Youngs Moduli (GPa) = 72.68889 35.81055 67.49699
#
# Poissons Ratio (x) = 0.36542 0.10015
# Poissons Ratio (y) = 0.74173 0.17455
# Poissons Ratio (z) = 0.10785 0.09261
#
# Static dielectric constant tensor:
#      x y z
#    x 1.675780 0.000000 0.004870 
#    y 0.000000 1.647540 0.000000 
#    z 0.004870 0.000000 1.670780 
# 
# From -- ./inp_files/49169.got.cif
#   From: 2010.05.17/outbox.cif.g08.bks.cpg/sg11_25_cif.got.tgz:49169.got - 2010.06.03 12:22:45.
