data_PCOD9166193
_publ_section_title
;
Structure prediction by ZEFSAII (Michael W. Deem and Ramdas Pophale) SiO2 
 PCOD9166193
Probable space group: P 21/M
;
_chemical_formula_sum "Si O2"
_cell_formula_units_Z 28
_cell_length_a 15.649165
_cell_length_b 9.304544
_cell_length_c 11.763916
_cell_angle_alpha 90.000000
_cell_angle_beta 125.626776
_cell_angle_gamma 90.000000
_cell_volume 1392.313936
_symmetry_space_group_name_H-M "P 21/M"
_symmetry_group_IT_number 11
_symmetry_cell_setting 'monoclinic'
loop_
_space_group_symop_operation_xyz
x,y,z
-x,1/2+y,-z
-x,-y,-z
x,1/2-y,z
loop_
_atom_site_type_symbol
_atom_site_label
_atom_site_fract_x
_atom_site_fract_y
_atom_site_fract_z
Si Si1 0.831459 0.083876 0.118888
Si Si2 0.525890 0.087008 0.190855
Si Si3 0.959061 0.583480 0.577733
Si Si4 0.212626 0.419563 0.383395
Si Si5 0.463378 0.082818 0.582814
Si Si6 0.886952 0.077254 0.907654
Si Si7 0.334245 0.086940 0.863299
O O1 0.796775 0.250000 0.106654
O O2 0.951075 0.074689 0.255892
O O3 0.761879 0.981976 0.143513
O O4 0.829997 0.048373 0.984296
O O5 0.550541 0.250000 0.244543
O O6 0.491078 0.993002 0.270605
O O7 0.624760 0.011327 0.207244
O O8 0.431638 0.091289 0.027028
O O9 0.946249 0.750000 0.535480
O O10 0.851909 0.533091 0.554689
O O11 0.000000 0.500000 0.500000
O O12 0.185667 0.250000 0.343898
O O13 0.337141 0.428951 0.494124
O O14 0.175654 0.511514 0.246835
O O15 0.492354 0.250000 0.600168
O O16 0.500000 0.000000 0.500000
O O17 0.899024 0.250000 0.906917
O O18 0.000000 0.000000 0.000000
O O19 0.312323 0.250000 0.808137
#
# Coordination Sequence:
#
# PCOD9166193 Si02
#       7
#     4   4   4   4   4   4   4
#     4  10  22  39  60  89 123 158 197 250 304 357
#     4  10  22  42  64  89 122 159 204 255 309 368
#     4  10  22  41  61  88 125 161 201 249 301 361
#     4  10  23  44  64  87 123 163 205 257 310 362
#     4  11  25  43  65  91 124 166 210 259 314 371
#     4  11  22  39  63  90 121 159 201 247 302 360
#     4  10  22  39  63  92 121 158 201 252 309 364
#
# _framework density 20.110408
#
# number of rings (size 3 to 8) (size 9 to 14) (size 15 to 20)
#    0.000    1.714    1.429    1.714    4.000    5.143 
#    0.000    0.000    0.000    0.000    0.000    0.000 
#    0.000    0.000    0.000    0.000    0.000    0.000 
#
# Total GULP energy -156524.900885 kJ/mol
# GULP energy per Si atom -5590.175032 kJ/mol
# Density = 2.006464 g / cm^3
# Si number density = 20.110408 Si / 1000 Ang^3
#
#
#
# Elastic Constant Matrix: (Units=GPa)
#
#
# Indices 1 2 3 4 5 6 
#
# 1 103.3001 47.9002 2.0396 0.0000 -19.8997 0.0000
# 2 47.9002 107.8513 21.8434 0.0000 -16.0923 0.0000
# 3 2.0396 21.8434 47.0460 0.0000 -22.0972 0.0000
# 4 0.0000 0.0000 0.0000 34.2962 0.0000 -5.5547
# 5 -19.8997 -16.0923 -22.0972 0.0000 35.2966 0.0000
# 6 0.0000 0.0000 0.0000 -5.5547 0.0000 37.0101
#
#
#
# Elastic Compliance Matrix: (Units=1/GPa)
#
#
# Indices 1 2 3 4 5 6 
#
# 1 0.014276 -0.006300 0.006711 0.000000 0.009377 0.000000
# 2 -0.006300 0.013160 -0.006640 0.000000 -0.001709 0.000000
# 3 0.006711 -0.006640 0.034567 0.000000 0.022397 0.000000
# 4 0.000000 0.000000 0.000000 0.029884 0.000000 0.004485
# 5 0.009377 -0.001709 0.022397 0.000000 0.046861 0.000000
# 6 0.000000 0.000000 0.000000 0.004485 0.000000 0.027693
#
#
# Mechanical properties :
#
#
# Convention : Reuss Voigt Hill
#
# Bulk Modulus (GPa) = 20.18374 44.64043 32.41208
# Shear Modulus (GPa) = 25.58666 33.74819 29.66743
#
# Velocity S-wave (km/s) = 3.57081 4.10096 3.84504
# Velocity P-wave (km/s) = 5.20185 6.68354 5.98869
#
# Compressibility (1/GPa) = 0.04954483
#
# Stress axis : x y z
#
# Youngs Moduli (GPa) = 70.04767 75.98780 28.92903
#
# Poissons Ratio (x) = 0.47875 -0.19414
# Poissons Ratio (y) = 0.44133 0.19208
# Poissons Ratio (z) = -0.47008 0.50454
#
# Static dielectric constant tensor:
#      x y z
#    x 1.692960 0.000000 0.010700 
#    y 0.000000 1.704040 0.000000 
#    z 0.010700 0.000000 1.715350 
# 
# From -- ./inp_files/37868.got.cif
#   From: 2010.05.17/outbox.cif.g08.bks.cpg/sg11_19_cif.got.tgz:37868.got - 2010.06.03 12:22:45.
