data_PCOD9166736
_publ_section_title
;
Structure prediction by ZEFSAII (Michael W. Deem and Ramdas Pophale) SiO2 
 PCOD9166736
Probable space group: P 21/M
;
_chemical_formula_sum "Si O2"
_cell_formula_units_Z 24
_cell_length_a 12.223549
_cell_length_b 11.102566
_cell_length_c 17.708702
_cell_angle_alpha 90.000000
_cell_angle_beta 151.851324
_cell_angle_gamma 90.000000
_cell_volume 1133.782016
_symmetry_space_group_name_H-M "P 21/M"
_symmetry_group_IT_number 11
_symmetry_cell_setting 'monoclinic'
loop_
_space_group_symop_operation_xyz
x,y,z
-x,1/2+y,-z
-x,-y,-z
x,1/2-y,z
loop_
_atom_site_type_symbol
_atom_site_label
_atom_site_fract_x
_atom_site_fract_y
_atom_site_fract_z
Si Si1 0.242978 0.889375 0.971983
Si Si2 0.063330 0.609520 0.698255
Si Si3 0.654148 0.121892 0.592447
Si Si4 0.332860 0.567491 0.561061
Si Si5 0.859945 0.520471 0.839269
Si Si6 0.571148 0.112770 0.212580
O O1 0.335150 0.750000 0.028822
O O2 0.399294 0.997121 0.102561
O O3 0.181425 0.928830 0.849058
O O4 0.004271 0.890351 0.874109
O O5 0.031457 0.750000 0.687941
O O6 0.236233 0.588335 0.733973
O O7 0.813278 0.554291 0.529257
O O8 0.530860 0.250000 0.529480
O O9 0.761411 0.126218 0.573963
O O10 0.827144 0.097478 0.766733
O O11 0.500000 0.000000 0.500000
O O12 0.606654 0.562554 0.711080
O O13 0.315895 0.616338 0.635176
O O14 0.000000 0.500000 0.000000
O O15 0.475279 0.250000 0.140775
#
# Coordination Sequence:
#
# PCOD9166736 Si02
#       6
#     4   4   4   4   4   4
#     4  11  24  45  70  99 135 179 224 277 335 398
#     4  10  23  44  70  99 135 176 225 280 333 391
#     4  10  23  41  65  96 131 174 216 265 330 397
#     4  11  22  42  67  95 135 176 217 269 336 396
#     4  11  23  43  64  97 133 173 220 276 329 394
#     4  11  24  44  69 101 137 176 223 278 331 395
#
# _framework density 21.168091
#
# number of rings (size 3 to 8) (size 9 to 14) (size 15 to 20)
#    0.000    1.333    3.333    1.500    0.000    8.000 
#    0.000    1.667    0.000    0.000    0.000    0.000 
#    0.000    0.000    0.000    0.000    0.000    0.000 
#
# Total GULP energy -133649.313239 kJ/mol
# GULP energy per Si atom -5568.721385 kJ/mol
# Density = 2.111991 g / cm^3
# Si number density = 21.168091 Si / 1000 Ang^3
#
#
#
# Elastic Constant Matrix: (Units=GPa)
#
#
# Indices 1 2 3 4 5 6 
#
# 1 134.0138 21.5366 30.6428 0.0000 -44.5684 0.0000
# 2 21.5366 111.8601 34.0175 0.0000 -3.2519 0.0000
# 3 30.6428 34.0175 69.1448 0.0000 -25.9387 0.0000
# 4 0.0000 0.0000 0.0000 14.5780 0.0000 19.2005
# 5 -44.5684 -3.2519 -25.9387 0.0000 39.4024 0.0000
# 6 0.0000 0.0000 0.0000 19.2005 0.0000 2.6478
#
#
#
# Elastic Compliance Matrix: (Units=1/GPa)
#
#
# Indices 1 2 3 4 5 6 
#
# 1 0.012436 -0.002304 0.001099 0.000000 0.014601 0.000000
# 2 -0.002304 0.011287 -0.006852 0.000000 -0.006186 0.000000
# 3 0.001099 -0.006852 0.023373 0.000000 0.016064 0.000000
# 4 0.000000 0.000000 0.000000 -0.008022 0.000000 0.058173
# 5 0.014601 -0.006186 0.016064 0.000000 0.051959 0.000000
# 6 0.000000 0.000000 0.000000 0.058173 0.000000 -0.044168
#
#
# Mechanical properties :
#
#
# Convention : Reuss Voigt Hill
#
# Bulk Modulus (GPa) = 32.27689 54.15695 43.21692
# Shear Modulus (GPa) = 68.20589 26.58044 47.39317
#
# Velocity S-wave (km/s) = 5.68252 3.54741 4.73683
# Velocity P-wave (km/s) = 7.63778 6.51296 7.09769
#
# Compressibility (1/GPa) = 0.03098192
#
# Stress axis : x y z
#
# Youngs Moduli (GPa) = 80.40850 88.59403 42.78491
#
# Poissons Ratio (x) = 0.20415 -0.04704
# Poissons Ratio (y) = 0.18528 0.29318
# Poissons Ratio (z) = -0.08840 0.60709
#
# Static dielectric constant tensor:
#      x y z
#    x 1.810200 0.000000 0.003690 
#    y 0.000000 1.791980 0.000000 
#    z 0.003690 0.000000 1.889130 
# 
# From -- ./inp_files/34504.got.cif
#   From: 2010.05.17/outbox.cif.g08.bks.cpg/sg11_18_cif.got.tgz:34504.got - 2010.06.03 12:22:45.
