data_PCOD9166877
_publ_section_title
;
Structure prediction by ZEFSAII (Michael W. Deem and Ramdas Pophale) SiO2 
 PCOD9166877
Probable space group: P 21/M
;
_chemical_formula_sum "Si O2"
_cell_formula_units_Z 26
_cell_length_a 14.719339
_cell_length_b 9.254314
_cell_length_c 13.778465
_cell_angle_alpha 90.000000
_cell_angle_beta 40.339203
_cell_angle_gamma 90.000000
_cell_volume 1214.917180
_symmetry_space_group_name_H-M "P 21/M"
_symmetry_group_IT_number 11
_symmetry_cell_setting 'monoclinic'
loop_
_space_group_symop_operation_xyz
x,y,z
-x,1/2+y,-z
-x,-y,-z
x,1/2-y,z
loop_
_atom_site_type_symbol
_atom_site_label
_atom_site_fract_x
_atom_site_fract_y
_atom_site_fract_z
Si Si1 0.415980 0.042361 0.195268
Si Si2 0.446026 0.750000 0.065227
Si Si3 0.884490 0.916614 0.657677
Si Si4 0.291294 0.077012 0.826482
Si Si5 0.858510 0.424658 0.883402
Si Si6 0.568611 0.582540 0.588052
Si Si7 0.148262 0.424381 0.750984
O O1 0.434391 0.875515 0.157286
O O2 0.263509 0.086331 0.277453
O O3 0.418726 0.077628 0.305958
O O4 0.530984 0.127050 0.038868
O O5 0.926635 0.750000 0.642226
O O6 0.860659 0.005419 0.775681
O O7 0.000000 0.000000 0.500000
O O8 0.289077 0.250000 0.840786
O O9 0.176688 0.031886 0.838710
O O10 0.440490 0.021750 0.666070
O O11 0.259051 0.995030 0.952672
O O12 0.847534 0.250000 0.887004
O O13 0.005050 0.468372 0.816200
O O14 0.541363 0.750000 0.581167
O O15 0.715315 0.533905 0.422184
O O16 0.145416 0.250000 0.753714
#
# Coordination Sequence:
#
# PCOD9166877 Si02
#       7
#     4   2   4   4   4   4   4
#     4  11  24  41  64  90 130 164 212 253 318 370
#     4  10  24  40  64  90 124 168 208 262 310 370
#     4  12  26  44  65  95 131 170 212 259 310 375
#     4  11  24  40  64  96 127 161 211 267 318 377
#     4  11  24  42  69  93 124 168 215 260 317 377
#     4  11  22  40  66  92 124 168 210 257 322 381
#     4   9  21  44  65  89 125 166 210 265 322 377
#
# _framework density 21.400635999999999
#
# number of rings (size 3 to 8) (size 9 to 14) (size 15 to 20)
#    0.000    1.231    1.538    3.231    7.538    1.231 
#    0.000    4.615    0.000    0.000    0.000    0.000 
#    0.000    0.000    0.000    0.000    0.000    0.000 
#
# Total GULP energy -144922.307818 kJ/mol
# GULP energy per Si atom -5573.934916 kJ/mol
# Density = 2.135193 g / cm^3
# Si number density = 21.400636 Si / 1000 Ang^3
#
#
#
# Elastic Constant Matrix: (Units=GPa)
#
#
# Indices 1 2 3 4 5 6 
#
# 1 89.1026 9.7555 14.6930 0.0000 -2.5958 0.0000
# 2 9.7555 152.6489 30.6347 0.0000 3.2931 0.0000
# 3 14.6930 30.6347 93.9942 0.0000 4.1417 0.0000
# 4 0.0000 0.0000 0.0000 18.6701 0.0000 0.4252
# 5 -2.5958 3.2931 4.1417 0.0000 29.6330 0.0000
# 6 0.0000 0.0000 0.0000 0.4252 0.0000 26.4148
#
#
#
# Elastic Compliance Matrix: (Units=1/GPa)
#
#
# Indices 1 2 3 4 5 6 
#
# 1 0.011593 -0.000421 -0.001732 0.000000 0.001304 0.000000
# 2 -0.000421 0.007031 -0.002203 0.000000 -0.000510 0.000000
# 3 -0.001732 -0.002203 0.011696 0.000000 -0.001542 0.000000
# 4 0.000000 0.000000 0.000000 0.053581 0.000000 -0.000862
# 5 0.001304 -0.000510 -0.001542 0.000000 0.034133 0.000000
# 6 0.000000 0.000000 0.000000 -0.000862 0.000000 0.037872
#
#
# Mechanical properties :
#
#
# Convention : Reuss Voigt Hill
#
# Bulk Modulus (GPa) = 46.28379 49.54579 47.91479
# Shear Modulus (GPa) = 29.10010 33.65441 31.37725
#
# Velocity S-wave (km/s) = 3.69152 3.96989 3.83323
# Velocity P-wave (km/s) = 6.31221 6.64945 6.48302
#
# Compressibility (1/GPa) = 0.02160584
#
# Stress axis : x y z
#
# Youngs Moduli (GPa) = 86.26035 142.22569 85.50110
#
# Poissons Ratio (x) = 0.05993 0.14812
# Poissons Ratio (y) = 0.03635 0.18838
# Poissons Ratio (z) = 0.14943 0.31336
#
# Static dielectric constant tensor:
#      x y z
#    x 1.816680 0.000000 -0.037940 
#    y 0.000000 1.733210 0.000000 
#    z -0.037940 0.000000 1.765220 
# 
# From -- ./inp_files/51923.got.cif
#   From: 2010.05.17/outbox.cif.g08.bks.cpg/sg11_26_cif.got.tgz:51923.got - 2010.06.03 12:22:45.
