data_PCOD9166270
_publ_section_title
;
Structure prediction by ZEFSAII (Michael W. Deem and Ramdas Pophale) SiO2 
 PCOD9166270
Probable space group: P 21/M
;
_chemical_formula_sum "Si O2"
_cell_formula_units_Z 32
_cell_length_a 14.962046
_cell_length_b 8.536399
_cell_length_c 12.651210
_cell_angle_alpha 90.000000
_cell_angle_beta 87.086447
_cell_angle_gamma 90.000000
_cell_volume 1613.749081
_symmetry_space_group_name_H-M "P 21/M"
_symmetry_group_IT_number 11
_symmetry_cell_setting 'monoclinic'
loop_
_space_group_symop_operation_xyz
x,y,z
-x,1/2+y,-z
-x,-y,-z
x,1/2-y,z
loop_
_atom_site_type_symbol
_atom_site_label
_atom_site_fract_x
_atom_site_fract_y
_atom_site_fract_z
Si Si1 0.945676 0.439247 0.103348
Si Si2 0.739065 0.439105 0.136954
Si Si3 0.419736 0.433644 0.260759
Si Si4 0.860673 0.438545 0.513481
Si Si5 0.604201 0.566817 0.302707
Si Si6 0.345968 0.936305 0.482393
Si Si7 0.401844 0.937696 0.037037
Si Si8 0.004194 0.060994 0.330467
O O1 0.947452 0.250000 0.101651
O O2 0.841171 0.486347 0.109515
O O3 0.989261 0.492190 0.211686
O O4 0.000000 0.500000 0.000000
O O5 0.737129 0.250000 0.149656
O O6 0.697313 0.515157 0.244280
O O7 0.672812 0.482398 0.044774
O O8 0.403628 0.250000 0.273232
O O9 0.525886 0.468170 0.252035
O O10 0.383719 0.523078 0.365411
O O11 0.379559 0.496051 0.153968
O O12 0.863281 0.250000 0.516323
O O13 0.758050 0.484925 0.508673
O O14 0.907182 0.501640 0.616539
O O15 0.921661 0.490308 0.410729
O O16 0.587891 0.750000 0.286823
O O17 0.604616 0.525842 0.426298
O O18 0.352909 0.750000 0.501323
O O19 0.405719 0.750000 0.041149
O O20 0.500000 0.000000 0.000000
O O21 0.004989 0.250000 0.330528
#
# Coordination Sequence:
#
# PCOD9166270 Si02
#       8
#     4   4   4   4   4   4   4   4
#     4  10  22  40  60  86 121 160 200 245 299 357
#     4  10  22  41  65  89 119 161 204 247 303 364
#     4  12  25  41  60  85 121 161 200 247 302 356
#     4   9  19  36  60  86 113 151 194 239 293 355
#     4  12  24  39  62  90 120 153 198 249 301 362
#     4  11  23  40  60  85 121 159 199 244 299 363
#     4  11  22  39  64  91 120 157 203 252 301 356
#     4   9  18  35  59  85 116 151 191 241 294 349
#
# _framework density 19.829601
#
# number of rings (size 3 to 8) (size 9 to 14) (size 15 to 20)
#    0.000    1.500    1.250    4.125    0.000    5.500 
#    0.000    6.250    0.000    0.000    0.000    0.000 
#    0.000    0.000    0.000    0.000    0.000    0.000 
#
# Total GULP energy -178911.799364 kJ/mol
# GULP energy per Si atom -5590.993730 kJ/mol
# Density = 1.978447 g / cm^3
# Si number density = 19.829601 Si / 1000 Ang^3
#
#
#
# Elastic Constant Matrix: (Units=GPa)
#
#
# Indices 1 2 3 4 5 6 
#
# 1 34.3984 1.0988 12.7509 0.0000 3.8042 0.0000
# 2 1.0988 21.0194 1.9145 0.0000 5.1999 0.0000
# 3 12.7509 1.9145 122.4473 0.0000 8.8434 0.0000
# 4 0.0000 0.0000 0.0000 34.6199 0.0000 -1.3673
# 5 3.8042 5.1999 8.8434 0.0000 27.0482 0.0000
# 6 0.0000 0.0000 0.0000 -1.3673 0.0000 28.2455
#
#
#
# Elastic Compliance Matrix: (Units=1/GPa)
#
#
# Indices 1 2 3 4 5 6 
#
# 1 0.030535 -0.000529 -0.002938 0.000000 -0.003232 0.000000
# 2 -0.000529 0.049961 -0.000039 0.000000 -0.009518 0.000000
# 3 -0.002938 -0.000039 0.008647 0.000000 -0.002407 0.000000
# 4 0.000000 0.000000 0.000000 0.028940 0.000000 0.001401
# 5 -0.003232 -0.009518 -0.002407 0.000000 0.040042 0.000000
# 6 0.000000 0.000000 0.000000 0.001401 0.000000 0.035472
#
#
# Mechanical properties :
#
#
# Convention : Reuss Voigt Hill
#
# Bulk Modulus (GPa) = 12.17565 23.26593 17.72079
# Shear Modulus (GPa) = 21.93123 28.78943 25.36033
#
# Velocity S-wave (km/s) = 3.32924 3.81444 3.58007
# Velocity P-wave (km/s) = 4.57514 5.58196 5.10344
#
# Compressibility (1/GPa) = 0.08213112
#
# Stress axis : x y z
#
# Youngs Moduli (GPa) = 32.74977 20.01567 115.64530
#
# Poissons Ratio (x) = 0.01059 0.33976
# Poissons Ratio (y) = 0.01733 0.00447
# Poissons Ratio (z) = 0.09622 0.00077
#
# Static dielectric constant tensor:
#      x y z
#    x 1.692660 0.000000 -0.001910 
#    y 0.000000 1.671570 0.000000 
#    z -0.001910 0.000000 1.686620 
# 
# From -- ./inp_files/38291.got.cif
#   From: 2010.05.17/outbox.cif.g08.bks.cpg/sg11_20_cif.got.tgz:38291.got - 2010.06.03 12:22:45.
