data_PCOD9166082
_publ_section_title
;
Structure prediction by ZEFSAII (Michael W. Deem and Ramdas Pophale) SiO2 
 PCOD9166082
Probable space group: P 21/M
;
_chemical_formula_sum "Si O2"
_cell_formula_units_Z 16
_cell_length_a 7.291856
_cell_length_b 15.982066
_cell_length_c 8.141913
_cell_angle_alpha 90.000000
_cell_angle_beta 55.562236
_cell_angle_gamma 90.000000
_cell_volume 782.555264
_symmetry_space_group_name_H-M "P 21/M"
_symmetry_group_IT_number 11
_symmetry_cell_setting 'monoclinic'
loop_
_space_group_symop_operation_xyz
x,y,z
-x,1/2+y,-z
-x,-y,-z
x,1/2-y,z
loop_
_atom_site_type_symbol
_atom_site_label
_atom_site_fract_x
_atom_site_fract_y
_atom_site_fract_z
Si Si1 0.756641 0.658104 0.709150
Si Si2 0.459323 0.099157 0.864004
Si Si3 0.352042 0.415871 0.573884
Si Si4 0.873803 0.007151 0.788264
O O1 0.857777 0.750000 0.642311
O O2 0.630487 0.633663 0.605875
O O3 0.918117 0.580297 0.670202
O O4 0.595882 0.655479 0.949994
O O5 0.420881 0.133753 0.702837
O O6 0.700351 0.060039 0.768427
O O7 0.277676 0.023616 0.981332
O O8 0.500000 0.500000 0.500000
O O9 0.094500 0.443633 0.715787
#
# Coordination Sequence:
#
# PCOD9166082 Si02
#       4
#     4   4   4   4
#     4  10  22  38  55  86 122 144 189 246 288 329
#     4   9  20  36  62  81 109 152 192 229 283 334
#     4  12  20  35  67  86 108 153 202 227 279 349
#     4   9  19  39  60  82 114 146 196 230 276 350
#
# _framework density 20.445841000000001
#
# number of rings (size 3 to 8) (size 9 to 14) (size 15 to 20)
#    1.500    0.500    2.500    1.500    0.000    1.000 
#    0.000    2.500    0.000    0.000    0.000    0.000 
#    0.000    0.000    0.000    0.000    0.000    0.000 
#
# Total GULP energy -89071.595189 kJ/mol
# GULP energy per Si atom -5566.974699 kJ/mol
# Density = 2.039931 g / cm^3
# Si number density = 20.445841 Si / 1000 Ang^3
#
#
#
# Elastic Constant Matrix: (Units=GPa)
#
#
# Indices 1 2 3 4 5 6 
#
# 1 104.9033 28.3985 49.8794 0.0000 22.2965 0.0000
# 2 28.3985 61.7564 9.2797 0.0000 6.6643 0.0000
# 3 49.8794 9.2797 90.9423 0.0000 20.8501 0.0000
# 4 0.0000 0.0000 0.0000 -2.7221 0.0000 2.4861
# 5 22.2965 6.6643 20.8501 0.0000 55.9045 0.0000
# 6 0.0000 0.0000 0.0000 2.4861 0.0000 8.9562
#
#
#
# Elastic Compliance Matrix: (Units=1/GPa)
#
#
# Indices 1 2 3 4 5 6 
#
# 1 0.014931 -0.005523 -0.007011 0.000000 -0.002682 0.000000
# 2 -0.005523 0.018597 0.001241 0.000000 -0.000477 0.000000
# 3 -0.007011 0.001241 0.015427 0.000000 -0.003105 0.000000
# 4 0.000000 0.000000 0.000000 -0.293064 0.000000 0.081351
# 5 -0.002682 -0.000477 -0.003105 0.000000 0.020172 0.000000
# 6 0.000000 0.000000 0.000000 0.081351 0.000000 0.089073
#
#
# Mechanical properties :
#
#
# Convention : Reuss Voigt Hill
#
# Bulk Modulus (GPa) = 37.92325 48.07968 43.00147
# Shear Modulus (GPa) = -48.31537 23.76400 -12.27568
#
# Velocity S-wave (km/s) = -4.86644 3.41294 -2.45296
# Velocity P-wave (km/s) = 3.60387 6.25280 3.61315
#
# Compressibility (1/GPa) = 0.02636905
#
# Stress axis : x y z
#
# Youngs Moduli (GPa) = 66.97289 53.77072 64.82296
#
# Poissons Ratio (x) = 0.29699 0.45448
# Poissons Ratio (y) = 0.36991 -0.08045
# Poissons Ratio (z) = 0.46955 -0.06673
#
# Static dielectric constant tensor:
#      x y z
#    x 1.695460 0.000000 0.052510 
#    y 0.000000 1.744930 0.000000 
#    z 0.052510 0.000000 1.823360 
# 
# From -- ./inp_files/10033.got.cif
#   From: 2010.05.17/outbox.cif.g08.bks.cpg/sg11_6_cif.got.tgz:10033.got - 2010.06.03 12:22:45.
