data_PCOD9166852
_publ_section_title
;
Structure prediction by ZEFSAII (Michael W. Deem and Ramdas Pophale) SiO2 
 PCOD9166852
Probable space group: P 21/M
;
_chemical_formula_sum "Si O2"
_cell_formula_units_Z 22
_cell_length_a 8.912776
_cell_length_b 21.486833
_cell_length_c 5.047622
_cell_angle_alpha 90.000000
_cell_angle_beta 121.068932
_cell_angle_gamma 90.000000
_cell_volume 827.986861
_symmetry_space_group_name_H-M "P 21/M"
_symmetry_group_IT_number 11
_symmetry_cell_setting 'monoclinic'
loop_
_space_group_symop_operation_xyz
x,y,z
-x,1/2+y,-z
-x,-y,-z
x,1/2-y,z
loop_
_atom_site_type_symbol
_atom_site_label
_atom_site_fract_x
_atom_site_fract_y
_atom_site_fract_z
Si Si1 0.856202 0.137643 0.052173
Si Si2 0.912923 0.250000 0.732803
Si Si3 0.193257 0.071345 0.586817
Si Si4 0.616318 0.617375 0.737351
Si Si5 0.637139 0.250000 0.091082
Si Si6 0.341484 0.952089 0.808733
Si Si7 0.711231 0.750000 0.030869
O O1 0.732247 0.189902 0.066823
O O2 0.732186 0.077484 0.988530
O O3 0.025746 0.111684 0.358825
O O4 0.929636 0.181738 0.885007
O O5 0.711946 0.250000 0.457159
O O6 0.085281 0.250000 0.701406
O O7 0.343110 0.096527 0.522269
O O8 0.191548 0.996588 0.547144
O O9 0.246304 0.083702 0.938278
O O10 0.426653 0.598304 0.685830
O O11 0.659191 0.689197 0.819275
O O12 0.431434 0.250000 0.865971
O O13 0.500000 0.000000 0.000000
#
# Coordination Sequence:
#
# PCOD9166852 Si02
#       7
#     4   2   4   4   2   4   2
#     4  11  23  45  65 103 141 184 246 297 366 430
#     4  11  25  45  70 103 146 183 246 307 362 440
#     4  11  24  45  71 100 144 190 233 303 357 429
#     4  11  24  44  69 106 139 187 247 292 363 435
#     4  11  25  43  70 104 146 185 244 307 366 440
#     4  10  23  45  68 100 142 189 243 298 355 438
#     4  12  22  46  72 105 144 192 238 304 372 426
#
# _framework density 26.570468000000002
#
# number of rings (size 3 to 8) (size 9 to 14) (size 15 to 20)
#    0.000    1.091    3.636    2.182    0.000    4.364 
#    6.545    4.545    0.000    0.000    0.000    0.000 
#    0.000    0.000    0.000    0.000    0.000    0.000 
#
# Total GULP energy -122799.415776 kJ/mol
# GULP energy per Si atom -5581.791626 kJ/mol
# Density = 2.650999 g / cm^3
# Si number density = 26.570468 Si / 1000 Ang^3
#
#
#
# Elastic Constant Matrix: (Units=GPa)
#
#
# Indices 1 2 3 4 5 6 
#
# 1 150.7582 32.2503 16.0135 0.0000 30.3965 0.0000
# 2 32.2503 135.8597 -3.3847 0.0000 -7.1050 0.0000
# 3 16.0135 -3.3847 38.7942 0.0000 0.8550 0.0000
# 4 0.0000 0.0000 0.0000 3.0897 0.0000 14.7084
# 5 30.3965 -7.1050 0.8550 0.0000 18.6577 0.0000
# 6 0.0000 0.0000 0.0000 14.7084 0.0000 48.9027
#
#
#
# Elastic Compliance Matrix: (Units=1/GPa)
#
#
# Indices 1 2 3 4 5 6 
#
# 1 0.012422 -0.004204 -0.005018 0.000000 -0.021609 0.000000
# 2 -0.004204 0.008946 0.002292 0.000000 0.010151 0.000000
# 3 -0.005018 0.002292 0.027877 0.000000 0.007771 0.000000
# 4 0.000000 0.000000 0.000000 -0.749567 0.000000 0.225446
# 5 -0.021609 0.010151 0.007771 0.000000 0.092311 0.000000
# 6 0.000000 0.000000 0.000000 0.225446 0.000000 -0.047358
#
#
# Mechanical properties :
#
#
# Convention : Reuss Voigt Hill
#
# Bulk Modulus (GPa) = 28.25982 46.13002 37.19492
# Shear Modulus (GPa) = -7.94013 32.83222 12.44605
#
# Velocity S-wave (km/s) = -1.73055 3.51902 2.16664
# Velocity P-wave (km/s) = 2.58182 5.82326 4.50423
#
# Compressibility (1/GPa) = 0.03538593
#
# Stress axis : x y z
#
# Youngs Moduli (GPa) = 80.49991 111.77664 35.87164
#
# Poissons Ratio (x) = 0.46990 0.18001
# Poissons Ratio (y) = 0.33842 -0.08222
# Poissons Ratio (z) = 0.40397 -0.25621
#
# Static dielectric constant tensor:
#      x y z
#    x 2.133840 0.000000 -0.006320 
#    y 0.000000 2.147430 0.000000 
#    z -0.006320 0.000000 2.139380 
# 
# From -- ./inp_files/2419.got.cif
#   From: 2010.05.17/outbox.cif.g08.bks.cpg/sg11_2_cif.got.tgz:2419.got - 2010.06.03 12:22:45.
