data_PCOD9166922
_publ_section_title
;
Structure prediction by ZEFSAII (Michael W. Deem and Ramdas Pophale) SiO2 
 PCOD9166922
Probable space group: P 21/M
;
_chemical_formula_sum "Si O2"
_cell_formula_units_Z 24
_cell_length_a 15.084906
_cell_length_b 8.514874
_cell_length_c 9.734155
_cell_angle_alpha 90.000000
_cell_angle_beta 81.017582
_cell_angle_gamma 90.000000
_cell_volume 1234.980514
_symmetry_space_group_name_H-M "P 21/M"
_symmetry_group_IT_number 11
_symmetry_cell_setting 'monoclinic'
loop_
_space_group_symop_operation_xyz
x,y,z
-x,1/2+y,-z
-x,-y,-z
x,1/2-y,z
loop_
_atom_site_type_symbol
_atom_site_label
_atom_site_fract_x
_atom_site_fract_y
_atom_site_fract_z
Si Si1 0.252606 0.937867 0.353796
Si Si2 0.570841 0.064006 0.090728
Si Si3 0.918615 0.560217 0.112186
Si Si4 0.084682 0.438690 0.567741
Si Si5 0.759329 0.563280 0.951171
Si Si6 0.540368 0.439440 0.631556
O O1 0.248251 0.750000 0.364617
O O2 0.355244 0.985625 0.366888
O O3 0.177129 0.008003 0.472737
O O4 0.232250 0.986862 0.201445
O O5 0.583099 0.250000 0.074430
O O6 0.663413 0.979199 0.036436
O O7 0.525745 0.017531 0.243389
O O8 0.500000 0.000000 0.000000
O O9 0.920570 0.750000 0.115144
O O10 0.920198 0.507182 0.271164
O O11 0.831405 0.510230 0.046845
O O12 0.000000 0.500000 0.000000
O O13 0.081569 0.250000 0.568095
O O14 0.000000 0.500000 0.500000
O O15 0.768251 0.750000 0.930501
O O16 0.500000 0.500000 0.500000
O O17 0.536444 0.250000 0.642439
#
# Coordination Sequence:
#
# PCOD9166922 Si02
#       6
#     4   4   4   4   4   4
#     4  11  24  42  64  94 128 168 213 261 319 382
#     4  12  24  41  65  95 129 171 218 266 319 379
#     4  10  24  43  65  95 126 161 206 257 314 374
#     4  11  24  43  66  94 128 166 208 261 318 381
#     4  11  23  41  66  95 127 168 214 264 319 379
#     4  11  25  43  64  93 131 172 218 268 321 381
#
# _framework density 19.433505
#
# number of rings (size 3 to 8) (size 9 to 14) (size 15 to 20)
#    0.000    1.000    1.667    4.500    2.333    7.333 
#    0.000    0.000    0.000    0.000    0.000    0.000 
#    0.000    0.000    0.000    0.000    0.000    0.000 
#
# Total GULP energy -134147.650657 kJ/mol
# GULP energy per Si atom -5589.485444 kJ/mol
# Density = 1.938927 g / cm^3
# Si number density = 19.433505 Si / 1000 Ang^3
#
#
#
# Elastic Constant Matrix: (Units=GPa)
#
#
# Indices 1 2 3 4 5 6 
#
# 1 143.1367 5.5421 77.0614 0.0000 5.5943 0.0000
# 2 5.5421 27.4725 6.3381 0.0000 8.5329 0.0000
# 3 77.0614 6.3381 187.0772 0.0000 9.6646 0.0000
# 4 0.0000 0.0000 0.0000 36.5427 0.0000 -4.9339
# 5 5.5943 8.5329 9.6646 0.0000 40.2350 0.0000
# 6 0.0000 0.0000 0.0000 -4.9339 0.0000 32.2980
#
#
#
# Elastic Compliance Matrix: (Units=1/GPa)
#
#
# Indices 1 2 3 4 5 6 
#
# 1 0.009004 -0.000915 -0.003669 0.000000 -0.000177 0.000000
# 2 -0.000915 0.039212 -0.000535 0.000000 -0.008060 0.000000
# 3 -0.003669 -0.000535 0.006929 0.000000 -0.001041 0.000000
# 4 0.000000 0.000000 0.000000 0.027942 0.000000 0.004268
# 5 -0.000177 -0.008060 -0.001041 0.000000 0.026838 0.000000
# 6 0.000000 0.000000 0.000000 0.004268 0.000000 0.031614
#
#
# Mechanical properties :
#
#
# Convention : Reuss Voigt Hill
#
# Bulk Modulus (GPa) = 22.26879 59.50773 40.88826
# Shear Modulus (GPa) = 29.98614 39.73145 34.85879
#
# Velocity S-wave (km/s) = 3.93238 4.52650 4.23986
# Velocity P-wave (km/s) = 5.66586 7.61621 6.71225
#
# Compressibility (1/GPa) = 0.04490590
#
# Stress axis : x y z
#
# Youngs Moduli (GPa) = 111.06379 25.50269 144.33085
#
# Poissons Ratio (x) = 0.02334 0.52952
# Poissons Ratio (y) = 0.10164 0.07723
# Poissons Ratio (z) = 0.40747 0.01365
#
# Static dielectric constant tensor:
#      x y z
#    x 1.608200 0.000000 -0.036220 
#    y 0.000000 1.655070 0.000000 
#    z -0.036220 0.000000 1.569110 
# 
# From -- ./inp_files/20321.got.cif
#   From: 2010.05.17/outbox.cif.g08.bks.cpg/sg11_11_cif.got.tgz:20321.got - 2010.06.03 12:22:45.
