data_PCOD9166528
_publ_section_title
;
Structure prediction by ZEFSAII (Michael W. Deem and Ramdas Pophale) SiO2 
 PCOD9166528
Probable space group: P 21/M
;
_chemical_formula_sum "Si O2"
_cell_formula_units_Z 16
_cell_length_a 6.652339
_cell_length_b 14.894668
_cell_length_c 7.654971
_cell_angle_alpha 90.000000
_cell_angle_beta 122.600101
_cell_angle_gamma 90.000000
_cell_volume 638.989365
_symmetry_space_group_name_H-M "P 21/M"
_symmetry_group_IT_number 11
_symmetry_cell_setting 'monoclinic'
loop_
_space_group_symop_operation_xyz
x,y,z
-x,1/2+y,-z
-x,-y,-z
x,1/2-y,z
loop_
_atom_site_type_symbol
_atom_site_label
_atom_site_fract_x
_atom_site_fract_y
_atom_site_fract_z
Si Si1 0.482896 0.107135 0.954572
Si Si2 0.012065 0.642401 0.979524
Si Si3 0.989611 0.073661 0.646700
Si Si4 0.528818 0.651337 0.650381
O O1 0.725770 0.133235 0.974191
O O2 0.241639 0.127157 0.733030
O O3 0.477219 0.152647 0.141040
O O4 0.500000 0.000000 0.000000
O O5 0.981708 0.750000 0.008938
O O6 0.982172 0.575504 0.129111
O O7 0.798304 0.617795 0.744148
O O8 0.714976 0.104108 0.510825
O O9 0.000000 0.000000 0.500000
O O10 0.511654 0.750000 0.565392
#
# Coordination Sequence:
#
# PCOD9166528 Si02
#       4
#     4   4   4   4
#     4  11  23  43  65  98 134 172 219 276 330 386
#     4  10  24  43  67  95 132 177 222 269 331 396
#     4  11  23  42  65 101 134 169 219 276 329 389
#     4  10  22  42  65  93 134 176 219 270 331 396
#
# _framework density 25.039542000000001
#
# number of rings (size 3 to 8) (size 9 to 14) (size 15 to 20)
#    0.000    1.500    2.500    1.500    0.000   10.000 
#    0.000    0.000    0.000    0.000    0.000    0.000 
#    0.000    0.000    0.000    0.000    0.000    0.000 
#
# Total GULP energy -89163.497252 kJ/mol
# GULP energy per Si atom -5572.718578 kJ/mol
# Density = 2.498255 g / cm^3
# Si number density = 25.039542 Si / 1000 Ang^3
#
#
#
# Elastic Constant Matrix: (Units=GPa)
#
#
# Indices 1 2 3 4 5 6 
#
# 1 131.1676 8.5799 38.4976 0.0000 41.9584 0.0000
# 2 8.5799 90.6390 10.0264 0.0000 0.8471 0.0000
# 3 38.4976 10.0264 158.4454 0.0000 46.9412 0.0000
# 4 0.0000 0.0000 0.0000 19.1391 0.0000 20.8179
# 5 41.9584 0.8471 46.9412 0.0000 60.7054 0.0000
# 6 0.0000 0.0000 0.0000 20.8179 0.0000 32.5318
#
#
#
# Elastic Compliance Matrix: (Units=1/GPa)
#
#
# Indices 1 2 3 4 5 6 
#
# 1 0.009878 -0.000827 -0.000426 0.000000 -0.006486 0.000000
# 2 -0.000827 0.011192 -0.000818 0.000000 0.001048 0.000000
# 3 -0.000426 -0.000818 0.008271 0.000000 -0.006090 0.000000
# 4 0.000000 0.000000 0.000000 0.171905 0.000000 -0.110006
# 5 -0.006486 0.001048 -0.006090 0.000000 0.025651 0.000000
# 6 0.000000 0.000000 0.000000 -0.110006 0.000000 0.101135
#
#
# Mechanical properties :
#
#
# Convention : Reuss Voigt Hill
#
# Bulk Modulus (GPa) = 39.68507 54.93999 47.31253
# Shear Modulus (GPa) = 14.68120 44.01845 29.34982
#
# Velocity S-wave (km/s) = 2.42403 4.19735 3.42737
# Velocity P-wave (km/s) = 4.87011 6.74383 5.88206
#
# Compressibility (1/GPa) = 0.02519839
#
# Stress axis : x y z
#
# Youngs Moduli (GPa) = 101.23617 89.35152 120.90919
#
# Poissons Ratio (x) = 0.07392 0.05151
# Poissons Ratio (y) = 0.08375 0.09886
# Poissons Ratio (z) = 0.04313 0.07306
#
# Static dielectric constant tensor:
#      x y z
#    x 2.075320 0.000000 0.071430 
#    y 0.000000 2.267850 0.000000 
#    z 0.071430 0.000000 2.024500 
# 
# From -- ./inp_files/1829.got.cif
#   From: 2010.05.17/outbox.cif.g08.bks.cpg/sg11_1_cif.got.tgz:1829.got - 2010.06.03 12:22:45.
