data_PCOD9166119
_publ_section_title
;
Structure prediction by ZEFSAII (Michael W. Deem and Ramdas Pophale) SiO2 
 PCOD9166119
Probable space group: P 21/M
;
_chemical_formula_sum "Si O2"
_cell_formula_units_Z 16
_cell_length_a 12.796988
_cell_length_b 11.252876
_cell_length_c 11.628423
_cell_angle_alpha 90.000000
_cell_angle_beta 157.592671
_cell_angle_gamma 90.000000
_cell_volume 638.310610
_symmetry_space_group_name_H-M "P 21/M"
_symmetry_group_IT_number 11
_symmetry_cell_setting 'monoclinic'
loop_
_space_group_symop_operation_xyz
x,y,z
-x,1/2+y,-z
-x,-y,-z
x,1/2-y,z
loop_
_atom_site_type_symbol
_atom_site_label
_atom_site_fract_x
_atom_site_fract_y
_atom_site_fract_z
Si Si1 0.416746 0.511866 0.549044
Si Si2 0.365976 0.250000 0.458425
Si Si3 0.142886 0.750000 0.209837
Si Si4 0.798225 0.514229 0.145641
Si Si5 0.305208 0.121567 0.725436
O O1 0.500000 0.500000 0.500000
O O2 0.313964 0.376212 0.467564
O O3 0.224394 0.628122 0.356632
O O4 0.671042 0.535692 0.892118
O O5 0.676959 0.250000 0.725902
O O6 0.169741 0.250000 0.147349
O O7 0.733867 0.611594 0.176903
O O8 0.114777 0.480426 0.476958
O O9 0.618477 0.403823 0.012129
O O10 0.216488 0.250000 0.596201
#
# Coordination Sequence:
#
# PCOD9166119 Si02
#       5
#     4   2   2   4   4
#     4  10  23  42  65  96 130 166 209 260 317 385
#     4  10  22  38  60  88 124 166 204 250 301 372
#     4  10  22  40  60  84 128 166 204 246 309 370
#     4  10  23  40  63  97 120 168 210 261 317 375
#     4  10  22  41  65  89 128 162 215 262 316 369
#
# _framework density 25.066165999999999
#
# number of rings (size 3 to 8) (size 9 to 14) (size 15 to 20)
#    0.000    2.000    0.000    1.500    5.250    8.000 
#    0.000    0.000    0.000    0.000    0.000    0.000 
#    0.000    0.000    0.000    0.000    0.000    0.000 
#
# Total GULP energy -89456.709288 kJ/mol
# GULP energy per Si atom -5591.044331 kJ/mol
# Density = 2.500911 g / cm^3
# Si number density = 25.066166 Si / 1000 Ang^3
#
#
#
# Elastic Constant Matrix: (Units=GPa)
#
#
# Indices 1 2 3 4 5 6 
#
# 1 82.9442 26.3464 23.9514 0.0000 -22.4628 0.0000
# 2 26.3464 150.6620 19.1398 0.0000 -3.7790 0.0000
# 3 23.9514 19.1398 122.8525 0.0000 -27.4641 0.0000
# 4 0.0000 0.0000 0.0000 32.1811 0.0000 -10.6935
# 5 -22.4628 -3.7790 -27.4641 0.0000 51.4929 0.0000
# 6 0.0000 0.0000 0.0000 -10.6935 0.0000 11.5974
#
#
#
# Elastic Compliance Matrix: (Units=1/GPa)
#
#
# Indices 1 2 3 4 5 6 
#
# 1 0.014641 -0.002261 -0.001262 0.000000 0.005548 0.000000
# 2 -0.002261 0.007121 -0.000877 0.000000 -0.000931 0.000000
# 3 -0.001262 -0.000877 0.009520 0.000000 0.004463 0.000000
# 4 0.000000 0.000000 0.000000 0.044801 0.000000 0.041309
# 5 0.005548 -0.000931 0.004463 0.000000 0.024152 0.000000
# 6 0.000000 0.000000 0.000000 0.041309 0.000000 0.124315
#
#
# Mechanical properties :
#
#
# Convention : Reuss Voigt Hill
#
# Bulk Modulus (GPa) = 44.47812 55.03710 49.75761
# Shear Modulus (GPa) = 20.76032 38.18901 29.47467
#
# Velocity S-wave (km/s) = 2.88100 3.90747 3.43282
# Velocity P-wave (km/s) = 5.37119 6.50863 5.96707
#
# Compressibility (1/GPa) = 0.02248297
#
# Stress axis : x y z
#
# Youngs Moduli (GPa) = 68.29965 140.43442 105.04043
#
# Poissons Ratio (x) = 0.31750 0.13256
# Poissons Ratio (y) = 0.15442 0.09210
# Poissons Ratio (z) = 0.08619 0.12313
#
# Static dielectric constant tensor:
#      x y z
#    x 2.035040 0.000000 -0.048940 
#    y 0.000000 1.957010 0.000000 
#    z -0.048940 0.000000 1.888660 
# 
# From -- ./inp_files/3741.got.cif
#   From: 2010.05.17/outbox.cif.g08.bks.cpg/sg11_2_cif.got.tgz:3741.got - 2010.06.03 12:22:45.
