data_PCOD9166941
_publ_section_title
;
Structure prediction by ZEFSAII (Michael W. Deem and Ramdas Pophale) SiO2 
 PCOD9166941
Probable space group: P 21/M
;
_chemical_formula_sum "Si O2"
_cell_formula_units_Z 32
_cell_length_a 15.783350
_cell_length_b 8.525102
_cell_length_c 12.178665
_cell_angle_alpha 90.000000
_cell_angle_beta 89.719677
_cell_angle_gamma 90.000000
_cell_volume 1638.676621
_symmetry_space_group_name_H-M "P 21/M"
_symmetry_group_IT_number 11
_symmetry_cell_setting 'monoclinic'
loop_
_space_group_symop_operation_xyz
x,y,z
-x,1/2+y,-z
-x,-y,-z
x,1/2-y,z
loop_
_atom_site_type_symbol
_atom_site_label
_atom_site_fract_x
_atom_site_fract_y
_atom_site_fract_z
Si Si1 0.648978 0.936322 0.783166
Si Si2 0.093467 0.434287 0.485005
Si Si3 0.168416 0.565545 0.265697
Si Si4 0.146468 0.064180 0.734605
Si Si5 0.337067 0.063883 0.765599
Si Si6 0.493840 0.562462 0.623941
Si Si7 0.988591 0.937077 0.875880
Si Si8 0.593997 0.434531 0.011464
O O1 0.638104 0.750000 0.802710
O O2 0.575712 0.985581 0.697085
O O3 0.743848 0.972215 0.744739
O O4 0.637752 0.029348 0.896143
O O5 0.092825 0.250000 0.454198
O O6 0.136100 0.532229 0.388582
O O7 0.134483 0.449556 0.604207
O O8 0.000000 0.500000 0.500000
O O9 0.182753 0.750000 0.248059
O O10 0.094957 0.507877 0.182686
O O11 0.142154 0.250000 0.762823
O O12 0.241004 0.003540 0.756173
O O13 0.070953 0.982860 0.802412
O O14 0.335534 0.250000 0.745325
O O15 0.407735 0.992720 0.684246
O O16 0.364625 0.026136 0.888663
O O17 0.500000 0.500000 0.500000
O O18 0.494079 0.750000 0.620355
O O19 0.980207 0.750000 0.878764
O O20 0.000000 0.000000 0.000000
O O21 0.593232 0.250000 0.035788
O O22 0.500000 0.500000 0.000000
#
# Coordination Sequence:
#
# PCOD9166941 Si02
#       8
#     4   4   4   4   4   4   4   4
#     4  11  25  45  68  96 130 173 221 271 328 389
#     4  11  22  41  68  97 130 169 217 270 324 384
#     4  12  26  44  67  98 133 172 220 270 326 392
#     4  10  24  44  67  96 132 172 217 266 324 387
#     4  11  24  43  68  97 132 173 218 269 327 388
#     4  11  25  44  67  95 133 173 218 269 327 391
#     4  12  26  45  69  95 132 174 218 270 328 390
#     4  12  24  42  68  97 130 170 218 272 328 388
#
# _framework density 19.527953
#
# number of rings (size 3 to 8) (size 9 to 14) (size 15 to 20)
#    0.000    0.750    2.500    4.875    3.500    3.000 
#    0.000    0.000    0.000    0.000    0.000    0.000 
#    0.000    0.000    0.000    0.000    0.000    0.000 
#
# Total GULP energy -178950.873728 kJ/mol
# GULP energy per Si atom -5592.214804 kJ/mol
# Density = 1.948351 g / cm^3
# Si number density = 19.527953 Si / 1000 Ang^3
#
#
#
# Elastic Constant Matrix: (Units=GPa)
#
#
# Indices 1 2 3 4 5 6 
#
# 1 105.4925 0.2118 12.8930 0.0000 4.8361 0.0000
# 2 0.2118 57.7679 2.7518 0.0000 7.0998 0.0000
# 3 12.8930 2.7518 74.5732 0.0000 -4.5292 0.0000
# 4 0.0000 0.0000 0.0000 38.9076 0.0000 -6.4798
# 5 4.8361 7.0998 -4.5292 0.0000 33.5855 0.0000
# 6 0.0000 0.0000 0.0000 -6.4798 0.0000 29.7177
#
#
#
# Elastic Compliance Matrix: (Units=1/GPa)
#
#
# Indices 1 2 3 4 5 6 
#
# 1 0.009777 0.000260 -0.001804 0.000000 -0.001706 0.000000
# 2 0.000260 0.017838 -0.000942 0.000000 -0.003935 0.000000
# 3 -0.001804 -0.000942 0.013898 0.000000 0.002333 0.000000
# 4 0.000000 0.000000 0.000000 0.026670 0.000000 0.005815
# 5 -0.001706 -0.003935 0.002333 0.000000 0.031167 0.000000
# 6 0.000000 0.000000 0.000000 0.005815 0.000000 0.034918
#
#
# Mechanical properties :
#
#
# Convention : Reuss Voigt Hill
#
# Bulk Modulus (GPa) = 27.36614 29.94968 28.65791
# Shear Modulus (GPa) = 33.02038 35.24062 34.13050
#
# Velocity S-wave (km/s) = 4.11655 4.25270 4.18518
# Velocity P-wave (km/s) = 6.05301 6.28363 6.16940
#
# Compressibility (1/GPa) = 0.03654150
#
# Stress axis : x y z
#
# Youngs Moduli (GPa) = 102.27592 56.05935 71.95313
#
# Poissons Ratio (x) = -0.01456 0.12978
# Poissons Ratio (y) = -0.02656 0.06779
# Poissons Ratio (z) = 0.18447 0.05282
#
# Static dielectric constant tensor:
#      x y z
#    x 1.710490 0.000000 0.010790 
#    y 0.000000 1.609840 0.000000 
#    z 0.010790 0.000000 1.638880 
# 
# From -- ./inp_files/38272.got.cif
#   From: 2010.05.17/outbox.cif.g08.bks.cpg/sg11_20_cif.got.tgz:38272.got - 2010.06.03 12:22:45.
