data_PCOD9166486
_publ_section_title
;
Structure prediction by ZEFSAII (Michael W. Deem and Ramdas Pophale) SiO2 
 PCOD9166486
Probable space group: P 21/M
;
_chemical_formula_sum "Si O2"
_cell_formula_units_Z 24
_cell_length_a 12.216855
_cell_length_b 11.820802
_cell_length_c 18.761900
_cell_angle_alpha 90.000000
_cell_angle_beta 24.675958
_cell_angle_gamma 90.000000
_cell_volume 1131.162253
_symmetry_space_group_name_H-M "P 21/M"
_symmetry_group_IT_number 11
_symmetry_cell_setting 'monoclinic'
loop_
_space_group_symop_operation_xyz
x,y,z
-x,1/2+y,-z
-x,-y,-z
x,1/2-y,z
loop_
_atom_site_type_symbol
_atom_site_label
_atom_site_fract_x
_atom_site_fract_y
_atom_site_fract_z
Si Si1 0.132664 0.020202 0.345678
Si Si2 0.987599 0.075821 0.182906
Si Si3 0.696518 0.384124 0.499142
Si Si4 0.254943 0.945016 0.813759
Si Si5 0.327427 0.624822 0.925330
Si Si6 0.480043 0.622967 0.053969
O O1 0.399071 0.089199 0.201487
O O2 0.938413 0.086359 0.408336
O O3 0.229120 0.903457 0.252057
O O4 0.000000 0.000000 0.500000
O O5 0.786806 0.078926 0.366879
O O6 0.846914 0.121927 0.195191
O O7 0.255162 0.129203 0.055456
O O8 0.098721 0.955214 0.090822
O O9 0.643859 0.250000 0.531538
O O10 0.454495 0.459150 0.668804
O O11 0.371659 0.883652 0.813813
O O12 0.000000 0.000000 0.000000
O O13 0.251793 0.750000 0.988513
O O14 0.454916 0.750000 0.035282
O O15 0.500000 0.500000 0.000000
#
# Coordination Sequence:
#
# PCOD9166486 Si02
#       6
#     4   4   4   4   4   4
#     4  11  23  44  64 100 139 174 228 286 338 408
#     4  10  23  43  67  99 138 173 231 278 338 410
#     4  12  24  43  71  98 134 181 228 288 352 412
#     4  10  23  45  65  95 134 171 230 279 337 411
#     4  10  22  41  67  97 136 181 221 278 344 401
#     4  11  24  43  71 105 142 182 227 282 349 415
#
# _framework density 21.217116000000001
#
# number of rings (size 3 to 8) (size 9 to 14) (size 15 to 20)
#    0.000    1.333    3.333    1.500    0.000    8.000 
#    0.000    3.333    0.000    0.000    0.000    0.000 
#    0.000    0.000    0.000    0.000    0.000    0.000 
#
# Total GULP energy -133833.950168 kJ/mol
# GULP energy per Si atom -5576.414590 kJ/mol
# Density = 2.116882 g / cm^3
# Si number density = 21.217116 Si / 1000 Ang^3
#
#
#
# Elastic Constant Matrix: (Units=GPa)
#
#
# Indices 1 2 3 4 5 6 
#
# 1 150.5131 43.8802 28.5646 0.0000 10.5399 0.0000
# 2 43.8802 172.2073 49.4335 0.0000 8.0683 0.0000
# 3 28.5646 49.4335 100.0974 0.0000 10.5524 0.0000
# 4 0.0000 0.0000 0.0000 -0.2512 0.0000 4.2266
# 5 10.5399 8.0683 10.5524 0.0000 43.7579 0.0000
# 6 0.0000 0.0000 0.0000 4.2266 0.0000 -6.2325
#
#
#
# Elastic Compliance Matrix: (Units=1/GPa)
#
#
# Indices 1 2 3 4 5 6 
#
# 1 0.007395 -0.001466 -0.001259 0.000000 -0.001207 0.000000
# 2 -0.001466 0.007066 -0.003048 0.000000 -0.000214 0.000000
# 3 -0.001259 -0.003048 0.012071 0.000000 -0.002046 0.000000
# 4 0.000000 0.000000 0.000000 0.382407 0.000000 0.259328
# 5 -0.001207 -0.000214 -0.002046 0.000000 0.023677 0.000000
# 6 0.000000 0.000000 0.000000 0.259328 0.000000 0.015414
#
#
# Mechanical properties :
#
#
# Convention : Reuss Voigt Hill
#
# Bulk Modulus (GPa) = 66.73752 74.06382 70.40067
# Shear Modulus (GPa) = 10.76261 27.51746 19.14004
#
# Velocity S-wave (km/s) = 2.25469 3.60522 3.00676
# Velocity P-wave (km/s) = 6.18878 7.23281 6.73107
#
# Compressibility (1/GPa) = 0.01498407
#
# Stress axis : x y z
#
# Youngs Moduli (GPa) = 135.22866 141.52859 82.84598
#
# Poissons Ratio (x) = 0.20753 0.10429
# Poissons Ratio (y) = 0.19830 0.25254
# Poissons Ratio (z) = 0.17023 0.43143
#
# Static dielectric constant tensor:
#      x y z
#    x 1.850920 0.000000 0.018820 
#    y 0.000000 1.779300 0.000000 
#    z 0.018820 0.000000 1.750820 
# 
# From -- ./inp_files/59123.got.cif
#   From: 2010.05.17/outbox.cif.g08.bks.cpg/sg11_30_cif.got.tgz:59123.got - 2010.06.03 12:22:45.
