data_PCOD9166888
_publ_section_title
;
Structure prediction by ZEFSAII (Michael W. Deem and Ramdas Pophale) SiO2 
 PCOD9166888
Probable space group: P 21/M
;
_chemical_formula_sum "Si O2"
_cell_formula_units_Z 28
_cell_length_a 17.942438
_cell_length_b 14.285914
_cell_length_c 5.228096
_cell_angle_alpha 90.000000
_cell_angle_beta 114.577758
_cell_angle_gamma 90.000000
_cell_volume 1218.672080
_symmetry_space_group_name_H-M "P 21/M"
_symmetry_group_IT_number 11
_symmetry_cell_setting 'monoclinic'
loop_
_space_group_symop_operation_xyz
x,y,z
-x,1/2+y,-z
-x,-y,-z
x,1/2-y,z
loop_
_atom_site_type_symbol
_atom_site_label
_atom_site_fract_x
_atom_site_fract_y
_atom_site_fract_z
Si Si1 0.698638 0.076958 0.673450
Si Si2 0.194092 0.406395 0.155646
Si Si3 0.444391 0.856727 0.847225
Si Si4 0.009425 0.065865 0.766945
Si Si5 0.713788 0.648388 0.225774
Si Si6 0.218072 0.750000 0.981368
Si Si7 0.578586 0.526832 0.853930
Si Si8 0.104903 0.750000 0.330295
O O1 0.648818 0.128693 0.380378
O O2 0.726078 0.158335 0.904930
O O3 0.779553 0.014400 0.750271
O O4 0.632951 0.004031 0.693820
O O5 0.218756 0.358839 0.456732
O O6 0.101988 0.397685 0.929236
O O7 0.246495 0.365992 0.995198
O O8 0.458298 0.750000 0.933234
O O9 0.509684 0.894167 0.730011
O O10 0.458222 0.930972 0.091162
O O11 0.948907 0.155374 0.701905
O O12 0.000000 0.000000 0.500000
O O13 0.000000 0.000000 0.000000
O O14 0.674167 0.750000 0.183849
O O15 0.644847 0.569210 0.148157
O O16 0.151005 0.750000 0.119991
O O17 0.173032 0.750000 0.648196
#
# Coordination Sequence:
#
# PCOD9166888 Si02
#       8
#     4   4   4   4   4   2   4   2
#     4  11  23  41  67  99 136 185 236 294 351 410
#     4  11  24  42  69  99 135 178 231 287 339 425
#     4  11  22  41  66  96 136 183 237 282 357 405
#     4  12  26  48  72 103 145 188 233 292 370 427
#     4  11  23  41  66  97 135 179 229 279 346 400
#     4  12  28  44  78 104 146 183 249 298 362 424
#     4  10  24  41  62  98 139 180 233 291 339 420
#     4  12  28  48  74 112 146 189 243 304 360 446
#
# _framework density 22.975829999999998
#
# number of rings (size 3 to 8) (size 9 to 14) (size 15 to 20)
#    0.000    0.857    2.143    4.714    5.000    1.143 
#    0.000    0.000    0.000    0.000    0.000    0.000 
#    0.000    0.000    0.000    0.000    0.000    0.000 
#
# Total GULP energy -156476.273416 kJ/mol
# GULP energy per Si atom -5588.438336 kJ/mol
# Density = 2.292354 g / cm^3
# Si number density = 22.975830 Si / 1000 Ang^3
#
#
#
# Elastic Constant Matrix: (Units=GPa)
#
#
# Indices 1 2 3 4 5 6 
#
# 1 59.1263 8.9614 11.0597 0.0000 -4.2129 0.0000
# 2 8.9614 127.7387 16.0400 0.0000 -10.9180 0.0000
# 3 11.0597 16.0400 99.1918 0.0000 -3.1353 0.0000
# 4 0.0000 0.0000 0.0000 107.8840 0.0000 -3.1319
# 5 -4.2129 -10.9180 -3.1353 0.0000 38.2236 0.0000
# 6 0.0000 0.0000 0.0000 -3.1319 0.0000 32.8536
#
#
#
# Elastic Compliance Matrix: (Units=1/GPa)
#
#
# Indices 1 2 3 4 5 6 
#
# 1 0.017484 -0.000875 -0.001760 0.000000 0.001533 0.000000
# 2 -0.000875 0.008220 -0.001164 0.000000 0.002156 0.000000
# 3 -0.001760 -0.001164 0.010476 0.000000 0.000333 0.000000
# 4 0.000000 0.000000 0.000000 0.009295 0.000000 0.000886
# 5 0.001533 0.002156 0.000333 0.000000 0.026974 0.000000
# 6 0.000000 0.000000 0.000000 0.000886 0.000000 0.030523
#
#
# Mechanical properties :
#
#
# Convention : Reuss Voigt Hill
#
# Bulk Modulus (GPa) = 34.98344 39.79768 37.39056
# Shear Modulus (GPa) = 41.63346 52.45863 47.04604
#
# Velocity S-wave (km/s) = 4.26144 4.78348 4.52999
# Velocity P-wave (km/s) = 6.28271 6.91867 6.60835
#
# Compressibility (1/GPa) = 0.02858496
#
# Stress axis : x y z
#
# Youngs Moduli (GPa) = 57.19563 121.65092 95.45308
#
# Poissons Ratio (x) = 0.10640 0.16795
# Poissons Ratio (y) = 0.05002 0.11107
# Poissons Ratio (z) = 0.10064 0.14155
#
# Static dielectric constant tensor:
#      x y z
#    x 2.024470 0.000000 0.000180 
#    y 0.000000 1.869150 0.000000 
#    z 0.000180 0.000000 1.855280 
# 
# From -- ./inp_files/7998.got.cif
#   From: 2010.05.17/outbox.cif.g08.bks.cpg/sg11_4_cif.got.tgz:7998.got - 2010.06.03 12:22:45.
