data_PCOD9166616
_publ_section_title
;
Structure prediction by ZEFSAII (Michael W. Deem and Ramdas Pophale) SiO2 
 PCOD9166616
Probable space group: P 21/M
;
_chemical_formula_sum "Si O2"
_cell_formula_units_Z 24
_cell_length_a 9.259518
_cell_length_b 14.059464
_cell_length_c 10.444266
_cell_angle_alpha 90.000000
_cell_angle_beta 131.212646
_cell_angle_gamma 90.000000
_cell_volume 1022.841940
_symmetry_space_group_name_H-M "P 21/M"
_symmetry_group_IT_number 11
_symmetry_cell_setting 'monoclinic'
loop_
_space_group_symop_operation_xyz
x,y,z
-x,1/2+y,-z
-x,-y,-z
x,1/2-y,z
loop_
_atom_site_type_symbol
_atom_site_label
_atom_site_fract_x
_atom_site_fract_y
_atom_site_fract_z
Si Si1 0.533633 0.360570 0.486132
Si Si2 0.887533 0.452498 0.796909
Si Si3 0.047127 0.639259 0.754798
Si Si4 0.286048 0.073963 0.105196
Si Si5 0.696613 0.636930 0.395990
Si Si6 0.493961 0.136515 0.979732
O O1 0.566542 0.250000 0.524596
O O2 0.741602 0.408589 0.610755
O O3 0.410060 0.374123 0.286291
O O4 0.411598 0.396649 0.537900
O O5 0.965634 0.554533 0.794460
O O6 0.766251 0.475083 0.854124
O O7 0.072674 0.390097 0.941034
O O8 0.004382 0.750000 0.770307
O O9 0.924153 0.623951 0.552439
O O10 0.275405 0.629823 0.882079
O O11 0.403432 0.079482 0.044003
O O12 0.664687 0.750000 0.374659
O O13 0.605657 0.603188 0.210636
O O14 0.450391 0.250000 0.971361
#
# Coordination Sequence:
#
# PCOD9166616 Si02
#       6
#     4   4   4   4   4   4
#     4  11  24  44  72  99 137 188 233 284 346 411
#     4  11  26  44  70 106 140 178 235 289 340 414
#     4  10  22  43  71  99 137 189 233 275 345 418
#     4  11  25  44  67 100 138 174 228 291 346 400
#     4   9  20  39  66  97 132 181 233 280 336 410
#     4  10  23  42  67 100 138 179 230 287 345 406
#
# _framework density 23.464034999999999
#
# number of rings (size 3 to 8) (size 9 to 14) (size 15 to 20)
#    0.000    1.667    1.667    1.000    4.667    4.000 
#    0.000    3.333    0.000    0.000    0.000    0.000 
#    0.000    0.000    0.000    0.000    0.000    0.000 
#
# Total GULP energy -134040.729975 kJ/mol
# GULP energy per Si atom -5585.030416 kJ/mol
# Density = 2.341063 g / cm^3
# Si number density = 23.464035 Si / 1000 Ang^3
#
#
#
# Elastic Constant Matrix: (Units=GPa)
#
#
# Indices 1 2 3 4 5 6 
#
# 1 99.3439 29.7347 88.8425 0.0000 -15.7517 0.0000
# 2 29.7347 81.0598 71.3102 0.0000 10.0573 0.0000
# 3 88.8425 71.3102 209.2248 0.0000 10.4453 0.0000
# 4 0.0000 0.0000 0.0000 17.6865 0.0000 3.1281
# 5 -15.7517 10.0573 10.4453 0.0000 38.1149 0.0000
# 6 0.0000 0.0000 0.0000 3.1281 0.0000 28.4484
#
#
#
# Elastic Compliance Matrix: (Units=1/GPa)
#
#
# Indices 1 2 3 4 5 6 
#
# 1 0.019754 -0.001045 -0.008570 0.000000 0.010788 0.000000
# 2 -0.001045 0.018031 -0.005518 0.000000 -0.003677 0.000000
# 3 -0.008570 -0.005518 0.010548 0.000000 -0.004977 0.000000
# 4 0.000000 0.000000 0.000000 0.057662 0.000000 -0.006340
# 5 0.010788 -0.003677 -0.004977 0.000000 0.033029 0.000000
# 6 0.000000 0.000000 0.000000 -0.006340 0.000000 0.035849
#
#
# Mechanical properties :
#
#
# Convention : Reuss Voigt Hill
#
# Bulk Modulus (GPa) = 55.35483 85.48928 70.42205
# Shear Modulus (GPa) = 23.67870 30.16602 26.92236
#
# Velocity S-wave (km/s) = 3.18016 3.58946 3.39099
# Velocity P-wave (km/s) = 6.09320 7.32750 6.73867
#
# Compressibility (1/GPa) = 0.01806527
#
# Stress axis : x y z
#
# Youngs Moduli (GPa) = 50.62306 55.46154 94.80548
#
# Poissons Ratio (x) = 0.05796 0.81252
# Poissons Ratio (y) = 0.05291 0.52313
# Poissons Ratio (z) = 0.43386 0.30604
#
# Static dielectric constant tensor:
#      x y z
#    x 1.883720 0.000000 0.019220 
#    y 0.000000 1.924580 0.000000 
#    z 0.019220 0.000000 1.922240 
# 
# From -- ./inp_files/35961.got.cif
#   From: 2010.05.17/outbox.cif.g08.bks.cpg/sg11_18_cif.got.tgz:35961.got - 2010.06.03 12:22:45.
