data_PCOD9166605
_publ_section_title
;
Structure prediction by ZEFSAII (Michael W. Deem and Ramdas Pophale) SiO2 
 PCOD9166605
Probable space group: P 21/M
;
_chemical_formula_sum "Si O2"
_cell_formula_units_Z 24
_cell_length_a 10.628722
_cell_length_b 11.803383
_cell_length_c 16.260840
_cell_angle_alpha 90.000000
_cell_angle_beta 32.872615
_cell_angle_gamma 90.000000
_cell_volume 1107.258002
_symmetry_space_group_name_H-M "P 21/M"
_symmetry_group_IT_number 11
_symmetry_cell_setting 'monoclinic'
loop_
_space_group_symop_operation_xyz
x,y,z
-x,1/2+y,-z
-x,-y,-z
x,1/2-y,z
loop_
_atom_site_type_symbol
_atom_site_label
_atom_site_fract_x
_atom_site_fract_y
_atom_site_fract_z
Si Si1 0.983170 0.875438 0.887422
Si Si2 0.247845 0.052854 0.155047
Si Si3 0.459470 0.993074 0.618906
Si Si4 0.910721 0.625889 0.420293
Si Si5 0.308015 0.376250 0.300094
Si Si6 0.519351 0.879126 0.237791
O O1 0.086781 0.750000 0.830782
O O2 0.848313 0.892877 0.875347
O O3 0.193994 0.961131 0.779938
O O4 0.789110 0.882146 0.064028
O O5 0.262160 0.128150 0.228617
O O6 0.065032 0.959128 0.284961
O O7 0.500000 0.000000 0.000000
O O8 0.641514 0.899059 0.549852
O O9 0.500000 0.000000 0.500000
O O10 0.515948 0.100999 0.645335
O O11 0.979367 0.750000 0.356805
O O12 0.915534 0.618202 0.516882
O O13 0.415660 0.250000 0.261387
O O14 0.425940 0.501233 0.249576
O O15 0.439175 0.750000 0.258001
#
# Coordination Sequence:
#
# PCOD9166605 Si02
#       6
#     4   4   4   4   4   4
#     4  11  23  42  65  96 138 178 223 279 337 400
#     4  12  23  41  65  98 135 178 230 274 335 400
#     4  11  22  43  67  96 130 170 228 279 338 400
#     4  10  23  42  65  93 130 175 224 285 339 396
#     4  10  22  43  68  99 138 182 229 275 335 402
#     4  10  23  43  69 102 138 179 224 277 339 402
#
# _framework density 21.675163999999999
#
# number of rings (size 3 to 8) (size 9 to 14) (size 15 to 20)
#    0.000    1.333    3.333    2.000    0.000    4.000 
#    0.000    3.333    0.000    0.000    0.000    0.000 
#    0.000    0.000    0.000    0.000    0.000    0.000 
#
# Total GULP energy -133745.745708 kJ/mol
# GULP energy per Si atom -5572.739405 kJ/mol
# Density = 2.162583 g / cm^3
# Si number density = 21.675164 Si / 1000 Ang^3
#
#
#
# Elastic Constant Matrix: (Units=GPa)
#
#
# Indices 1 2 3 4 5 6 
#
# 1 76.8279 28.9917 21.9580 0.0000 17.6461 0.0000
# 2 28.9917 154.6054 22.3008 0.0000 -2.4576 0.0000
# 3 21.9580 22.3008 73.4086 0.0000 13.0887 0.0000
# 4 0.0000 0.0000 0.0000 -6.0041 0.0000 -26.4861
# 5 17.6461 -2.4576 13.0887 0.0000 43.7496 0.0000
# 6 0.0000 0.0000 0.0000 -26.4861 0.0000 -10.4629
#
#
#
# Elastic Compliance Matrix: (Units=1/GPa)
#
#
# Indices 1 2 3 4 5 6 
#
# 1 0.016225 -0.002702 -0.002998 0.000000 -0.005799 0.000000
# 2 -0.002702 0.007261 -0.001758 0.000000 0.002024 0.000000
# 3 -0.002998 -0.001758 0.015692 0.000000 -0.003584 0.000000
# 4 0.000000 0.000000 0.000000 0.016382 0.000000 -0.041469
# 5 -0.005799 0.002024 -0.003584 0.000000 0.026382 0.000000
# 6 0.000000 0.000000 0.000000 -0.041469 0.000000 0.009401
#
#
# Mechanical properties :
#
#
# Convention : Reuss Voigt Hill
#
# Bulk Modulus (GPa) = 41.21971 50.14922 45.68446
# Shear Modulus (GPa) = 43.72681 20.89596 32.31139
#
# Velocity S-wave (km/s) = 4.49639 3.10829 3.86516
# Velocity P-wave (km/s) = 6.78343 6.00574 6.40640
#
# Compressibility (1/GPa) = 0.02426024
#
# Stress axis : x y z
#
# Youngs Moduli (GPa) = 61.63471 137.73019 63.72498
#
# Poissons Ratio (x) = 0.37217 0.19107
# Poissons Ratio (y) = 0.16655 0.11205
# Poissons Ratio (z) = 0.18480 0.24217
#
# Static dielectric constant tensor:
#      x y z
#    x 1.898910 0.000000 0.007240 
#    y 0.000000 1.811380 0.000000 
#    z 0.007240 0.000000 1.750320 
# 
# From -- ./inp_files/59122.got.cif
#   From: 2010.05.17/outbox.cif.g08.bks.cpg/sg11_30_cif.got.tgz:59122.got - 2010.06.03 12:22:45.
