data_PCOD9166783
_publ_section_title
;
Structure prediction by ZEFSAII (Michael W. Deem and Ramdas Pophale) SiO2 
 PCOD9166783
Probable space group: P 21/M
;
_chemical_formula_sum "Si O2"
_cell_formula_units_Z 24
_cell_length_a 12.244469
_cell_length_b 13.646914
_cell_length_c 15.256938
_cell_angle_alpha 90.000000
_cell_angle_beta 151.945946
_cell_angle_gamma 90.000000
_cell_volume 1199.004416
_symmetry_space_group_name_H-M "P 21/M"
_symmetry_group_IT_number 11
_symmetry_cell_setting 'monoclinic'
loop_
_space_group_symop_operation_xyz
x,y,z
-x,1/2+y,-z
-x,-y,-z
x,1/2-y,z
loop_
_atom_site_type_symbol
_atom_site_label
_atom_site_fract_x
_atom_site_fract_y
_atom_site_fract_z
Si Si1 0.908791 0.868485 0.370004
Si Si2 0.489201 0.868573 0.951475
Si Si3 0.369630 0.367510 0.471119
Si Si4 0.742455 0.522212 0.783906
Si Si5 0.964505 0.631713 0.607315
Si Si6 0.438800 0.631457 0.714687
O O1 0.897729 0.750000 0.365854
O O2 0.891807 0.902587 0.458662
O O3 0.163148 0.889580 0.511253
O O4 0.697119 0.902197 0.160368
O O5 0.499391 0.750000 0.956232
O O6 0.235349 0.891893 0.809342
O O7 0.505135 0.898130 0.861164
O O8 0.394484 0.250000 0.487346
O O9 0.611156 0.422874 0.661124
O O10 0.266904 0.406912 0.307159
O O11 0.197214 0.398397 0.427611
O O12 0.592393 0.574493 0.753540
O O13 0.000000 0.500000 0.000000
O O14 0.949835 0.750000 0.594822
O O15 0.468261 0.750000 0.726761
#
# Coordination Sequence:
#
# PCOD9166783 Si02
#       6
#     4   4   4   4   4   4
#     4   8  14  27  52  84 115 150 189 231 283 342
#     4   8  14  26  50  84 117 151 190 231 280 341
#     4  10  23  43  64  86 117 157 198 245 300 354
#     4  11  25  42  61  87 118 154 204 255 296 348
#     4   8  15  30  53  83 115 146 187 234 283 348
#     4   9  18  34  56  84 118 152 191 240 290 342
#
# _framework density 20.016608000000002
#
# number of rings (size 3 to 8) (size 9 to 14) (size 15 to 20)
#    0.000    3.000    0.000    2.500    0.000    5.333 
#    0.000    8.333    0.000    6.000    0.000    0.000 
#    0.000    0.000    0.000    0.000    0.000    0.000 
#
# Total GULP energy -134045.970290 kJ/mol
# GULP energy per Si atom -5585.248762 kJ/mol
# Density = 1.997105 g / cm^3
# Si number density = 20.016608 Si / 1000 Ang^3
#
#
#
# Elastic Constant Matrix: (Units=GPa)
#
#
# Indices 1 2 3 4 5 6 
#
# 1 154.7761 42.8190 91.0711 0.0000 15.2364 0.0000
# 2 42.8190 109.2374 34.9424 0.0000 0.5802 0.0000
# 3 91.0711 34.9424 206.1427 0.0000 -4.0238 0.0000
# 4 0.0000 0.0000 0.0000 0.3319 0.0000 5.7412
# 5 15.2364 0.5802 -4.0238 0.0000 17.4086 0.0000
# 6 0.0000 0.0000 0.0000 5.7412 0.0000 25.3748
#
#
#
# Elastic Compliance Matrix: (Units=1/GPa)
#
#
# Indices 1 2 3 4 5 6 
#
# 1 0.010963 -0.002777 -0.004579 0.000000 -0.010561 0.000000
# 2 -0.002777 0.010391 -0.000496 0.000000 0.001969 0.000000
# 3 -0.004579 -0.000496 0.007068 0.000000 0.005658 0.000000
# 4 0.000000 0.000000 0.000000 -1.033979 0.000000 0.233946
# 5 -0.010561 0.001969 0.005658 0.000000 0.067928 0.000000
# 6 0.000000 0.000000 0.000000 0.233946 0.000000 -0.013523
#
#
# Mechanical properties :
#
#
# Convention : Reuss Voigt Hill
#
# Bulk Modulus (GPa) = 78.62142 89.75792 84.18967
# Shear Modulus (GPa) = -5.36936 28.71130 11.67097
#
# Velocity S-wave (km/s) = -1.63960 3.79142 2.41729
# Velocity P-wave (km/s) = 5.98155 8.00660 7.06699
#
# Compressibility (1/GPa) = 0.01271918
#
# Stress axis : x y z
#
# Youngs Moduli (GPa) = 91.21733 96.23715 141.47484
#
# Poissons Ratio (x) = 0.26720 0.64778
# Poissons Ratio (y) = 0.25327 0.07021
# Poissons Ratio (z) = 0.41766 0.04776
#
# Static dielectric constant tensor:
#      x y z
#    x 1.665290 0.000000 -0.007730 
#    y 0.000000 1.746790 0.000000 
#    z -0.007730 0.000000 1.679690 
# 
# From -- ./inp_files/50314.got.cif
#   From: 2010.05.17/outbox.cif.g08.bks.cpg/sg11_26_cif.got.tgz:50314.got - 2010.06.03 12:22:45.
