data_PCOD9166352
_publ_section_title
;
Structure prediction by ZEFSAII (Michael W. Deem and Ramdas Pophale) SiO2 
 PCOD9166352
Probable space group: P 21/M
;
_chemical_formula_sum "Si O2"
_cell_formula_units_Z 32
_cell_length_a 13.351460
_cell_length_b 13.785469
_cell_length_c 8.660007
_cell_angle_alpha 90.000000
_cell_angle_beta 99.727716
_cell_angle_gamma 90.000000
_cell_volume 1571.009714
_symmetry_space_group_name_H-M "P 21/M"
_symmetry_group_IT_number 11
_symmetry_cell_setting 'monoclinic'
loop_
_space_group_symop_operation_xyz
x,y,z
-x,1/2+y,-z
-x,-y,-z
x,1/2-y,z
loop_
_atom_site_type_symbol
_atom_site_label
_atom_site_fract_x
_atom_site_fract_y
_atom_site_fract_z
Si Si1 0.105794 0.469530 0.112039
Si Si2 0.770748 0.138285 0.319412
Si Si3 0.451081 0.862532 0.882273
Si Si4 0.032555 0.518916 0.680557
Si Si5 0.315396 0.134813 0.587919
Si Si6 0.267612 0.543152 0.364331
Si Si7 0.163263 0.136125 0.835423
Si Si8 0.471662 0.942125 0.232284
O O1 0.179872 0.547117 0.211928
O O2 0.054025 0.423177 0.250299
O O3 0.173693 0.411792 0.007223
O O4 0.000000 0.500000 0.000000
O O5 0.798734 0.250000 0.315089
O O6 0.665348 0.123467 0.201980
O O7 0.861750 0.074689 0.276862
O O8 0.754958 0.109015 0.493417
O O9 0.479546 0.750000 0.860938
O O10 0.513661 0.943882 0.805358
O O11 0.461136 0.887218 0.065808
O O12 0.058970 0.411167 0.747731
O O13 0.000000 0.500000 0.500000
O O14 0.312209 0.250000 0.553649
O O15 0.248708 0.117436 0.726934
O O16 0.428836 0.098915 0.656970
O O17 0.275708 0.065329 0.440723
O O18 0.373528 0.569700 0.312692
O O19 0.155934 0.250000 0.852167
#
# Coordination Sequence:
#
# PCOD9166352 Si02
#       8
#     4   4   4   4   4   4   4   4
#     4  10  24  40  66  93 127 169 214 275 324 387
#     4  11  24  42  67  95 128 173 219 267 325 390
#     4  10  23  42  65  96 132 174 220 265 321 393
#     4  11  20  42  67  92 129 167 213 273 329 386
#     4  11  23  42  67  97 133 173 218 266 327 393
#     4  12  24  43  65  96 133 173 218 271 329 383
#     4  10  22  40  65  93 128 166 212 264 322 387
#     4  11  24  40  67  96 135 178 215 263 328 389
#
# _framework density 20.369064000000002
#
# number of rings (size 3 to 8) (size 9 to 14) (size 15 to 20)
#    0.000    1.250    3.750    0.750    7.000    3.000 
#    0.000    0.000    0.000    0.000    0.000    0.000 
#    0.000    0.000    0.000    0.000    0.000    0.000 
#
# Total GULP energy -178501.862001 kJ/mol
# GULP energy per Si atom -5578.183188 kJ/mol
# Density = 2.032270 g / cm^3
# Si number density = 20.369064 Si / 1000 Ang^3
#
#
#
# Elastic Constant Matrix: (Units=GPa)
#
#
# Indices 1 2 3 4 5 6 
#
# 1 82.1293 -3.8276 7.5624 0.0000 2.5956 0.0000
# 2 -3.8276 43.0403 -19.3609 0.0000 14.2952 0.0000
# 3 7.5624 -19.3609 50.4413 0.0000 14.6675 0.0000
# 4 0.0000 0.0000 0.0000 14.8408 0.0000 -3.5946
# 5 2.5956 14.2952 14.6675 0.0000 42.6520 0.0000
# 6 0.0000 0.0000 0.0000 -3.5946 0.0000 12.4278
#
#
#
# Elastic Compliance Matrix: (Units=1/GPa)
#
#
# Indices 1 2 3 4 5 6 
#
# 1 0.012355 0.000553 -0.001519 0.000000 -0.000415 0.000000
# 2 0.000553 0.039602 0.021097 0.000000 -0.020562 0.000000
# 3 -0.001519 0.021097 0.033533 0.000000 -0.018510 0.000000
# 4 0.000000 0.000000 0.000000 0.072458 0.000000 0.020957
# 5 -0.000415 -0.020562 -0.018510 0.000000 0.036728 0.000000
# 6 0.000000 0.000000 0.000000 0.020957 0.000000 0.086527
#
#
# Mechanical properties :
#
#
# Convention : Reuss Voigt Hill
#
# Bulk Modulus (GPa) = 7.95226 16.03985 11.99605
# Shear Modulus (GPa) = 17.67670 26.73326 22.20498
#
# Velocity S-wave (km/s) = 2.94908 3.62670 3.30530
# Velocity P-wave (km/s) = 3.93810 5.04271 4.52424
#
# Compressibility (1/GPa) = 0.12575040
#
# Stress axis : x y z
#
# Youngs Moduli (GPa) = 80.94082 25.25095 29.82154
#
# Poissons Ratio (x) = -0.01396 0.04531
# Poissons Ratio (y) = -0.04475 -0.62914
# Poissons Ratio (z) = 0.12299 -0.53271
#
# Static dielectric constant tensor:
#      x y z
#    x 1.740660 0.000000 -0.030790 
#    y 0.000000 1.838500 0.000000 
#    z -0.030790 0.000000 1.789530 
# 
# From -- ./inp_files/18035.got.cif
#   From: 2010.05.17/outbox.cif.g08.bks.cpg/sg11_10_cif.got.tgz:18035.got - 2010.06.03 12:22:45.
