data_PCOD9166096
_publ_section_title
;
Structure prediction by ZEFSAII (Michael W. Deem and Ramdas Pophale) SiO2 
 PCOD9166096
Probable space group: P 21/M
;
_chemical_formula_sum "Si O2"
_cell_formula_units_Z 28
_cell_length_a 12.656878
_cell_length_b 18.147010
_cell_length_c 8.444884
_cell_angle_alpha 90.000000
_cell_angle_beta 43.491230
_cell_angle_gamma 90.000000
_cell_volume 1334.957696
_symmetry_space_group_name_H-M "P 21/M"
_symmetry_group_IT_number 11
_symmetry_cell_setting 'monoclinic'
loop_
_space_group_symop_operation_xyz
x,y,z
-x,1/2+y,-z
-x,-y,-z
x,1/2-y,z
loop_
_atom_site_type_symbol
_atom_site_label
_atom_site_fract_x
_atom_site_fract_y
_atom_site_fract_z
Si Si1 0.620673 0.470514 0.500405
Si Si2 0.437334 0.072505 0.986705
Si Si3 0.154662 0.167993 0.860215
Si Si4 0.110543 0.577365 0.020403
Si Si5 0.973253 0.336701 0.608620
Si Si6 0.699268 0.623913 0.582919
Si Si7 0.112435 0.426460 0.194944
O O1 0.500000 0.500000 0.500000
O O2 0.534959 0.418050 0.720592
O O3 0.753623 0.434684 0.250937
O O4 0.686698 0.539678 0.530829
O O5 0.425054 0.132009 0.141866
O O6 0.261188 0.053481 0.135461
O O7 0.500000 0.000000 0.000000
O O8 0.092188 0.250000 0.933669
O O9 0.299829 0.166190 0.584940
O O10 0.179169 0.135946 0.005957
O O11 0.029070 0.113431 0.922494
O O12 0.066772 0.499096 0.147886
O O13 0.142744 0.631379 0.133945
O O14 0.953918 0.250000 0.597208
O O15 0.141247 0.349838 0.508026
O O16 0.982413 0.388907 0.444246
#
# Coordination Sequence:
#
# PCOD9166096 Si02
#       7
#     4   4   4   4   4   4   4
#     4  11  19  34  55  86 120 147 194 249 286 344
#     4   9  19  34  56  87 119 149 186 243 298 331
#     4  11  22  37  59  86 121 155 191 247 312 355
#     4  11  21  35  58  88 120 147 197 249 295 352
#     4  10  22  38  57  83 119 151 186 241 308 355
#     4   9  18  33  56  79 115 144 190 231 297 342
#     4  11  20  37  61  91 117 150 204 246 292 351
#
# _framework density 20.974446
#
# number of rings (size 3 to 8) (size 9 to 14) (size 15 to 20)
#    0.000    1.714    2.857    3.000    2.000    0.000 
#    2.571    0.000    0.000   17.143    0.000    0.000 
#    0.000    0.000    0.000    0.000    0.000    0.000 
#
# Total GULP energy -155977.818478 kJ/mol
# GULP energy per Si atom -5570.636374 kJ/mol
# Density = 2.092671 g / cm^3
# Si number density = 20.974446 Si / 1000 Ang^3
#
#
#
# Elastic Constant Matrix: (Units=GPa)
#
#
# Indices 1 2 3 4 5 6 
#
# 1 44.1067 24.9591 25.1681 0.0000 12.5317 0.0000
# 2 24.9591 101.6445 47.4408 0.0000 2.4542 0.0000
# 3 25.1681 47.4408 156.1763 0.0000 25.0967 0.0000
# 4 0.0000 0.0000 0.0000 11.7171 0.0000 0.3005
# 5 12.5317 2.4542 25.0967 0.0000 23.7978 0.0000
# 6 0.0000 0.0000 0.0000 0.3005 0.0000 12.9217
#
#
#
# Elastic Compliance Matrix: (Units=1/GPa)
#
#
# Indices 1 2 3 4 5 6 
#
# 1 0.031286 -0.007116 -0.000422 0.000000 -0.015296 0.000000
# 2 -0.007116 0.013262 -0.003930 0.000000 0.006524 0.000000
# 3 -0.000422 -0.003930 0.009108 0.000000 -0.008977 0.000000
# 4 0.000000 0.000000 0.000000 0.085396 0.000000 -0.001986
# 5 -0.015296 0.006524 -0.008977 0.000000 0.058869 0.000000
# 6 0.000000 0.000000 0.000000 -0.001986 0.000000 0.077435
#
#
# Mechanical properties :
#
#
# Convention : Reuss Voigt Hill
#
# Bulk Modulus (GPa) = 32.55346 55.22929 43.89137
# Shear Modulus (GPa) = 16.20572 23.31128 19.75850
#
# Velocity S-wave (km/s) = 2.78266 3.33740 3.07258
# Velocity P-wave (km/s) = 5.08709 6.42183 5.79303
#
# Compressibility (1/GPa) = 0.03071870
#
# Stress axis : x y z
#
# Youngs Moduli (GPa) = 31.96333 75.40098 109.79950
#
# Poissons Ratio (x) = 0.53655 0.04637
# Poissons Ratio (y) = 0.22745 0.43155
# Poissons Ratio (z) = 0.01350 0.29635
#
# Static dielectric constant tensor:
#      x y z
#    x 1.789940 0.000000 0.050860 
#    y 0.000000 1.755930 0.000000 
#    z 0.050860 0.000000 1.872000 
# 
# From -- ./inp_files/22732.got.cif
#   From: 2010.05.17/outbox.cif.g08.bks.cpg/sg11_12_cif.got.tgz:22732.got - 2010.06.03 12:22:45.
