data_PCOD9166826
_publ_section_title
;
Structure prediction by ZEFSAII (Michael W. Deem and Ramdas Pophale) SiO2 
 PCOD9166826
Probable space group: P 21/M
;
_chemical_formula_sum "Si O2"
_cell_formula_units_Z 16
_cell_length_a 4.898642
_cell_length_b 15.443869
_cell_length_c 9.091560
_cell_angle_alpha 90.000000
_cell_angle_beta 117.238047
_cell_angle_gamma 90.000000
_cell_volume 611.543010
_symmetry_space_group_name_H-M "P 21/M"
_symmetry_group_IT_number 11
_symmetry_cell_setting 'monoclinic'
loop_
_space_group_symop_operation_xyz
x,y,z
-x,1/2+y,-z
-x,-y,-z
x,1/2-y,z
loop_
_atom_site_type_symbol
_atom_site_label
_atom_site_fract_x
_atom_site_fract_y
_atom_site_fract_z
Si Si1 0.967933 0.599425 0.875130
Si Si2 0.618649 0.009649 0.230746
Si Si3 0.593129 0.154631 0.437913
Si Si4 0.023654 0.345468 0.792903
O O1 0.747679 0.514785 0.842722
O O2 0.759978 0.648803 0.701862
O O3 0.285110 0.572360 0.881003
O O4 0.985226 0.647281 0.033378
O O5 0.729564 0.067920 0.395964
O O6 0.774589 0.919662 0.234581
O O7 0.703733 0.250000 0.413656
O O8 0.689758 0.149085 0.631261
O O9 0.149561 0.250000 0.788506
#
# Coordination Sequence:
#
# PCOD9166826 Si02
#       4
#     4   4   4   4
#     4  10  23  44  66  89 131 166 216 259 320 371
#     4  10  23  45  68  91 131 171 211 260 321 378
#     4   9  22  41  66  96 129 169 215 260 317 377
#     4  11  22  42  66  99 130 167 215 265 315 378
#
# _framework density 26.163326999999999
#
# number of rings (size 3 to 8) (size 9 to 14) (size 15 to 20)
#    1.500    0.500    0.000    3.000    0.000    3.000 
#    4.500    3.750    0.000    0.000    0.000    0.000 
#    0.000    0.000    0.000    0.000    0.000    0.000 
#
# Total GULP energy -89341.744636 kJ/mol
# GULP energy per Si atom -5583.859040 kJ/mol
# Density = 2.610378 g / cm^3
# Si number density = 26.163327 Si / 1000 Ang^3
#
#
#
# Elastic Constant Matrix: (Units=GPa)
#
#
# Indices 1 2 3 4 5 6 
#
# 1 86.8302 24.3500 34.1697 0.0000 2.3837 0.0000
# 2 24.3500 153.7618 43.0152 0.0000 10.8383 0.0000
# 3 34.1697 43.0152 171.9982 0.0000 26.4870 0.0000
# 4 0.0000 0.0000 0.0000 36.1943 0.0000 -3.6424
# 5 2.3837 10.8383 26.4870 0.0000 24.6921 0.0000
# 6 0.0000 0.0000 0.0000 -3.6424 0.0000 19.9016
#
#
#
# Elastic Compliance Matrix: (Units=1/GPa)
#
#
# Indices 1 2 3 4 5 6 
#
# 1 0.012862 -0.001483 -0.002507 0.000000 0.002099 0.000000
# 2 -0.001483 0.007206 -0.001249 0.000000 -0.001680 0.000000
# 3 -0.002507 -0.001249 0.007790 0.000000 -0.007566 0.000000
# 4 0.000000 0.000000 0.000000 0.028147 0.000000 0.005151
# 5 0.002099 -0.001680 -0.007566 0.000000 0.049149 0.000000
# 6 0.000000 0.000000 0.000000 0.005151 0.000000 0.051190
#
#
# Mechanical properties :
#
#
# Convention : Reuss Voigt Hill
#
# Bulk Modulus (GPa) = 57.54241 68.40667 62.97454
# Shear Modulus (GPa) = 28.96603 36.89461 32.93032
#
# Velocity S-wave (km/s) = 3.33096 3.75929 3.55159
# Velocity P-wave (km/s) = 6.06918 6.71162 6.39847
#
# Compressibility (1/GPa) = 0.01737849
#
# Stress axis : x y z
#
# Youngs Moduli (GPa) = 77.74953 138.76831 128.37741
#
# Poissons Ratio (x) = 0.20584 0.32190
# Poissons Ratio (y) = 0.11533 0.16031
# Poissons Ratio (z) = 0.19495 0.17329
#
# Static dielectric constant tensor:
#      x y z
#    x 1.979210 0.000000 0.024240 
#    y 0.000000 2.086870 0.000000 
#    z 0.024240 0.000000 2.127610 
# 
# From -- ./inp_files/1680.got.cif
#   From: 2010.05.17/outbox.cif.g08.bks.cpg/sg11_1_cif.got.tgz:1680.got - 2010.06.03 12:22:45.
