data_PCOD9166230
_publ_section_title
;
Structure prediction by ZEFSAII (Michael W. Deem and Ramdas Pophale) SiO2 
 PCOD9166230
Probable space group: P 21/M
;
_chemical_formula_sum "Si O2"
_cell_formula_units_Z 28
_cell_length_a 4.751464
_cell_length_b 18.533628
_cell_length_c 13.920333
_cell_angle_alpha 90.000000
_cell_angle_beta 95.882966
_cell_angle_gamma 90.000000
_cell_volume 1219.394357
_symmetry_space_group_name_H-M "P 21/M"
_symmetry_group_IT_number 11
_symmetry_cell_setting 'monoclinic'
loop_
_space_group_symop_operation_xyz
x,y,z
-x,1/2+y,-z
-x,-y,-z
x,1/2-y,z
loop_
_atom_site_type_symbol
_atom_site_label
_atom_site_fract_x
_atom_site_fract_y
_atom_site_fract_z
Si Si1 0.475255 0.868731 0.829088
Si Si2 0.162256 0.879540 0.627461
Si Si3 0.584608 0.969923 0.398442
Si Si4 0.327751 0.445358 0.923041
Si Si5 0.013250 0.329865 0.046378
Si Si6 0.364147 0.166592 0.492216
Si Si7 0.247371 0.975493 0.201395
O O1 0.299612 0.849255 0.728663
O O2 0.607336 0.947767 0.816523
O O3 0.837973 0.885195 0.021727
O O4 0.751565 0.823738 0.862261
O O5 0.325187 0.847530 0.540616
O O6 0.840413 0.857862 0.601988
O O7 0.209310 0.966189 0.630637
O O8 0.698019 0.890095 0.424826
O O9 0.327214 0.962466 0.314551
O O10 0.500000 0.000000 0.500000
O O11 0.734876 0.360982 0.087658
O O12 0.072284 0.477573 0.848080
O O13 0.500000 0.500000 0.000000
O O14 0.956353 0.250000 0.004479
O O15 0.569185 0.420107 0.857297
O O16 0.325244 0.250000 0.514772
#
# Coordination Sequence:
#
# PCOD9166230 Si02
#       7
#     4   4   4   4   4   4   4
#     4  11  23  39  64  96 128 171 222 273 337 405
#     4  10  22  39  62  92 130 171 220 268 329 402
#     4   9  22  44  66  97 134 171 222 279 329 388
#     4  12  25  44  68  98 130 172 229 278 322 395
#     4  12  26  42  61  93 138 178 212 275 346 396
#     4  11  22  38  62  92 130 176 216 269 333 389
#     4  11  24  41  72  99 125 173 232 278 336 386
#
# _framework density 22.962219000000001
#
# number of rings (size 3 to 8) (size 9 to 14) (size 15 to 20)
#    0.000    1.143    1.429    4.286    0.000   11.429 
#    0.000    1.429    0.000    0.000    0.000    0.000 
#    0.000    0.000    0.000    0.000    0.000    0.000 
#
# Total GULP energy -156480.136115 kJ/mol
# GULP energy per Si atom -5588.576290 kJ/mol
# Density = 2.290996 g / cm^3
# Si number density = 22.962219 Si / 1000 Ang^3
#
#
#
# Elastic Constant Matrix: (Units=GPa)
#
#
# Indices 1 2 3 4 5 6 
#
# 1 113.0948 19.9341 29.5760 0.0000 22.4538 0.0000
# 2 19.9341 146.4784 35.6463 0.0000 11.4673 0.0000
# 3 29.5760 35.6463 134.1401 0.0000 25.9403 0.0000
# 4 0.0000 0.0000 0.0000 13.0209 0.0000 -2.7811
# 5 22.4538 11.4673 25.9403 0.0000 35.1860 0.0000
# 6 0.0000 0.0000 0.0000 -2.7811 0.0000 -53.3040
#
#
#
# Elastic Compliance Matrix: (Units=1/GPa)
#
#
# Indices 1 2 3 4 5 6 
#
# 1 0.010349 -0.000724 -0.001001 0.000000 -0.005631 0.000000
# 2 -0.000724 0.007387 -0.001664 0.000000 -0.000718 0.000000
# 3 -0.001001 -0.001664 0.009201 0.000000 -0.005603 0.000000
# 4 0.000000 0.000000 0.000000 0.075953 0.000000 -0.003963
# 5 -0.005631 -0.000718 -0.005603 0.000000 0.036378 0.000000
# 6 0.000000 0.000000 0.000000 -0.003963 0.000000 -0.018554
#
#
# Mechanical properties :
#
#
# Convention : Reuss Voigt Hill
#
# Bulk Modulus (GPa) = 49.60522 62.66956 56.13739
# Shear Modulus (GPa) = 37.25420 19.55103 28.40262
#
# Velocity S-wave (km/s) = 4.03229 2.92112 3.52081
# Velocity P-wave (km/s) = 6.58248 6.22326 6.40539
#
# Compressibility (1/GPa) = 0.02015917
#
# Stress axis : x y z
#
# Youngs Moduli (GPa) = 96.62418 135.37733 108.68115
#
# Poissons Ratio (x) = 0.09803 0.10874
# Poissons Ratio (y) = 0.06997 0.18089
# Poissons Ratio (z) = 0.09668 0.22532
#
# Static dielectric constant tensor:
#      x y z
#    x 1.869090 0.000000 -0.033480 
#    y 0.000000 1.896540 0.000000 
#    z -0.033480 0.000000 1.917510 
# 
# From -- ./inp_files/6772.got.cif
#   From: 2010.05.17/outbox.cif.g08.bks.cpg/sg11_4_cif.got.tgz:6772.got - 2010.06.03 12:22:45.
