data_PCOD9166118
_publ_section_title
;
Structure prediction by ZEFSAII (Michael W. Deem and Ramdas Pophale) SiO2 
 PCOD9166118
Probable space group: P 21/M
;
_chemical_formula_sum "Si O2"
_cell_formula_units_Z 32
_cell_length_a 27.038912
_cell_length_b 8.422265
_cell_length_c 15.963365
_cell_angle_alpha 90.000000
_cell_angle_beta 152.889319
_cell_angle_gamma 90.000000
_cell_volume 1656.654439
_symmetry_space_group_name_H-M "P 21/M"
_symmetry_group_IT_number 11
_symmetry_cell_setting 'monoclinic'
loop_
_space_group_symop_operation_xyz
x,y,z
-x,1/2+y,-z
-x,-y,-z
x,1/2-y,z
loop_
_atom_site_type_symbol
_atom_site_label
_atom_site_fract_x
_atom_site_fract_y
_atom_site_fract_z
Si Si1 0.173384 0.441754 0.265172
Si Si2 0.445477 0.560134 0.002600
Si Si3 0.577554 0.943940 0.366086
Si Si4 0.998174 0.441625 0.864722
Si Si5 0.999118 0.557719 0.323818
Si Si6 0.552456 0.060003 0.664651
Si Si7 0.773944 0.941827 0.067773
Si Si8 0.224798 0.439995 0.738515
O O1 0.173936 0.250000 0.266347
O O2 0.297349 0.496365 0.447425
O O3 0.109697 0.499237 0.251262
O O4 0.100232 0.494213 0.075619
O O5 0.447473 0.750000 0.005400
O O6 0.322181 0.503945 0.828459
O O7 0.500000 0.500000 0.000000
O O8 0.512966 0.503745 0.185958
O O9 0.577447 0.750000 0.365947
O O10 0.516559 0.995915 0.358452
O O11 0.997490 0.250000 0.864288
O O12 0.005570 0.494411 0.780129
O O13 0.001834 0.750000 0.329304
O O14 0.108042 0.495363 0.530507
O O15 0.890679 0.506270 0.208838
O O16 0.550989 0.250000 0.662388
O O17 0.500000 0.000000 0.500000
O O18 0.675053 0.001869 0.862623
O O19 0.772392 0.750000 0.064690
O O20 0.758455 0.996104 0.140331
O O21 0.228436 0.250000 0.743605
#
# Coordination Sequence:
#
# PCOD9166118 Si02
#       8
#     4   4   4   4   4   4   4   4
#     4   9  18  35  58  80 111 150 188 231 285 347
#     4  11  23  41  62  90 123 160 204 249 304 364
#     4   9  20  38  62  87 115 157 198 239 299 361
#     4   9  19  35  55  83 113 147 188 234 288 345
#     4  10  22  38  60  87 116 154 198 245 301 361
#     4  11  23  40  63  91 123 161 203 249 303 362
#     4  10  22  41  63  87 118 156 200 249 302 360
#     4  11  23  40  61  88 119 155 200 250 302 359
#
# _framework density 19.316037999999999
#
# number of rings (size 3 to 8) (size 9 to 14) (size 15 to 20)
#    0.000    2.000    1.250    1.500    3.500    1.500 
#    0.000    1.875    0.000    0.000    0.000    0.000 
#    0.000    0.000    0.000    0.000    0.000    0.000 
#
# Total GULP energy -178769.685558 kJ/mol
# GULP energy per Si atom -5586.552674 kJ/mol
# Density = 1.927207 g / cm^3
# Si number density = 19.316038 Si / 1000 Ang^3
#
#
#
# Elastic Constant Matrix: (Units=GPa)
#
#
# Indices 1 2 3 4 5 6 
#
# 1 153.9545 27.1098 98.3321 0.0000 0.8601 0.0000
# 2 27.1098 18.3324 23.5311 0.0000 1.4299 0.0000
# 3 98.3321 23.5311 147.1083 0.0000 26.9079 0.0000
# 4 0.0000 0.0000 0.0000 28.4201 0.0000 0.1382
# 5 0.8601 1.4299 26.9079 0.0000 33.9323 0.0000
# 6 0.0000 0.0000 0.0000 0.1382 0.0000 26.4831
#
#
#
# Elastic Compliance Matrix: (Units=1/GPa)
#
#
# Indices 1 2 3 4 5 6 
#
# 1 0.013976 -0.009476 -0.009164 0.000000 0.007312 0.000000
# 2 -0.009476 0.076434 -0.006254 0.000000 0.001979 0.000000
# 3 -0.009164 -0.006254 0.016180 0.000000 -0.012334 0.000000
# 4 0.000000 0.000000 0.000000 0.035187 0.000000 -0.000184
# 5 0.007312 0.001979 -0.012334 0.000000 0.038983 0.000000
# 6 0.000000 0.000000 0.000000 -0.000184 0.000000 0.037761
#
#
# Mechanical properties :
#
#
# Convention : Reuss Voigt Hill
#
# Bulk Modulus (GPa) = 17.60491 68.59345 43.09918
# Shear Modulus (GPa) = 17.40688 29.12858 23.26773
#
# Velocity S-wave (km/s) = 3.00519 3.88751 3.47447
# Velocity P-wave (km/s) = 4.60168 7.46583 6.20137
#
# Compressibility (1/GPa) = 0.05680234
#
# Stress axis : x y z
#
# Youngs Moduli (GPa) = 71.55025 13.08317 61.80569
#
# Poissons Ratio (x) = 0.12397 0.56638
# Poissons Ratio (y) = 0.67798 0.38656
# Poissons Ratio (z) = 0.65568 0.08183
#
# Static dielectric constant tensor:
#      x y z
#    x 1.658220 0.000000 -0.008250 
#    y 0.000000 1.668480 0.000000 
#    z -0.008250 0.000000 1.648310 
# 
# From -- ./inp_files/55694.got.cif
#   From: 2010.05.17/outbox.cif.g08.bks.cpg/sg11_28_cif.got.tgz:55694.got - 2010.06.03 12:22:45.
