data_PCOD9166782
_publ_section_title
;
Structure prediction by ZEFSAII (Michael W. Deem and Ramdas Pophale) SiO2 
 PCOD9166782
Probable space group: P 21/M
;
_chemical_formula_sum "Si O2"
_cell_formula_units_Z 24
_cell_length_a 9.933734
_cell_length_b 17.129070
_cell_length_c 14.649605
_cell_angle_alpha 90.000000
_cell_angle_beta 27.319400
_cell_angle_gamma 90.000000
_cell_volume 1144.031510
_symmetry_space_group_name_H-M "P 21/M"
_symmetry_group_IT_number 11
_symmetry_cell_setting 'monoclinic'
loop_
_space_group_symop_operation_xyz
x,y,z
-x,1/2+y,-z
-x,-y,-z
x,1/2-y,z
loop_
_atom_site_type_symbol
_atom_site_label
_atom_site_fract_x
_atom_site_fract_y
_atom_site_fract_z
Si Si1 0.260233 0.082895 0.932038
Si Si2 0.250838 0.660413 0.864845
Si Si3 0.285731 0.456484 0.414388
Si Si4 0.868292 0.335771 0.861031
Si Si5 0.207154 0.837718 0.305464
Si Si6 0.164425 0.001007 0.674938
O O1 0.488003 0.147944 0.827604
O O2 0.469111 0.008944 0.782714
O O3 0.049557 0.114734 0.978709
O O4 0.040491 0.056076 0.144275
O O5 0.228524 0.750000 0.847822
O O6 0.517735 0.613153 0.659914
O O7 0.318894 0.661523 0.932807
O O8 0.145746 0.509827 0.577449
O O9 0.020355 0.406941 0.530199
O O10 0.013833 0.250000 0.775690
O O11 0.737419 0.343387 0.837833
O O12 0.063963 0.411089 0.753604
O O13 0.092448 0.750000 0.392180
O O14 0.500000 0.000000 0.500000
#
# Coordination Sequence:
#
# PCOD9166782 Si02
#       6
#     4   4   4   4   4   4
#     4  12  23  41  65  94 129 159 207 269 316 355
#     4  11  21  38  65  91 121 166 209 256 309 366
#     4  11  22  39  66  91 125 167 214 249 309 381
#     4   9  20  38  61  85 121 164 207 248 305 374
#     4  10  23  43  63  92 129 166 207 256 314 378
#     4  11  21  38  62  92 125 160 208 261 309 368
#
# _framework density 20.978441
#
# number of rings (size 3 to 8) (size 9 to 14) (size 15 to 20)
#    0.000    1.333    3.333    3.000    0.000    3.333 
#    3.000    0.000    0.000    2.000    0.000    0.000 
#    0.000    0.000    0.000    0.000    0.000    0.000 
#
# Total GULP energy -133745.091522 kJ/mol
# GULP energy per Si atom -5572.712147 kJ/mol
# Density = 2.093069 g / cm^3
# Si number density = 20.978441 Si / 1000 Ang^3
#
#
#
# Elastic Constant Matrix: (Units=GPa)
#
#
# Indices 1 2 3 4 5 6 
#
# 1 51.6485 0.9221 16.0630 0.0000 -4.5988 0.0000
# 2 0.9221 49.3528 -0.4356 0.0000 -0.6824 0.0000
# 3 16.0630 -0.4356 72.8496 0.0000 2.8343 0.0000
# 4 0.0000 0.0000 0.0000 16.5947 0.0000 0.7301
# 5 -4.5988 -0.6824 2.8343 0.0000 31.1385 0.0000
# 6 0.0000 0.0000 0.0000 0.7301 0.0000 20.4889
#
#
#
# Elastic Compliance Matrix: (Units=1/GPa)
#
#
# Indices 1 2 3 4 5 6 
#
# 1 0.021182 -0.000389 -0.004811 0.000000 0.003558 0.000000
# 2 -0.000389 0.020276 0.000193 0.000000 0.000369 0.000000
# 3 -0.004811 0.000193 0.014869 0.000000 -0.002060 0.000000
# 4 0.000000 0.000000 0.000000 0.060355 0.000000 -0.002151
# 5 0.003558 0.000369 -0.002060 0.000000 0.032836 0.000000
# 6 0.000000 0.000000 0.000000 -0.002151 0.000000 0.048884
#
#
# Mechanical properties :
#
#
# Convention : Reuss Voigt Hill
#
# Bulk Modulus (GPa) = 21.59271 22.99443 22.29357
# Shear Modulus (GPa) = 22.33604 24.13119 23.23362
#
# Velocity S-wave (km/s) = 3.26654 3.39526 3.33152
# Velocity P-wave (km/s) = 4.95400 5.13373 5.04467
#
# Compressibility (1/GPa) = 0.04631192
#
# Stress axis : x y z
#
# Youngs Moduli (GPa) = 47.21060 49.31858 67.25377
#
# Poissons Ratio (x) = 0.01919 0.32357
# Poissons Ratio (y) = 0.01837 -0.01296
# Poissons Ratio (z) = 0.22714 -0.00950
#
# Static dielectric constant tensor:
#      x y z
#    x 1.844170 0.000000 0.050580 
#    y 0.000000 1.784890 0.000000 
#    z 0.050580 0.000000 1.752930 
# 
# From -- ./inp_files/59661.got.cif
#   From: 2010.05.17/outbox.cif.g08.bks.cpg/sg11_30_cif.got.tgz:59661.got - 2010.06.03 12:22:45.
