data_PCOD9166715
_publ_section_title
;
Structure prediction by ZEFSAII (Michael W. Deem and Ramdas Pophale) SiO2 
 PCOD9166715
Probable space group: P 21/M
;
_chemical_formula_sum "Si O2"
_cell_formula_units_Z 20
_cell_length_a 26.293616
_cell_length_b 8.771732
_cell_length_c 9.108904
_cell_angle_alpha 90.000000
_cell_angle_beta 149.986500
_cell_angle_gamma 90.000000
_cell_volume 1050.869988
_symmetry_space_group_name_H-M "P 21/M"
_symmetry_group_IT_number 11
_symmetry_cell_setting 'monoclinic'
loop_
_space_group_symop_operation_xyz
x,y,z
-x,1/2+y,-z
-x,-y,-z
x,1/2-y,z
loop_
_atom_site_type_symbol
_atom_site_label
_atom_site_fract_x
_atom_site_fract_y
_atom_site_fract_z
Si Si1 0.795686 0.433212 0.159742
Si Si2 0.200193 0.566671 0.173781
Si Si3 0.995881 0.933306 0.153112
Si Si4 0.599923 0.566649 0.172784
Si Si5 0.598768 0.567749 0.825692
O O1 0.784374 0.250000 0.140573
O O2 0.900732 0.474636 0.502521
O O3 0.799603 0.474549 0.997964
O O4 0.700076 0.508388 0.000254
O O5 0.199860 0.750000 0.184923
O O6 0.300412 0.500648 0.501003
O O7 0.100984 0.499820 0.004326
O O8 0.988644 0.750000 0.129144
O O9 0.000000 0.000000 0.000000
O O10 0.600081 0.750000 0.185100
O O11 0.500000 0.500000 0.000000
O O12 0.599849 0.525417 0.000310
O O13 0.500000 0.500000 0.500000
O O14 0.594826 0.750000 0.806393
#
# Coordination Sequence:
#
# PCOD9166715 Si02
#       5
#     4   4   4   4   4
#     4  10  23  41  61  87 120 156 197 243 294 349
#     4  11  23  40  62  89 120 156 198 245 294 351
#     4  11  23  40  62  89 121 158 198 244 295 350
#     4  11  24  41  61  89 121 156 198 245 296 352
#     4  11  24  40  61  88 119 154 196 243 293 350
#
# _framework density 19.031849999999999
#
# number of rings (size 3 to 8) (size 9 to 14) (size 15 to 20)
#    0.000    1.200    0.000    5.400    0.000   14.400 
#    0.000    0.000    0.000    0.000    0.000    0.000 
#    0.000    0.000    0.000    0.000    0.000    0.000 
#
# Total GULP energy -111924.448202 kJ/mol
# GULP energy per Si atom -5596.222410 kJ/mol
# Density = 1.898853 g / cm^3
# Si number density = 19.031850 Si / 1000 Ang^3
#
#
#
# Elastic Constant Matrix: (Units=GPa)
#
#
# Indices 1 2 3 4 5 6 
#
# 1 238.6413 83.8374 150.2970 0.0000 2.3726 0.0000
# 2 83.8374 61.2646 80.8766 0.0000 -3.4885 0.0000
# 3 150.2970 80.8766 239.3436 0.0000 -0.8916 0.0000
# 4 0.0000 0.0000 0.0000 37.9709 0.0000 6.3659
# 5 2.3726 -3.4885 -0.8916 0.0000 45.8257 0.0000
# 6 0.0000 0.0000 0.0000 6.3659 0.0000 39.8000
#
#
#
# Elastic Compliance Matrix: (Units=1/GPa)
#
#
# Indices 1 2 3 4 5 6 
#
# 1 0.008987 -0.008865 -0.002652 0.000000 -0.001192 0.000000
# 2 -0.008865 0.038405 -0.007399 0.000000 0.003239 0.000000
# 3 -0.002652 -0.007399 0.008343 0.000000 -0.000264 0.000000
# 4 0.000000 0.000000 0.000000 0.027062 0.000000 -0.004328
# 5 -0.001192 0.003239 -0.000264 0.000000 0.022125 0.000000
# 6 0.000000 0.000000 0.000000 -0.004328 0.000000 0.025818
#
#
# Mechanical properties :
#
#
# Convention : Reuss Voigt Hill
#
# Bulk Modulus (GPa) = 55.85573 129.91907 92.88740
# Shear Modulus (GPa) = 28.64691 39.66855 34.15773
#
# Velocity S-wave (km/s) = 3.88391 4.57039 4.24106
# Velocity P-wave (km/s) = 7.03742 9.81140 8.53782
#
# Compressibility (1/GPa) = 0.01790327
#
# Stress axis : x y z
#
# Youngs Moduli (GPa) = 111.27239 26.03820 119.86257
#
# Poissons Ratio (x) = 0.23082 0.31793
# Poissons Ratio (y) = 0.98637 0.88685
# Poissons Ratio (z) = 0.29514 0.19265
#
# Static dielectric constant tensor:
#      x y z
#    x 1.624180 0.000000 -0.014490 
#    y 0.000000 1.640720 0.000000 
#    z -0.014490 0.000000 1.622210 
# 
# From -- ./inp_files/15901.got.cif
#   From: 2010.05.17/outbox.cif.g08.bks.cpg/sg11_8_cif.got.tgz:15901.got - 2010.06.03 12:22:45.
