data_PCOD9166031
_publ_section_title
;
Structure prediction by ZEFSAII (Michael W. Deem and Ramdas Pophale) SiO2 
 PCOD9166031
Probable space group: P 21/M
;
_chemical_formula_sum "Si O2"
_cell_formula_units_Z 26
_cell_length_a 15.418692
_cell_length_b 16.851704
_cell_length_c 11.494874
_cell_angle_alpha 90.000000
_cell_angle_beta 26.558827
_cell_angle_gamma 90.000000
_cell_volume 1335.414842
_symmetry_space_group_name_H-M "P 21/M"
_symmetry_group_IT_number 11
_symmetry_cell_setting 'monoclinic'
loop_
_space_group_symop_operation_xyz
x,y,z
-x,1/2+y,-z
-x,-y,-z
x,1/2-y,z
loop_
_atom_site_type_symbol
_atom_site_label
_atom_site_fract_x
_atom_site_fract_y
_atom_site_fract_z
Si Si1 0.102320 0.614949 0.119326
Si Si2 0.323962 0.114949 0.454393
Si Si3 0.465488 0.594938 0.035007
Si Si4 0.347603 0.158168 0.957191
Si Si5 0.034017 0.905062 0.466479
Si Si6 0.573719 0.250000 0.278839
Si Si7 0.572126 0.988434 0.283620
O O1 0.038407 0.628259 0.330096
O O2 0.908155 0.613619 0.275539
O O3 0.259808 0.680747 0.897213
O O4 0.220802 0.532304 0.977843
O O5 0.416823 0.180747 0.426158
O O6 0.419442 0.032304 0.381915
O O7 0.406909 0.128259 0.224589
O O8 0.243335 0.608900 0.269995
O O9 0.500000 0.500000 0.000000
O O10 0.523102 0.634894 0.086353
O O11 0.363453 0.250000 0.909643
O O12 0.132559 0.134893 0.257984
O O13 0.406558 0.101996 0.780329
O O14 0.000000 0.000000 0.500000
O O15 0.500000 0.000000 0.500000
#
# Coordination Sequence:
#
# PCOD9166031 Si02
#       7
#     4   4   4   4   4   2   4
#     4  11  21  38  66  95 130 175 222 270 338 410
#     4  11  21  38  66  95 130 175 222 270 338 410
#     4  12  20  37  64  94 131 171 208 265 342 415
#     4  12  27  40  65 103 134 175 222 291 348 402
#     4  12  20  37  64  94 131 171 208 265 342 415
#     4  10  22  36  56 100 140 156 214 276 332 402
#     4  11  25  47  65  91 131 191 239 277 330 406
#
# _framework density 19.469604
#
# number of rings (size 3 to 8) (size 9 to 14) (size 15 to 20)
#    0.000    0.615    9.231    0.462    2.154    1.231 
#    5.538    0.000    0.000    0.000    0.000    0.000 
#    0.000    0.000    0.000    0.000    0.000    0.000 
#
# Total GULP energy -144821.757625 kJ/mol
# GULP energy per Si atom -5570.067601 kJ/mol
# Density = 1.942529 g / cm^3
# Si number density = 19.469604 Si / 1000 Ang^3
#
#
#
# Elastic Constant Matrix: (Units=GPa)
#
#
# Indices 1 2 3 4 5 6 
#
# 1 83.3191 31.0288 75.9918 0.0000 -25.9728 0.0000
# 2 31.0288 147.1489 32.9291 0.0000 -13.3023 0.0000
# 3 75.9918 32.9291 91.9098 0.0000 -34.1801 0.0000
# 4 0.0000 0.0000 0.0000 19.7251 0.0000 -12.7933
# 5 -25.9728 -13.3023 -34.1801 0.0000 62.9560 0.0000
# 6 0.0000 0.0000 0.0000 -12.7933 0.0000 17.8959
#
#
#
# Elastic Compliance Matrix: (Units=1/GPa)
#
#
# Indices 1 2 3 4 5 6 
#
# 1 0.049323 -0.001403 -0.041124 0.000000 -0.002275 0.000000
# 2 -0.001403 0.007429 -0.001419 0.000000 0.000220 0.000000
# 3 -0.041124 -0.001419 0.048828 0.000000 0.009244 0.000000
# 4 0.000000 0.000000 0.000000 0.094522 0.000000 0.067571
# 5 -0.002275 0.000220 0.009244 0.000000 0.020011 0.000000
# 6 0.000000 0.000000 0.000000 0.067571 0.000000 0.104184
#
#
# Mechanical properties :
#
#
# Convention : Reuss Voigt Hill
#
# Bulk Modulus (GPa) = 56.53980 66.91970 61.72975
# Shear Modulus (GPa) = 11.95927 32.27726 22.11827
#
# Velocity S-wave (km/s) = 2.48110 4.07606 3.37418
# Velocity P-wave (km/s) = 6.10827 7.52319 6.85234
#
# Compressibility (1/GPa) = 0.01768666
#
# Stress axis : x y z
#
# Youngs Moduli (GPa) = 20.27466 134.60144 20.48007
#
# Poissons Ratio (x) = 0.18891 0.84222
# Poissons Ratio (y) = 0.02846 0.02907
# Poissons Ratio (z) = 0.83377 0.19107
#
# Static dielectric constant tensor:
#      x y z
#    x 1.686120 0.000000 0.014710 
#    y 0.000000 1.686190 0.000000 
#    z 0.014710 0.000000 1.684010 
# 
# From -- ./inp_files/39584.got.cif
#   From: 2010.05.17/outbox.cif.g08.bks.cpg/sg11_20_cif.got.tgz:39584.got - 2010.06.03 12:22:45.
