data_PCOD9166759
_publ_section_title
;
Structure prediction by ZEFSAII (Michael W. Deem and Ramdas Pophale) SiO2 
 PCOD9166759
Probable space group: P 21/M
;
_chemical_formula_sum "Si O2"
_cell_formula_units_Z 28
_cell_length_a 17.974877
_cell_length_b 14.329336
_cell_length_c 5.494503
_cell_angle_alpha 90.000000
_cell_angle_beta 60.405048
_cell_angle_gamma 90.000000
_cell_volume 1230.578141
_symmetry_space_group_name_H-M "P 21/M"
_symmetry_group_IT_number 11
_symmetry_cell_setting 'monoclinic'
loop_
_space_group_symop_operation_xyz
x,y,z
-x,1/2+y,-z
-x,-y,-z
x,1/2-y,z
loop_
_atom_site_type_symbol
_atom_site_label
_atom_site_fract_x
_atom_site_fract_y
_atom_site_fract_z
Si Si1 0.525046 0.750000 0.889430
Si Si2 0.176748 0.852321 0.432479
Si Si3 0.009230 0.640001 0.404904
Si Si4 0.581476 0.250000 0.449381
Si Si5 0.592361 0.952299 0.888181
Si Si6 0.320237 0.921963 0.900259
Si Si7 0.774472 0.517857 0.330103
Si Si8 0.070908 0.361816 0.965605
O O1 0.457525 0.750000 0.219454
O O2 0.482694 0.750000 0.685826
O O3 0.577964 0.843745 0.857322
O O4 0.161891 0.750000 0.570388
O O5 0.107609 0.862051 0.329814
O O6 0.171424 0.938450 0.621170
O O7 0.273681 0.859476 0.178905
O O8 0.986176 0.750000 0.429855
O O9 0.983687 0.604074 0.179884
O O10 0.958589 0.600228 0.722190
O O11 0.634687 0.345651 0.339899
O O12 0.679001 0.975470 0.597395
O O13 0.500000 0.000000 0.000000
O O14 0.616445 0.998135 0.108403
O O15 0.243883 0.980040 0.906519
O O16 0.831118 0.609714 0.239996
O O17 0.061538 0.250000 0.994279
#
# Coordination Sequence:
#
# PCOD9166759 Si02
#       8
#     2   4   4   2   4   4   4   4
#     4  12  28  46  76 104 128 191 226 283 346 410
#     4  10  23  42  66 101 138 179 230 282 346 408
#     4   9  21  42  69  98 137 184 231 282 336 399
#     4  12  26  46  76 100 138 177 228 279 360 396
#     4  11  25  48  69 100 143 173 240 278 344 412
#     4  11  25  43  68 103 139 181 222 292 336 417
#     4  11  27  41  69 100 137 184 227 286 347 407
#     4  10  23  45  68  97 141 185 229 282 338 402
#
# _framework density 22.753532
#
# number of rings (size 3 to 8) (size 9 to 14) (size 15 to 20)
#    0.000    1.429    2.143    0.857   12.000    2.286 
#    1.286    0.000    0.000    0.000    0.000    0.000 
#    0.000    0.000    0.000    0.000    0.000    0.000 
#
# Total GULP energy -156222.789444 kJ/mol
# GULP energy per Si atom -5579.385337 kJ/mol
# Density = 2.270174 g / cm^3
# Si number density = 22.753532 Si / 1000 Ang^3
#
#
#
# Elastic Constant Matrix: (Units=GPa)
#
#
# Indices 1 2 3 4 5 6 
#
# 1 88.5611 30.0567 30.9162 0.0000 6.8478 0.0000
# 2 30.0567 93.8812 4.8539 0.0000 -4.1014 0.0000
# 3 30.9162 4.8539 72.9025 0.0000 -6.8008 0.0000
# 4 0.0000 0.0000 0.0000 20.4271 0.0000 -10.0727
# 5 6.8478 -4.1014 -6.8008 0.0000 37.1145 0.0000
# 6 0.0000 0.0000 0.0000 -10.0727 0.0000 37.9140
#
#
#
# Elastic Compliance Matrix: (Units=1/GPa)
#
#
# Indices 1 2 3 4 5 6 
#
# 1 0.015662 -0.004869 -0.006753 0.000000 -0.004665 0.000000
# 2 -0.004869 0.012244 0.001485 0.000000 0.002524 0.000000
# 3 -0.006753 0.001485 0.016902 0.000000 0.004507 0.000000
# 4 0.000000 0.000000 0.000000 0.056335 0.000000 0.014966
# 5 -0.004665 0.002524 0.004507 0.000000 0.028909 0.000000
# 6 0.000000 0.000000 0.000000 0.014966 0.000000 0.030352
#
#
# Mechanical properties :
#
#
# Convention : Reuss Voigt Hill
#
# Bulk Modulus (GPa) = 40.75869 42.99982 41.87926
# Shear Modulus (GPa) = 26.47513 31.72565 29.10039
#
# Velocity S-wave (km/s) = 3.41480 3.73811 3.58011
# Velocity P-wave (km/s) = 5.78791 6.12947 5.96113
#
# Compressibility (1/GPa) = 0.02453464
#
# Stress axis : x y z
#
# Youngs Moduli (GPa) = 63.84741 81.67204 59.16338
#
# Poissons Ratio (x) = 0.39767 0.39953
# Poissons Ratio (y) = 0.31088 -0.08786
# Poissons Ratio (z) = 0.43116 -0.12129
#
# Static dielectric constant tensor:
#      x y z
#    x 1.860360 0.000000 0.028050 
#    y 0.000000 1.827300 0.000000 
#    z 0.028050 0.000000 1.931020 
# 
# From -- ./inp_files/8044.got.cif
#   From: 2010.05.17/outbox.cif.g08.bks.cpg/sg11_5_cif.got.tgz:8044.got - 2010.06.03 12:22:45.
