data_PCOD9166610
_publ_section_title
;
Structure prediction by ZEFSAII (Michael W. Deem and Ramdas Pophale) SiO2 
 PCOD9166610
Probable space group: P 21/M
;
_chemical_formula_sum "Si O2"
_cell_formula_units_Z 24
_cell_length_a 15.753716
_cell_length_b 12.349364
_cell_length_c 6.206529
_cell_angle_alpha 90.000000
_cell_angle_beta 109.517640
_cell_angle_gamma 90.000000
_cell_volume 1138.087288
_symmetry_space_group_name_H-M "P 21/M"
_symmetry_group_IT_number 11
_symmetry_cell_setting 'monoclinic'
loop_
_space_group_symop_operation_xyz
x,y,z
-x,1/2+y,-z
-x,-y,-z
x,1/2-y,z
loop_
_atom_site_type_symbol
_atom_site_label
_atom_site_fract_x
_atom_site_fract_y
_atom_site_fract_z
Si Si1 0.924851 0.985377 0.618918
Si Si2 0.047183 0.130175 0.960834
Si Si3 0.447366 0.953546 0.655766
Si Si4 0.237033 0.750000 0.933261
Si Si5 0.798002 0.002029 0.146660
Si Si6 0.319970 0.750000 0.498114
Si Si7 0.618927 0.879025 0.071446
O O1 0.829882 0.987661 0.422309
O O2 0.942846 0.879538 0.774676
O O3 0.000000 0.000000 0.500000
O O4 0.951783 0.081016 0.805631
O O5 0.054405 0.250000 0.884146
O O6 0.129186 0.061898 0.932671
O O7 0.377950 0.859530 0.543267
O O8 0.500000 0.000000 0.500000
O O9 0.397507 0.055300 0.722472
O O10 0.524440 0.899366 0.870353
O O11 0.195420 0.629670 0.892398
O O12 0.280578 0.750000 0.717812
O O13 0.275218 0.750000 0.217098
O O14 0.701329 0.945527 0.032547
O O15 0.636781 0.750000 0.104292
#
# Coordination Sequence:
#
# PCOD9166610 Si02
#       7
#     4   4   4   2   4   2   4
#     4   9  22  43  64  99 134 180 228 287 361 429
#     4  10  22  43  70  97 138 181 237 291 360 431
#     4  11  25  42  68  95 140 186 242 294 360 427
#     4  12  28  46  76 104 149 192 242 302 363 430
#     4  11  24  44  67 103 140 181 235 298 359 427
#     4  12  26  50  72 104 145 194 244 302 361 434
#     4  11  24  42  66 100 134 181 240 294 360 419
#
# _framework density 21.088014000000001
#
# number of rings (size 3 to 8) (size 9 to 14) (size 15 to 20)
#    0.000    1.333    2.500    1.500    7.000    4.667 
#   12.000    0.000    0.000    0.000    0.000    0.000 
#    0.000    0.000    0.000    0.000    0.000    0.000 
#
# Total GULP energy -133629.973296 kJ/mol
# GULP energy per Si atom -5567.915554 kJ/mol
# Density = 2.104002 g / cm^3
# Si number density = 21.088014 Si / 1000 Ang^3
#
#
#
# Elastic Constant Matrix: (Units=GPa)
#
#
# Indices 1 2 3 4 5 6 
#
# 1 47.0053 8.3639 -1.1417 0.0000 -16.5545 0.0000
# 2 8.3639 142.5465 1.5969 0.0000 -10.0106 0.0000
# 3 -1.1417 1.5969 89.6859 0.0000 -0.6664 0.0000
# 4 0.0000 0.0000 0.0000 22.5023 0.0000 -2.7553
# 5 -16.5545 -10.0106 -0.6664 0.0000 36.9152 0.0000
# 6 0.0000 0.0000 0.0000 -2.7553 0.0000 34.6573
#
#
#
# Elastic Compliance Matrix: (Units=1/GPa)
#
#
# Indices 1 2 3 4 5 6 
#
# 1 0.025349 -0.000707 0.000418 0.000000 0.011184 0.000000
# 2 -0.000707 0.007172 -0.000125 0.000000 0.001626 0.000000
# 3 0.000418 -0.000125 0.011160 0.000000 0.000355 0.000000
# 4 0.000000 0.000000 0.000000 0.044877 0.000000 0.003568
# 5 0.011184 0.001626 0.000355 0.000000 0.032552 0.000000
# 6 0.000000 0.000000 0.000000 0.003568 0.000000 0.029138
#
#
# Mechanical properties :
#
#
# Convention : Reuss Voigt Hill
#
# Bulk Modulus (GPa) = 23.33425 32.98621 28.16023
# Shear Modulus (GPa) = 30.23737 36.84285 33.54011
#
# Velocity S-wave (km/s) = 3.79075 4.18437 3.99241
# Velocity P-wave (km/s) = 5.49990 6.24671 5.88516
#
# Compressibility (1/GPa) = 0.04285547
#
# Stress axis : x y z
#
# Youngs Moduli (GPa) = 39.44967 139.42550 89.60404
#
# Poissons Ratio (x) = 0.09852 -0.03749
# Poissons Ratio (y) = 0.02788 0.01117
# Poissons Ratio (z) = -0.01650 0.01738
#
# Static dielectric constant tensor:
#      x y z
#    x 1.684910 0.000000 0.055010 
#    y 0.000000 1.731360 0.000000 
#    z 0.055010 0.000000 1.826810 
# 
# From -- ./inp_files/7737.got.cif
#   From: 2010.05.17/outbox.cif.g08.bks.cpg/sg11_4_cif.got.tgz:7737.got - 2010.06.03 12:22:45.
