data_PCOD9166689
_publ_section_title
;
Structure prediction by ZEFSAII (Michael W. Deem and Ramdas Pophale) SiO2 
 PCOD9166689
Probable space group: P 21/M
;
_chemical_formula_sum "Si O2"
_cell_formula_units_Z 32
_cell_length_a 13.002511
_cell_length_b 14.727125
_cell_length_c 7.529436
_cell_angle_alpha 90.000000
_cell_angle_beta 83.386827
_cell_angle_gamma 90.000000
_cell_volume 1432.215381
_symmetry_space_group_name_H-M "P 21/M"
_symmetry_group_IT_number 11
_symmetry_cell_setting 'monoclinic'
loop_
_space_group_symop_operation_xyz
x,y,z
-x,1/2+y,-z
-x,-y,-z
x,1/2-y,z
loop_
_atom_site_type_symbol
_atom_site_label
_atom_site_fract_x
_atom_site_fract_y
_atom_site_fract_z
Si Si1 0.091574 0.550821 0.165602
Si Si2 0.983516 0.855672 0.872282
Si Si3 0.685098 0.068355 0.834636
Si Si4 0.965607 0.647800 0.476007
Si Si5 0.351885 0.997077 0.771645
Si Si6 0.262251 0.350554 0.573500
Si Si7 0.551183 0.595739 0.695041
Si Si8 0.513470 0.656940 0.093155
O O1 0.092488 0.444628 0.105956
O O2 0.197475 0.575821 0.243433
O O3 0.997324 0.425208 0.674138
O O4 0.068033 0.614524 0.000693
O O5 0.948529 0.750000 0.911410
O O6 0.016716 0.858276 0.659378
O O7 0.605298 0.149410 0.827187
O O8 0.626316 0.985074 0.751266
O O9 0.691068 0.053149 0.047329
O O10 0.986703 0.750000 0.401440
O O11 0.840912 0.641241 0.525918
O O12 0.268130 0.057170 0.686820
O O13 0.426362 0.072981 0.841540
O O14 0.437972 0.937742 0.647731
O O15 0.249781 0.250000 0.661266
O O16 0.373049 0.352566 0.452272
O O17 0.522635 0.649152 0.879526
O O18 0.560935 0.750000 0.146023
#
# Coordination Sequence:
#
# PCOD9166689 Si02
#       8
#     4   4   4   4   4   4   4   4
#     4  11  22  40  65  87 119 164 199 246 307 352
#     4  10  23  40  60  86 118 155 204 253 298 354
#     4   9  20  36  56  84 108 147 194 227 282 355
#     4  10  23  41  59  89 125 155 200 254 296 353
#     4   9  19  34  53  79 113 142 186 229 280 342
#     4  11  21  33  55  83 111 145 186 232 289 344
#     4   9  18  35  54  78 110 146 183 229 283 342
#     4   9  17  33  56  81 112 144 182 234 278 336
#
# _framework density 22.343008999999999
#
# number of rings (size 3 to 8) (size 9 to 14) (size 15 to 20)
#    0.000    2.250    0.000    4.125    3.500    1.000 
#    0.000    2.500    0.000    0.000    0.000    0.000 
#    0.000    0.000    0.000    0.000    0.000    0.000 
#
# Total GULP energy -178203.108705 kJ/mol
# GULP energy per Si atom -5568.847147 kJ/mol
# Density = 2.229216 g / cm^3
# Si number density = 22.343009 Si / 1000 Ang^3
#
#
#
# Elastic Constant Matrix: (Units=GPa)
#
#
# Indices 1 2 3 4 5 6 
#
# 1 51.5356 7.8506 13.1415 0.0000 -2.6197 0.0000
# 2 7.8506 89.1925 24.0520 0.0000 -3.6009 0.0000
# 3 13.1415 24.0520 50.1334 0.0000 13.4124 0.0000
# 4 0.0000 0.0000 0.0000 -7.2167 0.0000 -0.7179
# 5 -2.6197 -3.6009 13.4124 0.0000 23.7120 0.0000
# 6 0.0000 0.0000 0.0000 -0.7179 0.0000 12.1319
#
#
#
# Elastic Compliance Matrix: (Units=1/GPa)
#
#
# Indices 1 2 3 4 5 6 
#
# 1 0.021650 0.000451 -0.007718 0.000000 0.006826 0.000000
# 2 0.000451 0.013774 -0.008601 0.000000 0.007007 0.000000
# 3 -0.007718 -0.008601 0.031430 0.000000 -0.019937 0.000000
# 4 0.000000 0.000000 0.000000 -0.137756 0.000000 -0.008152
# 5 0.006826 0.007007 -0.019937 0.000000 0.055268 0.000000
# 6 0.000000 0.000000 0.000000 -0.008152 0.000000 0.081945
#
#
# Mechanical properties :
#
#
# Convention : Reuss Voigt Hill
#
# Bulk Modulus (GPa) = 28.47450 31.21664 29.84557
# Shear Modulus (GPa) = 45.55625 15.44658 30.50141
#
# Velocity S-wave (km/s) = 4.52037 2.63218 3.69879
# Velocity P-wave (km/s) = 6.32589 4.82076 5.62391
#
# Compressibility (1/GPa) = 0.03511915
#
# Stress axis : x y z
#
# Youngs Moduli (GPa) = 46.18870 72.59896 31.81653
#
# Poissons Ratio (x) = -0.03275 0.24555
# Poissons Ratio (y) = -0.02084 0.27366
# Poissons Ratio (z) = 0.35648 0.62444
#
# Static dielectric constant tensor:
#      x y z
#    x 1.811770 0.000000 -0.016680 
#    y 0.000000 1.911680 0.000000 
#    z -0.016680 0.000000 1.869840 
# 
# From -- ./inp_files/21885.got.cif
#   From: 2010.05.17/outbox.cif.g08.bks.cpg/sg11_11_cif.got.tgz:21885.got - 2010.06.03 12:22:45.
