data_PCOD9166357
_publ_section_title
;
Structure prediction by ZEFSAII (Michael W. Deem and Ramdas Pophale) SiO2 
 PCOD9166357
Probable space group: P 21/M
;
_chemical_formula_sum "Si O2"
_cell_formula_units_Z 30
_cell_length_a 12.765830
_cell_length_b 11.940215
_cell_length_c 22.366379
_cell_angle_alpha 90.000000
_cell_angle_beta 154.699990
_cell_angle_gamma 90.000000
_cell_volume 1456.963739
_symmetry_space_group_name_H-M "P 21/M"
_symmetry_group_IT_number 11
_symmetry_cell_setting 'monoclinic'
loop_
_space_group_symop_operation_xyz
x,y,z
-x,1/2+y,-z
-x,-y,-z
x,1/2-y,z
loop_
_atom_site_type_symbol
_atom_site_label
_atom_site_fract_x
_atom_site_fract_y
_atom_site_fract_z
Si Si1 0.886886 0.440313 0.882718
Si Si2 0.152384 0.972445 0.452927
Si Si3 0.348933 0.126033 0.648756
Si Si4 0.704193 0.521449 0.054168
Si Si5 0.150518 0.250000 0.937078
Si Si6 0.624536 0.878533 0.195284
Si Si7 0.644689 0.627177 0.677808
Si Si8 0.849999 0.880381 0.661974
O O1 0.625510 0.387567 0.767234
O O2 0.809342 0.534862 0.794713
O O3 0.052810 0.348628 0.934717
O O4 0.000000 0.500000 0.000000
O O5 0.180590 0.034010 0.530592
O O6 0.211073 0.065490 0.432856
O O7 0.370245 0.883758 0.560501
O O8 0.886476 0.920944 0.306225
O O9 0.256620 0.250000 0.585628
O O10 0.357530 0.115597 0.724112
O O11 0.589597 0.457510 0.938289
O O12 0.500000 0.500000 0.000000
O O13 0.762048 0.648796 0.065026
O O14 0.938705 0.455390 0.199740
O O15 0.581255 0.750000 0.154968
O O16 0.748403 0.750000 0.744098
O O17 0.638339 0.615030 0.602765
O O18 0.920659 0.750000 0.691255
#
# Coordination Sequence:
#
# PCOD9166357 Si02
#       8
#     4   4   4   4   2   4   4   4
#     4  11  23  43  70 102 138 181 234 289 358 416
#     4  11  22  41  66  96 134 184 232 283 349 426
#     4  10  22  40  65  95 133 176 225 285 346 418
#     4  12  26  44  68 102 137 181 233 294 358 427
#     4  12  26  46  70 104 144 184 240 290 356 434
#     4  11  24  43  68  96 136 182 229 285 356 422
#     4  10  23  42  64  99 137 174 231 291 351 423
#     4  11  23  42  65  95 134 178 231 290 354 418
#
# _framework density 20.590767
#
# number of rings (size 3 to 8) (size 9 to 14) (size 15 to 20)
#    0.000    1.067    3.333    2.800    2.800    0.000 
#    2.400    0.000    4.400    0.000    0.000    0.000 
#    0.000    0.000    0.000    0.000    0.000    0.000 
#
# Total GULP energy -167042.386374 kJ/mol
# GULP energy per Si atom -5568.079546 kJ/mol
# Density = 2.054390 g / cm^3
# Si number density = 20.590767 Si / 1000 Ang^3
#
#
#
# Elastic Constant Matrix: (Units=GPa)
#
#
# Indices 1 2 3 4 5 6 
#
# 1 86.4017 41.3523 -8.2528 0.0000 -3.5744 0.0000
# 2 41.3523 173.1181 25.8283 0.0000 -11.8685 0.0000
# 3 -8.2528 25.8283 44.3732 0.0000 -6.9375 0.0000
# 4 0.0000 0.0000 0.0000 14.0521 0.0000 -3.1108
# 5 -3.5744 -11.8685 -6.9375 0.0000 24.4883 0.0000
# 6 0.0000 0.0000 0.0000 -3.1108 0.0000 33.9860
#
#
#
# Elastic Compliance Matrix: (Units=1/GPa)
#
#
# Indices 1 2 3 4 5 6 
#
# 1 0.014064 -0.004028 0.005207 0.000000 0.001576 0.000000
# 2 -0.004028 0.007586 -0.004899 0.000000 0.001701 0.000000
# 3 0.005207 -0.004899 0.027313 0.000000 0.006124 0.000000
# 4 0.000000 0.000000 0.000000 0.072636 0.000000 0.006649
# 5 0.001576 0.001701 0.006124 0.000000 0.043625 0.000000
# 6 0.000000 0.000000 0.000000 0.006649 0.000000 0.030032
#
#
# Mechanical properties :
#
#
# Convention : Reuss Voigt Hill
#
# Bulk Modulus (GPa) = 24.08299 46.86096 35.47198
# Shear Modulus (GPa) = 23.09053 30.83628 26.96340
#
# Velocity S-wave (km/s) = 3.35237 3.87405 3.62261
# Velocity P-wave (km/s) = 5.16777 6.54360 5.89596
#
# Compressibility (1/GPa) = 0.04152309
#
# Stress axis : x y z
#
# Youngs Moduli (GPa) = 71.10173 131.81925 36.61203
#
# Poissons Ratio (x) = 0.53101 -0.19063
# Poissons Ratio (y) = 0.28642 0.17936
# Poissons Ratio (z) = -0.37022 0.64578
#
# Static dielectric constant tensor:
#      x y z
#    x 1.784780 0.000000 0.008340 
#    y 0.000000 1.723440 0.000000 
#    z 0.008340 0.000000 1.698910 
# 
# From -- ./inp_files/64729.got.cif
#   From: 2010.05.17/outbox.cif.g08.bks.cpg/sg11_33_cif.got.tgz:64729.got - 2010.06.03 12:22:45.
