data_PCOD9166959
_publ_section_title
;
Structure prediction by ZEFSAII (Michael W. Deem and Ramdas Pophale) SiO2 
 PCOD9166959
Probable space group: P 21/M
;
_chemical_formula_sum "Si O2"
_cell_formula_units_Z 26
_cell_length_a 8.799600
_cell_length_b 14.386445
_cell_length_c 14.484486
_cell_angle_alpha 90.000000
_cell_angle_beta 139.992132
_cell_angle_gamma 90.000000
_cell_volume 1178.848704
_symmetry_space_group_name_H-M "P 21/M"
_symmetry_group_IT_number 11
_symmetry_cell_setting 'monoclinic'
loop_
_space_group_symop_operation_xyz
x,y,z
-x,1/2+y,-z
-x,-y,-z
x,1/2-y,z
loop_
_atom_site_type_symbol
_atom_site_label
_atom_site_fract_x
_atom_site_fract_y
_atom_site_fract_z
Si Si1 0.051793 0.143461 0.139797
Si Si2 0.779716 0.989968 0.126218
Si Si3 0.478247 0.145205 0.474625
Si Si4 0.046476 0.860897 0.114195
Si Si5 0.113915 0.563377 0.436334
Si Si6 0.412892 0.408054 0.643376
Si Si7 0.141976 0.250000 0.621567
O O1 0.968670 0.250000 0.109837
O O2 0.300857 0.136429 0.307209
O O3 0.879139 0.075497 0.113283
O O4 0.068220 0.122629 0.039326
O O5 0.877532 0.900460 0.115278
O O6 0.894895 0.984013 0.281468
O O7 0.500000 0.000000 0.000000
O O8 0.569069 0.250000 0.521465
O O9 0.693220 0.077113 0.555940
O O10 0.347199 0.128173 0.509849
O O11 0.084407 0.750000 0.143691
O O12 0.302545 0.911584 0.228525
O O13 0.254955 0.500848 0.576319
O O14 0.044850 0.665454 0.439468
O O15 0.333313 0.331628 0.679201
#
# Coordination Sequence:
#
# PCOD9166959 Si02
#       7
#     4   4   4   4   4   4   2
#     4  10  24  45  71 102 139 186 237 293 353 420
#     4  12  27  44  68 104 144 186 232 297 362 423
#     4  11  20  44  76 100 133 181 238 292 345 421
#     4  11  24  46  77 104 137 192 250 289 345 429
#     4  12  26  46  71 110 145 184 236 299 361 418
#     4  12  23  45  76 105 138 188 245 294 346 424
#     4  12  28  44  68 110 150 180 234 300 360 426
#
# _framework density 22.055416000000001
#
# number of rings (size 3 to 8) (size 9 to 14) (size 15 to 20)
#    0.000    0.615    5.385    2.308    3.231    0.615 
#    2.769    0.000    0.000    0.000    0.000    0.000 
#    0.000    0.000    0.000    0.000    0.000    0.000 
#
# Total GULP energy -144858.809887 kJ/mol
# GULP energy per Si atom -5571.492688 kJ/mol
# Density = 2.200522 g / cm^3
# Si number density = 22.055416 Si / 1000 Ang^3
#
#
#
# Elastic Constant Matrix: (Units=GPa)
#
#
# Indices 1 2 3 4 5 6 
#
# 1 67.7340 18.2810 21.3936 0.0000 17.8853 0.0000
# 2 18.2810 87.8102 15.4256 0.0000 15.2396 0.0000
# 3 21.3936 15.4256 107.4103 0.0000 -1.1475 0.0000
# 4 0.0000 0.0000 0.0000 23.8749 0.0000 7.6804
# 5 17.8853 15.2396 -1.1475 0.0000 35.8783 0.0000
# 6 0.0000 0.0000 0.0000 7.6804 0.0000 44.8149
#
#
#
# Elastic Compliance Matrix: (Units=1/GPa)
#
#
# Indices 1 2 3 4 5 6 
#
# 1 0.018648 -0.001754 -0.003555 0.000000 -0.008665 0.000000
# 2 -0.001754 0.012827 -0.001542 0.000000 -0.004623 0.000000
# 3 -0.003555 -0.001542 0.010269 0.000000 0.002756 0.000000
# 4 0.000000 0.000000 0.000000 0.044329 0.000000 -0.007597
# 5 -0.008665 -0.004623 0.002756 0.000000 0.034243 0.000000
# 6 0.000000 0.000000 0.000000 -0.007597 0.000000 0.023616
#
#
# Mechanical properties :
#
#
# Convention : Reuss Voigt Hill
#
# Bulk Modulus (GPa) = 35.66150 41.46164 38.56157
# Shear Modulus (GPa) = 29.94362 34.77057 32.35709
#
# Velocity S-wave (km/s) = 3.68863 3.97484 3.83441
# Velocity P-wave (km/s) = 5.86050 6.31707 6.09307
#
# Compressibility (1/GPa) = 0.02804144
#
# Stress axis : x y z
#
# Youngs Moduli (GPa) = 53.62594 77.96285 97.38006
#
# Poissons Ratio (x) = 0.13675 0.34617
# Poissons Ratio (y) = 0.09406 0.15017
# Poissons Ratio (z) = 0.19063 0.12023
#
# Static dielectric constant tensor:
#      x y z
#    x 1.844170 0.000000 -0.012270 
#    y 0.000000 1.848320 0.000000 
#    z -0.012270 0.000000 1.835380 
# 
# From -- ./inp_files/47535.got.cif
#   From: 2010.05.17/outbox.cif.g08.bks.cpg/sg11_24_cif.got.tgz:47535.got - 2010.06.03 12:22:45.
