data_PCOD9166157
_publ_section_title
;
Structure prediction by ZEFSAII (Michael W. Deem and Ramdas Pophale) SiO2 
 PCOD9166157
Probable space group: P 21/M
;
_chemical_formula_sum "Si O2"
_cell_formula_units_Z 32
_cell_length_a 12.767452
_cell_length_b 8.244380
_cell_length_c 29.366530
_cell_angle_alpha 90.000000
_cell_angle_beta 148.355257
_cell_angle_gamma 90.000000
_cell_volume 1621.755073
_symmetry_space_group_name_H-M "P 21/M"
_symmetry_group_IT_number 11
_symmetry_cell_setting 'monoclinic'
loop_
_space_group_symop_operation_xyz
x,y,z
-x,1/2+y,-z
-x,-y,-z
x,1/2-y,z
loop_
_atom_site_type_symbol
_atom_site_label
_atom_site_fract_x
_atom_site_fract_y
_atom_site_fract_z
Si Si1 0.135159 0.056019 0.937935
Si Si2 0.557047 0.555935 0.127442
Si Si3 0.866298 0.551803 0.166276
Si Si4 0.299738 0.054342 0.484334
Si Si5 0.750255 0.445970 0.635196
Si Si6 0.018395 0.946290 0.558825
Si Si7 0.845111 0.556887 0.904093
Si Si8 0.602508 0.445496 0.243460
O O1 0.128637 0.250000 0.935361
O O2 0.151395 0.995973 0.892116
O O3 0.940255 0.992811 0.891392
O O4 0.330900 0.002572 0.037914
O O5 0.559640 0.750000 0.129143
O O6 0.685810 0.498480 0.131910
O O7 0.646432 0.493453 0.207794
O O8 0.864003 0.750000 0.164753
O O9 0.072871 0.500464 0.266240
O O10 0.301574 0.250000 0.486288
O O11 0.530626 0.997981 0.570029
O O12 0.163126 0.997631 0.475613
O O13 0.216413 0.002472 0.404245
O O14 0.749081 0.250000 0.634544
O O15 0.017500 0.750000 0.559274
O O16 0.225297 0.002624 0.658667
O O17 0.000000 0.000000 0.500000
O O18 0.836004 0.750000 0.903799
O O19 0.620539 0.492756 0.827807
O O20 0.000000 0.500000 0.000000
O O21 0.598880 0.250000 0.244564
#
# Coordination Sequence:
#
# PCOD9166157 Si02
#       8
#     4   4   4   4   4   4   4   4
#     4  11  22  37  56  79 112 149 183 228 285 335
#     4  11  21  35  57  82 109 143 189 232 273 336
#     4   9  20  35  52  79 112 145 182 226 276 330
#     4   9  18  33  55  81 109 140 178 224 275 328
#     4   9  17  33  56  80 107 141 181 225 271 324
#     4  10  22  39  57  82 115 149 186 230 280 335
#     4  11  22  38  59  82 110 145 190 238 282 331
#     4  10  22  39  59  82 112 148 185 232 289 334
#
# _framework density 19.73171
#
# number of rings (size 3 to 8) (size 9 to 14) (size 15 to 20)
#    0.000    2.000    1.250    2.250    0.000    2.500 
#    0.000    5.000    0.000    0.000    0.000    0.000 
#    0.000    0.000    0.000    0.000    0.000    0.000 
#
# Total GULP energy -178725.750877 kJ/mol
# GULP energy per Si atom -5585.179715 kJ/mol
# Density = 1.968680 g / cm^3
# Si number density = 19.731710 Si / 1000 Ang^3
#
#
#
# Elastic Constant Matrix: (Units=GPa)
#
#
# Indices 1 2 3 4 5 6 
#
# 1 153.3334 19.9022 11.8660 0.0000 11.3353 0.0000
# 2 19.9022 0.7136 54.0239 0.0000 -6.6126 0.0000
# 3 11.8660 54.0239 -149.6075 0.0000 44.6189 0.0000
# 4 0.0000 0.0000 0.0000 16.4551 0.0000 -6.8655
# 5 11.3353 -6.6126 44.6189 0.0000 18.5963 0.0000
# 6 0.0000 0.0000 0.0000 -6.8655 0.0000 27.4797
#
#
#
# Elastic Compliance Matrix: (Units=1/GPa)
#
#
# Indices 1 2 3 4 5 6 
#
# 1 0.008007 -0.009095 -0.002955 0.000000 -0.001025 0.000000
# 2 -0.009095 0.067825 0.019012 0.000000 -0.015955 0.000000
# 3 -0.002955 0.019012 0.001457 0.000000 0.005065 0.000000
# 4 0.000000 0.000000 0.000000 0.067844 0.000000 0.016950
# 5 -0.001025 -0.015955 0.005065 0.000000 0.036573 0.000000
# 6 0.000000 0.000000 0.000000 0.016950 0.000000 0.040625
#
#
# Mechanical properties :
#
#
# Convention : Reuss Voigt Hill
#
# Bulk Modulus (GPa) = 10.96335 19.55820 15.26077
# Shear Modulus (GPa) = 20.93702 7.08271 14.00986
#
# Velocity S-wave (km/s) = 3.26096 1.89665 2.66751
# Velocity P-wave (km/s) = 4.44374 3.83797 4.15191
#
# Compressibility (1/GPa) = 0.09121303
#
# Stress axis : x y z
#
# Youngs Moduli (GPa) = 124.89534 14.74381 686.15558
#
# Poissons Ratio (x) = 0.13410 2.02754
# Poissons Ratio (y) = 1.13596 -13.04530
# Poissons Ratio (z) = 0.36906 -0.28031
#
# Static dielectric constant tensor:
#      x y z
#    x 1.687260 0.000000 0.022340 
#    y 0.000000 1.685570 0.000000 
#    z 0.022340 0.000000 1.683160 
# 
# From -- ./inp_files/73206.got.cif
#   From: 2010.05.17/outbox.cif.g08.bks.cpg/sg11_37_cif.got.tgz:73206.got - 2010.06.03 12:22:45.
