data_PCOD9166044
_publ_section_title
;
Structure prediction by ZEFSAII (Michael W. Deem and Ramdas Pophale) SiO2 
 PCOD9166044
Probable space group: P 21/M
;
_chemical_formula_sum "Si O2"
_cell_formula_units_Z 28
_cell_length_a 9.245712
_cell_length_b 8.038370
_cell_length_c 29.931884
_cell_angle_alpha 90.000000
_cell_angle_beta 140.554511
_cell_angle_gamma 90.000000
_cell_volume 1413.354843
_symmetry_space_group_name_H-M "P 21/M"
_symmetry_group_IT_number 11
_symmetry_cell_setting 'monoclinic'
loop_
_space_group_symop_operation_xyz
x,y,z
-x,1/2+y,-z
-x,-y,-z
x,1/2-y,z
loop_
_atom_site_type_symbol
_atom_site_label
_atom_site_fract_x
_atom_site_fract_y
_atom_site_fract_z
Si Si1 0.604350 0.048795 0.708439
Si Si2 0.062154 0.048795 0.291561
Si Si3 0.092021 0.448105 0.570197
Si Si4 0.214009 0.951148 0.152953
Si Si5 0.758963 0.551895 0.570197
Si Si6 0.168918 0.450426 1.000000
Si Si7 0.550755 0.451148 0.152953
O O1 0.596789 0.250000 0.708750
O O2 0.346639 0.986164 0.640181
O O3 0.711111 0.987886 0.780614
O O4 0.760703 1.000000 0.704281
O O5 0.053040 0.250000 0.291250
O O6 0.145734 0.986164 0.359819
O O7 0.808044 0.987886 0.219386
O O8 0.105674 0.250000 0.573739
O O9 0.080183 0.500000 0.432073
O O10 0.000000 0.500000 0.500000
O O11 0.207772 0.750000 0.152740
O O12 0.965889 0.010112 0.076075
O O13 0.400901 0.000000 0.160360
O O14 0.500000 0.500000 0.500000
O O15 0.763020 0.750000 0.573739
O O16 0.179956 0.250000 0.000000
O O17 0.414484 0.510112 0.076075
O O18 0.000000 0.500000 0.000000
O O19 0.555930 0.250000 0.152740
#
# Coordination Sequence:
#
# PCOD9166044 Si02
#       7
#     4   4   4   4   4   4   4
#     4  10  22  37  53  75 105 139 175 213 257 306
#     4  10  22  37  53  75 105 139 175 213 257 306
#     4  11  23  39  59  83 109 139 174 215 261 311
#     4   9  17  31  51  76 102 132 170 212 257 306
#     4  11  23  39  59  83 109 139 174 215 261 311
#     4   8  14  26  47  72 100 130 164 208 255 302
#     4   9  17  31  51  76 102 132 170 212 257 306
#
# _framework density 19.811021
#
# number of rings (size 3 to 8) (size 9 to 14) (size 15 to 20)
#    0.000    2.286    0.000    2.571    0.000    5.714 
#    0.000    0.714    0.000    0.000    0.000    0.000 
#    0.000    0.000    0.000    0.000    0.000    0.000 
#
# Total GULP energy -156235.916493 kJ/mol
# GULP energy per Si atom -5579.854160 kJ/mol
# Density = 1.976593 g / cm^3
# Si number density = 19.811021 Si / 1000 Ang^3
#
#
#
# Elastic Constant Matrix: (Units=GPa)
#
#
# Indices 1 2 3 4 5 6 
#
# 1 143.6742 4.8630 121.4737 0.0000 2.0100 0.0000
# 2 4.8630 18.5384 20.3823 0.0000 0.7881 0.0000
# 3 121.4737 20.3823 259.2830 0.0000 3.8611 0.0000
# 4 0.0000 0.0000 0.0000 14.7091 0.0000 -0.8095
# 5 2.0100 0.7881 3.8611 0.0000 30.9837 0.0000
# 6 0.0000 0.0000 0.0000 -0.8095 0.0000 30.6493
#
#
#
# Elastic Compliance Matrix: (Units=1/GPa)
#
#
# Indices 1 2 3 4 5 6 
#
# 1 0.011701 0.003241 -0.005735 0.000000 -0.000127 0.000000
# 2 0.003241 0.059970 -0.006218 0.000000 -0.000961 0.000000
# 3 -0.005735 -0.006218 0.007037 0.000000 -0.000347 0.000000
# 4 0.000000 0.000000 0.000000 0.068084 0.000000 0.001798
# 5 -0.000127 -0.000961 -0.000347 0.000000 0.032351 0.000000
# 6 0.000000 0.000000 0.000000 0.001798 0.000000 0.032675
#
#
# Mechanical properties :
#
#
# Convention : Reuss Voigt Hill
#
# Bulk Modulus (GPa) = 16.31745 79.43706 47.87725
# Shear Modulus (GPa) = 20.02644 33.58685 26.80665
#
# Velocity S-wave (km/s) = 3.18287 4.12194 3.68247
# Velocity P-wave (km/s) = 4.66498 7.92706 6.50386
#
# Compressibility (1/GPa) = 0.06128409
#
# Stress axis : x y z
#
# Youngs Moduli (GPa) = 85.46372 16.67509 142.09596
#
# Poissons Ratio (x) = -0.05405 0.81488
# Poissons Ratio (y) = -0.27700 0.88361
# Poissons Ratio (z) = 0.49011 0.10369
#
# Static dielectric constant tensor:
#      x y z
#    x 1.629780 0.000000 0.006340 
#    y 0.000000 1.723780 0.000000 
#    z 0.006340 0.000000 1.754560 
# 
# From -- ./inp_files/28229.got.cif
#   From: 2010.05.17/outbox.cif.g08.bks.cpg/sg11_15_cif.got.tgz:28229.got - 2010.06.03 12:22:45.
