data_PCOD9166016
_publ_section_title
;
Structure prediction by ZEFSAII (Michael W. Deem and Ramdas Pophale) SiO2 
 PCOD9166016
Probable space group: P 21/M
;
_chemical_formula_sum "Si O2"
_cell_formula_units_Z 28
_cell_length_a 20.814553
_cell_length_b 18.463648
_cell_length_c 11.793294
_cell_angle_alpha 90.000000
_cell_angle_beta 158.230476
_cell_angle_gamma 90.000000
_cell_volume 1680.916016
_symmetry_space_group_name_H-M "P 21/M"
_symmetry_group_IT_number 11
_symmetry_cell_setting 'monoclinic'
loop_
_space_group_symop_operation_xyz
x,y,z
-x,1/2+y,-z
-x,-y,-z
x,1/2-y,z
loop_
_atom_site_type_symbol
_atom_site_label
_atom_site_fract_x
_atom_site_fract_y
_atom_site_fract_z
Si Si1 0.070248 0.334693 0.274604
Si Si2 0.250000 0.477788 0.000000
Si Si3 0.660018 0.052948 0.233647
Si Si4 0.608333 0.555846 0.535049
Si Si5 0.570248 0.834693 0.274604
Si Si6 0.108333 0.055846 0.535049
Si Si7 0.160018 0.947053 0.233647
O O1 0.030606 0.250000 0.219680
O O2 0.250000 0.342789 0.500000
O O3 0.099499 0.373919 0.442313
O O4 0.920631 0.379025 0.964267
O O5 0.415976 0.527118 0.244745
O O6 0.296116 0.433557 0.188627
O O7 0.203883 0.433558 0.811372
O O8 0.084024 0.527118 0.755256
O O9 0.750000 0.072466 0.500000
O O10 0.791007 0.006879 0.370090
O O11 0.579369 0.120975 0.035733
O O12 0.500000 0.000000 0.000000
O O13 0.599497 0.626081 0.442311
O O14 0.708993 0.493121 0.629911
O O15 0.530606 0.750000 0.219680
O O16 0.000000 0.000000 0.000000
#
# Coordination Sequence:
#
# PCOD9166016 Si02
#       7
#     4   4   4   4   4   4   4
#     4  11  23  38  58  88 121 147 178 241 304 335
#     4  10  22  32  62  84 108 148 208 226 266 322
#     4  12  19  34  63  88 109 147 194 238 283 337
#     4  11  19  37  57  87 110 148 193 239 267 343
#     4  11  23  38  58  88 121 147 178 241 304 335
#     4  11  19  37  57  87 110 148 193 239 267 343
#     4  12  19  34  63  88 109 147 194 238 283 337
#
# _framework density 16.657585000000001
#
# number of rings (size 3 to 8) (size 9 to 14) (size 15 to 20)
#    0.000    0.857    8.571    0.000    0.000    0.571 
#    0.000    1.429    0.000    0.000    0.000    0.000 
#    0.000    0.000    0.000    0.000    0.000    0.000 
#
# Total GULP energy -156342.456841 kJ/mol
# GULP energy per Si atom -5583.659173 kJ/mol
# Density = 1.661967 g / cm^3
# Si number density = 16.657585 Si / 1000 Ang^3
#
#
#
# Elastic Constant Matrix: (Units=GPa)
#
#
# Indices 1 2 3 4 5 6 
#
# 1 122.8061 62.4795 62.2270 0.0000 -24.3076 0.0000
# 2 62.4795 132.6451 57.5231 0.0000 -18.4639 0.0000
# 3 62.2270 57.5231 110.4113 0.0000 -22.2066 0.0000
# 4 0.0000 0.0000 0.0000 25.4520 0.0000 -7.2565
# 5 -24.3076 -18.4639 -22.2066 0.0000 57.1242 0.0000
# 6 0.0000 0.0000 0.0000 -7.2565 0.0000 10.1878
#
#
#
# Elastic Compliance Matrix: (Units=1/GPa)
#
#
# Indices 1 2 3 4 5 6 
#
# 1 0.012969 -0.003634 -0.004928 0.000000 0.002429 0.000000
# 2 -0.003634 0.010844 -0.003480 0.000000 0.000606 0.000000
# 3 -0.004928 -0.003480 0.014102 0.000000 0.002260 0.000000
# 4 0.000000 0.000000 0.000000 0.049301 0.000000 0.035116
# 5 0.002429 0.000606 0.002260 0.000000 0.019614 0.000000
# 6 0.000000 0.000000 0.000000 0.035116 0.000000 0.123169
#
#
# Mechanical properties :
#
#
# Convention : Reuss Voigt Hill
#
# Bulk Modulus (GPa) = 72.29380 81.14687 76.72033
# Shear Modulus (GPa) = 19.32795 30.79498 25.06147
#
# Velocity S-wave (km/s) = 3.41003 4.30432 3.88301
# Velocity P-wave (km/s) = 7.68105 8.57458 8.14008
#
# Compressibility (1/GPa) = 0.01383245
#
# Stress axis : x y z
#
# Youngs Moduli (GPa) = 77.10483 92.21753 70.91296
#
# Poissons Ratio (x) = 0.33511 0.34944
# Poissons Ratio (y) = 0.28019 0.24675
# Poissons Ratio (z) = 0.37996 0.32088
#
# Static dielectric constant tensor:
#      x y z
#    x 1.578040 0.000000 -0.012860 
#    y 0.000000 1.518250 0.000000 
#    z -0.012860 0.000000 1.568630 
# 
# From -- ./inp_files/43516.got.cif
#   From: 2010.05.17/outbox.cif.g08.bks.cpg/sg11_22_cif.got.tgz:43516.got - 2010.06.03 12:22:45.
