data_PCOD9166847
_publ_section_title
;
Structure prediction by ZEFSAII (Michael W. Deem and Ramdas Pophale) SiO2 
 PCOD9166847
Probable space group: P 21/M
;
_chemical_formula_sum "Si O2"
_cell_formula_units_Z 20
_cell_length_a 4.949610
_cell_length_b 20.674593
_cell_length_c 8.918143
_cell_angle_alpha 90.000000
_cell_angle_beta 120.599415
_cell_angle_gamma 90.000000
_cell_volume 785.521384
_symmetry_space_group_name_H-M "P 21/M"
_symmetry_group_IT_number 11
_symmetry_cell_setting 'monoclinic'
loop_
_space_group_symop_operation_xyz
x,y,z
-x,1/2+y,-z
-x,-y,-z
x,1/2-y,z
loop_
_atom_site_type_symbol
_atom_site_label
_atom_site_fract_x
_atom_site_fract_y
_atom_site_fract_z
Si Si1 0.357976 0.060756 0.049036
Si Si2 0.230910 0.633294 0.059596
Si Si3 0.864345 0.429103 0.433703
Si Si4 0.865830 0.681530 0.696528
Si Si5 0.203057 0.820206 0.373026
O O1 0.494804 0.118467 0.981100
O O2 0.521168 0.061725 0.259773
O O3 0.985616 0.070976 0.959316
O O4 0.500000 0.000000 0.000000
O O5 0.980349 0.676006 0.897900
O O6 0.326065 0.666718 0.240276
O O7 0.931906 0.387371 0.602527
O O8 0.000000 0.500000 0.500000
O O9 0.026689 0.383140 0.356515
O O10 0.993338 0.750000 0.669738
O O11 0.497459 0.684564 0.568053
O O12 0.036533 0.750000 0.327438
#
# Coordination Sequence:
#
# PCOD9166847 Si02
#       5
#     4   4   4   4   4
#     4  11  24  44  66 100 142 183 225 285 342 412
#     4  11  24  44  68 100 134 180 232 278 344 407
#     4  11  24  42  69  99 138 180 229 285 345 406
#     4  10  23  45  66  97 135 178 226 283 342 408
#     4  11  24  43  69 100 132 179 228 284 342 408
#
# _framework density 25.460795000000001
#
# number of rings (size 3 to 8) (size 9 to 14) (size 15 to 20)
#    0.000    1.200    2.000    3.000    5.600    2.400 
#    0.000    2.000    0.000    0.000    0.000    0.000 
#    0.000    0.000    0.000    0.000    0.000    0.000 
#
# Total GULP energy -111676.938858 kJ/mol
# GULP energy per Si atom -5583.846943 kJ/mol
# Density = 2.540285 g / cm^3
# Si number density = 25.460795 Si / 1000 Ang^3
#
#
#
# Elastic Constant Matrix: (Units=GPa)
#
#
# Indices 1 2 3 4 5 6 
#
# 1 72.2619 7.6066 6.4863 0.0000 -12.2418 0.0000
# 2 7.6066 178.6985 19.5460 0.0000 -18.8786 0.0000
# 3 6.4863 19.5460 126.4471 0.0000 -19.4978 0.0000
# 4 0.0000 0.0000 0.0000 13.9588 0.0000 -5.1758
# 5 -12.2418 -18.8786 -19.4978 0.0000 38.7929 0.0000
# 6 0.0000 0.0000 0.0000 -5.1758 0.0000 22.1043
#
#
#
# Elastic Compliance Matrix: (Units=1/GPa)
#
#
# Indices 1 2 3 4 5 6 
#
# 1 0.014624 -0.000141 -0.000030 0.000000 0.004531 0.000000
# 2 -0.000141 0.005931 -0.000511 0.000000 0.002585 0.000000
# 3 -0.000030 -0.000511 0.008617 0.000000 0.004073 0.000000
# 4 0.000000 0.000000 0.000000 0.078451 0.000000 0.018370
# 5 0.004531 0.002585 0.004073 0.000000 0.030513 0.000000
# 6 0.000000 0.000000 0.000000 0.018370 0.000000 0.049541
#
#
# Mechanical properties :
#
#
# Convention : Reuss Voigt Hill
#
# Bulk Modulus (GPa) = 35.95914 49.40948 42.68431
# Shear Modulus (GPa) = 25.21314 37.88910 31.55112
#
# Velocity S-wave (km/s) = 3.15027 3.86182 3.52405
# Velocity P-wave (km/s) = 5.23319 6.27161 5.77579
#
# Compressibility (1/GPa) = 0.02780934
#
# Stress axis : x y z
#
# Youngs Moduli (GPa) = 68.38224 168.60571 116.04972
#
# Poissons Ratio (x) = 0.02369 0.00344
# Poissons Ratio (y) = 0.00961 0.05930
# Poissons Ratio (z) = 0.00203 0.08615
#
# Static dielectric constant tensor:
#      x y z
#    x 2.064500 0.000000 0.020280 
#    y 0.000000 2.165040 0.000000 
#    z 0.020280 0.000000 1.993670 
# 
# From -- ./inp_files/2283.got.cif
#   From: 2010.05.17/outbox.cif.g08.bks.cpg/sg11_2_cif.got.tgz:2283.got - 2010.06.03 12:22:45.
