data_PCOD9166254
_publ_section_title
;
Structure prediction by ZEFSAII (Michael W. Deem and Ramdas Pophale) SiO2 
 PCOD9166254
Probable space group: P 21/M
;
_chemical_formula_sum "Si O2"
_cell_formula_units_Z 20
_cell_length_a 5.033445
_cell_length_b 28.046356
_cell_length_c 5.695122
_cell_angle_alpha 90.000000
_cell_angle_beta 96.692239
_cell_angle_gamma 90.000000
_cell_volume 798.501222
_symmetry_space_group_name_H-M "P 21/M"
_symmetry_group_IT_number 11
_symmetry_cell_setting 'monoclinic'
loop_
_space_group_symop_operation_xyz
x,y,z
-x,1/2+y,-z
-x,-y,-z
x,1/2-y,z
loop_
_atom_site_type_symbol
_atom_site_label
_atom_site_fract_x
_atom_site_fract_y
_atom_site_fract_z
Si Si1 0.015454 0.847146 0.685986
Si Si2 0.519683 0.805080 0.919665
Si Si3 0.831213 0.972204 0.174677
Si Si4 0.622786 0.620002 0.278399
Si Si5 0.268647 0.938345 0.601548
O O1 0.270642 0.812961 0.720309
O O2 0.126328 0.900131 0.757776
O O3 0.787751 0.826288 0.830686
O O4 0.881066 0.854601 0.417889
O O5 0.553483 0.750000 0.981331
O O6 0.459757 0.838481 0.137028
O O7 0.684390 0.922856 0.103105
O O8 0.042348 0.955189 0.394344
O O9 0.639358 0.013043 0.264806
O O10 0.000000 0.000000 0.000000
O O11 0.483182 0.591882 0.478230
#
# Coordination Sequence:
#
# PCOD9166254 Si02
#       5
#     4   4   4   4   4
#     4  11  25  49  72 102 145 186 236 303 360 430
#     4  12  28  47  74 106 137 187 248 303 371 432
#     4  10  22  39  69 106 149 195 236 289 356 438
#     4  11  25  45  75 103 152 190 242 301 362 432
#     4  10  22  42  68 107 144 193 239 288 360 436
#
# _framework density 25.046925000000002
#
# number of rings (size 3 to 8) (size 9 to 14) (size 15 to 20)
#    0.000    1.200    2.000    2.400    8.400    2.400 
#    0.000    0.000    0.000    0.000    0.000    0.000 
#    0.000    0.000    0.000    0.000    0.000    0.000 
#
# Total GULP energy -111974.176087 kJ/mol
# GULP energy per Si atom -5598.708804 kJ/mol
# Density = 2.498992 g / cm^3
# Si number density = 25.046925 Si / 1000 Ang^3
#
#
#
# Elastic Constant Matrix: (Units=GPa)
#
#
# Indices 1 2 3 4 5 6 
#
# 1 114.8372 53.3350 28.2987 0.0000 -13.4924 0.0000
# 2 53.3350 217.8999 71.9686 0.0000 -6.6476 0.0000
# 3 28.2987 71.9686 60.4942 0.0000 -11.1858 0.0000
# 4 0.0000 0.0000 0.0000 36.7707 0.0000 3.3517
# 5 -13.4924 -6.6476 -11.1858 0.0000 48.0775 0.0000
# 6 0.0000 0.0000 0.0000 3.3517 0.0000 35.2600
#
#
#
# Elastic Compliance Matrix: (Units=1/GPa)
#
#
# Indices 1 2 3 4 5 6 
#
# 1 0.010330 -0.001641 -0.002493 0.000000 0.002092 0.000000
# 2 -0.001641 0.007876 -0.008867 0.000000 -0.001435 0.000000
# 3 -0.002493 -0.008867 0.029144 0.000000 0.004855 0.000000
# 4 0.000000 0.000000 0.000000 0.027433 0.000000 -0.002608
# 5 0.002092 -0.001435 0.004855 0.000000 0.022318 0.000000
# 6 0.000000 0.000000 0.000000 -0.002608 0.000000 0.028609
#
#
# Mechanical properties :
#
#
# Convention : Reuss Voigt Hill
#
# Bulk Modulus (GPa) = 46.84544 77.82618 62.33581
# Shear Modulus (GPa) = 31.48040 39.99691 35.73866
#
# Velocity S-wave (km/s) = 3.54906 4.00043 3.78149
# Velocity P-wave (km/s) = 5.96139 7.24414 6.63384
#
# Compressibility (1/GPa) = 0.02134679
#
# Stress axis : x y z
#
# Youngs Moduli (GPa) = 96.80148 126.96829 34.31272
#
# Poissons Ratio (x) = 0.20840 0.08554
# Poissons Ratio (y) = 0.15889 0.30426
# Poissons Ratio (z) = 0.24132 1.12587
#
# Static dielectric constant tensor:
#      x y z
#    x 2.029260 0.000000 -0.022420 
#    y 0.000000 1.948570 0.000000 
#    z -0.022420 0.000000 2.028330 
# 
# From -- ./inp_files/995.got.cif
#   From: 2010.05.17/outbox.cif.g08.bks.cpg/sg11_1_cif.got.tgz:995.got - 2010.06.03 12:22:45.
