data_PCOD9166802
_publ_section_title
;
Structure prediction by ZEFSAII (Michael W. Deem and Ramdas Pophale) SiO2 
 PCOD9166802
Probable space group: P 21/M
;
_chemical_formula_sum "Si O2"
_cell_formula_units_Z 18
_cell_length_a 6.001455
_cell_length_b 16.304249
_cell_length_c 10.447191
_cell_angle_alpha 90.000000
_cell_angle_beta 134.991237
_cell_angle_gamma 90.000000
_cell_volume 722.950067
_symmetry_space_group_name_H-M "P 21/M"
_symmetry_group_IT_number 11
_symmetry_cell_setting 'monoclinic'
loop_
_space_group_symop_operation_xyz
x,y,z
-x,1/2+y,-z
-x,-y,-z
x,1/2-y,z
loop_
_atom_site_type_symbol
_atom_site_label
_atom_site_fract_x
_atom_site_fract_y
_atom_site_fract_z
Si Si1 0.685546 0.110083 0.413023
Si Si2 0.409267 0.750000 0.184902
Si Si3 0.055981 0.250000 0.421095
Si Si4 0.858954 0.844301 0.204771
Si Si5 0.826451 0.750000 0.797628
Si Si6 0.676053 0.969072 0.938560
O O1 0.916674 0.169011 0.427570
O O2 0.874615 0.098727 0.621578
O O3 0.383218 0.169032 0.307333
O O4 0.577154 0.036199 0.279299
O O5 0.578159 0.750000 0.390572
O O6 0.551116 0.830703 0.169565
O O7 0.045793 0.750000 0.008426
O O8 0.947453 0.250000 0.232583
O O9 0.975339 0.750000 0.252760
O O10 0.766683 0.879883 0.031642
O O11 0.500000 0.000000 0.000000
O O12 0.000000 0.000000 0.000000
#
# Coordination Sequence:
#
# PCOD9166802 Si02
#       6
#     4   2   2   4   2   4
#     4  10  23  43  67 102 139 181 238 296 358 421
#     4   8  18  34  70 105 136 170 227 310 350 406
#     4   9  19  37  62 104 134 169 229 298 361 399
#     4   9  21  47  74 105 140 181 246 302 355 415
#     4  11  19  33  70 107 130 171 228 306 353 403
#     4  12  30  49  71 105 151 198 235 288 367 440
#
# _framework density 24.897986
#
# number of rings (size 3 to 8) (size 9 to 14) (size 15 to 20)
#    0.667    1.333    2.222    1.333    9.333    3.556 
#    4.000    1.111    0.000    0.000    0.000    0.000 
#    0.000    0.000    0.000    0.000    0.000    0.000 
#
# Total GULP energy -100285.607909 kJ/mol
# GULP energy per Si atom -5571.422662 kJ/mol
# Density = 2.484132 g / cm^3
# Si number density = 24.897986 Si / 1000 Ang^3
#
#
#
# Elastic Constant Matrix: (Units=GPa)
#
#
# Indices 1 2 3 4 5 6 
#
# 1 93.1721 25.9184 6.1849 0.0000 8.0048 0.0000
# 2 25.9184 36.8528 -0.9674 0.0000 3.8781 0.0000
# 3 6.1849 -0.9674 107.9021 0.0000 0.4192 0.0000
# 4 0.0000 0.0000 0.0000 25.4178 0.0000 -30.9105
# 5 8.0048 3.8781 0.4192 0.0000 40.1171 0.0000
# 6 0.0000 0.0000 0.0000 -30.9105 0.0000 6.4132
#
#
#
# Elastic Compliance Matrix: (Units=1/GPa)
#
#
# Indices 1 2 3 4 5 6 
#
# 1 0.013548 -0.009362 -0.000854 0.000000 -0.001789 0.000000
# 2 -0.009362 0.033891 0.000846 0.000000 -0.001417 0.000000
# 3 -0.000854 0.000846 0.009324 0.000000 -0.000009 0.000000
# 4 0.000000 0.000000 0.000000 -0.008093 0.000000 -0.039006
# 5 -0.001789 -0.001417 -0.000009 0.000000 0.025421 0.000000
# 6 0.000000 0.000000 0.000000 -0.039006 0.000000 -0.032075
#
#
# Mechanical properties :
#
#
# Convention : Reuss Voigt Hill
#
# Bulk Modulus (GPa) = 26.29974 33.35542 29.82758
# Shear Modulus (GPa) = 68.09310 28.17571 48.13441
#
# Velocity S-wave (km/s) = 5.23529 3.36764 4.40166
# Velocity P-wave (km/s) = 6.86514 5.34297 6.15132
#
# Compressibility (1/GPa) = 0.03802319
#
# Stress axis : x y z
#
# Youngs Moduli (GPa) = 73.81434 29.50672 107.24779
#
# Poissons Ratio (x) = 0.27624 0.09154
# Poissons Ratio (y) = 0.69105 -0.09073
# Poissons Ratio (z) = 0.06300 -0.02496
#
# Static dielectric constant tensor:
#      x y z
#    x 2.078680 0.000000 0.066170 
#    y 0.000000 2.052680 0.000000 
#    z 0.066170 0.000000 1.957200 
# 
# From -- ./inp_files/29851.got.cif
#   From: 2010.05.17/outbox.cif.g08.bks.cpg/sg11_15_cif.got.tgz:29851.got - 2010.06.03 12:22:45.
