data_PCOD9166667
_publ_section_title
;
Structure prediction by ZEFSAII (Michael W. Deem and Ramdas Pophale) SiO2 
 PCOD9166667
Probable space group: P 21/M
;
_chemical_formula_sum "Si O2"
_cell_formula_units_Z 26
_cell_length_a 9.027311
_cell_length_b 19.517832
_cell_length_c 8.937391
_cell_angle_alpha 90.000000
_cell_angle_beta 43.365997
_cell_angle_gamma 90.000000
_cell_volume 1081.284755
_symmetry_space_group_name_H-M "P 21/M"
_symmetry_group_IT_number 11
_symmetry_cell_setting 'monoclinic'
loop_
_space_group_symop_operation_xyz
x,y,z
-x,1/2+y,-z
-x,-y,-z
x,1/2-y,z
loop_
_atom_site_type_symbol
_atom_site_label
_atom_site_fract_x
_atom_site_fract_y
_atom_site_fract_z
Si Si1 0.585988 0.510831 0.193306
Si Si2 0.875395 0.867256 0.430485
Si Si3 0.030321 0.250000 0.200840
Si Si4 0.491853 0.901571 0.523612
Si Si5 0.270218 0.550779 0.199519
Si Si6 0.409682 0.750000 0.535676
Si Si7 0.070535 0.250000 0.830727
Si Si8 0.608042 0.675414 0.907057
O O1 0.639743 0.457694 0.286281
O O2 0.538586 0.580799 0.317122
O O3 0.362883 0.503827 0.262650
O O4 0.747727 0.494094 0.939079
O O5 0.722101 0.908399 0.433074
O O6 0.983034 0.813816 0.236237
O O7 0.717626 0.830926 0.664042
O O8 0.049088 0.911352 0.389701
O O9 0.785099 0.250000 0.444709
O O10 0.183222 0.186340 0.136754
O O11 0.975622 0.250000 0.065370
O O12 0.397174 0.826273 0.614267
O O13 0.449149 0.611941 0.048544
O O14 0.671432 0.750000 0.317609
O O15 0.494952 0.750000 0.000341
#
# Coordination Sequence:
#
# PCOD9166667 Si02
#       8
#     4   4   2   4   4   2   2   4
#     4  10  24  46  65  98 139 178 224 277 335 398
#     4  11  23  41  68  98 134 180 221 274 348 393
#     4  10  25  38  66 104 133 173 220 281 346 389
#     4  10  23  45  70 100 137 172 227 283 329 405
#     4  11  25  43  69  93 137 185 223 273 337 409
#     4  10  24  42  72  96 138 168 216 284 342 378
#     4  10  23  38  62 104 133 163 232 279 326 411
#     4  10  24  42  62 101 139 170 226 285 326 404
#
# _framework density 24.045470000000002
#
# number of rings (size 3 to 8) (size 9 to 14) (size 15 to 20)
#    0.462    1.231    2.308    0.000    9.692    1.231 
#    0.000    0.000    0.000    0.000    0.000    0.000 
#    0.000    0.000    0.000    0.000    0.000    0.000 
#
# Total GULP energy -144809.168154 kJ/mol
# GULP energy per Si atom -5569.583391 kJ/mol
# Density = 2.399074 g / cm^3
# Si number density = 24.045470 Si / 1000 Ang^3
#
#
#
# Elastic Constant Matrix: (Units=GPa)
#
#
# Indices 1 2 3 4 5 6 
#
# 1 48.6977 19.2588 20.8635 0.0000 -1.0338 0.0000
# 2 19.2588 75.7920 29.5749 0.0000 9.2913 0.0000
# 3 20.8635 29.5749 49.5114 0.0000 19.1226 0.0000
# 4 0.0000 0.0000 0.0000 22.2145 0.0000 3.8514
# 5 -1.0338 9.2913 19.1226 0.0000 47.2358 0.0000
# 6 0.0000 0.0000 0.0000 3.8514 0.0000 28.7746
#
#
#
# Elastic Compliance Matrix: (Units=1/GPa)
#
#
# Indices 1 2 3 4 5 6 
#
# 1 0.026921 -0.002928 -0.011907 0.000000 0.005985 0.000000
# 2 -0.002928 0.017556 -0.009358 0.000000 0.000271 0.000000
# 3 -0.011907 -0.009358 0.035790 0.000000 -0.012909 0.000000
# 4 0.000000 0.000000 0.000000 0.046085 0.000000 -0.006168
# 5 0.005985 0.000271 -0.012909 0.000000 0.026474 0.000000
# 6 0.000000 0.000000 0.000000 -0.006168 0.000000 0.035579
#
#
# Mechanical properties :
#
#
# Convention : Reuss Voigt Hill
#
# Bulk Modulus (GPa) = 31.36551 34.82173 33.09362
# Shear Modulus (GPa) = 20.20869 26.59857 23.40363
#
# Velocity S-wave (km/s) = 2.90217 3.32953 3.12317
# Velocity P-wave (km/s) = 4.92978 5.41240 5.17672
#
# Compressibility (1/GPa) = 0.03188215
#
# Stress axis : x y z
#
# Youngs Moduli (GPa) = 37.14548 56.95944 27.94061
#
# Poissons Ratio (x) = 0.16679 0.33268
# Poissons Ratio (y) = 0.10877 0.26146
# Poissons Ratio (z) = 0.44228 0.53301
#
# Static dielectric constant tensor:
#      x y z
#    x 1.903910 0.000000 -0.006760 
#    y 0.000000 1.996090 0.000000 
#    z -0.006760 0.000000 1.985710 
# 
# From -- ./inp_files/14524.got.cif
#   From: 2010.05.17/outbox.cif.g08.bks.cpg/sg11_8_cif.got.tgz:14524.got - 2010.06.03 12:22:45.
