data_PCOD9166845
_publ_section_title
;
Structure prediction by ZEFSAII (Michael W. Deem and Ramdas Pophale) SiO2 
 PCOD9166845
Probable space group: P 21/M
;
_chemical_formula_sum "Si O2"
_cell_formula_units_Z 26
_cell_length_a 24.374305
_cell_length_b 9.438276
_cell_length_c 11.922302
_cell_angle_alpha 90.000000
_cell_angle_beta 151.527565
_cell_angle_gamma 90.000000
_cell_volume 1307.563821
_symmetry_space_group_name_H-M "P 21/M"
_symmetry_group_IT_number 11
_symmetry_cell_setting 'monoclinic'
loop_
_space_group_symop_operation_xyz
x,y,z
-x,1/2+y,-z
-x,-y,-z
x,1/2-y,z
loop_
_atom_site_type_symbol
_atom_site_label
_atom_site_fract_x
_atom_site_fract_y
_atom_site_fract_z
Si Si1 0.622361 0.080116 0.727043
Si Si2 0.931914 0.917356 0.974049
Si Si3 0.721189 0.583437 0.114899
Si Si4 0.018581 0.998678 0.374365
Si Si5 0.044409 0.750000 0.604014
Si Si6 0.708933 0.415292 0.633992
Si Si7 0.478925 0.416365 0.075573
O O1 0.608009 0.250000 0.716057
O O2 0.685327 0.056113 0.722202
O O3 0.500000 0.000000 0.500000
O O4 0.691811 0.013291 0.955414
O O5 0.929526 0.750000 0.947327
O O6 0.990455 0.946565 0.199779
O O7 0.804582 0.982450 0.755782
O O8 0.000000 0.000000 0.000000
O O9 0.701067 0.750000 0.051503
O O10 0.852766 0.563938 0.386752
O O11 0.635099 0.542028 0.060418
O O12 0.015760 0.871820 0.457703
O O13 0.936601 0.124845 0.267612
O O14 0.742625 0.250000 0.680677
O O15 0.587716 0.434880 0.352838
O O16 0.468384 0.250000 0.030683
O O17 0.500000 0.500000 0.000000
#
# Coordination Sequence:
#
# PCOD9166845 Si02
#       7
#     4   4   4   4   2   4   4
#     4  11  23  40  66  99 138 176 219 270 335 401
#     4  12  29  48  70  99 138 182 234 283 338 413
#     4  11  24  42  67  99 137 175 215 275 337 404
#     4  11  25  44  70 103 136 180 229 281 344 407
#     4  10  24  44  68  98 140 174 228 282 340 402
#     4  10  24  45  69  96 134 178 218 277 337 394
#     4  10  23  45  66  93 130 172 220 270 328 391
#
# _framework density 19.884308000000001
#
# number of rings (size 3 to 8) (size 9 to 14) (size 15 to 20)
#    0.000    1.231    3.077    0.923    9.692    2.462 
#    0.000    0.000    0.000    0.000    0.000    0.000 
#    0.000    0.000    0.000    0.000    0.000    0.000 
#
# Total GULP energy -144908.923071 kJ/mol
# GULP energy per Si atom -5573.420118 kJ/mol
# Density = 1.983905 g / cm^3
# Si number density = 19.884308 Si / 1000 Ang^3
#
#
#
# Elastic Constant Matrix: (Units=GPa)
#
#
# Indices 1 2 3 4 5 6 
#
# 1 104.1881 71.0905 12.0933 0.0000 -2.7692 0.0000
# 2 71.0905 126.1089 3.7919 0.0000 4.6481 0.0000
# 3 12.0933 3.7919 38.0728 0.0000 3.3079 0.0000
# 4 0.0000 0.0000 0.0000 35.9922 0.0000 -4.7145
# 5 -2.7692 4.6481 3.3079 0.0000 24.9522 0.0000
# 6 0.0000 0.0000 0.0000 -4.7145 0.0000 33.7026
#
#
#
# Elastic Compliance Matrix: (Units=1/GPa)
#
#
# Indices 1 2 3 4 5 6 
#
# 1 0.016688 -0.009421 -0.004730 0.000000 0.004234 0.000000
# 2 -0.009421 0.013320 0.001995 0.000000 -0.003791 0.000000
# 3 -0.004730 0.001995 0.027969 0.000000 -0.004605 0.000000
# 4 0.000000 0.000000 0.000000 0.028302 0.000000 0.003959
# 5 0.004234 -0.003791 -0.004605 0.000000 0.041863 0.000000
# 6 0.000000 0.000000 0.000000 0.003959 0.000000 0.030225
#
#
# Mechanical properties :
#
#
# Convention : Reuss Voigt Hill
#
# Bulk Modulus (GPa) = 29.70424 49.14682 39.42553
# Shear Modulus (GPa) = 25.78611 31.02232 28.40422
#
# Velocity S-wave (km/s) = 3.60503 3.95415 3.78362
# Velocity P-wave (km/s) = 5.68324 6.75404 6.24165
#
# Compressibility (1/GPa) = 0.03366523
#
# Stress axis : x y z
#
# Youngs Moduli (GPa) = 59.92326 75.07295 35.75344
#
# Poissons Ratio (x) = 0.70728 0.16912
# Poissons Ratio (y) = 0.56455 -0.07134
# Poissons Ratio (z) = 0.28345 -0.14979
#
# Static dielectric constant tensor:
#      x y z
#    x 1.685590 0.000000 0.030630 
#    y 0.000000 1.676030 0.000000 
#    z 0.030630 0.000000 1.728070 
# 
# From -- ./inp_files/44047.got.cif
#   From: 2010.05.17/outbox.cif.g08.bks.cpg/sg11_23_cif.got.tgz:44047.got - 2010.06.03 12:22:45.
