data_PCOD9166738
_publ_section_title
;
Structure prediction by ZEFSAII (Michael W. Deem and Ramdas Pophale) SiO2 
 PCOD9166738
Probable space group: P 21/M
;
_chemical_formula_sum "Si O2"
_cell_formula_units_Z 26
_cell_length_a 10.281860
_cell_length_b 24.372047
_cell_length_c 7.898424
_cell_angle_alpha 90.000000
_cell_angle_beta 145.297682
_cell_angle_gamma 90.000000
_cell_volume 1126.821365
_symmetry_space_group_name_H-M "P 21/M"
_symmetry_group_IT_number 11
_symmetry_cell_setting 'monoclinic'
loop_
_space_group_symop_operation_xyz
x,y,z
-x,1/2+y,-z
-x,-y,-z
x,1/2-y,z
loop_
_atom_site_type_symbol
_atom_site_label
_atom_site_fract_x
_atom_site_fract_y
_atom_site_fract_z
Si Si1 0.219886 0.862803 0.766277
Si Si2 0.861033 0.576945 0.175180
Si Si3 0.495447 0.659726 0.722671
Si Si4 0.794512 0.033712 0.699012
Si Si5 0.081870 0.750000 0.780044
Si Si6 0.798302 0.250000 0.729459
Si Si7 0.606839 0.033170 0.862240
Si Si8 0.853050 0.750000 0.194350
O O1 0.346559 0.844093 0.732261
O O2 0.201744 0.808191 0.861341
O O3 0.972094 0.890144 0.451960
O O4 0.366135 0.912373 0.000768
O O5 0.070626 0.578466 0.265359
O O6 0.629545 0.602495 0.847244
O O7 0.785553 0.513489 0.119367
O O8 0.352307 0.694127 0.431927
O O9 0.710117 0.698177 0.988161
O O10 0.659216 0.049771 0.723362
O O11 0.639071 0.996091 0.411416
O O12 0.000000 0.000000 0.000000
O O13 0.883882 0.750000 0.428057
O O14 0.038559 0.750000 0.933575
O O15 0.923229 0.250000 0.682122
#
# Coordination Sequence:
#
# PCOD9166738 Si02
#       8
#     4   4   4   4   2   2   4   2
#     4  12  25  44  69  98 141 177 237 293 346 426
#     4  11  22  40  71  98 138 188 226 289 355 418
#     4  11  23  43  72  97 142 184 224 294 365 411
#     4   9  21  42  64  96 143 179 231 290 341 417
#     4  12  25  48  73 101 134 180 239 293 352 413
#     4  11  25  47  76 102 138 185 239 295 357 424
#     4  10  23  41  67 101 136 184 236 285 352 419
#     4  11  22  51  69  97 140 181 234 294 347 419
#
# _framework density 23.073754000000001
#
# number of rings (size 3 to 8) (size 9 to 14) (size 15 to 20)
#    0.000    1.231    3.077    1.846    0.000   11.077 
#    5.538    0.000    3.385    0.000    0.000    0.000 
#    0.000    0.000    0.000    0.000    0.000    0.000 
#
# Total GULP energy -145064.044388 kJ/mol
# GULP energy per Si atom -5579.386323 kJ/mol
# Density = 2.302124 g / cm^3
# Si number density = 23.073754 Si / 1000 Ang^3
#
#
#
# Elastic Constant Matrix: (Units=GPa)
#
#
# Indices 1 2 3 4 5 6 
#
# 1 44.5398 23.3953 19.6642 0.0000 -5.9639 0.0000
# 2 23.3953 134.4373 28.6485 0.0000 -7.6475 0.0000
# 3 19.6642 28.6485 97.4344 0.0000 -10.1574 0.0000
# 4 0.0000 0.0000 0.0000 28.7509 0.0000 7.7401
# 5 -5.9639 -7.6475 -10.1574 0.0000 28.2880 0.0000
# 6 0.0000 0.0000 0.0000 7.7401 0.0000 32.8023
#
#
#
# Elastic Compliance Matrix: (Units=1/GPa)
#
#
# Indices 1 2 3 4 5 6 
#
# 1 0.026514 -0.003588 -0.003963 0.000000 0.003197 0.000000
# 2 -0.003588 0.008472 -0.001669 0.000000 0.000934 0.000000
# 3 -0.003963 -0.001669 0.011864 0.000000 0.002973 0.000000
# 4 0.000000 0.000000 0.000000 0.037141 0.000000 -0.008764
# 5 0.003197 0.000934 0.002973 0.000000 0.037345 0.000000
# 6 0.000000 0.000000 0.000000 -0.008764 0.000000 0.032554
#
#
# Mechanical properties :
#
#
# Convention : Reuss Voigt Hill
#
# Bulk Modulus (GPa) = 35.19941 46.64748 40.92344
# Shear Modulus (GPa) = 27.50293 31.61516 29.55905
#
# Velocity S-wave (km/s) = 3.45622 3.70561 3.58308
# Velocity P-wave (km/s) = 5.58709 6.21042 5.90698
#
# Compressibility (1/GPa) = 0.02840957
#
# Stress axis : x y z
#
# Youngs Moduli (GPa) = 37.71592 118.04051 84.28925
#
# Poissons Ratio (x) = 0.42350 0.33403
# Poissons Ratio (y) = 0.13531 0.14071
# Poissons Ratio (z) = 0.14946 0.19706
#
# Static dielectric constant tensor:
#      x y z
#    x 1.862570 0.000000 0.009650 
#    y 0.000000 2.067650 0.000000 
#    z 0.009650 0.000000 1.897610 
# 
# From -- ./inp_files/19761.got.cif
#   From: 2010.05.17/outbox.cif.g08.bks.cpg/sg11_10_cif.got.tgz:19761.got - 2010.06.03 12:22:45.
