data_PCOD9166745
_publ_section_title
;
Structure prediction by ZEFSAII (Michael W. Deem and Ramdas Pophale) SiO2 
 PCOD9166745
Probable space group: P 21/M
;
_chemical_formula_sum "Si O2"
_cell_formula_units_Z 24
_cell_length_a 8.942890
_cell_length_b 16.436903
_cell_length_c 16.419110
_cell_angle_alpha 90.000000
_cell_angle_beta 31.649401
_cell_angle_gamma 90.000000
_cell_volume 1266.412465
_symmetry_space_group_name_H-M "P 21/M"
_symmetry_group_IT_number 11
_symmetry_cell_setting 'monoclinic'
loop_
_space_group_symop_operation_xyz
x,y,z
-x,1/2+y,-z
-x,-y,-z
x,1/2-y,z
loop_
_atom_site_type_symbol
_atom_site_label
_atom_site_fract_x
_atom_site_fract_y
_atom_site_fract_z
Si Si1 0.628891 0.515190 0.351106
Si Si2 0.305478 0.346491 0.803341
Si Si3 0.764312 0.571224 0.595679
Si Si4 0.215207 0.843690 0.290381
Si Si5 0.236399 0.940803 0.116569
Si Si6 0.654553 0.154468 0.090611
O O1 0.500000 0.500000 0.500000
O O2 0.598751 0.603473 0.321007
O O3 0.468960 0.456831 0.362238
O O4 0.967694 0.509712 0.205905
O O5 0.331485 0.250000 0.776553
O O6 0.507485 0.368031 0.785413
O O7 0.973689 0.363792 0.976434
O O8 0.588056 0.599611 0.755836
O O9 0.000000 0.500000 0.500000
O O10 0.947246 0.644856 0.474119
O O11 0.245736 0.750000 0.251051
O O12 0.169633 0.901867 0.234805
O O13 0.313894 0.868786 0.018375
O O14 0.500000 0.000000 0.000000
O O15 0.596582 0.250000 0.129190
#
# Coordination Sequence:
#
# PCOD9166745 Si02
#       6
#     4   4   4   4   4   4
#     4  11  23  40  60  90 124 161 203 255 302 366
#     4   9  21  40  64  87 119 162 210 254 309 364
#     4  12  23  40  64  89 125 160 210 250 305 366
#     4  11  22  40  64  90 121 163 205 252 305 370
#     4  11  24  39  65  91 124 159 204 251 309 361
#     4  10  23  42  62  89 124 163 203 256 308 362
#
# _framework density 18.951170999999999
#
# number of rings (size 3 to 8) (size 9 to 14) (size 15 to 20)
#    0.000    1.333    3.333    2.000    2.333    2.000 
#    0.000    0.000    0.000    0.000    0.000    0.000 
#    0.000    0.000    0.000    0.000    0.000    0.000 
#
# Total GULP energy -133919.745953 kJ/mol
# GULP energy per Si atom -5579.989415 kJ/mol
# Density = 1.890804 g / cm^3
# Si number density = 18.951171 Si / 1000 Ang^3
#
#
#
# Elastic Constant Matrix: (Units=GPa)
#
#
# Indices 1 2 3 4 5 6 
#
# 1 99.5642 21.7138 28.5281 0.0000 -20.5352 0.0000
# 2 21.7138 42.2449 26.1583 0.0000 -16.1241 0.0000
# 3 28.5281 26.1583 93.2927 0.0000 -0.3680 0.0000
# 4 0.0000 0.0000 0.0000 34.6691 0.0000 -0.9319
# 5 -20.5352 -16.1241 -0.3680 0.0000 30.8426 0.0000
# 6 0.0000 0.0000 0.0000 -0.9319 0.0000 28.3833
#
#
#
# Elastic Compliance Matrix: (Units=1/GPa)
#
#
# Indices 1 2 3 4 5 6 
#
# 1 0.012995 -0.001518 -0.003517 0.000000 0.007816 0.000000
# 2 -0.001518 0.037788 -0.010058 0.000000 0.018624 0.000000
# 3 -0.003517 -0.010058 0.014585 0.000000 -0.007426 0.000000
# 4 0.000000 0.000000 0.000000 0.028870 0.000000 0.000948
# 5 0.007816 0.018624 -0.007426 0.000000 0.047275 0.000000
# 6 0.000000 0.000000 0.000000 0.000948 0.000000 0.035263
#
#
# Mechanical properties :
#
#
# Convention : Reuss Voigt Hill
#
# Bulk Modulus (GPa) = 28.42344 43.10024 35.76184
# Shear Modulus (GPa) = 22.86351 29.35912 26.11131
#
# Velocity S-wave (km/s) = 3.47716 3.94026 3.71593
# Velocity P-wave (km/s) = 5.58137 6.59492 6.10920
#
# Compressibility (1/GPa) = 0.03518223
#
# Stress axis : x y z
#
# Youngs Moduli (GPa) = 76.95401 26.46332 68.56226
#
# Poissons Ratio (x) = 0.04017 0.24115
# Poissons Ratio (y) = 0.11682 0.68958
# Poissons Ratio (z) = 0.27066 0.26616
#
# Static dielectric constant tensor:
#      x y z
#    x 1.664540 0.000000 -0.008360 
#    y 0.000000 1.664110 0.000000 
#    z -0.008360 0.000000 1.638950 
# 
# From -- ./inp_files/22656.got.cif
#   From: 2010.05.17/outbox.cif.g08.bks.cpg/sg11_12_cif.got.tgz:22656.got - 2010.06.03 12:22:45.
