data_PCOD9166380
_publ_section_title
;
Structure prediction by ZEFSAII (Michael W. Deem and Ramdas Pophale) SiO2 
 PCOD9166380
Probable space group: P 21/M
;
_chemical_formula_sum "Si O2"
_cell_formula_units_Z 20
_cell_length_a 9.645850
_cell_length_b 19.552029
_cell_length_c 5.020668
_cell_angle_alpha 90.000000
_cell_angle_beta 71.936875
_cell_angle_gamma 90.000000
_cell_volume 900.211191
_symmetry_space_group_name_H-M "P 21/M"
_symmetry_group_IT_number 11
_symmetry_cell_setting 'monoclinic'
loop_
_space_group_symop_operation_xyz
x,y,z
-x,1/2+y,-z
-x,-y,-z
x,1/2-y,z
loop_
_atom_site_type_symbol
_atom_site_label
_atom_site_fract_x
_atom_site_fract_y
_atom_site_fract_z
Si Si1 0.885099 0.171542 0.432164
Si Si2 0.736650 0.546412 0.203801
Si Si3 0.823881 0.674167 0.425220
Si Si4 0.424439 0.091144 0.218936
Si Si5 0.230438 0.902053 0.998059
O O1 0.838192 0.250000 0.504733
O O2 0.847493 0.149869 0.156774
O O3 0.053403 0.167773 0.422349
O O4 0.804118 0.120582 0.682909
O O5 0.838650 0.611001 0.212919
O O6 0.647372 0.536782 0.532177
O O7 0.814631 0.479066 0.052563
O O8 0.622484 0.569526 0.046998
O O9 0.833491 0.750000 0.301505
O O10 0.665234 0.659349 0.647188
O O11 0.595326 0.098790 0.147858
#
# Coordination Sequence:
#
# PCOD9166380 Si02
#       5
#     4   4   4   4   4
#     4  11  26  43  61  91 131 169 206 262 320 369
#     4  10  22  40  69  95 125 163 213 258 317 364
#     4   9  24  43  63  89 129 170 211 256 313 377
#     4  10  22  41  64  96 122 167 207 258 313 373
#     4  12  23  42  68  94 130 161 211 265 313 376
#
# _framework density 22.217010999999999
#
# number of rings (size 3 to 8) (size 9 to 14) (size 15 to 20)
#    1.200    0.400    0.000    4.200    2.800    4.000 
#    0.000    0.000    0.000    0.000    0.000    0.000 
#    0.000    0.000    0.000    0.000    0.000    0.000 
#
# Total GULP energy -111725.445165 kJ/mol
# GULP energy per Si atom -5586.272258 kJ/mol
# Density = 2.216644 g / cm^3
# Si number density = 22.217011 Si / 1000 Ang^3
#
#
#
# Elastic Constant Matrix: (Units=GPa)
#
#
# Indices 1 2 3 4 5 6 
#
# 1 65.3260 31.2294 3.1323 0.0000 6.1669 0.0000
# 2 31.2294 105.2929 -18.2408 0.0000 2.7841 0.0000
# 3 3.1323 -18.2408 49.6965 0.0000 9.0792 0.0000
# 4 0.0000 0.0000 0.0000 22.4023 0.0000 7.7585
# 5 6.1669 2.7841 9.0792 0.0000 37.7543 0.0000
# 6 0.0000 0.0000 0.0000 7.7585 0.0000 20.2264
#
#
#
# Elastic Compliance Matrix: (Units=1/GPa)
#
#
# Indices 1 2 3 4 5 6 
#
# 1 0.018472 -0.005951 -0.003010 0.000000 -0.001855 0.000000
# 2 -0.005951 0.012167 0.005049 0.000000 -0.001139 0.000000
# 3 -0.003010 0.005049 0.023161 0.000000 -0.005450 0.000000
# 4 0.000000 0.000000 0.000000 0.051477 0.000000 -0.019746
# 5 -0.001855 -0.001139 -0.005450 0.000000 0.028185 0.000000
# 6 0.000000 0.000000 0.000000 -0.019746 0.000000 0.057014
#
#
# Mechanical properties :
#
#
# Convention : Reuss Voigt Hill
#
# Bulk Modulus (GPa) = 21.75009 28.06191 24.90600
# Shear Modulus (GPa) = 23.40546 29.68956 26.54751
#
# Velocity S-wave (km/s) = 3.24928 3.65957 3.46051
# Velocity P-wave (km/s) = 4.88755 5.52402 5.21551
#
# Compressibility (1/GPa) = 0.04597681
#
# Stress axis : x y z
#
# Youngs Moduli (GPa) = 54.13539 82.18795 43.17622
#
# Poissons Ratio (x) = 0.48911 0.12995
# Poissons Ratio (y) = 0.32217 -0.21800
# Poissons Ratio (z) = 0.16294 -0.41498
#
# Static dielectric constant tensor:
#      x y z
#    x 1.781360 0.000000 -0.030460 
#    y 0.000000 1.843400 0.000000 
#    z -0.030460 0.000000 1.800360 
# 
# From -- ./inp_files/2365.got.cif
#   From: 2010.05.17/outbox.cif.g08.bks.cpg/sg11_2_cif.got.tgz:2365.got - 2010.06.03 12:22:45.
