data_PCOD9166899
_publ_section_title
;
Structure prediction by ZEFSAII (Michael W. Deem and Ramdas Pophale) SiO2 
 PCOD9166899
Probable space group: P 21/M
;
_chemical_formula_sum "Si O2"
_cell_formula_units_Z 16
_cell_length_a 23.917933
_cell_length_b 5.701467
_cell_length_c 4.422857
_cell_angle_alpha 90.000000
_cell_angle_beta 76.549243
_cell_angle_gamma 90.000000
_cell_volume 586.589270
_symmetry_space_group_name_H-M "P 21/M"
_symmetry_group_IT_number 11
_symmetry_cell_setting 'monoclinic'
loop_
_space_group_symop_operation_xyz
x,y,z
-x,1/2+y,-z
-x,-y,-z
x,1/2-y,z
loop_
_atom_site_type_symbol
_atom_site_label
_atom_site_fract_x
_atom_site_fract_y
_atom_site_fract_z
Si Si1 0.330081 0.000510 0.425530
Si Si2 0.557007 0.500149 0.135324
Si Si3 0.969757 0.250000 0.110980
Si Si4 0.114311 0.750000 0.282273
Si Si5 0.797213 0.499085 0.458689
O O1 0.330842 0.750000 0.592641
O O2 0.330108 0.250000 0.597302
O O3 0.268266 0.003551 0.335136
O O4 0.385677 0.000843 0.141677
O O5 0.556678 0.250000 0.304348
O O6 0.556614 0.750000 0.305409
O O7 0.500000 0.500000 0.000000
O O8 0.948861 0.250000 0.482264
O O9 0.907596 0.250000 0.027998
O O10 0.000000 0.500000 0.000000
O O11 0.153408 0.536000 0.352878
O O12 0.806223 0.750000 0.294020
O O13 0.797221 0.250000 0.281130
#
# Coordination Sequence:
#
# PCOD9166899 Si02
#       5
#     4   4   2   2   4
#     4   8  12  20  32  55  82 120 167 210 264 311
#     4   8  12  16  24  40  71 113 160 202 256 306
#     4  12  28  44  68  92 124 156 192 234 280 340
#     4  10  24  42  66  90 122 154 196 232 288 338
#     4   8  16  28  51  74 104 138 182 225 277 324
#
# _framework density 27.276327999999999
#
# number of rings (size 3 to 8) (size 9 to 14) (size 15 to 20)
#    0.750    2.500    0.000    0.750    3.500    0.000 
#    0.000    0.000    0.000    0.000    0.000    0.000 
#    0.000    0.000    0.000    2.250    6.000    0.000 
#
# Total GULP energy -89136.063245 kJ/mol
# GULP energy per Si atom -5571.003953 kJ/mol
# Density = 2.721425 g / cm^3
# Si number density = 27.276328 Si / 1000 Ang^3
#
#
#
# Elastic Constant Matrix: (Units=GPa)
#
#
# Indices 1 2 3 4 5 6 
#
# 1 211.9443 26.6669 30.3397 0.0000 -15.6168 0.0000
# 2 26.6669 364.2345 27.0099 0.0000 -1.6491 0.0000
# 3 30.3397 27.0099 52.7157 0.0000 -18.3017 0.0000
# 4 0.0000 0.0000 0.0000 -3.2172 0.0000 -9.1096
# 5 -15.6168 -1.6491 -18.3017 0.0000 35.5751 0.0000
# 6 0.0000 0.0000 0.0000 -9.1096 0.0000 30.9137
#
#
#
# Elastic Compliance Matrix: (Units=1/GPa)
#
#
# Indices 1 2 3 4 5 6 
#
# 1 0.005177 -0.000185 -0.002555 0.000000 0.000950 0.000000
# 2 -0.000185 0.002877 -0.001643 0.000000 -0.000793 0.000000
# 3 -0.002555 -0.001643 0.025403 0.000000 0.011871 0.000000
# 4 0.000000 0.000000 0.000000 -0.169446 0.000000 -0.049932
# 5 0.000950 -0.000793 0.011871 0.000000 0.034597 0.000000
# 6 0.000000 0.000000 0.000000 -0.049932 0.000000 0.017634
#
#
# Mechanical properties :
#
#
# Convention : Reuss Voigt Hill
#
# Bulk Modulus (GPa) = 40.50008 88.54751 64.52380
# Shear Modulus (GPa) = -74.89559 48.97952 -12.95803
#
# Velocity S-wave (km/s) = -5.24573 4.24214 -2.18196
# Velocity P-wave (km/s) = 4.67011 7.51851 4.16641
#
# Compressibility (1/GPa) = 0.02469131
#
# Stress axis : x y z
#
# Youngs Moduli (GPa) = 193.15227 347.54885 39.36483
#
# Poissons Ratio (x) = 0.06439 0.10058
# Poissons Ratio (y) = 0.03579 0.06468
# Poissons Ratio (z) = 0.49352 0.57102
#
# Static dielectric constant tensor:
#      x y z
#    x 2.075440 0.000000 -0.050520 
#    y 0.000000 2.216160 0.000000 
#    z -0.050520 0.000000 2.037500 
# 
# From -- ./inp_files/9201.got.cif
#   From: 2010.05.17/outbox.cif.g08.bks.cpg/sg11_5_cif.got.tgz:9201.got - 2010.06.03 12:22:45.
