data_PCOD9166414
_publ_section_title
;
Structure prediction by ZEFSAII (Michael W. Deem and Ramdas Pophale) SiO2 
 PCOD9166414
Probable space group: P 21/M
;
_chemical_formula_sum "Si O2"
_cell_formula_units_Z 32
_cell_length_a 24.379233
_cell_length_b 8.774985
_cell_length_c 13.269151
_cell_angle_alpha 90.000000
_cell_angle_beta 32.397162
_cell_angle_gamma 90.000000
_cell_volume 1520.897989
_symmetry_space_group_name_H-M "P 21/M"
_symmetry_group_IT_number 11
_symmetry_cell_setting 'monoclinic'
loop_
_space_group_symop_operation_xyz
x,y,z
-x,1/2+y,-z
-x,-y,-z
x,1/2-y,z
loop_
_atom_site_type_symbol
_atom_site_label
_atom_site_fract_x
_atom_site_fract_y
_atom_site_fract_z
Si Si1 0.887413 0.930853 0.685258
Si Si2 0.405036 0.069675 0.086361
Si Si3 0.026931 0.426899 0.796717
Si Si4 0.809433 0.431581 0.603134
Si Si5 0.844499 0.573961 0.195541
Si Si6 0.652911 0.430718 0.417630
Si Si7 0.259730 0.570362 0.936964
Si Si8 0.442502 0.571265 0.812483
O O1 0.890576 0.750000 0.669566
O O2 0.820839 0.003188 0.698161
O O3 0.835038 0.977745 0.871442
O O4 0.000000 0.000000 0.500000
O O5 0.400660 0.250000 0.108683
O O6 0.294762 0.996998 0.283481
O O7 0.500000 0.000000 0.000000
O O8 0.423307 0.028327 0.941184
O O9 0.010110 0.250000 0.795482
O O10 0.091406 0.511833 0.611609
O O11 0.096175 0.431866 0.790508
O O12 0.921114 0.505143 0.993050
O O13 0.805054 0.250000 0.613032
O O14 0.820884 0.750000 0.209797
O O15 0.741367 0.476651 0.358474
O O16 0.632507 0.250000 0.451484
O O17 0.550474 0.522631 0.598223
O O18 0.700411 0.471230 0.235197
O O19 0.233013 0.750000 0.977802
O O20 0.354215 0.548513 0.867060
O O21 0.442775 0.750000 0.840672
#
# Coordination Sequence:
#
# PCOD9166414 Si02
#       8
#     4   4   4   4   4   4   4   4
#     4  12  26  44  69  98 133 175 221 271 328 392
#     4  12  26  45  69  99 133 174 221 270 330 393
#     4  10  22  41  65  91 126 169 215 263 321 384
#     4  12  25  44  69  99 134 173 219 271 329 392
#     4  10  22  41  63  92 128 167 214 266 321 382
#     4  11  24  40  64  95 129 168 215 266 321 384
#     4  10  23  44  67  93 129 170 214 265 323 385
#     4  11  23  43  68  94 129 169 215 268 323 385
#
# _framework density 21.040202000000001
#
# number of rings (size 3 to 8) (size 9 to 14) (size 15 to 20)
#    0.000    1.000    1.250    5.250    3.500    3.000 
#    0.000    0.000    0.000    0.000    0.000    0.000 
#    0.000    0.000    0.000    0.000    0.000    0.000 
#
# Total GULP energy -179175.508350 kJ/mol
# GULP energy per Si atom -5599.234636 kJ/mol
# Density = 2.099231 g / cm^3
# Si number density = 21.040202 Si / 1000 Ang^3
#
#
#
# Elastic Constant Matrix: (Units=GPa)
#
#
# Indices 1 2 3 4 5 6 
#
# 1 39.4510 8.3085 -1.3254 0.0000 -9.5421 0.0000
# 2 8.3085 99.4606 18.0767 0.0000 2.1997 0.0000
# 3 -1.3254 18.0767 86.2667 0.0000 -8.8198 0.0000
# 4 0.0000 0.0000 0.0000 40.6337 0.0000 1.6942
# 5 -9.5421 2.1997 -8.8198 0.0000 30.3686 0.0000
# 6 0.0000 0.0000 0.0000 1.6942 0.0000 28.3750
#
#
#
# Elastic Compliance Matrix: (Units=1/GPa)
#
#
# Indices 1 2 3 4 5 6 
#
# 1 0.028394 -0.002960 0.002051 0.000000 0.009732 0.000000
# 2 -0.002960 0.010822 -0.002565 0.000000 -0.002459 0.000000
# 3 0.002051 -0.002565 0.012620 0.000000 0.004496 0.000000
# 4 0.000000 0.000000 0.000000 0.024672 0.000000 -0.001473
# 5 0.009732 -0.002459 0.004496 0.000000 0.037470 0.000000
# 6 0.000000 0.000000 0.000000 -0.001473 0.000000 0.035330
#
#
# Mechanical properties :
#
#
# Convention : Reuss Voigt Hill
#
# Bulk Modulus (GPa) = 22.27646 30.58864 26.43255
# Shear Modulus (GPa) = 29.20250 33.21670 31.20960
#
# Velocity S-wave (km/s) = 3.72955 3.97763 3.85558
# Velocity P-wave (km/s) = 5.39968 5.97203 5.69305
#
# Compressibility (1/GPa) = 0.04489045
#
# Stress axis : x y z
#
# Youngs Moduli (GPa) = 35.21861 92.40462 79.23623
#
# Poissons Ratio (x) = 0.27352 -0.16255
# Poissons Ratio (y) = 0.10425 0.20320
# Poissons Ratio (z) = -0.07225 0.23697
#
# Static dielectric constant tensor:
#      x y z
#    x 1.742300 0.000000 -0.008890 
#    y 0.000000 1.692510 0.000000 
#    z -0.008890 0.000000 1.736630 
# 
# From -- ./inp_files/56166.got.cif
#   From: 2010.05.17/outbox.cif.g08.bks.cpg/sg11_29_cif.got.tgz:56166.got - 2010.06.03 12:22:45.
