data_PCOD9166676
_publ_section_title
;
Structure prediction by ZEFSAII (Michael W. Deem and Ramdas Pophale) SiO2 
 PCOD9166676
Probable space group: P 21/M
;
_chemical_formula_sum "Si O2"
_cell_formula_units_Z 28
_cell_length_a 9.852036
_cell_length_b 19.490675
_cell_length_c 9.337376
_cell_angle_alpha 90.000000
_cell_angle_beta 137.725715
_cell_angle_gamma 90.000000
_cell_volume 1206.108977
_symmetry_space_group_name_H-M "P 21/M"
_symmetry_group_IT_number 11
_symmetry_cell_setting 'monoclinic'
loop_
_space_group_symop_operation_xyz
x,y,z
-x,1/2+y,-z
-x,-y,-z
x,1/2-y,z
loop_
_atom_site_type_symbol
_atom_site_label
_atom_site_fract_x
_atom_site_fract_y
_atom_site_fract_z
Si Si1 0.989446 0.917193 0.449049
Si Si2 0.555062 0.572727 0.471116
Si Si3 0.608184 0.825671 0.056815
Si Si4 0.596087 0.123490 0.372825
Si Si5 0.169365 0.829822 0.854673
Si Si6 0.984054 0.055260 0.115458
Si Si7 0.409543 0.992040 0.085532
O O1 0.172359 0.897142 0.481714
O O2 0.049732 0.871432 0.636396
O O3 0.496110 0.934346 0.260249
O O4 0.000000 0.000000 0.500000
O O5 0.500000 0.500000 0.500000
O O6 0.451848 0.628149 0.495897
O O7 0.793381 0.573138 0.664617
O O8 0.696309 0.750000 0.155139
O O9 0.507598 0.823907 0.818196
O O10 0.404093 0.834782 0.991190
O O11 0.780125 0.883119 0.225238
O O12 0.470011 0.059040 0.216990
O O13 0.114625 0.750000 0.815699
O O14 0.117674 0.869087 0.962972
O O15 0.829200 0.016684 0.099392
O O16 0.000000 0.000000 0.000000
O O17 0.500000 0.000000 0.000000
#
# Coordination Sequence:
#
# PCOD9166676 Si02
#       7
#     4   4   4   4   4   4   4
#     4  11  25  35  71 109 144 186 249 308 375 451
#     4  10  23  41  61  96 143 185 226 306 380 430
#     4  10  23  44  67  98 149 203 245 302 384 469
#     4  10  23  39  63 101 145 179 240 302 376 436
#     4  10  25  45  66 101 151 199 251 311 378 463
#     4  12  24  41  72 100 140 197 251 312 376 452
#     4  11  24  40  64 105 144 180 242 313 373 437
#
# _framework density 23.215149
#
# number of rings (size 3 to 8) (size 9 to 14) (size 15 to 20)
#    0.000    1.429    2.857    2.143   10.000    2.857 
#    0.000    0.714    0.000    0.857    0.000    0.000 
#    0.000    0.000    0.000    0.000    0.000    0.000 
#
# Total GULP energy -155945.707028 kJ/mol
# GULP energy per Si atom -5569.489537 kJ/mol
# Density = 2.316231 g / cm^3
# Si number density = 23.215149 Si / 1000 Ang^3
#
#
#
# Elastic Constant Matrix: (Units=GPa)
#
#
# Indices 1 2 3 4 5 6 
#
# 1 172.7475 60.4604 65.1727 0.0000 4.9465 0.0000
# 2 60.4604 171.6501 61.6397 0.0000 -1.5630 0.0000
# 3 65.1727 61.6397 111.6511 0.0000 6.7530 0.0000
# 4 0.0000 0.0000 0.0000 29.1162 0.0000 3.7839
# 5 4.9465 -1.5630 6.7530 0.0000 59.2145 0.0000
# 6 0.0000 0.0000 0.0000 3.7839 0.0000 22.3800
#
#
#
# Elastic Compliance Matrix: (Units=1/GPa)
#
#
# Indices 1 2 3 4 5 6 
#
# 1 0.007675 -0.001375 -0.003706 0.000000 -0.000255 0.000000
# 2 -0.001375 0.007538 -0.003401 0.000000 0.000702 0.000000
# 3 -0.003706 -0.003401 0.013074 0.000000 -0.001271 0.000000
# 4 0.000000 0.000000 0.000000 0.035117 0.000000 -0.005937
# 5 -0.000255 0.000702 -0.001271 0.000000 0.017073 0.000000
# 6 0.000000 0.000000 0.000000 -0.005937 0.000000 0.045687
#
#
# Mechanical properties :
#
#
# Convention : Reuss Voigt Hill
#
# Bulk Modulus (GPa) = 88.31272 92.28826 90.30049
# Shear Modulus (GPa) = 34.03625 40.06053 37.04839
#
# Velocity S-wave (km/s) = 3.83315 4.15857 3.99917
# Velocity P-wave (km/s) = 7.59699 7.93082 7.76570
#
# Compressibility (1/GPa) = 0.01132340
#
# Stress axis : x y z
#
# Youngs Moduli (GPa) = 130.28581 132.66200 76.48652
#
# Poissons Ratio (x) = 0.18243 0.28344
# Poissons Ratio (y) = 0.17916 0.26015
# Poissons Ratio (z) = 0.48280 0.45122
#
# Static dielectric constant tensor:
#      x y z
#    x 2.085490 0.000000 0.012770 
#    y 0.000000 2.017040 0.000000 
#    z 0.012770 0.000000 1.998520 
# 
# From -- ./inp_files/32539.got.cif
#   From: 2010.05.17/outbox.cif.g08.bks.cpg/sg11_17_cif.got.tgz:32539.got - 2010.06.03 12:22:45.
