data_PCOD9166628
_publ_section_title
;
Structure prediction by ZEFSAII (Michael W. Deem and Ramdas Pophale) SiO2 
 PCOD9166628
Probable space group: P 21/M
;
_chemical_formula_sum "Si O2"
_cell_formula_units_Z 32
_cell_length_a 12.396143
_cell_length_b 16.881583
_cell_length_c 15.679036
_cell_angle_alpha 90.000000
_cell_angle_beta 151.256483
_cell_angle_gamma 90.000000
_cell_volume 1577.845429
_symmetry_space_group_name_H-M "P 21/M"
_symmetry_group_IT_number 11
_symmetry_cell_setting 'monoclinic'
loop_
_space_group_symop_operation_xyz
x,y,z
-x,1/2+y,-z
-x,-y,-z
x,1/2-y,z
loop_
_atom_site_type_symbol
_atom_site_label
_atom_site_fract_x
_atom_site_fract_y
_atom_site_fract_z
Si Si1 0.065431 0.841349 0.329347
Si Si2 0.028118 0.985977 0.419185
Si Si3 0.388790 0.846235 0.398376
Si Si4 0.452951 0.159854 0.083463
Si Si5 0.137340 0.924831 0.066374
Si Si6 0.303214 0.594244 0.911592
Si Si7 0.902048 0.843092 0.754260
Si Si8 0.478614 0.009202 0.785577
O O1 0.108062 0.750000 0.381140
O O2 0.056573 0.897564 0.404948
O O3 0.254598 0.868099 0.392335
O O4 0.816512 0.845631 0.115389
O O5 0.269608 0.027549 0.579033
O O6 0.000000 0.000000 0.500000
O O7 0.826958 0.024391 0.227751
O O8 0.384571 0.750000 0.392252
O O9 0.253331 0.881320 0.225254
O O10 0.646966 0.874973 0.570719
O O11 0.503376 0.250000 0.148791
O O12 0.577890 0.146840 0.078741
O O13 0.520057 0.083870 0.187541
O O14 0.311020 0.963414 0.121680
O O15 0.987669 0.865327 0.907476
O O16 0.000000 0.000000 0.000000
O O17 0.098095 0.631193 0.824200
O O18 0.490663 0.559693 0.105952
O O19 0.882496 0.750000 0.730807
#
# Coordination Sequence:
#
# PCOD9166628 Si02
#       8
#     4   4   4   4   4   4   4   4
#     4  10  23  41  64  93 127 167 207 258 317 366
#     4  12  23  39  64  91 125 163 205 256 312 373
#     4  10  22  44  67  91 129 168 210 265 314 370
#     4  11  21  39  64  88 123 166 205 253 315 374
#     4  11  24  38  63  96 125 164 211 258 310 380
#     4  11  22  42  64  91 127 162 207 262 311 379
#     4  10  23  42  65  93 126 168 211 259 318 376
#     4  11  23  39  61  93 123 161 206 255 315 365
#
# _framework density 20.280821
#
# number of rings (size 3 to 8) (size 9 to 14) (size 15 to 20)
#    0.000    1.250    2.500    3.375    3.500    1.000 
#    0.000    0.625    0.000    5.250    0.000    0.000 
#    0.000    0.000    0.000    0.000    0.000    0.000 
#
# Total GULP energy -178520.344959 kJ/mol
# GULP energy per Si atom -5578.760780 kJ/mol
# Density = 2.023466 g / cm^3
# Si number density = 20.280821 Si / 1000 Ang^3
#
#
#
# Elastic Constant Matrix: (Units=GPa)
#
#
# Indices 1 2 3 4 5 6 
#
# 1 89.8003 34.3273 13.9553 0.0000 6.1731 0.0000
# 2 34.3273 53.4515 0.0165 0.0000 -1.3968 0.0000
# 3 13.9553 0.0165 55.9243 0.0000 15.4183 0.0000
# 4 0.0000 0.0000 0.0000 10.1609 0.0000 4.8698
# 5 6.1731 -1.3968 15.4183 0.0000 31.9028 0.0000
# 6 0.0000 0.0000 0.0000 4.8698 0.0000 32.2912
#
#
#
# Elastic Compliance Matrix: (Units=1/GPa)
#
#
# Indices 1 2 3 4 5 6 
#
# 1 0.015649 -0.010097 -0.003398 0.000000 -0.001828 0.000000
# 2 -0.010097 0.025248 0.001925 0.000000 0.002129 0.000000
# 3 -0.003398 0.001925 0.021372 0.000000 -0.009587 0.000000
# 4 0.000000 0.000000 0.000000 0.106084 0.000000 -0.015998
# 5 -0.001828 0.002129 -0.009587 0.000000 0.036425 0.000000
# 6 0.000000 0.000000 0.000000 -0.015998 0.000000 0.033381
#
#
# Mechanical properties :
#
#
# Convention : Reuss Voigt Hill
#
# Bulk Modulus (GPa) = 25.55625 32.86380 29.21002
# Shear Modulus (GPa) = 18.22546 24.92946 21.57746
#
# Velocity S-wave (km/s) = 3.00101 3.50982 3.26534
# Velocity P-wave (km/s) = 4.96353 5.71530 5.35263
#
# Compressibility (1/GPa) = 0.03912937
#
# Stress axis : x y z
#
# Youngs Moduli (GPa) = 63.90101 39.60724 46.79054
#
# Poissons Ratio (x) = 0.39991 0.15900
# Poissons Ratio (y) = 0.64520 -0.09008
# Poissons Ratio (z) = 0.21715 -0.07625
#
# Static dielectric constant tensor:
#      x y z
#    x 1.623320 0.000000 -0.030870 
#    y 0.000000 1.681320 0.000000 
#    z -0.030870 0.000000 1.743800 
# 
# From -- ./inp_files/50695.got.cif
#   From: 2010.05.17/outbox.cif.g08.bks.cpg/sg11_26_cif.got.tgz:50695.got - 2010.06.03 12:22:45.
