data_PCOD9166716
_publ_section_title
;
Structure prediction by ZEFSAII (Michael W. Deem and Ramdas Pophale) SiO2 
 PCOD9166716
Probable space group: P 21/M
;
_chemical_formula_sum "Si O2"
_cell_formula_units_Z 28
_cell_length_a 26.790315
_cell_length_b 8.766064
_cell_length_c 10.230903
_cell_angle_alpha 90.000000
_cell_angle_beta 38.304102
_cell_angle_gamma 90.000000
_cell_volume 1489.267358
_symmetry_space_group_name_H-M "P 21/M"
_symmetry_group_IT_number 11
_symmetry_cell_setting 'monoclinic'
loop_
_space_group_symop_operation_xyz
x,y,z
-x,1/2+y,-z
-x,-y,-z
x,1/2-y,z
loop_
_atom_site_type_symbol
_atom_site_label
_atom_site_fract_x
_atom_site_fract_y
_atom_site_fract_z
Si Si1 0.434568 0.566716 0.535596
Si Si2 0.984924 0.567431 0.175326
Si Si3 0.142931 0.067508 0.953519
Si Si4 0.196514 0.433530 0.370947
Si Si5 0.258663 0.066001 0.955196
Si Si6 0.260051 0.932342 0.498765
Si Si7 0.437685 0.566623 0.230939
O O1 0.500000 0.500000 0.500000
O O2 0.436149 0.750000 0.537828
O O3 0.345085 0.509228 0.753465
O O4 0.453459 0.518356 0.347598
O O5 0.989557 0.750000 0.157668
O O6 0.896346 0.525524 0.409126
O O7 0.000000 0.500000 0.000000
O O8 0.055064 0.505817 0.124891
O O9 0.135645 0.250000 0.966418
O O10 0.195537 0.022105 0.971533
O O11 0.191944 0.012290 0.725749
O O12 0.203841 0.250000 0.370300
O O13 0.249963 0.514085 0.371085
O O14 0.224100 0.473924 0.168584
O O15 0.268017 0.250000 0.930311
O O16 0.250977 0.750000 0.527206
O O17 0.346951 0.976583 0.377098
O O18 0.442316 0.750000 0.216933
O O19 0.500000 0.500000 0.000000
#
# Coordination Sequence:
#
# PCOD9166716 Si02
#       7
#     4   4   4   4   4   4   4
#     4  11  24  43  64  91 124 161 201 249 304 363
#     4  11  22  37  60  90 124 160 205 255 303 358
#     4  11  22  38  63  90 120 162 204 248 304 363
#     4  10  23  41  61  89 123 160 203 251 304 359
#     4  10  23  43  64  89 122 162 205 248 302 367
#     4  11  22  39  62  90 121 158 206 253 298 358
#     4  10  24  42  62  91 124 157 201 250 302 358
#
# _framework density 18.801190999999999
#
# number of rings (size 3 to 8) (size 9 to 14) (size 15 to 20)
#    0.000    1.429    2.857    1.714    2.000    4.571 
#    0.000    0.000    0.000    0.000    0.000    0.000 
#    0.000    0.000    0.000    0.000    0.000    0.000 
#
# Total GULP energy -156524.915987 kJ/mol
# GULP energy per Si atom -5590.175571 kJ/mol
# Density = 1.875840 g / cm^3
# Si number density = 18.801191 Si / 1000 Ang^3
#
#
#
# Elastic Constant Matrix: (Units=GPa)
#
#
# Indices 1 2 3 4 5 6 
#
# 1 171.4872 43.8835 65.9704 0.0000 6.8206 0.0000
# 2 43.8835 32.7792 33.5740 0.0000 0.8810 0.0000
# 3 65.9704 33.5740 120.1674 0.0000 13.0298 0.0000
# 4 0.0000 0.0000 0.0000 25.9956 0.0000 -4.4978
# 5 6.8206 0.8810 13.0298 0.0000 32.8969 0.0000
# 6 0.0000 0.0000 0.0000 -4.4978 0.0000 36.0239
#
#
#
# Elastic Compliance Matrix: (Units=1/GPa)
#
#
# Indices 1 2 3 4 5 6 
#
# 1 0.009315 -0.010226 -0.002170 0.000000 -0.000798 0.000000
# 2 -0.010226 0.054410 -0.010093 0.000000 0.004661 0.000000
# 3 -0.002170 -0.010093 0.012805 0.000000 -0.004352 0.000000
# 4 0.000000 0.000000 0.000000 0.039317 0.000000 0.004909
# 5 -0.000798 0.004661 -0.004352 0.000000 0.032162 0.000000
# 6 0.000000 0.000000 0.000000 0.004909 0.000000 0.028372
#
#
# Mechanical properties :
#
#
# Convention : Reuss Voigt Hill
#
# Bulk Modulus (GPa) = 31.69466 67.92107 49.80787
# Shear Modulus (GPa) = 21.56311 31.05033 26.30672
#
# Velocity S-wave (km/s) = 3.39027 4.06828 3.74465
# Velocity P-wave (km/s) = 5.67623 7.63363 6.72651
#
# Compressibility (1/GPa) = 0.03155106
#
# Stress axis : x y z
#
# Youngs Moduli (GPa) = 107.35666 18.37891 78.09534
#
# Poissons Ratio (x) = 0.18794 0.16947
# Poissons Ratio (y) = 1.09784 0.78823
# Poissons Ratio (z) = 0.23297 0.18550
#
# Static dielectric constant tensor:
#      x y z
#    x 1.642120 0.000000 0.000700 
#    y 0.000000 1.632900 0.000000 
#    z 0.000700 0.000000 1.621820 
# 
# From -- ./inp_files/28393.got.cif
#   From: 2010.05.17/outbox.cif.g08.bks.cpg/sg11_15_cif.got.tgz:28393.got - 2010.06.03 12:22:45.
