data_PCOD9166395
_publ_section_title
;
Structure prediction by ZEFSAII (Michael W. Deem and Ramdas Pophale) SiO2 
 PCOD9166395
Probable space group: P 21/M
;
_chemical_formula_sum "Si O2"
_cell_formula_units_Z 32
_cell_length_a 21.372270
_cell_length_b 8.878931
_cell_length_c 14.524499
_cell_angle_alpha 90.000000
_cell_angle_beta 35.735682
_cell_angle_gamma 90.000000
_cell_volume 1609.756440
_symmetry_space_group_name_H-M "P 21/M"
_symmetry_group_IT_number 11
_symmetry_cell_setting 'monoclinic'
loop_
_space_group_symop_operation_xyz
x,y,z
-x,1/2+y,-z
-x,-y,-z
x,1/2-y,z
loop_
_atom_site_type_symbol
_atom_site_label
_atom_site_fract_x
_atom_site_fract_y
_atom_site_fract_z
Si Si1 0.731410 0.418344 0.890647
Si Si2 0.567440 0.932534 0.627899
Si Si3 0.940130 0.569010 0.299999
Si Si4 0.340275 0.427485 0.846531
Si Si5 0.209161 0.929931 0.677602
Si Si6 0.085911 0.930291 0.467166
Si Si7 0.836660 0.070323 0.062924
Si Si8 0.510554 0.917278 0.891611
O O1 0.766607 0.250000 0.879864
O O2 0.802288 0.460830 0.718618
O O3 0.728746 0.529473 0.979821
O O4 0.609724 0.407464 0.003227
O O5 0.566819 0.750000 0.627387
O O6 0.572723 0.983510 0.729617
O O7 0.455679 0.991568 0.719054
O O8 0.672194 0.000251 0.456316
O O9 0.932749 0.750000 0.311118
O O10 0.853396 0.503912 0.332448
O O11 0.922941 0.503597 0.422283
O O12 0.057877 0.527307 0.120506
O O13 0.357015 0.250000 0.821163
O O14 0.268639 0.487963 0.848876
O O15 0.216115 0.750000 0.656631
O O16 0.149452 0.960525 0.845423
O O17 0.072747 0.750000 0.490542
O O18 0.000000 0.000000 0.500000
O O19 0.820875 0.250000 0.070952
O O20 0.553657 0.750000 0.857573
O O21 0.500000 0.000000 0.000000
#
# Coordination Sequence:
#
# PCOD9166395 Si02
#       8
#     4   4   4   4   4   4   4   4
#     4   9  20  38  56  79 117 160 196 237 297 355
#     4  10  22  41  61  87 125 165 202 248 309 368
#     4  11  24  42  64  91 125 164 205 254 313 371
#     4  11  22  37  63  95 123 158 206 258 307 363
#     4  11  24  42  65  92 122 160 208 258 308 366
#     4  11  23  39  60  89 123 162 205 251 301 358
#     4  10  23  43  65  88 120 163 206 254 313 372
#     4   9  19  34  54  80 110 150 192 233 283 345
#
# _framework density 19.878782999999999
#
# number of rings (size 3 to 8) (size 9 to 14) (size 15 to 20)
#    0.000    1.750    0.000    4.500    1.750    9.000 
#    0.000    0.000    0.000    0.000    0.000    0.000 
#    0.000    0.000    0.000    0.000    0.000    0.000 
#
# Total GULP energy -178708.457657 kJ/mol
# GULP energy per Si atom -5584.639302 kJ/mol
# Density = 1.983354 g / cm^3
# Si number density = 19.878783 Si / 1000 Ang^3
#
#
#
# Elastic Constant Matrix: (Units=GPa)
#
#
# Indices 1 2 3 4 5 6 
#
# 1 109.6388 44.1121 30.3655 0.0000 12.0136 0.0000
# 2 44.1121 63.9917 27.7366 0.0000 2.0837 0.0000
# 3 30.3655 27.7366 89.1447 0.0000 2.9145 0.0000
# 4 0.0000 0.0000 0.0000 26.7945 0.0000 0.1339
# 5 12.0136 2.0837 2.9145 0.0000 25.9509 0.0000
# 6 0.0000 0.0000 0.0000 0.1339 0.0000 25.1082
#
#
#
# Elastic Compliance Matrix: (Units=1/GPa)
#
#
# Indices 1 2 3 4 5 6 
#
# 1 0.013606 -0.008404 -0.001843 0.000000 -0.005417 0.000000
# 2 -0.008404 0.023272 -0.004461 0.000000 0.002523 0.000000
# 3 -0.001843 -0.004461 0.013242 0.000000 -0.000276 0.000000
# 4 0.000000 0.000000 0.000000 0.037322 0.000000 -0.000199
# 5 -0.005417 0.002523 -0.000276 0.000000 0.040870 0.000000
# 6 0.000000 0.000000 0.000000 -0.000199 0.000000 0.039829
#
#
# Mechanical properties :
#
#
# Convention : Reuss Voigt Hill
#
# Bulk Modulus (GPa) = 48.29696 51.91151 50.10424
# Shear Modulus (GPa) = 24.45493 26.27477 25.36485
#
# Velocity S-wave (km/s) = 3.51123 3.63953 3.57596
# Velocity P-wave (km/s) = 6.38645 6.62060 6.50458
#
# Compressibility (1/GPa) = 0.02070524
#
# Stress axis : x y z
#
# Youngs Moduli (GPa) = 73.49640 42.97084 75.51579
#
# Poissons Ratio (x) = 0.36113 0.13915
# Poissons Ratio (y) = 0.61768 0.33684
# Poissons Ratio (z) = 0.13543 0.19167
#
# Static dielectric constant tensor:
#      x y z
#    x 1.695540 0.000000 -0.016830 
#    y 0.000000 1.704540 0.000000 
#    z -0.016830 0.000000 1.776980 
# 
# From -- ./inp_files/54294.got.cif
#   From: 2010.05.17/outbox.cif.g08.bks.cpg/sg11_28_cif.got.tgz:54294.got - 2010.06.03 12:22:45.
