data_PCOD9166508
_publ_section_title
;
Structure prediction by ZEFSAII (Michael W. Deem and Ramdas Pophale) SiO2 
 PCOD9166508
Probable space group: P 21/M
;
_chemical_formula_sum "Si O2"
_cell_formula_units_Z 24
_cell_length_a 15.186272
_cell_length_b 9.003985
_cell_length_c 9.462650
_cell_angle_alpha 90.000000
_cell_angle_beta 79.889413
_cell_angle_gamma 90.000000
_cell_volume 1273.800853
_symmetry_space_group_name_H-M "P 21/M"
_symmetry_group_IT_number 11
_symmetry_cell_setting 'monoclinic'
loop_
_space_group_symop_operation_xyz
x,y,z
-x,1/2+y,-z
-x,-y,-z
x,1/2-y,z
loop_
_atom_site_type_symbol
_atom_site_label
_atom_site_fract_x
_atom_site_fract_y
_atom_site_fract_z
Si Si1 0.084001 0.571372 0.057907
Si Si2 0.082718 0.928353 0.393509
Si Si3 0.432216 0.580313 0.415007
Si Si4 0.553915 0.917996 0.104941
Si Si5 0.749808 0.929838 0.152355
Si Si6 0.246209 0.071985 0.514366
O O1 0.081698 0.750000 0.043906
O O2 0.080190 0.536401 0.226663
O O3 0.173731 0.506440 0.961878
O O4 0.000000 0.500000 0.000000
O O5 0.080327 0.750000 0.407690
O O6 0.170485 0.993665 0.443380
O O7 0.000000 0.000000 0.500000
O O8 0.500000 0.500000 0.500000
O O9 0.412911 0.750000 0.464817
O O10 0.486268 0.585312 0.254719
O O11 0.341612 0.487688 0.435827
O O12 0.571254 0.750000 0.051839
O O13 0.650627 0.977066 0.128271
O O14 0.500000 0.000000 0.000000
O O15 0.756216 0.750000 0.138028
O O16 0.761590 0.963915 0.315815
O O17 0.240446 0.250000 0.502052
#
# Coordination Sequence:
#
# PCOD9166508 Si02
#       6
#     4   4   4   4   4   4
#     4  11  25  43  65  93 125 160 201 251 305 366
#     4  11  25  44  65  95 127 159 202 255 308 367
#     4  11  22  40  63  91 126 165 210 258 306 364
#     4  10  23  41  60  88 126 165 208 258 305 361
#     4  10  22  42  63  89 125 163 205 254 306 362
#     4  11  23  41  65  93 125 164 208 257 309 365
#
# _framework density 18.841251
#
# number of rings (size 3 to 8) (size 9 to 14) (size 15 to 20)
#    0.000    1.333    1.667    3.000    2.333   10.000 
#    0.000    0.000    0.000    0.000    0.000    0.000 
#    0.000    0.000    0.000    0.000    0.000    0.000 
#
# Total GULP energy -134092.949127 kJ/mol
# GULP energy per Si atom -5587.206214 kJ/mol
# Density = 1.879837 g / cm^3
# Si number density = 18.841251 Si / 1000 Ang^3
#
#
#
# Elastic Constant Matrix: (Units=GPa)
#
#
# Indices 1 2 3 4 5 6 
#
# 1 198.5077 66.6856 102.9871 0.0000 8.4998 0.0000
# 2 66.6856 79.5293 72.9655 0.0000 11.4717 0.0000
# 3 102.9871 72.9655 129.9448 0.0000 13.1780 0.0000
# 4 0.0000 0.0000 0.0000 37.5805 0.0000 -0.0749
# 5 8.4998 11.4717 13.1780 0.0000 42.2680 0.0000
# 6 0.0000 0.0000 0.0000 -0.0749 0.0000 40.4371
#
#
#
# Elastic Compliance Matrix: (Units=1/GPa)
#
#
# Indices 1 2 3 4 5 6 
#
# 1 0.008722 -0.002069 -0.005814 0.000000 0.000620 0.000000
# 2 -0.002069 0.026701 -0.013074 0.000000 -0.002755 0.000000
# 3 -0.005814 -0.013074 0.019792 0.000000 -0.001453 0.000000
# 4 0.000000 0.000000 0.000000 0.026610 0.000000 0.000049
# 5 0.000620 -0.002755 -0.001453 0.000000 0.024735 0.000000
# 6 0.000000 0.000000 0.000000 0.000049 0.000000 0.024730
#
#
# Mechanical properties :
#
#
# Convention : Reuss Voigt Hill
#
# Bulk Modulus (GPa) = 75.17865 99.25091 87.21478
# Shear Modulus (GPa) = 28.14733 35.08001 31.61367
#
# Velocity S-wave (km/s) = 3.86932 4.31962 4.10066
# Velocity P-wave (km/s) = 7.74273 8.81310 8.29520
#
# Compressibility (1/GPa) = 0.01330165
#
# Stress axis : x y z
#
# Youngs Moduli (GPa) = 114.64640 37.45186 50.52592
#
# Poissons Ratio (x) = 0.07749 0.29376
# Poissons Ratio (y) = 0.23722 0.66056
# Poissons Ratio (z) = 0.66656 0.48963
#
# Static dielectric constant tensor:
#      x y z
#    x 1.529910 0.000000 -0.051170 
#    y 0.000000 1.649450 0.000000 
#    z -0.051170 0.000000 1.590270 
# 
# From -- ./inp_files/20397.got.cif
#   From: 2010.05.17/outbox.cif.g08.bks.cpg/sg11_11_cif.got.tgz:20397.got - 2010.06.03 12:22:45.
