data_PCOD9166312
_publ_section_title
;
Structure prediction by ZEFSAII (Michael W. Deem and Ramdas Pophale) SiO2 
 PCOD9166312
Probable space group: P 21/M
;
_chemical_formula_sum "Si O2"
_cell_formula_units_Z 32
_cell_length_a 15.087337
_cell_length_b 8.752389
_cell_length_c 24.578175
_cell_angle_alpha 90.000000
_cell_angle_beta 28.542969
_cell_angle_gamma 90.000000
_cell_volume 1550.783116
_symmetry_space_group_name_H-M "P 21/M"
_symmetry_group_IT_number 11
_symmetry_cell_setting 'monoclinic'
loop_
_space_group_symop_operation_xyz
x,y,z
-x,1/2+y,-z
-x,-y,-z
x,1/2-y,z
loop_
_atom_site_type_symbol
_atom_site_label
_atom_site_fract_x
_atom_site_fract_y
_atom_site_fract_z
Si Si1 0.308467 0.925303 0.038359
Si Si2 0.416828 0.068729 0.489513
Si Si3 0.301078 0.926602 0.173465
Si Si4 0.813139 0.433272 0.576263
Si Si5 0.903776 0.432186 0.404713
Si Si6 0.306916 0.432113 0.747683
Si Si7 0.412479 0.065064 0.814462
Si Si8 0.914241 0.568423 0.929195
O O1 0.283611 0.750000 0.034700
O O2 0.511056 0.986602 0.912011
O O3 0.297165 0.930722 0.109716
O O4 0.152224 0.029520 0.095583
O O5 0.405025 0.250000 0.500961
O O6 0.500000 0.000000 0.500000
O O7 0.217168 0.003846 0.578579
O O8 0.556394 0.019623 0.366367
O O9 0.312206 0.750000 0.185289
O O10 0.111169 0.002031 0.295350
O O11 0.820031 0.250000 0.577842
O O12 0.807682 0.466999 0.514636
O O13 0.624034 0.489883 0.706538
O O14 0.000000 0.500000 0.500000
O O15 0.909485 0.250000 0.395117
O O16 0.335127 0.250000 0.725844
O O17 0.348300 0.471614 0.787941
O O18 0.098698 0.479594 0.845437
O O19 0.418536 0.250000 0.815383
O O20 0.257215 0.014793 0.940561
O O21 0.942107 0.750000 0.921055
#
# Coordination Sequence:
#
# PCOD9166312 Si02
#       8
#     4   4   4   4   4   4   4   4
#     4  10  22  41  61  88 123 162 206 256 313 369
#     4  12  26  44  67  96 128 166 212 260 316 381
#     4  10  22  40  63  88 122 163 206 255 311 369
#     4  10  22  41  63  92 127 168 208 256 313 372
#     4  11  23  42  67  95 129 167 209 258 317 378
#     4  11  22  43  67  89 124 164 205 259 316 370
#     4   9  20  41  64  87 123 165 205 255 312 369
#     4  11  23  38  62  94 124 161 209 257 311 372
#
# _framework density 20.634734999999999
#
# number of rings (size 3 to 8) (size 9 to 14) (size 15 to 20)
#    0.000    1.500    1.250    3.375    3.500    2.500 
#    0.000    2.500    0.000    0.000    0.000    0.000 
#    0.000    0.000    0.000    0.000    0.000    0.000 
#
# Total GULP energy -178958.113648 kJ/mol
# GULP energy per Si atom -5592.441051 kJ/mol
# Density = 2.058777 g / cm^3
# Si number density = 20.634735 Si / 1000 Ang^3
#
#
#
# Elastic Constant Matrix: (Units=GPa)
#
#
# Indices 1 2 3 4 5 6 
#
# 1 57.7747 3.0638 -11.3926 0.0000 -15.6671 0.0000
# 2 3.0638 59.7942 6.4750 0.0000 5.7619 0.0000
# 3 -11.3926 6.4750 60.6740 0.0000 -18.1528 0.0000
# 4 0.0000 0.0000 0.0000 32.8824 0.0000 -6.5912
# 5 -15.6671 5.7619 -18.1528 0.0000 32.4911 0.0000
# 6 0.0000 0.0000 0.0000 -6.5912 0.0000 30.0667
#
#
#
# Elastic Compliance Matrix: (Units=1/GPa)
#
#
# Indices 1 2 3 4 5 6 
#
# 1 0.024671 -0.004208 0.010643 0.000000 0.018589 0.000000
# 2 -0.004208 0.018288 -0.005186 0.000000 -0.008170 0.000000
# 3 0.010643 -0.005186 0.025027 0.000000 0.020035 0.000000
# 4 0.000000 0.000000 0.000000 0.031809 0.000000 0.006973
# 5 0.018589 -0.008170 0.020035 0.000000 0.052383 0.000000
# 6 0.000000 0.000000 0.000000 0.006973 0.000000 0.034788
#
#
# Mechanical properties :
#
#
# Convention : Reuss Voigt Hill
#
# Bulk Modulus (GPa) = 14.18733 19.39282 16.79008
# Shear Modulus (GPa) = 24.04250 31.09448 27.56849
#
# Velocity S-wave (km/s) = 3.41713 3.88609 3.65913
# Velocity P-wave (km/s) = 4.73914 5.43637 5.09968
#
# Compressibility (1/GPa) = 0.07048542
#
# Stress axis : x y z
#
# Youngs Moduli (GPa) = 40.53283 54.67923 39.95608
#
# Poissons Ratio (x) = 0.23009 -0.42526
# Poissons Ratio (y) = 0.17056 0.20722
# Poissons Ratio (z) = -0.43140 0.28357
#
# Static dielectric constant tensor:
#      x y z
#    x 1.735990 0.000000 0.012350 
#    y 0.000000 1.692690 0.000000 
#    z 0.012350 0.000000 1.733600 
# 
# From -- ./inp_files/69053.got.cif
#   From: 2010.05.17/outbox.cif.g08.bks.cpg/sg11_35_cif.got.tgz:69053.got - 2010.06.03 12:22:45.
