data_PCOD9166718
_publ_section_title
;
Structure prediction by ZEFSAII (Michael W. Deem and Ramdas Pophale) SiO2 
 PCOD9166718
Probable space group: P 21/M
;
_chemical_formula_sum "Si O2"
_cell_formula_units_Z 28
_cell_length_a 9.687432
_cell_length_b 8.675356
_cell_length_c 25.179819
_cell_angle_alpha 90.000000
_cell_angle_beta 40.937060
_cell_angle_gamma 90.000000
_cell_volume 1386.570863
_symmetry_space_group_name_H-M "P 21/M"
_symmetry_group_IT_number 11
_symmetry_cell_setting 'monoclinic'
loop_
_space_group_symop_operation_xyz
x,y,z
-x,1/2+y,-z
-x,-y,-z
x,1/2-y,z
loop_
_atom_site_type_symbol
_atom_site_label
_atom_site_fract_x
_atom_site_fract_y
_atom_site_fract_z
Si Si1 0.843810 0.434815 0.000631
Si Si2 0.840317 0.566959 0.677300
Si Si3 0.056079 0.066404 0.143862
Si Si4 0.326302 0.430632 0.684656
Si Si5 0.357834 0.062459 0.152666
Si Si6 0.779471 0.432673 0.584035
Si Si7 0.272725 0.429736 0.577215
O O1 0.849076 0.250000 0.001880
O O2 0.908075 0.488708 0.923203
O O3 0.601207 0.485683 0.079924
O O4 0.000000 0.500000 0.000000
O O5 0.810276 0.750000 0.680773
O O6 0.746614 0.515139 0.761154
O O7 0.742283 0.481213 0.655700
O O8 0.087342 0.526158 0.604518
O O9 0.078063 0.250000 0.131759
O O10 0.223852 0.011721 0.140115
O O11 0.825788 0.025565 0.233175
O O12 0.323284 0.250000 0.701541
O O13 0.569109 0.484105 0.614410
O O14 0.241426 0.439979 0.649637
O O15 0.351504 0.250000 0.153786
O O16 0.796089 0.250000 0.574206
O O17 0.000000 0.500000 0.500000
O O18 0.500000 0.500000 0.500000
O O19 0.262471 0.250000 0.564424
#
# Coordination Sequence:
#
# PCOD9166718 Si02
#       7
#     4   4   4   4   4   4   4
#     4  11  24  43  65  96 131 166 205 253 306 368
#     4  11  22  40  63  91 125 166 210 260 311 370
#     4  11  22  41  67  95 123 163 209 254 312 374
#     4  10  23  41  61  90 126 162 206 260 311 369
#     4   9  21  41  65  92 126 164 207 253 307 368
#     4  11  24  42  62  90 125 167 213 260 319 378
#     4  11  22  38  62  92 125 164 208 260 315 371
#
# _framework density 20.193702999999999
#
# number of rings (size 3 to 8) (size 9 to 14) (size 15 to 20)
#    0.000    1.429    1.429    3.429    2.000    2.857 
#    0.000    4.286    0.000    0.000    0.000    0.000 
#    0.000    0.000    0.000    0.000    0.000    0.000 
#
# Total GULP energy -156521.859489 kJ/mol
# GULP energy per Si atom -5590.066410 kJ/mol
# Density = 2.014774 g / cm^3
# Si number density = 20.193703 Si / 1000 Ang^3
#
#
#
# Elastic Constant Matrix: (Units=GPa)
#
#
# Indices 1 2 3 4 5 6 
#
# 1 98.3677 14.4560 24.4935 0.0000 -5.5462 0.0000
# 2 14.4560 32.3501 23.9774 0.0000 -4.2250 0.0000
# 3 24.4935 23.9774 100.5203 0.0000 -3.7169 0.0000
# 4 0.0000 0.0000 0.0000 30.8077 0.0000 3.1457
# 5 -5.5462 -4.2250 -3.7169 0.0000 35.2926 0.0000
# 6 0.0000 0.0000 0.0000 3.1457 0.0000 31.9786
#
#
#
# Elastic Compliance Matrix: (Units=1/GPa)
#
#
# Indices 1 2 3 4 5 6 
#
# 1 0.011205 -0.003480 -0.001858 0.000000 0.001149 0.000000
# 2 -0.003480 0.039084 -0.008355 0.000000 0.003252 0.000000
# 3 -0.001858 -0.008355 0.012394 0.000000 0.000013 0.000000
# 4 0.000000 0.000000 0.000000 0.032789 0.000000 -0.003225
# 5 0.001149 0.003252 0.000013 0.000000 0.028906 0.000000
# 6 0.000000 0.000000 0.000000 -0.003225 0.000000 0.031588
#
#
# Mechanical properties :
#
#
# Convention : Reuss Voigt Hill
#
# Bulk Modulus (GPa) = 28.32998 39.67686 34.00342
# Shear Modulus (GPa) = 25.62574 30.83652 28.23113
#
# Velocity S-wave (km/s) = 3.56616 3.91197 3.74306
# Velocity P-wave (km/s) = 5.56922 6.33210 5.96287
#
# Compressibility (1/GPa) = 0.03529829
#
# Stress axis : x y z
#
# Youngs Moduli (GPa) = 89.24843 25.58592 80.68283
#
# Poissons Ratio (x) = 0.08904 0.14988
# Poissons Ratio (y) = 0.31059 0.67407
# Poissons Ratio (z) = 0.16579 0.21376
#
# Static dielectric constant tensor:
#      x y z
#    x 1.743880 0.000000 -0.015510 
#    y 0.000000 1.703210 0.000000 
#    z -0.015510 0.000000 1.705500 
# 
# From -- ./inp_files/70839.got.cif
#   From: 2010.05.17/outbox.cif.g08.bks.cpg/sg11_36_cif.got.tgz:70839.got - 2010.06.03 12:22:45.
