data_PCOD9166328
_publ_section_title
;
Structure prediction by ZEFSAII (Michael W. Deem and Ramdas Pophale) SiO2 
 PCOD9166328
Probable space group: P 21/M
;
_chemical_formula_sum "Si O2"
_cell_formula_units_Z 20
_cell_length_a 7.805309
_cell_length_b 18.269585
_cell_length_c 7.570701
_cell_angle_alpha 90.000000
_cell_angle_beta 56.064335
_cell_angle_gamma 90.000000
_cell_volume 895.689777
_symmetry_space_group_name_H-M "P 21/M"
_symmetry_group_IT_number 11
_symmetry_cell_setting 'monoclinic'
loop_
_space_group_symop_operation_xyz
x,y,z
-x,1/2+y,-z
-x,-y,-z
x,1/2-y,z
loop_
_atom_site_type_symbol
_atom_site_label
_atom_site_fract_x
_atom_site_fract_y
_atom_site_fract_z
Si Si1 0.266346 0.169566 0.680648
Si Si2 0.178313 0.055642 0.458963
Si Si3 0.859865 0.607553 0.898040
Si Si4 0.601144 0.024804 0.123910
Si Si5 0.292490 0.665338 0.758614
O O1 0.188770 0.250000 0.675561
O O2 0.140781 0.106931 0.648371
O O3 0.501397 0.163940 0.478326
O O4 0.252955 0.160265 0.898236
O O5 0.204850 0.106968 0.269530
O O6 0.398995 0.015803 0.365515
O O7 0.000000 0.000000 0.500000
O O8 0.098165 0.629864 0.771091
O O9 0.796313 0.528788 0.018128
O O10 0.666830 0.108692 0.105762
O O11 0.500000 0.000000 0.000000
O O12 0.252095 0.750000 0.829315
#
# Coordination Sequence:
#
# PCOD9166328 Si02
#       5
#     4   4   4   4   4
#     4  10  24  43  63  91 130 171 215 271 331 387
#     4  10  24  40  66  97 128 171 220 269 324 392
#     4  11  23  40  68  95 128 168 218 265 333 388
#     4   9  21  39  62  94 127 167 215 268 318 383
#     4  10  22  40  63  94 128 169 217 271 328 389
#
# _framework density 22.329160000000002
#
# number of rings (size 3 to 8) (size 9 to 14) (size 15 to 20)
#    0.000    2.000    0.000    1.200   11.200    3.200 
#    0.000    6.000    0.000    0.000    0.000    0.000 
#    0.000    0.000    0.000    0.000    0.000    0.000 
#
# Total GULP energy -111477.677095 kJ/mol
# GULP energy per Si atom -5573.883855 kJ/mol
# Density = 2.227834 g / cm^3
# Si number density = 22.329160 Si / 1000 Ang^3
#
#
#
# Elastic Constant Matrix: (Units=GPa)
#
#
# Indices 1 2 3 4 5 6 
#
# 1 97.4140 46.8341 21.2138 0.0000 -2.1103 0.0000
# 2 46.8341 102.3363 21.9698 0.0000 -1.1205 0.0000
# 3 21.2138 21.9698 77.2662 0.0000 4.6581 0.0000
# 4 0.0000 0.0000 0.0000 26.8267 0.0000 -2.3697
# 5 -2.1103 -1.1205 4.6581 0.0000 40.2466 0.0000
# 6 0.0000 0.0000 0.0000 -2.3697 0.0000 24.5239
#
#
#
# Elastic Compliance Matrix: (Units=1/GPa)
#
#
# Indices 1 2 3 4 5 6 
#
# 1 0.013491 -0.005708 -0.002129 0.000000 0.000795 0.000000
# 2 -0.005708 0.012839 -0.002101 0.000000 0.000301 0.000000
# 3 -0.002129 -0.002101 0.014234 0.000000 -0.001818 0.000000
# 4 0.000000 0.000000 0.000000 0.037597 0.000000 0.003633
# 5 0.000795 0.000301 -0.001818 0.000000 0.025107 0.000000
# 6 0.000000 0.000000 0.000000 0.003633 0.000000 0.041128
#
#
# Mechanical properties :
#
#
# Convention : Reuss Voigt Hill
#
# Bulk Modulus (GPa) = 48.34166 50.78353 49.56259
# Shear Modulus (GPa) = 29.21116 30.78601 29.99858
#
# Velocity S-wave (km/s) = 3.62084 3.71716 3.66932
# Velocity P-wave (km/s) = 6.25917 6.41994 6.34006
#
# Compressibility (1/GPa) = 0.02068609
#
# Stress axis : x y z
#
# Youngs Moduli (GPa) = 74.12542 77.89051 70.25518
#
# Poissons Ratio (x) = 0.44462 0.14956
# Poissons Ratio (y) = 0.42313 0.14764
# Poissons Ratio (z) = 0.15779 0.16368
#
# Static dielectric constant tensor:
#      x y z
#    x 1.842750 0.000000 -0.060610 
#    y 0.000000 1.877830 0.000000 
#    z -0.060610 0.000000 1.931920 
# 
# From -- ./inp_files/13060.got.cif
#   From: 2010.05.17/outbox.cif.g08.bks.cpg/sg11_7_cif.got.tgz:13060.got - 2010.06.03 12:22:45.
