data_PCOD9166962
_publ_section_title
;
Structure prediction by ZEFSAII (Michael W. Deem and Ramdas Pophale) SiO2 
 PCOD9166962
Probable space group: P 21/M
;
_chemical_formula_sum "Si O2"
_cell_formula_units_Z 20
_cell_length_a 8.732372
_cell_length_b 14.239952
_cell_length_c 9.437489
_cell_angle_alpha 90.000000
_cell_angle_beta 45.972412
_cell_angle_gamma 90.000000
_cell_volume 843.780076
_symmetry_space_group_name_H-M "P 21/M"
_symmetry_group_IT_number 11
_symmetry_cell_setting 'monoclinic'
loop_
_space_group_symop_operation_xyz
x,y,z
-x,1/2+y,-z
-x,-y,-z
x,1/2-y,z
loop_
_atom_site_type_symbol
_atom_site_label
_atom_site_fract_x
_atom_site_fract_y
_atom_site_fract_z
Si Si1 0.488587 0.064251 0.144294
Si Si2 0.414812 0.250000 0.040594
Si Si3 0.890782 0.750000 0.029887
Si Si4 0.917371 0.250000 0.646403
Si Si5 0.316165 0.959917 0.519835
Si Si6 0.783898 0.250000 0.426347
Si Si7 0.017953 0.595336 0.166504
O O1 0.383772 0.159887 0.158914
O O2 0.733480 0.083814 0.033502
O O3 0.353291 0.009982 0.346853
O O4 0.500000 0.000000 0.000000
O O5 0.288535 0.250000 0.974908
O O6 0.662930 0.250000 0.836565
O O7 0.101988 0.750000 0.798328
O O8 0.899494 0.657961 0.123919
O O9 0.939873 0.250000 0.462960
O O10 0.995668 0.158597 0.681726
O O11 0.335588 0.848740 0.490432
O O12 0.094488 0.996296 0.729829
O O13 0.500000 0.000000 0.500000
#
# Coordination Sequence:
#
# PCOD9166962 Si02
#       7
#     4   2   2   2   4   2   4
#     4  11  26  47  77 107 151 200 249 305 369 448
#     4  10  24  45  73 111 144 192 252 300 369 439
#     4  11  26  45  79 104 150 193 240 312 373 442
#     4   9  22  45  73 104 150 187 242 301 353 452
#     4  12  29  47  75 110 152 194 247 308 373 445
#     4  12  28  45  71 111 142 184 256 303 361 441
#     4  10  25  49  71 107 149 197 242 299 373 440
#
# _framework density 23.702857999999999
#
# number of rings (size 3 to 8) (size 9 to 14) (size 15 to 20)
#    0.000    1.200    0.000    4.200   11.200    5.600 
#    0.000    0.000    0.000    0.000    0.000    0.000 
#    0.000    0.000    0.000    0.000    0.000    0.000 
#
# Total GULP energy -112063.700643 kJ/mol
# GULP energy per Si atom -5603.185032 kJ/mol
# Density = 2.364891 g / cm^3
# Si number density = 23.702858 Si / 1000 Ang^3
#
#
#
# Elastic Constant Matrix: (Units=GPa)
#
#
# Indices 1 2 3 4 5 6 
#
# 1 112.2325 58.2224 25.3483 0.0000 12.2157 0.0000
# 2 58.2224 213.0127 58.5767 0.0000 14.1911 0.0000
# 3 25.3483 58.5767 116.6187 0.0000 19.8033 0.0000
# 4 0.0000 0.0000 0.0000 37.1464 0.0000 14.5450
# 5 12.2157 14.1911 19.8033 0.0000 36.2819 0.0000
# 6 0.0000 0.0000 0.0000 14.5450 0.0000 -48.6179
#
#
#
# Elastic Compliance Matrix: (Units=1/GPa)
#
#
# Indices 1 2 3 4 5 6 
#
# 1 0.010636 -0.002584 -0.000636 0.000000 -0.002223 0.000000
# 2 -0.002584 0.006091 -0.002470 0.000000 -0.000164 0.000000
# 3 -0.000636 -0.002470 0.010750 0.000000 -0.004687 0.000000
# 4 0.000000 0.000000 0.000000 0.024098 0.000000 0.007209
# 5 -0.002223 -0.000164 -0.004687 0.000000 0.030933 0.000000
# 6 0.000000 0.000000 0.000000 0.007209 0.000000 -0.018412
#
#
# Mechanical properties :
#
#
# Convention : Reuss Voigt Hill
#
# Bulk Modulus (GPa) = 62.12615 80.68432 71.40523
# Shear Modulus (GPa) = 61.84880 24.94318 43.39599
#
# Velocity S-wave (km/s) = 5.11371 3.24748 4.28347
# Velocity P-wave (km/s) = 7.81883 6.94084 7.39288
#
# Compressibility (1/GPa) = 0.01609628
#
# Stress axis : x y z
#
# Youngs Moduli (GPa) = 94.01753 164.17649 93.02467
#
# Poissons Ratio (x) = 0.42425 0.05921
# Poissons Ratio (y) = 0.24295 0.22976
# Poissons Ratio (z) = 0.05984 0.40550
#
# Static dielectric constant tensor:
#      x y z
#    x 1.914370 0.000000 -0.068610 
#    y 0.000000 1.831200 0.000000 
#    z -0.068610 0.000000 1.768510 
# 
# From -- ./inp_files/12300.got.cif
#   From: 2010.05.17/outbox.cif.g08.bks.cpg/sg11_7_cif.got.tgz:12300.got - 2010.06.03 12:22:45.
