data_PCOD9166840
_publ_section_title
;
Structure prediction by ZEFSAII (Michael W. Deem and Ramdas Pophale) SiO2 
 PCOD9166840
Probable space group: P 21/M
;
_chemical_formula_sum "Si O2"
_cell_formula_units_Z 28
_cell_length_a 5.427069
_cell_length_b 16.421121
_cell_length_c 15.043730
_cell_angle_alpha 90.000000
_cell_angle_beta 124.475559
_cell_angle_gamma 90.000000
_cell_volume 1105.209622
_symmetry_space_group_name_H-M "P 21/M"
_symmetry_group_IT_number 11
_symmetry_cell_setting 'monoclinic'
loop_
_space_group_symop_operation_xyz
x,y,z
-x,1/2+y,-z
-x,-y,-z
x,1/2-y,z
loop_
_atom_site_type_symbol
_atom_site_label
_atom_site_fract_x
_atom_site_fract_y
_atom_site_fract_z
Si Si1 0.322345 0.662283 0.796477
Si Si2 0.143221 0.376755 0.188031
Si Si3 0.763670 0.892586 0.447090
Si Si4 0.549642 0.343271 0.442239
Si Si5 0.852714 0.159122 0.740986
Si Si6 0.810015 0.982389 0.287402
Si Si7 0.157203 0.956807 0.114442
O O1 0.237230 0.750000 0.738956
O O2 0.674454 0.651718 0.860238
O O3 0.183932 0.579685 0.727267
O O4 0.180410 0.659930 0.864759
O O5 0.357440 0.350006 0.312555
O O6 0.118792 0.473388 0.181616
O O7 0.034726 0.750000 0.254157
O O8 0.507735 0.841433 0.342586
O O9 0.768204 0.972750 0.385413
O O10 0.101170 0.858682 0.509100
O O11 0.526593 0.250000 0.470238
O O12 0.379942 0.396766 0.483387
O O13 0.935267 0.125922 0.856230
O O14 0.960725 0.088326 0.694884
O O15 0.511791 0.955503 0.173076
O O16 0.000000 0.000000 0.000000
#
# Coordination Sequence:
#
# PCOD9166840 Si02
#       7
#     4   4   4   4   4   4   4
#     4  11  22  43  70  96 137 190 237 287 365 430
#     4  11  24  45  71 105 140 189 238 297 361 427
#     4  11  24  41  69 106 146 198 239 294 357 429
#     4  12  23  39  66 106 150 193 240 290 357 438
#     4  11  22  44  74 106 146 191 245 303 362 434
#     4  10  23  44  72 107 143 185 247 305 361 428
#     4  10  24  48  76 101 145 192 242 307 379 437
#
# _framework density 25.334561000000001
#
# number of rings (size 3 to 8) (size 9 to 14) (size 15 to 20)
#    0.000    1.143    2.857    3.429    0.000    3.429 
#    0.000   22.857    0.000    0.000    0.000    0.000 
#    0.000    0.000    0.000    0.000    0.000    0.000 
#
# Total GULP energy -156234.423649 kJ/mol
# GULP energy per Si atom -5579.800845 kJ/mol
# Density = 2.527690 g / cm^3
# Si number density = 25.334561 Si / 1000 Ang^3
#
#
#
# Elastic Constant Matrix: (Units=GPa)
#
#
# Indices 1 2 3 4 5 6 
#
# 1 166.0833 36.4703 15.3591 0.0000 -9.7610 0.0000
# 2 36.4703 184.3453 -4.2388 0.0000 -15.1763 0.0000
# 3 15.3591 -4.2388 81.2110 0.0000 -0.4325 0.0000
# 4 0.0000 0.0000 0.0000 17.8377 0.0000 -5.4545
# 5 -9.7610 -15.1763 -0.4325 0.0000 15.6323 0.0000
# 6 0.0000 0.0000 0.0000 -5.4545 0.0000 23.2657
#
#
#
# Elastic Compliance Matrix: (Units=1/GPa)
#
#
# Indices 1 2 3 4 5 6 
#
# 1 0.006553 -0.001078 -0.001280 0.000000 0.003010 0.000000
# 2 -0.001078 0.006082 0.000549 0.000000 0.005247 0.000000
# 3 -0.001280 0.000549 0.012585 0.000000 0.000082 0.000000
# 4 0.000000 0.000000 0.000000 0.060391 0.000000 0.014158
# 5 0.003010 0.005247 0.000082 0.000000 0.070946 0.000000
# 6 0.000000 0.000000 0.000000 0.014158 0.000000 0.046301
#
#
# Mechanical properties :
#
#
# Convention : Reuss Voigt Hill
#
# Bulk Modulus (GPa) = 46.28874 58.53563 52.41218
# Shear Modulus (GPa) = 23.39998 36.95040 30.17519
#
# Velocity S-wave (km/s) = 3.04244 3.82317 3.45493
# Velocity P-wave (km/s) = 5.53648 6.53024 6.05378
#
# Compressibility (1/GPa) = 0.02160353
#
# Stress axis : x y z
#
# Youngs Moduli (GPa) = 152.60111 164.40640 79.46143
#
# Poissons Ratio (x) = 0.17724 0.10168
# Poissons Ratio (y) = 0.16452 -0.04365
# Poissons Ratio (z) = 0.19527 -0.09031
#
# Static dielectric constant tensor:
#      x y z
#    x 2.167080 0.000000 -0.088730 
#    y 0.000000 2.040040 0.000000 
#    z -0.088730 0.000000 2.026450 
# 
# From -- ./inp_files/45960.got.cif
#   From: 2010.05.17/outbox.cif.g08.bks.cpg/sg11_23_cif.got.tgz:45960.got - 2010.06.03 12:22:45.
