data_PCOD9166477
_publ_section_title
;
Structure prediction by ZEFSAII (Michael W. Deem and Ramdas Pophale) SiO2 
 PCOD9166477
Probable space group: P 21/M
;
_chemical_formula_sum "Si O2"
_cell_formula_units_Z 20
_cell_length_a 4.925126
_cell_length_b 13.773360
_cell_length_c 13.618295
_cell_angle_alpha 90.000000
_cell_angle_beta 71.109323
_cell_angle_gamma 90.000000
_cell_volume 874.046408
_symmetry_space_group_name_H-M "P 21/M"
_symmetry_group_IT_number 11
_symmetry_cell_setting 'monoclinic'
loop_
_space_group_symop_operation_xyz
x,y,z
-x,1/2+y,-z
-x,-y,-z
x,1/2-y,z
loop_
_atom_site_type_symbol
_atom_site_label
_atom_site_fract_x
_atom_site_fract_y
_atom_site_fract_z
Si Si1 0.951809 0.750000 0.992965
Si Si2 0.520624 0.909785 0.255944
Si Si3 0.157330 0.904961 0.819090
Si Si4 0.241471 0.096442 0.319106
Si Si5 0.672152 0.250000 0.870197
Si Si6 0.904851 0.250000 0.482918
Si Si7 0.281627 0.250000 0.619187
O O1 0.077345 0.843806 0.923141
O O2 0.049952 0.750000 0.094421
O O3 0.608835 0.750000 0.027637
O O4 0.363738 0.843175 0.195131
O O5 0.680835 0.843259 0.315837
O O6 0.741145 0.984078 0.177010
O O7 0.300439 0.983348 0.335907
O O8 0.438454 0.861926 0.731534
O O9 0.901605 0.901035 0.771398
O O10 0.046949 0.156626 0.415070
O O11 0.000818 0.250000 0.585491
O O12 0.562874 0.250000 0.516761
#
# Coordination Sequence:
#
# PCOD9166477 Si02
#       7
#     2   4   4   4   2   2   2
#     4  12  24  40  66  95 122 153 216 254 296 352
#     4   9  26  43  64  84 132 165 200 239 328 356
#     4  10  22  41  67  88 123 165 201 248 307 367
#     4  10  22  41  67  88 123 165 201 248 307 367
#     4  11  26  41  62  93 126 161 200 261 298 363
#     4  12  24  40  66  95 122 153 216 254 296 352
#     4  11  26  41  62  93 126 161 200 261 298 363
#
# _framework density 22.882079999999998
#
# number of rings (size 3 to 8) (size 9 to 14) (size 15 to 20)
#    1.200    0.400    0.000    3.600    5.600    4.800 
#    0.000    0.000    0.000    0.000    0.000    0.000 
#    0.000    0.000    0.000    0.000    0.000    0.000 
#
# Total GULP energy -111846.023729 kJ/mol
# GULP energy per Si atom -5592.301186 kJ/mol
# Density = 2.283000 g / cm^3
# Si number density = 22.882080 Si / 1000 Ang^3
#
#
#
# Elastic Constant Matrix: (Units=GPa)
#
#
# Indices 1 2 3 4 5 6 
#
# 1 60.9825 -2.1606 -3.2667 0.0000 -1.8272 0.0000
# 2 -2.1606 148.1952 40.8358 0.0000 0.6235 0.0000
# 3 -3.2667 40.8358 68.6658 0.0000 0.2108 0.0000
# 4 0.0000 0.0000 0.0000 -1.0945 0.0000 -4.5468
# 5 -1.8272 0.6235 0.2108 0.0000 56.8129 0.0000
# 6 0.0000 0.0000 0.0000 -4.5468 0.0000 13.5174
#
#
#
# Elastic Compliance Matrix: (Units=1/GPa)
#
#
# Indices 1 2 3 4 5 6 
#
# 1 0.016456 0.000027 0.000765 0.000000 0.000526 0.000000
# 2 0.000027 0.008071 -0.004798 0.000000 -0.000070 0.000000
# 3 0.000765 -0.004798 0.017453 0.000000 0.000013 0.000000
# 4 0.000000 0.000000 0.000000 -0.381111 0.000000 -0.128194
# 5 0.000526 -0.000070 0.000013 0.000000 0.017619 0.000000
# 6 0.000000 0.000000 0.000000 -0.128194 0.000000 0.030858
#
#
# Mechanical properties :
#
#
# Convention : Reuss Voigt Hill
#
# Bulk Modulus (GPa) = 29.43981 38.74005 34.08993
# Shear Modulus (GPa) = -18.42851 30.00950 5.79049
#
# Velocity S-wave (km/s) = -2.84098 3.62537 1.59251
# Velocity P-wave (km/s) = 1.46022 5.87294 4.27924
#
# Compressibility (1/GPa) = 0.03396761
#
# Stress axis : x y z
#
# Youngs Moduli (GPa) = 60.76863 123.90503 57.29624
#
# Poissons Ratio (x) = -0.00332 -0.04385
# Poissons Ratio (y) = -0.00163 0.27492
# Poissons Ratio (z) = -0.04651 0.59452
#
# Static dielectric constant tensor:
#      x y z
#    x 1.820620 0.000000 -0.048250 
#    y 0.000000 1.873360 0.000000 
#    z -0.048250 0.000000 1.813530 
# 
# From -- ./inp_files/29561.got.cif
#   From: 2010.05.17/outbox.cif.g08.bks.cpg/sg11_15_cif.got.tgz:29561.got - 2010.06.03 12:22:45.
