data_PCOD9166915
_publ_section_title
;
Structure prediction by ZEFSAII (Michael W. Deem and Ramdas Pophale) SiO2 
 PCOD9166915
Probable space group: P 21/M
;
_chemical_formula_sum "Si O2"
_cell_formula_units_Z 22
_cell_length_a 5.157590
_cell_length_b 23.641315
_cell_length_c 8.906270
_cell_angle_alpha 90.000000
_cell_angle_beta 112.831572
_cell_angle_gamma 90.000000
_cell_volume 1000.875556
_symmetry_space_group_name_H-M "P 21/M"
_symmetry_group_IT_number 11
_symmetry_cell_setting 'monoclinic'
loop_
_space_group_symop_operation_xyz
x,y,z
-x,1/2+y,-z
-x,-y,-z
x,1/2-y,z
loop_
_atom_site_type_symbol
_atom_site_label
_atom_site_fract_x
_atom_site_fract_y
_atom_site_fract_z
Si Si1 0.740826 0.750000 0.722212
Si Si2 0.870548 0.371243 0.467199
Si Si3 0.721614 0.463829 0.954490
Si Si4 0.554617 0.750000 0.030310
Si Si5 0.855237 0.750000 0.414438
Si Si6 0.188986 0.651860 0.867897
Si Si7 0.452501 0.440051 0.573959
O O1 0.596216 0.750000 0.855774
O O2 0.654947 0.750000 0.523515
O O3 0.923901 0.692406 0.776564
O O4 0.705178 0.365249 0.273289
O O5 0.660329 0.395874 0.541527
O O6 0.974827 0.308423 0.530087
O O7 0.137153 0.413735 0.503469
O O8 0.560426 0.449179 0.765869
O O9 0.500000 0.500000 0.000000
O O10 0.835911 0.406326 0.052969
O O11 0.000000 0.500000 0.000000
O O12 0.385849 0.692067 0.009806
O O13 0.757969 0.750000 0.218830
O O14 0.500000 0.500000 0.500000
#
# Coordination Sequence:
#
# PCOD9166915 Si02
#       7
#     2   4   4   2   2   4   4
#     4   9  23  41  68  93 137 180 225 292 349 421
#     4  11  25  44  70  98 140 179 227 295 340 428
#     4  12  26  43  70  99 139 181 231 293 346 418
#     4  11  23  43  73  95 143 179 234 291 350 426
#     4  10  24  44  65 108 134 183 235 283 361 423
#     4  10  24  43  62 102 129 179 231 283 352 414
#     4  12  25  44  69 100 134 185 234 283 356 412
#
# _framework density 21.980754999999998
#
# number of rings (size 3 to 8) (size 9 to 14) (size 15 to 20)
#    0.000    1.091    0.000    5.455   10.182    0.727 
#    0.000    0.000    0.000    0.000    0.000    0.000 
#    0.000    0.000    0.000    0.000    0.000    0.000 
#
# Total GULP energy -122767.121065 kJ/mol
# GULP energy per Si atom -5580.323685 kJ/mol
# Density = 2.193073 g / cm^3
# Si number density = 21.980755 Si / 1000 Ang^3
#
#
#
# Elastic Constant Matrix: (Units=GPa)
#
#
# Indices 1 2 3 4 5 6 
#
# 1 90.9041 37.9373 6.4598 0.0000 -10.7502 0.0000
# 2 37.9373 161.9694 45.5682 0.0000 -11.5006 0.0000
# 3 6.4598 45.5682 118.8668 0.0000 -7.8923 0.0000
# 4 0.0000 0.0000 0.0000 -142.1565 0.0000 -30.0861
# 5 -10.7502 -11.5006 -7.8923 0.0000 21.0505 0.0000
# 6 0.0000 0.0000 0.0000 -30.0861 0.0000 31.5732
#
#
#
# Elastic Compliance Matrix: (Units=1/GPa)
#
#
# Indices 1 2 3 4 5 6 
#
# 1 0.012745 -0.002820 0.000737 0.000000 0.005244 0.000000
# 2 -0.002820 0.007716 -0.002687 0.000000 0.001768 0.000000
# 3 0.000737 -0.002687 0.009569 0.000000 0.002496 0.000000
# 4 0.000000 0.000000 0.000000 -0.005854 0.000000 -0.005578
# 5 0.005244 0.001768 0.002496 0.000000 0.052085 0.000000
# 6 0.000000 0.000000 0.000000 -0.005578 0.000000 0.026357
#
#
# Mechanical properties :
#
#
# Convention : Reuss Voigt Hill
#
# Bulk Modulus (GPa) = 48.80796 61.29676 55.05236
# Shear Modulus (GPa) = 42.02066 0.87842 21.44954
#
# Velocity S-wave (km/s) = 4.37705 0.63285 3.12722
# Velocity P-wave (km/s) = 6.91359 5.33677 6.17571
#
# Compressibility (1/GPa) = 0.02048846
#
# Stress axis : x y z
#
# Youngs Moduli (GPa) = 78.45965 129.59826 104.50789
#
# Poissons Ratio (x) = 0.36549 -0.07699
# Poissons Ratio (y) = 0.22127 0.28085
# Poissons Ratio (z) = -0.05780 0.34828
#
# Static dielectric constant tensor:
#      x y z
#    x 1.891480 0.000000 -0.027810 
#    y 0.000000 1.753540 0.000000 
#    z -0.027810 0.000000 1.801280 
# 
# From -- ./inp_files/2344.got.cif
#   From: 2010.05.17/outbox.cif.g08.bks.cpg/sg11_2_cif.got.tgz:2344.got - 2010.06.03 12:22:45.
