data_PCOD9166055
_publ_section_title
;
Structure prediction by ZEFSAII (Michael W. Deem and Ramdas Pophale) SiO2 
 PCOD9166055
Probable space group: P 21/M
;
_chemical_formula_sum "Si O2"
_cell_formula_units_Z 20
_cell_length_a 24.424916
_cell_length_b 8.865980
_cell_length_c 7.928425
_cell_angle_alpha 90.000000
_cell_angle_beta 143.262284
_cell_angle_gamma 90.000000
_cell_volume 1026.972677
_symmetry_space_group_name_H-M "P 21/M"
_symmetry_group_IT_number 11
_symmetry_cell_setting 'monoclinic'
loop_
_space_group_symop_operation_xyz
x,y,z
-x,1/2+y,-z
-x,-y,-z
x,1/2-y,z
loop_
_atom_site_type_symbol
_atom_site_label
_atom_site_fract_x
_atom_site_fract_y
_atom_site_fract_z
Si Si1 0.404548 0.927887 0.710986
Si Si2 0.217684 0.429940 0.725270
Si Si3 0.100204 0.431000 0.770065
Si Si4 0.403012 0.571445 0.307958
Si Si5 0.791996 0.431749 0.648290
O O1 0.412235 0.750000 0.762157
O O2 0.389243 0.949865 0.474053
O O3 0.313583 0.982306 0.581523
O O4 0.500000 0.000000 0.000000
O O5 0.219330 0.250000 0.707864
O O6 0.159526 0.465797 0.749129
O O7 0.178588 0.507381 0.461070
O O8 0.319773 0.492141 0.007381
O O9 0.095783 0.250000 0.776417
O O10 0.000000 0.500000 0.500000
O O11 0.148468 0.501918 0.052757
O O12 0.500000 0.500000 0.500000
O O13 0.402940 0.750000 0.270721
O O14 0.795073 0.250000 0.660804
#
# Coordination Sequence:
#
# PCOD9166055 Si02
#       5
#     4   4   4   4   4
#     4  10  22  37  57  87 125 167 212 260 312 372
#     4  11  24  42  65  96 130 169 214 265 324 385
#     4  11  25  45  70  97 129 169 216 271 327 387
#     4  11  22  38  59  89 128 171 217 265 317 379
#     4  11  23  42  67  95 129 171 216 266 323 385
#
# _framework density 19.474715
#
# number of rings (size 3 to 8) (size 9 to 14) (size 15 to 20)
#    0.000    1.200    2.000    3.600    0.000    9.600 
#    0.000    0.000    0.000    0.000    0.000    0.000 
#    0.000    0.000    0.000    0.000    0.000    0.000 
#
# Total GULP energy -111869.871552 kJ/mol
# GULP energy per Si atom -5593.493578 kJ/mol
# Density = 1.943039 g / cm^3
# Si number density = 19.474715 Si / 1000 Ang^3
#
#
#
# Elastic Constant Matrix: (Units=GPa)
#
#
# Indices 1 2 3 4 5 6 
#
# 1 104.3560 70.5089 79.1171 0.0000 -7.1543 0.0000
# 2 70.5089 73.3875 60.8373 0.0000 -15.8714 0.0000
# 3 79.1171 60.8373 159.2478 0.0000 -11.5794 0.0000
# 4 0.0000 0.0000 0.0000 40.8611 0.0000 -3.5553
# 5 -7.1543 -15.8714 -11.5794 0.0000 26.0863 0.0000
# 6 0.0000 0.0000 0.0000 -3.5553 0.0000 30.8158
#
#
#
# Elastic Compliance Matrix: (Units=1/GPa)
#
#
# Indices 1 2 3 4 5 6 
#
# 1 0.033330 -0.029396 -0.006164 0.000000 -0.011480 0.000000
# 2 -0.029396 0.048171 -0.002329 0.000000 0.020212 0.000000
# 3 -0.006164 -0.002329 0.010339 0.000000 0.001482 0.000000
# 4 0.000000 0.000000 0.000000 0.024721 0.000000 0.002852
# 5 -0.011480 0.020212 0.001482 0.000000 0.048141 0.000000
# 6 0.000000 0.000000 0.000000 0.002852 0.000000 0.032780
#
#
# Mechanical properties :
#
#
# Convention : Reuss Voigt Hill
#
# Bulk Modulus (GPa) = 62.25178 84.21311 73.23244
# Shear Modulus (GPa) = 17.94600 27.98782 22.96691
#
# Velocity S-wave (km/s) = 3.03892 3.79507 3.43785
# Velocity P-wave (km/s) = 6.65945 7.90820 7.31053
#
# Compressibility (1/GPa) = 0.01606380
#
# Stress axis : x y z
#
# Youngs Moduli (GPa) = 30.00293 20.75942 96.72053
#
# Poissons Ratio (x) = 0.61024 0.59615
# Poissons Ratio (y) = 0.88197 0.22522
# Poissons Ratio (z) = 0.18493 0.04834
#
# Static dielectric constant tensor:
#      x y z
#    x 1.700360 0.000000 -0.024240 
#    y 0.000000 1.652290 0.000000 
#    z -0.024240 0.000000 1.684890 
# 
# From -- ./inp_files/28204.got.cif
#   From: 2010.05.17/outbox.cif.g08.bks.cpg/sg11_15_cif.got.tgz:28204.got - 2010.06.03 12:22:45.
