data_PCOD9166656
_publ_section_title
;
Structure prediction by ZEFSAII (Michael W. Deem and Ramdas Pophale) SiO2 
 PCOD9166656
Probable space group: P 21/M
;
_chemical_formula_sum "Si O2"
_cell_formula_units_Z 22
_cell_length_a 11.393892
_cell_length_b 16.086345
_cell_length_c 9.888621
_cell_angle_alpha 90.000000
_cell_angle_beta 28.192197
_cell_angle_gamma 90.000000
_cell_volume 856.255463
_symmetry_space_group_name_H-M "P 21/M"
_symmetry_group_IT_number 11
_symmetry_cell_setting 'monoclinic'
loop_
_space_group_symop_operation_xyz
x,y,z
-x,1/2+y,-z
-x,-y,-z
x,1/2-y,z
loop_
_atom_site_type_symbol
_atom_site_label
_atom_site_fract_x
_atom_site_fract_y
_atom_site_fract_z
Si Si1 0.020455 0.481987 0.269446
Si Si2 0.000019 0.250000 0.641209
Si Si3 0.385599 0.152133 0.924203
Si Si4 0.282447 0.593003 0.192429
Si Si5 0.085142 0.375860 0.800862
Si Si6 0.433853 0.903309 0.533029
O O1 0.252968 0.540088 0.085035
O O2 0.825356 0.470661 0.586983
O O3 0.133698 0.391998 0.135985
O O4 0.913335 0.528215 0.250415
O O5 0.879041 0.175781 0.668222
O O6 0.090932 0.321487 0.659181
O O7 0.371367 0.250000 0.937754
O O8 0.464651 0.124400 0.995508
O O9 0.571136 0.118870 0.620502
O O10 0.818081 0.369282 0.143930
O O11 0.675438 0.642227 0.352252
O O12 0.500000 0.000000 0.500000
#
# Coordination Sequence:
#
# PCOD9166656 Si02
#       6
#     4   2   4   4   4   4
#     4  10  23  44  72  99 137 190 236 294 347 438
#     4  10  24  48  72 102 146 182 242 298 356 422
#     4  12  26  40  69 105 141 183 233 305 354 421
#     4  10  22  47  67 103 137 186 239 287 363 419
#     4  11  26  48  75 105 141 191 242 290 356 426
#     4  12  26  48  74 103 143 192 242 290 354 427
#
# _framework density 25.693266999999999
#
# number of rings (size 3 to 8) (size 9 to 14) (size 15 to 20)
#    0.000    1.091    2.727    2.182    6.364    0.000 
#   13.091    0.000    0.000    0.000    0.000    0.000 
#    0.000    0.000    0.000    0.000    0.000    0.000 
#
# Total GULP energy -122607.598207 kJ/mol
# GULP energy per Si atom -5573.072646 kJ/mol
# Density = 2.563479 g / cm^3
# Si number density = 25.693267 Si / 1000 Ang^3
#
#
#
# Elastic Constant Matrix: (Units=GPa)
#
#
# Indices 1 2 3 4 5 6 
#
# 1 163.0174 32.9279 33.2942 0.0000 -16.9851 0.0000
# 2 32.9279 131.9360 12.6991 0.0000 -7.7166 0.0000
# 3 33.2942 12.6991 67.1127 0.0000 -15.6070 0.0000
# 4 0.0000 0.0000 0.0000 6.1398 0.0000 18.5813
# 5 -16.9851 -7.7166 -15.6070 0.0000 33.8884 0.0000
# 6 0.0000 0.0000 0.0000 18.5813 0.0000 48.8155
#
#
#
# Elastic Compliance Matrix: (Units=1/GPa)
#
#
# Indices 1 2 3 4 5 6 
#
# 1 0.007207 -0.001409 -0.002848 0.000000 0.001980 0.000000
# 2 -0.001409 0.008040 -0.000628 0.000000 0.000835 0.000000
# 3 -0.002848 -0.000628 0.017994 0.000000 0.006716 0.000000
# 4 0.000000 0.000000 0.000000 -1.071831 0.000000 0.407985
# 5 0.001980 0.000835 0.006716 0.000000 0.033784 0.000000
# 6 0.000000 0.000000 0.000000 0.407985 0.000000 -0.134811
#
#
# Mechanical properties :
#
#
# Convention : Reuss Voigt Hill
#
# Bulk Modulus (GPa) = 42.60646 57.76763 50.18704
# Shear Modulus (GPa) = -4.45624 36.64507 16.09442
#
# Velocity S-wave (km/s) = -1.31839 3.78067 2.50553
# Velocity P-wave (km/s) = 3.78169 6.44906 5.28638
#
# Compressibility (1/GPa) = 0.02347062
#
# Stress axis : x y z
#
# Youngs Moduli (GPa) = 138.75675 124.37282 55.57370
#
# Poissons Ratio (x) = 0.17520 0.15829
# Poissons Ratio (y) = 0.19547 0.03492
# Poissons Ratio (z) = 0.39523 0.07814
#
# Static dielectric constant tensor:
#      x y z
#    x 2.086540 0.000000 -0.016940 
#    y 0.000000 2.016450 0.000000 
#    z -0.016940 0.000000 2.118430 
# 
# From -- ./inp_files/17198.got.cif
#   From: 2010.05.17/outbox.cif.g08.bks.cpg/sg11_9_cif.got.tgz:17198.got - 2010.06.03 12:22:45.
