data_PCOD9166570
_publ_section_title
;
Structure prediction by ZEFSAII (Michael W. Deem and Ramdas Pophale) SiO2 
 PCOD9166570
Probable space group: P 21/M
;
_chemical_formula_sum "Si O2"
_cell_formula_units_Z 24
_cell_length_a 18.225260
_cell_length_b 10.602341
_cell_length_c 12.013402
_cell_angle_alpha 90.000000
_cell_angle_beta 147.295240
_cell_angle_gamma 90.000000
_cell_volume 1254.251707
_symmetry_space_group_name_H-M "P 21/M"
_symmetry_group_IT_number 11
_symmetry_cell_setting 'monoclinic'
loop_
_space_group_symop_operation_xyz
x,y,z
-x,1/2+y,-z
-x,-y,-z
x,1/2-y,z
loop_
_atom_site_type_symbol
_atom_site_label
_atom_site_fract_x
_atom_site_fract_y
_atom_site_fract_z
Si Si1 0.837781 0.750000 0.461752
Si Si2 0.457383 0.391744 0.263880
Si Si3 0.877517 0.250000 0.262553
Si Si4 0.241779 0.601710 0.309119
Si Si5 0.185644 0.971322 0.988265
Si Si6 0.743297 0.250000 0.331597
Si Si7 0.888995 0.020318 0.640538
Si Si8 0.443703 0.250000 0.026251
O O1 0.859137 0.621632 0.559575
O O2 0.958428 0.750000 0.523821
O O3 0.691368 0.750000 0.218097
O O4 0.458910 0.250000 0.315096
O O5 0.603972 0.448655 0.479176
O O6 0.325523 0.459230 0.140997
O O7 0.446531 0.367450 0.117002
O O8 0.804949 0.250000 0.287473
O O9 0.835028 0.369626 0.134874
O O10 0.243701 0.750000 0.342964
O O11 0.197319 0.589389 0.125334
O O12 0.145019 0.531975 0.272636
O O13 0.046286 0.050447 0.814863
O O14 0.796808 0.124426 0.461845
O O15 0.580490 0.250000 0.129888
#
# Coordination Sequence:
#
# PCOD9166570 Si02
#       8
#     2   4   2   4   4   2   4   2
#     4  10  26  42  60  92 138 160 208 268 307 364
#     4   9  21  37  63  92 122 165 210 252 313 370
#     4  10  26  40  61  97 123 168 205 261 313 367
#     4  11  20  44  66  89 128 165 208 264 310 373
#     4  11  23  40  64  92 130 161 207 259 320 364
#     4  12  24  41  70  90 126 168 218 251 309 387
#     4  11  24  43  64  97 125 168 210 258 314 372
#     4  10  22  43  63  89 131 168 203 264 317 360
#
# _framework density 19.134916
#
# number of rings (size 3 to 8) (size 9 to 14) (size 15 to 20)
#    0.500    1.000    3.333    1.000    5.833    3.333 
#    1.500    0.000    0.000    0.000    0.000    0.000 
#    0.000    0.000    0.000    0.000    0.000    0.000 
#
# Total GULP energy -133908.999499 kJ/mol
# GULP energy per Si atom -5579.541646 kJ/mol
# Density = 1.909136 g / cm^3
# Si number density = 19.134916 Si / 1000 Ang^3
#
#
#
# Elastic Constant Matrix: (Units=GPa)
#
#
# Indices 1 2 3 4 5 6 
#
# 1 147.3305 33.1879 43.5856 0.0000 7.7916 0.0000
# 2 33.1879 51.4840 7.5417 0.0000 0.2970 0.0000
# 3 43.5856 7.5417 71.9242 0.0000 5.8584 0.0000
# 4 0.0000 0.0000 0.0000 15.9159 0.0000 6.8679
# 5 7.7916 0.2970 5.8584 0.0000 25.1519 0.0000
# 6 0.0000 0.0000 0.0000 6.8679 0.0000 37.9134
#
#
#
# Elastic Compliance Matrix: (Units=1/GPa)
#
#
# Indices 1 2 3 4 5 6 
#
# 1 0.009618 -0.005440 -0.005118 0.000000 -0.001723 0.000000
# 2 -0.005440 0.022805 0.000806 0.000000 0.001228 0.000000
# 3 -0.005118 0.000806 0.017117 0.000000 -0.002411 0.000000
# 4 0.000000 0.000000 0.000000 0.068158 0.000000 -0.012347
# 5 -0.001723 0.001228 -0.002411 0.000000 0.040839 0.000000
# 6 0.000000 0.000000 0.000000 -0.012347 0.000000 0.028612
#
#
# Mechanical properties :
#
#
# Convention : Reuss Voigt Hill
#
# Bulk Modulus (GPa) = 33.29441 48.81878 41.05659
# Shear Modulus (GPa) = 23.07690 28.22448 25.65069
#
# Velocity S-wave (km/s) = 3.47653 3.84477 3.66528
# Velocity P-wave (km/s) = 5.79246 6.72889 6.27816
#
# Compressibility (1/GPa) = 0.03003507
#
# Stress axis : x y z
#
# Youngs Moduli (GPa) = 103.97049 43.84910 58.42245
#
# Poissons Ratio (x) = 0.23856 0.29899
# Poissons Ratio (y) = 0.56565 -0.04706
# Poissons Ratio (z) = 0.53209 -0.03532
#
# Static dielectric constant tensor:
#      x y z
#    x 1.647010 0.000000 0.004650 
#    y 0.000000 1.668590 0.000000 
#    z 0.004650 0.000000 1.669450 
# 
# From -- ./inp_files/41398.got.cif
#   From: 2010.05.17/outbox.cif.g08.bks.cpg/sg11_21_cif.got.tgz:41398.got - 2010.06.03 12:22:45.
