data_PCOD9166707
_publ_section_title
;
Structure prediction by ZEFSAII (Michael W. Deem and Ramdas Pophale) SiO2 
 PCOD9166707
Probable space group: P 21/M
;
_chemical_formula_sum "Si O2"
_cell_formula_units_Z 20
_cell_length_a 5.432056
_cell_length_b 18.126595
_cell_length_c 9.982376
_cell_angle_alpha 90.000000
_cell_angle_beta 108.220952
_cell_angle_gamma 90.000000
_cell_volume 933.626081
_symmetry_space_group_name_H-M "P 21/M"
_symmetry_group_IT_number 11
_symmetry_cell_setting 'monoclinic'
loop_
_space_group_symop_operation_xyz
x,y,z
-x,1/2+y,-z
-x,-y,-z
x,1/2-y,z
loop_
_atom_site_type_symbol
_atom_site_label
_atom_site_fract_x
_atom_site_fract_y
_atom_site_fract_z
Si Si1 0.274550 0.940065 0.457035
Si Si2 0.004790 0.920133 0.654495
Si Si3 0.614548 0.664934 0.394117
Si Si4 0.610567 0.662402 0.088827
Si Si5 0.042311 0.587107 0.974135
O O1 0.343691 0.877144 0.365346
O O2 0.254974 0.908010 0.603721
O O3 0.500000 0.000000 0.500000
O O4 0.038522 0.991389 0.369425
O O5 0.798839 0.873249 0.533981
O O6 0.998282 0.901993 0.807554
O O7 0.585207 0.750000 0.419437
O O8 0.709829 0.656791 0.258955
O O9 0.562082 0.750000 0.054228
O O10 0.826362 0.630628 0.024272
O O11 0.337931 0.617057 0.042016
O O12 0.000000 0.500000 0.000000
#
# Coordination Sequence:
#
# PCOD9166707 Si02
#       5
#     4   4   4   4   4
#     4   9  20  38  65  92 130 162 217 280 333 386
#     4  10  23  40  66  98 127 172 224 283 331 393
#     4  10  23  41  66  94 127 178 224 269 332 407
#     4  11  27  48  68  98 145 186 223 283 358 417
#     4  12  27  45  73 105 138 184 234 287 344 417
#
# _framework density 21.421854
#
# number of rings (size 3 to 8) (size 9 to 14) (size 15 to 20)
#    0.000    1.600    0.000    2.400   16.800    2.400 
#    0.000    0.000    0.000    0.000    0.000    0.000 
#    0.000    0.000    0.000    0.000    0.000    0.000 
#
# Total GULP energy -111543.891064 kJ/mol
# GULP energy per Si atom -5577.194553 kJ/mol
# Density = 2.137310 g / cm^3
# Si number density = 21.421854 Si / 1000 Ang^3
#
#
#
# Elastic Constant Matrix: (Units=GPa)
#
#
# Indices 1 2 3 4 5 6 
#
# 1 106.6083 40.2181 29.3775 0.0000 -28.9642 0.0000
# 2 40.2181 131.3860 35.0355 0.0000 -14.6789 0.0000
# 3 29.3775 35.0355 144.9779 0.0000 -32.6902 0.0000
# 4 0.0000 0.0000 0.0000 31.1604 0.0000 -8.0135
# 5 -28.9642 -14.6789 -32.6902 0.0000 43.2650 0.0000
# 6 0.0000 0.0000 0.0000 -8.0135 0.0000 31.5258
#
#
#
# Elastic Compliance Matrix: (Units=1/GPa)
#
#
# Indices 1 2 3 4 5 6 
#
# 1 0.012518 -0.002974 -0.000188 0.000000 0.007229 0.000000
# 2 -0.002974 0.008928 -0.001592 0.000000 -0.000165 0.000000
# 3 -0.000188 -0.001592 0.008643 0.000000 0.005864 0.000000
# 4 0.000000 0.000000 0.000000 0.034337 0.000000 0.008728
# 5 0.007229 -0.000165 0.005864 0.000000 0.032328 0.000000
# 6 0.000000 0.000000 0.000000 0.008728 0.000000 0.033939
#
#
# Mechanical properties :
#
#
# Convention : Reuss Voigt Hill
#
# Bulk Modulus (GPa) = 48.58929 65.80381 57.19655
# Shear Modulus (GPa) = 33.99985 39.74633 36.87309
#
# Velocity S-wave (km/s) = 3.98824 4.31212 4.15334
# Velocity P-wave (km/s) = 6.62868 7.45502 7.05396
#
# Compressibility (1/GPa) = 0.02058067
#
# Stress axis : x y z
#
# Youngs Moduli (GPa) = 79.88505 112.01163 115.70450
#
# Poissons Ratio (x) = 0.33313 0.02172
# Poissons Ratio (y) = 0.23758 0.18420
# Poissons Ratio (z) = 0.01500 0.17832
#
# Static dielectric constant tensor:
#      x y z
#    x 2.159460 0.000000 0.091450 
#    y 0.000000 2.065580 0.000000 
#    z 0.091450 0.000000 1.820460 
# 
# From -- ./inp_files/10109.got.cif
#   From: 2010.05.17/outbox.cif.g08.bks.cpg/sg11_6_cif.got.tgz:10109.got - 2010.06.03 12:22:45.
