data_PCOD9166397
_publ_section_title
;
Structure prediction by ZEFSAII (Michael W. Deem and Ramdas Pophale) SiO2 
 PCOD9166397
Probable space group: P 21/M
;
_chemical_formula_sum "Si O2"
_cell_formula_units_Z 32
_cell_length_a 17.157742
_cell_length_b 14.352794
_cell_length_c 11.813533
_cell_angle_alpha 90.000000
_cell_angle_beta 35.440500
_cell_angle_gamma 90.000000
_cell_volume 1686.931482
_symmetry_space_group_name_H-M "P 21/M"
_symmetry_group_IT_number 11
_symmetry_cell_setting 'monoclinic'
loop_
_space_group_symop_operation_xyz
x,y,z
-x,1/2+y,-z
-x,-y,-z
x,1/2-y,z
loop_
_atom_site_type_symbol
_atom_site_label
_atom_site_fract_x
_atom_site_fract_y
_atom_site_fract_z
Si Si1 0.873950 0.863147 0.592529
Si Si2 0.727118 0.862326 0.534167
Si Si3 0.906305 0.360312 0.350051
Si Si4 0.832869 0.136639 0.688304
Si Si5 0.418301 0.638156 0.868509
Si Si6 0.361326 0.988962 0.730680
Si Si7 0.847804 0.495319 0.221600
Si Si8 0.214908 0.361025 0.051210
O O1 0.877053 0.750000 0.590317
O O2 0.798293 0.890009 0.567707
O O3 0.802551 0.888541 0.795697
O O4 0.029692 0.894823 0.412538
O O5 0.734639 0.750000 0.515364
O O6 0.570202 0.890373 0.719052
O O7 0.799934 0.911333 0.342672
O O8 0.886005 0.250000 0.361089
O O9 0.845197 0.389886 0.542934
O O10 0.842711 0.415705 0.322693
O O11 0.067055 0.375640 0.171022
O O12 0.835250 0.250000 0.688246
O O13 0.695741 0.106313 0.908634
O O14 0.416629 0.750000 0.867946
O O15 0.377283 0.597001 0.796584
O O16 0.246620 0.976383 0.773056
O O17 0.500000 0.000000 0.500000
O O18 0.320439 0.077194 0.857489
O O19 0.000000 0.500000 0.000000
O O20 0.244041 0.250000 0.011674
#
# Coordination Sequence:
#
# PCOD9166397 Si02
#       8
#     4   4   4   4   4   4   4   4
#     4   8  16  34  62  93 113 139 194 245 287 349
#     4  10  22  41  62  85 118 156 193 238 293 350
#     4   9  19  39  64  90 119 150 190 244 297 343
#     4   8  16  34  62  91 115 144 188 240 296 350
#     4  10  22  41  62  84 118 159 190 235 300 349
#     4  12  25  42  57  84 121 155 204 245 278 344
#     4  12  25  40  59  88 117 153 206 246 279 338
#     4   9  19  39  66  88 115 156 193 236 296 351
#
# _framework density 18.969352000000001
#
# number of rings (size 3 to 8) (size 9 to 14) (size 15 to 20)
#    0.000    2.250    2.500    1.500    1.750    3.000 
#    2.250    3.750    0.000    0.000    0.000    0.000 
#    0.000    0.000    0.000    0.000    0.000    0.000 
#
# Total GULP energy -178668.171557 kJ/mol
# GULP energy per Si atom -5583.380361 kJ/mol
# Density = 1.892618 g / cm^3
# Si number density = 18.969352 Si / 1000 Ang^3
#
#
#
# Elastic Constant Matrix: (Units=GPa)
#
#
# Indices 1 2 3 4 5 6 
#
# 1 134.4734 25.7700 64.6006 0.0000 -7.1059 0.0000
# 2 25.7700 48.4956 33.7677 0.0000 -6.8524 0.0000
# 3 64.6006 33.7677 170.3623 0.0000 -9.2510 0.0000
# 4 0.0000 0.0000 0.0000 30.5085 0.0000 11.7311
# 5 -7.1059 -6.8524 -9.2510 0.0000 20.9255 0.0000
# 6 0.0000 0.0000 0.0000 11.7311 0.0000 30.9571
#
#
#
# Elastic Compliance Matrix: (Units=1/GPa)
#
#
# Indices 1 2 3 4 5 6 
#
# 1 0.009457 -0.002816 -0.002975 0.000000 0.000974 0.000000
# 2 -0.002816 0.025488 -0.003671 0.000000 0.005767 0.000000
# 3 -0.002975 -0.003671 0.007792 0.000000 0.001233 0.000000
# 4 0.000000 0.000000 0.000000 0.038369 0.000000 -0.014540
# 5 0.000974 0.005767 0.001233 0.000000 0.050553 0.000000
# 6 0.000000 0.000000 0.000000 -0.014540 0.000000 0.037813
#
#
# Mechanical properties :
#
#
# Convention : Reuss Voigt Hill
#
# Bulk Modulus (GPa) = 41.99361 66.84531 54.41946
# Shear Modulus (GPa) = 25.46699 31.75775 28.61237
#
# Velocity S-wave (km/s) = 3.66803 4.09609 3.88796
# Velocity P-wave (km/s) = 6.33443 7.59511 6.99323
#
# Compressibility (1/GPa) = 0.02381315
#
# Stress axis : x y z
#
# Youngs Moduli (GPa) = 105.74550 39.23430 128.32947
#
# Poissons Ratio (x) = 0.11049 0.38176
# Poissons Ratio (y) = 0.29780 0.47109
# Poissons Ratio (z) = 0.31458 0.14403
#
# Static dielectric constant tensor:
#      x y z
#    x 1.636820 0.000000 0.003250 
#    y 0.000000 1.689240 0.000000 
#    z 0.003250 0.000000 1.649280 
# 
# From -- ./inp_files/41633.got.cif
#   From: 2010.05.17/outbox.cif.g08.bks.cpg/sg11_21_cif.got.tgz:41633.got - 2010.06.03 12:22:45.
