data_PCOD9166126
_publ_section_title
;
Structure prediction by ZEFSAII (Michael W. Deem and Ramdas Pophale) SiO2 
 PCOD9166126
Probable space group: P 21/M
;
_chemical_formula_sum "Si O2"
_cell_formula_units_Z 32
_cell_length_a 27.337960
_cell_length_b 8.374316
_cell_length_c 11.753235
_cell_angle_alpha 90.000000
_cell_angle_beta 146.025871
_cell_angle_gamma 90.000000
_cell_volume 1503.639235
_symmetry_space_group_name_H-M "P 21/M"
_symmetry_group_IT_number 11
_symmetry_cell_setting 'monoclinic'
loop_
_space_group_symop_operation_xyz
x,y,z
-x,1/2+y,-z
-x,-y,-z
x,1/2-y,z
loop_
_atom_site_type_symbol
_atom_site_label
_atom_site_fract_x
_atom_site_fract_y
_atom_site_fract_z
Si Si1 0.585774 0.443854 0.097904
Si Si2 0.621886 0.443553 0.663911
Si Si3 0.442068 0.941923 0.214431
Si Si4 0.916034 0.567466 0.991676
Si Si5 0.185583 0.937085 0.002219
Si Si6 0.772122 0.065569 0.546928
Si Si7 0.919533 0.435851 0.418542
Si Si8 0.900460 0.930651 0.627335
O O1 0.586823 0.250000 0.098725
O O2 0.674825 0.496130 0.333284
O O3 0.500000 0.500000 0.000000
O O4 0.584215 0.498935 0.962429
O O5 0.618604 0.250000 0.656686
O O6 0.611089 0.496394 0.775301
O O7 0.541285 0.509165 0.435893
O O8 0.714929 0.491074 0.791735
O O9 0.435661 0.750000 0.199862
O O10 0.941133 0.750000 0.023887
O O11 0.882486 0.535367 0.054584
O O12 0.832724 0.524002 0.754354
O O13 0.002334 0.463044 0.136756
O O14 0.176730 0.750000 0.018729
O O15 0.162252 0.945677 0.824501
O O16 0.765665 0.250000 0.569767
O O17 0.829178 0.048390 0.542488
O O18 0.933068 0.250000 0.475369
O O19 0.907337 0.538438 0.507000
O O20 0.000000 0.500000 0.500000
O O21 0.874289 0.750000 0.602493
#
# Coordination Sequence:
#
# PCOD9166126 Si02
#       8
#     4   4   4   4   4   4   4   4
#     4  10  24  43  66  91 124 165 207 257 312 373
#     4   9  19  36  61  89 120 158 200 247 303 366
#     4   9  19  38  61  88 120 156 199 250 306 363
#     4  12  25  42  65  92 127 167 211 263 317 378
#     4  10  22  38  61  90 124 164 208 255 307 372
#     4  11  25  45  68  93 123 165 214 262 319 379
#     4  11  22  38  62  91 126 168 208 251 308 369
#     4  12  25  43  66  94 129 166 210 265 317 377
#
# _framework density 21.281700000000001
#
# number of rings (size 3 to 8) (size 9 to 14) (size 15 to 20)
#    0.000    1.500    1.250    3.375    3.500    2.500 
#    0.000    0.000    0.000    0.000    0.000    0.000 
#    0.000    0.000    0.000    0.000    0.000    0.000 
#
# Total GULP energy -178858.220084 kJ/mol
# GULP energy per Si atom -5589.319378 kJ/mol
# Density = 2.123326 g / cm^3
# Si number density = 21.281700 Si / 1000 Ang^3
#
#
#
# Elastic Constant Matrix: (Units=GPa)
#
#
# Indices 1 2 3 4 5 6 
#
# 1 45.5863 -10.5592 18.2942 0.0000 -0.0825 0.0000
# 2 -10.5592 32.0805 -1.1993 0.0000 -3.3355 0.0000
# 3 18.2942 -1.1993 71.3393 0.0000 6.4825 0.0000
# 4 0.0000 0.0000 0.0000 29.1612 0.0000 -2.2248
# 5 -0.0825 -3.3355 6.4825 0.0000 41.3825 0.0000
# 6 0.0000 0.0000 0.0000 -2.2248 0.0000 29.9864
#
#
#
# Elastic Compliance Matrix: (Units=1/GPa)
#
#
# Indices 1 2 3 4 5 6 
#
# 1 0.026719 0.008728 -0.006872 0.000000 0.001833 0.000000
# 2 0.008728 0.034293 -0.001942 0.000000 0.003086 0.000000
# 3 -0.006872 -0.001942 0.015990 0.000000 -0.002675 0.000000
# 4 0.000000 0.000000 0.000000 0.034487 0.000000 0.002559
# 5 0.001833 0.003086 -0.002675 0.000000 0.024836 0.000000
# 6 0.000000 0.000000 0.000000 0.002559 0.000000 0.033538
#
#
# Mechanical properties :
#
#
# Convention : Reuss Voigt Hill
#
# Bulk Modulus (GPa) = 13.01563 18.00861 15.51212
# Shear Modulus (GPa) = 25.55647 29.60405 27.58026
#
# Velocity S-wave (km/s) = 3.46911 3.73373 3.60385
# Velocity P-wave (km/s) = 4.70908 5.20270 4.96203
#
# Compressibility (1/GPa) = 0.07683070
#
# Stress axis : x y z
#
# Youngs Moduli (GPa) = 37.42639 29.16075 62.53861
#
# Poissons Ratio (x) = -0.25452 0.42975
# Poissons Ratio (y) = -0.32667 0.12146
# Poissons Ratio (z) = 0.25718 0.05664
#
# Static dielectric constant tensor:
#      x y z
#    x 1.766290 0.000000 -0.036130 
#    y 0.000000 1.753650 0.000000 
#    z -0.036130 0.000000 1.784390 
# 
# From -- ./inp_files/45338.got.cif
#   From: 2010.05.17/outbox.cif.g08.bks.cpg/sg11_23_cif.got.tgz:45338.got - 2010.06.03 12:22:45.
