data_PCOD9166873
_publ_section_title
;
Structure prediction by ZEFSAII (Michael W. Deem and Ramdas Pophale) SiO2 
 PCOD9166873
Probable space group: P 21/M
;
_chemical_formula_sum "Si O2"
_cell_formula_units_Z 32
_cell_length_a 14.858304
_cell_length_b 23.018553
_cell_length_c 8.080363
_cell_angle_alpha 90.000000
_cell_angle_beta 145.539726
_cell_angle_gamma 90.000000
_cell_volume 1563.751368
_symmetry_space_group_name_H-M "P 21/M"
_symmetry_group_IT_number 11
_symmetry_cell_setting 'monoclinic'
loop_
_space_group_symop_operation_xyz
x,y,z
-x,1/2+y,-z
-x,-y,-z
x,1/2-y,z
loop_
_atom_site_type_symbol
_atom_site_label
_atom_site_fract_x
_atom_site_fract_y
_atom_site_fract_z
Si Si1 0.742298 0.090864 0.760685
Si Si2 0.322834 0.317670 0.633007
Si Si3 0.777479 0.593801 0.267589
Si Si4 0.597269 0.386246 0.880043
Si Si5 0.984049 0.991060 0.779889
Si Si6 0.054392 0.617088 0.441912
Si Si7 0.023812 0.817847 0.059286
Si Si8 0.481736 0.485480 0.278221
O O1 0.630559 0.116756 0.733719
O O2 0.851432 0.139160 0.841193
O O3 0.636720 0.053326 0.472522
O O4 0.856650 0.044277 0.025742
O O5 0.344843 0.250000 0.699064
O O6 0.321037 0.355389 0.796634
O O7 0.462051 0.342218 0.729712
O O8 0.149910 0.325788 0.285729
O O9 0.842640 0.550816 0.508891
O O10 0.927053 0.620226 0.396495
O O11 0.669353 0.554520 0.985830
O O12 0.538561 0.451749 0.835186
O O13 0.766164 0.375212 0.223110
O O14 0.966657 0.052297 0.664313
O O15 0.000000 0.000000 0.000000
O O16 0.017792 0.662074 0.240308
O O17 0.067458 0.750000 0.109976
O O18 0.500000 0.500000 0.500000
#
# Coordination Sequence:
#
# PCOD9166873 Si02
#       8
#     4   4   4   4   4   4   4   4
#     4  11  23  44  67 102 133 179 216 276 339 406
#     4  11  27  47  66  94 132 181 235 284 331 391
#     4  12  24  44  70  99 137 180 221 276 340 404
#     4  11  24  42  67  99 137 170 217 272 341 398
#     4  12  22  39  70 103 137 170 218 271 343 405
#     4  12  23  41  69 101 132 173 218 274 334 413
#     4  11  26  46  67  94 129 178 236 281 330 394
#     4  10  24  39  66 105 141 167 212 273 344 414
#
# _framework density 20.463609999999999
#
# number of rings (size 3 to 8) (size 9 to 14) (size 15 to 20)
#    0.000    0.750    5.000    1.875    8.750    2.000 
#    0.000    0.000    0.000    0.000    0.000    0.000 
#    0.000    0.000    0.000    0.000    0.000    0.000 
#
# Total GULP energy -178991.387375 kJ/mol
# GULP energy per Si atom -5593.480855 kJ/mol
# Density = 2.041703 g / cm^3
# Si number density = 20.463610 Si / 1000 Ang^3
#
#
#
# Elastic Constant Matrix: (Units=GPa)
#
#
# Indices 1 2 3 4 5 6 
#
# 1 98.7311 35.9765 20.1012 0.0000 6.5482 0.0000
# 2 35.9765 96.7066 44.8015 0.0000 7.9848 0.0000
# 3 20.1012 44.8015 87.3464 0.0000 6.8575 0.0000
# 4 0.0000 0.0000 0.0000 35.9674 0.0000 5.7140
# 5 6.5482 7.9848 6.8575 0.0000 29.9620 0.0000
# 6 0.0000 0.0000 0.0000 5.7140 0.0000 18.8964
#
#
#
# Elastic Compliance Matrix: (Units=1/GPa)
#
#
# Indices 1 2 3 4 5 6 
#
# 1 0.011797 -0.004023 -0.000543 0.000000 -0.001382 0.000000
# 2 -0.004023 0.015061 -0.006673 0.000000 -0.001607 0.000000
# 3 -0.000543 -0.006673 0.015119 0.000000 -0.001563 0.000000
# 4 0.000000 0.000000 0.000000 0.029206 0.000000 -0.008832
# 5 -0.001382 -0.001607 -0.001563 0.000000 0.034464 0.000000
# 6 0.000000 0.000000 0.000000 -0.008832 0.000000 0.055591
#
#
# Mechanical properties :
#
#
# Convention : Reuss Voigt Hill
#
# Bulk Modulus (GPa) = 51.28455 53.83805 52.56130
# Shear Modulus (GPa) = 26.28597 29.09215 27.68906
#
# Velocity S-wave (km/s) = 3.58791 3.77457 3.68242
# Velocity P-wave (km/s) = 6.50230 6.73519 6.61977
#
# Compressibility (1/GPa) = 0.01949905
#
# Stress axis : x y z
#
# Youngs Moduli (GPa) = 84.77009 66.39481 66.14117
#
# Poissons Ratio (x) = 0.26710 0.03590
# Poissons Ratio (y) = 0.34103 0.44138
# Poissons Ratio (z) = 0.04602 0.44307
#
# Static dielectric constant tensor:
#      x y z
#    x 1.754200 0.000000 0.009540 
#    y 0.000000 1.710960 0.000000 
#    z 0.009540 0.000000 1.747060 
# 
# From -- ./inp_files/23380.got.cif
#   From: 2010.05.17/outbox.cif.g08.bks.cpg/sg11_12_cif.got.tgz:23380.got - 2010.06.03 12:22:45.
