data_PCOD9166012
_publ_section_title
;
Structure prediction by ZEFSAII (Michael W. Deem and Ramdas Pophale) SiO2 
 PCOD9166012
Probable space group: P 21/M
;
_chemical_formula_sum "Si O2"
_cell_formula_units_Z 22
_cell_length_a 8.211620
_cell_length_b 21.245652
_cell_length_c 9.701039
_cell_angle_alpha 90.000000
_cell_angle_beta 149.224645
_cell_angle_gamma 90.000000
_cell_volume 865.984171
_symmetry_space_group_name_H-M "P 21/M"
_symmetry_group_IT_number 11
_symmetry_cell_setting 'monoclinic'
loop_
_space_group_symop_operation_xyz
x,y,z
-x,1/2+y,-z
-x,-y,-z
x,1/2-y,z
loop_
_atom_site_type_symbol
_atom_site_label
_atom_site_fract_x
_atom_site_fract_y
_atom_site_fract_z
Si Si1 0.441021 0.250000 0.634801
Si Si2 0.233735 0.823561 0.461619
Si Si3 0.458634 0.999421 0.805186
Si Si4 0.866663 0.898232 0.970619
Si Si5 0.019774 0.394889 0.492869
Si Si6 0.913106 0.346254 0.134325
O O1 0.218096 0.304024 0.397488
O O2 0.652025 0.304051 0.869655
O O3 0.241555 0.750000 0.428023
O O4 0.980319 0.837031 0.400778
O O5 0.573850 0.847632 0.763069
O O6 0.129643 0.866673 0.259047
O O7 0.750024 0.964788 0.943730
O O8 0.173208 0.949705 0.568222
O O9 0.335244 0.068420 0.674854
O O10 0.500000 0.000000 0.000000
O O11 0.973971 0.898569 0.891482
O O12 0.821660 0.374123 0.215940
#
# Coordination Sequence:
#
# PCOD9166012 Si02
#       6
#     2   4   4   4   4   4
#     4  10  26  42  64  90 150 166 204 270 342 384
#     4  11  24  40  63  96 129 174 218 267 326 401
#     4  10  21  45  67  92 135 174 219 277 324 382
#     4  11  24  41  68  95 130 174 220 269 330 385
#     4  10  24  43  67  95 132 175 221 272 330 386
#     4  11  25  44  66 100 129 178 217 269 332 392
#
# _framework density 25.404620000000001
#
# number of rings (size 3 to 8) (size 9 to 14) (size 15 to 20)
#    0.000    1.455    1.818    1.636   12.727    0.727 
#    0.000    0.909    0.000    0.000    0.000    0.000 
#    0.000    0.000    0.000    0.000    0.000    0.000 
#
# Total GULP energy -122642.117198 kJ/mol
# GULP energy per Si atom -5574.641691 kJ/mol
# Density = 2.534680 g / cm^3
# Si number density = 25.404620 Si / 1000 Ang^3
#
#
#
# Elastic Constant Matrix: (Units=GPa)
#
#
# Indices 1 2 3 4 5 6 
#
# 1 62.6648 11.0183 9.5599 0.0000 -8.1162 0.0000
# 2 11.0183 107.7274 20.8518 0.0000 13.6944 0.0000
# 3 9.5599 20.8518 154.7166 0.0000 -3.7757 0.0000
# 4 0.0000 0.0000 0.0000 66.7178 0.0000 4.8902
# 5 -8.1162 13.6944 -3.7757 0.0000 35.9775 0.0000
# 6 0.0000 0.0000 0.0000 4.8902 0.0000 5.7629
#
#
#
# Elastic Compliance Matrix: (Units=1/GPa)
#
#
# Indices 1 2 3 4 5 6 
#
# 1 0.017042 -0.002205 -0.000643 0.000000 0.004616 0.000000
# 2 -0.002205 0.010356 -0.001371 0.000000 -0.004583 0.000000
# 3 -0.000643 -0.001371 0.006714 0.000000 0.001082 0.000000
# 4 0.000000 0.000000 0.000000 0.015983 0.000000 -0.013562
# 5 0.004616 -0.004583 0.001082 0.000000 0.030695 0.000000
# 6 0.000000 0.000000 0.000000 -0.013562 0.000000 0.185032
#
#
# Mechanical properties :
#
#
# Convention : Reuss Voigt Hill
#
# Bulk Modulus (GPa) = 38.95181 45.32987 42.14084
# Shear Modulus (GPa) = 17.67914 40.60356 29.14135
#
# Velocity S-wave (km/s) = 2.64086 4.00218 3.39054
# Velocity P-wave (km/s) = 4.96636 6.26406 5.65257
#
# Compressibility (1/GPa) = 0.02567275
#
# Stress axis : x y z
#
# Youngs Moduli (GPa) = 58.67961 96.55914 148.93397
#
# Poissons Ratio (x) = 0.21295 0.09578
# Poissons Ratio (y) = 0.12941 0.20424
# Poissons Ratio (z) = 0.03774 0.13242
#
# Static dielectric constant tensor:
#      x y z
#    x 2.219590 0.000000 0.079360 
#    y 0.000000 1.989720 0.000000 
#    z 0.079360 0.000000 1.944740 
# 
# From -- ./inp_files/14452.got.cif
#   From: 2010.05.17/outbox.cif.g08.bks.cpg/sg11_8_cif.got.tgz:14452.got - 2010.06.03 12:22:45.
