data_PCOD9166413
_publ_section_title
;
Structure prediction by ZEFSAII (Michael W. Deem and Ramdas Pophale) SiO2 
 PCOD9166413
Probable space group: P 21/M
;
_chemical_formula_sum "Si O2"
_cell_formula_units_Z 24
_cell_length_a 12.345980
_cell_length_b 8.687512
_cell_length_c 25.417961
_cell_angle_alpha 90.000000
_cell_angle_beta 25.706783
_cell_angle_gamma 90.000000
_cell_volume 1182.543047
_symmetry_space_group_name_H-M "P 21/M"
_symmetry_group_IT_number 11
_symmetry_cell_setting 'monoclinic'
loop_
_space_group_symop_operation_xyz
x,y,z
-x,1/2+y,-z
-x,-y,-z
x,1/2-y,z
loop_
_atom_site_type_symbol
_atom_site_label
_atom_site_fract_x
_atom_site_fract_y
_atom_site_fract_z
Si Si1 0.551792 0.572572 0.534548
Si Si2 0.257024 0.935606 0.132963
Si Si3 0.246202 0.068459 0.363410
Si Si4 0.824451 0.065488 0.123447
Si Si5 0.859983 0.428733 0.700823
Si Si6 0.858614 0.567009 0.220087
O O1 0.500000 0.500000 0.500000
O O2 0.465860 0.750000 0.572122
O O3 0.414477 0.480361 0.640602
O O4 0.844024 0.572029 0.418912
O O5 0.253939 0.750000 0.136309
O O6 0.247529 0.988637 0.197161
O O7 0.029013 0.981537 0.195087
O O8 0.500000 0.000000 0.000000
O O9 0.243335 0.250000 0.375718
O O10 0.530877 0.012970 0.251232
O O11 0.210448 0.030288 0.317786
O O12 0.000000 0.000000 0.500000
O O13 0.824952 0.250000 0.118858
O O14 0.925316 0.014077 0.136350
O O15 0.000000 0.000000 0.000000
O O16 0.783004 0.250000 0.725193
O O17 0.878987 0.750000 0.204397
#
# Coordination Sequence:
#
# PCOD9166413 Si02
#       6
#     4   4   4   4   4   4
#     4  11  21  37  61  92 127 163 204 252 308 373
#     4  10  23  41  60  89 126 164 205 254 310 369
#     4  11  25  44  67  96 129 168 216 267 319 380
#     4  11  26  46  67  96 129 169 218 269 322 381
#     4  10  22  41  63  91 128 164 203 256 311 370
#     4  11  23  42  65  93 128 163 205 259 314 376
#
# _framework density 20.295244
#
# number of rings (size 3 to 8) (size 9 to 14) (size 15 to 20)
#    0.000    1.333    1.667    3.000    2.333   10.000 
#    0.000    0.000    0.000    0.000    0.000    0.000 
#    0.000    0.000    0.000    0.000    0.000    0.000 
#
# Total GULP energy -134064.948751 kJ/mol
# GULP energy per Si atom -5586.039531 kJ/mol
# Density = 2.024905 g / cm^3
# Si number density = 20.295244 Si / 1000 Ang^3
#
#
#
# Elastic Constant Matrix: (Units=GPa)
#
#
# Indices 1 2 3 4 5 6 
#
# 1 77.6795 13.3285 27.6259 0.0000 25.2840 0.0000
# 2 13.3285 29.8052 18.4295 0.0000 -0.0258 0.0000
# 3 27.6259 18.4295 123.4329 0.0000 27.7136 0.0000
# 4 0.0000 0.0000 0.0000 37.6255 0.0000 4.0732
# 5 25.2840 -0.0258 27.7136 0.0000 37.7149 0.0000
# 6 0.0000 0.0000 0.0000 4.0732 0.0000 33.1961
#
#
#
# Elastic Compliance Matrix: (Units=1/GPa)
#
#
# Indices 1 2 3 4 5 6 
#
# 1 0.018266 -0.008082 -0.000157 0.000000 -0.012136 0.000000
# 2 -0.008082 0.041307 -0.006684 0.000000 0.010358 0.000000
# 3 -0.000157 -0.006684 0.010912 0.000000 -0.007918 0.000000
# 4 0.000000 0.000000 0.000000 0.026936 0.000000 -0.003305
# 5 -0.012136 0.010358 -0.007918 0.000000 0.040476 0.000000
# 6 0.000000 0.000000 0.000000 -0.003305 0.000000 0.030530
#
#
# Mechanical properties :
#
#
# Convention : Reuss Voigt Hill
#
# Bulk Modulus (GPa) = 24.60630 38.85395 31.73012
# Shear Modulus (GPa) = 23.60502 33.14287 28.37395
#
# Velocity S-wave (km/s) = 3.41410 4.04547 3.74312
# Velocity P-wave (km/s) = 5.26231 6.40367 5.86084
#
# Compressibility (1/GPa) = 0.04064000
#
# Stress axis : x y z
#
# Youngs Moduli (GPa) = 54.74674 24.20879 91.63806
#
# Poissons Ratio (x) = 0.19565 0.01436
# Poissons Ratio (y) = 0.44246 0.61254
# Poissons Ratio (z) = 0.00858 0.16182
#
# Static dielectric constant tensor:
#      x y z
#    x 1.750630 0.000000 -0.042720 
#    y 0.000000 1.712190 0.000000 
#    z -0.042720 0.000000 1.872830 
# 
# From -- ./inp_files/68364.got.cif
#   From: 2010.05.17/outbox.cif.g08.bks.cpg/sg11_35_cif.got.tgz:68364.got - 2010.06.03 12:22:45.
