data_PCOD9166804
_publ_section_title
;
Structure prediction by ZEFSAII (Michael W. Deem and Ramdas Pophale) SiO2 
 PCOD9166804
Probable space group: P 21/M
;
_chemical_formula_sum "Si O2"
_cell_formula_units_Z 24
_cell_length_a 14.869832
_cell_length_b 8.470439
_cell_length_c 9.698633
_cell_angle_alpha 90.000000
_cell_angle_beta 81.508318
_cell_angle_gamma 90.000000
_cell_volume 1208.189849
_symmetry_space_group_name_H-M "P 21/M"
_symmetry_group_IT_number 11
_symmetry_cell_setting 'monoclinic'
loop_
_space_group_symop_operation_xyz
x,y,z
-x,1/2+y,-z
-x,-y,-z
x,1/2-y,z
loop_
_atom_site_type_symbol
_atom_site_label
_atom_site_fract_x
_atom_site_fract_y
_atom_site_fract_z
Si Si1 0.233018 0.564421 0.036218
Si Si2 0.536884 0.939010 0.636245
Si Si3 0.740655 0.058650 0.651759
Si Si4 0.574680 0.936268 0.087420
Si Si5 0.085865 0.561178 0.568459
Si Si6 0.922090 0.565222 0.117907
O O1 0.209873 0.750000 0.033384
O O2 0.334555 0.532755 0.962230
O O3 0.168617 0.469954 0.947941
O O4 0.229392 0.516672 0.198434
O O5 0.528997 0.750000 0.650885
O O6 0.500000 0.000000 0.500000
O O7 0.641903 0.987054 0.640240
O O8 0.470312 0.025624 0.757439
O O9 0.731897 0.250000 0.649701
O O10 0.819737 0.009628 0.526942
O O11 0.591263 0.750000 0.065414
O O12 0.500000 0.000000 0.000000
O O13 0.084525 0.750000 0.563403
O O14 0.080192 0.509808 0.729254
O O15 0.000000 0.500000 0.500000
O O16 0.936001 0.750000 0.134224
O O17 0.000000 0.500000 0.000000
#
# Coordination Sequence:
#
# PCOD9166804 Si02
#       6
#     4   4   4   4   4   4
#     4  11  23  42  69  99 133 173 220 273 329 390
#     4  12  26  43  66  94 132 176 223 276 329 391
#     4  10  23  43  67  95 131 172 218 269 329 394
#     4  12  24  42  66  97 133 175 225 273 326 388
#     4  11  24  44  70 100 135 173 217 268 330 395
#     4  12  26  45  69  99 134 173 222 274 328 390
#
# _framework density 19.864428
#
# number of rings (size 3 to 8) (size 9 to 14) (size 15 to 20)
#    0.000    0.667    1.667    6.500    2.333    3.333 
#    0.000    0.000    0.000    0.000    0.000    0.000 
#    0.000    0.000    0.000    0.000    0.000    0.000 
#
# Total GULP energy -134240.592945 kJ/mol
# GULP energy per Si atom -5593.358039 kJ/mol
# Density = 1.981922 g / cm^3
# Si number density = 19.864428 Si / 1000 Ang^3
#
#
#
# Elastic Constant Matrix: (Units=GPa)
#
#
# Indices 1 2 3 4 5 6 
#
# 1 86.3147 -7.6706 39.7974 0.0000 -5.8283 0.0000
# 2 -7.6706 63.0030 7.2090 0.0000 1.6930 0.0000
# 3 39.7974 7.2090 164.8043 0.0000 -1.8494 0.0000
# 4 0.0000 0.0000 0.0000 33.6773 0.0000 4.3106
# 5 -5.8283 1.6930 -1.8494 0.0000 39.2177 0.0000
# 6 0.0000 0.0000 0.0000 4.3106 0.0000 39.1313
#
#
#
# Elastic Compliance Matrix: (Units=1/GPa)
#
#
# Indices 1 2 3 4 5 6 
#
# 1 0.013401 0.001962 -0.003302 0.000000 0.001751 0.000000
# 2 0.001962 0.016260 -0.001190 0.000000 -0.000466 0.000000
# 3 -0.003302 -0.001190 0.006916 0.000000 -0.000113 0.000000
# 4 0.000000 0.000000 0.000000 0.030118 0.000000 -0.003318
# 5 0.001751 -0.000466 -0.000113 0.000000 0.025774 0.000000
# 6 0.000000 0.000000 0.000000 -0.003318 0.000000 0.025920
#
#
# Mechanical properties :
#
#
# Convention : Reuss Voigt Hill
#
# Bulk Modulus (GPa) = 31.72978 43.64373 37.68675
# Shear Modulus (GPa) = 37.32599 40.72436 39.02518
#
# Velocity S-wave (km/s) = 4.33949 4.53273 4.43716
# Velocity P-wave (km/s) = 6.41218 7.02942 6.72788
#
# Compressibility (1/GPa) = 0.03151614
#
# Stress axis : x y z
#
# Youngs Moduli (GPa) = 74.62294 61.50098 144.59152
#
# Poissons Ratio (x) = -0.12069 0.47747
# Poissons Ratio (y) = -0.14643 0.17211
# Poissons Ratio (z) = 0.24642 0.07321
#
# Static dielectric constant tensor:
#      x y z
#    x 1.624980 0.000000 -0.044890 
#    y 0.000000 1.670280 0.000000 
#    z -0.044890 0.000000 1.555110 
# 
# From -- ./inp_files/20334.got.cif
#   From: 2010.05.17/outbox.cif.g08.bks.cpg/sg11_11_cif.got.tgz:20334.got - 2010.06.03 12:22:45.
