data_PCOD9166818
_publ_section_title
;
Structure prediction by ZEFSAII (Michael W. Deem and Ramdas Pophale) SiO2 
 PCOD9166818
Probable space group: P 21/M
;
_chemical_formula_sum "Si O2"
_cell_formula_units_Z 16
_cell_length_a 5.792287
_cell_length_b 16.641818
_cell_length_c 7.964636
_cell_angle_alpha 90.000000
_cell_angle_beta 68.527472
_cell_angle_gamma 90.000000
_cell_volume 714.457900
_symmetry_space_group_name_H-M "P 21/M"
_symmetry_group_IT_number 11
_symmetry_cell_setting 'monoclinic'
loop_
_space_group_symop_operation_xyz
x,y,z
-x,1/2+y,-z
-x,-y,-z
x,1/2-y,z
loop_
_atom_site_type_symbol
_atom_site_label
_atom_site_fract_x
_atom_site_fract_y
_atom_site_fract_z
Si Si1 0.877195 0.457505 0.870776
Si Si2 0.508770 0.250000 0.392003
Si Si3 0.595585 0.604357 0.006893
Si Si4 0.892638 0.750000 0.809276
Si Si5 0.377330 0.081290 0.603920
O O1 0.690036 0.386447 0.973884
O O2 0.079191 0.431170 0.683900
O O3 0.701657 0.531685 0.865266
O O4 0.000000 0.500000 0.000000
O O5 0.295584 0.250000 0.302633
O O6 0.457223 0.164791 0.498532
O O7 0.809810 0.250000 0.285756
O O8 0.567857 0.589629 0.212587
O O9 0.793805 0.673324 0.934967
O O10 0.500000 0.000000 0.500000
#
# Coordination Sequence:
#
# PCOD9166818 Si02
#       5
#     4   2   4   2   4
#     4   9  21  40  71 101 133 181 245 280 360 426
#     4  12  31  47  70 112 146 185 242 307 359 419
#     4  10  23  43  71  97 139 193 239 289 355 438
#     4  12  29  47  72 100 148 191 244 291 355 431
#     4  11  25  44  72 103 147 183 236 301 365 419
#
# _framework density 22.394603
#
# number of rings (size 3 to 8) (size 9 to 14) (size 15 to 20)
#    0.000    1.500    0.000    2.250   21.000    2.000 
#    0.000    0.000    0.000    0.000    0.000    0.000 
#    0.000    0.000    0.000    0.000    0.000    0.000 
#
# Total GULP energy -89114.181423 kJ/mol
# GULP energy per Si atom -5569.636339 kJ/mol
# Density = 2.234363 g / cm^3
# Si number density = 22.394603 Si / 1000 Ang^3
#
#
#
# Elastic Constant Matrix: (Units=GPa)
#
#
# Indices 1 2 3 4 5 6 
#
# 1 127.5191 47.5473 77.8861 0.0000 -40.8017 0.0000
# 2 47.5473 154.2336 94.7930 0.0000 -28.9068 0.0000
# 3 77.8861 94.7930 131.1500 0.0000 -35.0908 0.0000
# 4 0.0000 0.0000 0.0000 53.1367 0.0000 -16.7359
# 5 -40.8017 -28.9068 -35.0908 0.0000 69.3287 0.0000
# 6 0.0000 0.0000 0.0000 -16.7359 0.0000 32.2040
#
#
#
# Elastic Compliance Matrix: (Units=1/GPa)
#
#
# Indices 1 2 3 4 5 6 
#
# 1 0.013612 0.001580 -0.007988 0.000000 0.004627 0.000000
# 2 0.001580 0.011878 -0.009195 0.000000 0.001229 0.000000
# 3 -0.007988 -0.009195 0.019352 0.000000 0.001260 0.000000
# 4 0.000000 0.000000 0.000000 0.022503 0.000000 0.011694
# 5 0.004627 0.001229 0.001260 0.000000 0.018297 0.000000
# 6 0.000000 0.000000 0.000000 0.011694 0.000000 0.037129
#
#
# Mechanical properties :
#
#
# Convention : Reuss Voigt Hill
#
# Bulk Modulus (GPa) = 73.33307 94.81725 84.07516
# Shear Modulus (GPa) = 31.54133 43.77898 37.66015
#
# Velocity S-wave (km/s) = 3.75698 4.42621 4.10526
# Velocity P-wave (km/s) = 7.18588 8.27968 7.75209
#
# Compressibility (1/GPa) = 0.01363641
#
# Stress axis : x y z
#
# Youngs Moduli (GPa) = 73.46406 84.18849 51.67443
#
# Poissons Ratio (x) = -0.13305 0.41278
# Poissons Ratio (y) = -0.11610 0.47515
# Poissons Ratio (z) = 0.58684 0.77412
#
# Static dielectric constant tensor:
#      x y z
#    x 2.062930 0.000000 -0.002590 
#    y 0.000000 1.998980 0.000000 
#    z -0.002590 0.000000 1.820170 
# 
# From -- ./inp_files/1617.got.cif
#   From: 2010.05.17/outbox.cif.g08.bks.cpg/sg11_1_cif.got.tgz:1617.got - 2010.06.03 12:22:45.
