data_PCOD9166623
_publ_section_title
;
Structure prediction by ZEFSAII (Michael W. Deem and Ramdas Pophale) SiO2 
 PCOD9166623
Probable space group: P 21/M
;
_chemical_formula_sum "Si O2"
_cell_formula_units_Z 18
_cell_length_a 7.750119
_cell_length_b 20.934543
_cell_length_c 6.982010
_cell_angle_alpha 90.000000
_cell_angle_beta 37.346093
_cell_angle_gamma 90.000000
_cell_volume 687.186907
_symmetry_space_group_name_H-M "P 21/M"
_symmetry_group_IT_number 11
_symmetry_cell_setting 'monoclinic'
loop_
_space_group_symop_operation_xyz
x,y,z
-x,1/2+y,-z
-x,-y,-z
x,1/2-y,z
loop_
_atom_site_type_symbol
_atom_site_label
_atom_site_fract_x
_atom_site_fract_y
_atom_site_fract_z
Si Si1 0.842083 0.969579 0.822205
Si Si2 0.943395 0.160044 0.245673
Si Si3 0.560441 0.750000 0.160181
Si Si4 0.886626 0.676499 0.346475
Si Si5 0.602573 0.095229 0.051070
O O1 0.034026 0.915678 0.747666
O O2 0.570192 0.933117 0.974613
O O3 0.000000 0.000000 0.500000
O O4 0.743006 0.032425 0.023759
O O5 0.654669 0.194530 0.561745
O O6 0.209449 0.194886 0.113695
O O7 0.012771 0.175268 0.962198
O O8 0.826013 0.750000 0.446109
O O9 0.616149 0.632382 0.621190
O O10 0.151799 0.644967 0.222811
#
# Coordination Sequence:
#
# PCOD9166623 Si02
#       5
#     4   4   2   4   4
#     4  11  26  52  68 102 142 191 237 287 340 424
#     4  11  25  44  77  97 145 179 238 284 352 415
#     4  10  22  44  64 110 128 188 220 294 336 422
#     4  12  24  46  69 109 139 180 228 296 350 418
#     4  11  26  46  72  98 145 183 232 291 347 409
#
# _framework density 26.193747999999999
#
# number of rings (size 3 to 8) (size 9 to 14) (size 15 to 20)
#    0.000    0.889    4.444    2.000    6.222    1.778 
#   12.000    0.000    0.000    0.000    0.000    0.000 
#    0.000    0.000    0.000    0.000    0.000    0.000 
#
# Total GULP energy -100422.056921 kJ/mol
# GULP energy per Si atom -5579.003162 kJ/mol
# Density = 2.613413 g / cm^3
# Si number density = 26.193748 Si / 1000 Ang^3
#
#
#
# Elastic Constant Matrix: (Units=GPa)
#
#
# Indices 1 2 3 4 5 6 
#
# 1 50.0318 37.4509 3.8074 0.0000 10.7156 0.0000
# 2 37.4509 195.3881 53.0090 0.0000 7.4871 0.0000
# 3 3.8074 53.0090 171.6987 0.0000 -14.9398 0.0000
# 4 0.0000 0.0000 0.0000 84.6764 0.0000 44.4680
# 5 10.7156 7.4871 -14.9398 0.0000 23.8160 0.0000
# 6 0.0000 0.0000 0.0000 44.4680 0.0000 196.9332
#
#
#
# Elastic Compliance Matrix: (Units=1/GPa)
#
#
# Indices 1 2 3 4 5 6 
#
# 1 0.025515 -0.004487 -0.000060 0.000000 -0.010107 0.000000
# 2 -0.004487 0.006585 -0.002050 0.000000 -0.001337 0.000000
# 3 -0.000060 -0.002050 0.006893 0.000000 0.004995 0.000000
# 4 0.000000 0.000000 0.000000 0.013398 0.000000 -0.003025
# 5 -0.010107 -0.001337 0.004995 0.000000 0.050090 0.000000
# 6 0.000000 0.000000 0.000000 -0.003025 0.000000 0.005761
#
#
# Mechanical properties :
#
#
# Convention : Reuss Voigt Hill
#
# Bulk Modulus (GPa) = 38.75998 67.29481 53.02740
# Shear Modulus (GPa) = 38.45040 82.60855 60.52948
#
# Velocity S-wave (km/s) = 3.83550 5.62192 4.81233
# Velocity P-wave (km/s) = 5.86893 8.23943 7.15306
#
# Compressibility (1/GPa) = 0.02579980
#
# Stress axis : x y z
#
# Youngs Moduli (GPa) = 39.19211 151.84887 145.07342
#
# Poissons Ratio (x) = 0.68136 0.00870
# Poissons Ratio (y) = 0.17586 0.29740
# Poissons Ratio (z) = 0.00235 0.31129
#
# Static dielectric constant tensor:
#      x y z
#    x 2.256890 0.000000 -0.011690 
#    y 0.000000 2.042680 0.000000 
#    z -0.011690 0.000000 2.013080 
# 
# From -- ./inp_files/14167.got.cif
#   From: 2010.05.17/outbox.cif.g08.bks.cpg/sg11_8_cif.got.tgz:14167.got - 2010.06.03 12:22:45.
