data_PCOD9166460
_publ_section_title
;
Structure prediction by ZEFSAII (Michael W. Deem and Ramdas Pophale) SiO2 
 PCOD9166460
Probable space group: P 21/M
;
_chemical_formula_sum "Si O2"
_cell_formula_units_Z 20
_cell_length_a 5.434437
_cell_length_b 27.343495
_cell_length_c 5.108655
_cell_angle_alpha 90.000000
_cell_angle_beta 89.412738
_cell_angle_gamma 90.000000
_cell_volume 759.088383
_symmetry_space_group_name_H-M "P 21/M"
_symmetry_group_IT_number 11
_symmetry_cell_setting 'monoclinic'
loop_
_space_group_symop_operation_xyz
x,y,z
-x,1/2+y,-z
-x,-y,-z
x,1/2-y,z
loop_
_atom_site_type_symbol
_atom_site_label
_atom_site_fract_x
_atom_site_fract_y
_atom_site_fract_z
Si Si1 0.045256 0.562050 0.407878
Si Si2 0.660142 0.620146 0.718759
Si Si3 0.695525 0.039374 0.097640
Si Si4 0.014442 0.802630 0.911889
Si Si5 0.291536 0.668904 0.402118
O O1 0.561935 0.660981 0.516145
O O2 0.083867 0.544767 0.112827
O O3 0.187719 0.613875 0.405120
O O4 0.194419 0.529202 0.616147
O O5 0.791694 0.578277 0.544147
O O6 0.449126 0.591193 0.877108
O O7 0.838007 0.649899 0.911141
O O8 0.500000 0.000000 0.000000
O O9 0.890173 0.750000 0.957952
O O10 0.228904 0.808934 0.124202
O O11 0.138753 0.803611 0.626707
#
# Coordination Sequence:
#
# PCOD9166460 Si02
#       5
#     4   4   4   4   4
#     4  10  22  41  65  95 131 175 225 272 329 407
#     4  10  24  45  71  96 137 186 225 281 353 404
#     4  11  24  41  66 103 139 177 231 284 336 406
#     4  11  24  41  65  99 131 169 228 282 339 422
#     4  10  22  42  65  93 132 172 218 278 337 402
#
# _framework density 26.347393
#
# number of rings (size 3 to 8) (size 9 to 14) (size 15 to 20)
#    0.000    1.600    0.000    4.800    0.000   17.600 
#    0.000    0.000    0.000    4.800    0.000    0.000 
#    0.000    0.000    0.000    0.000    0.000    0.000 
#
# Total GULP energy -112050.002902 kJ/mol
# GULP energy per Si atom -5602.500145 kJ/mol
# Density = 2.628742 g / cm^3
# Si number density = 26.347393 Si / 1000 Ang^3
#
#
#
# Elastic Constant Matrix: (Units=GPa)
#
#
# Indices 1 2 3 4 5 6 
#
# 1 83.5967 26.6485 37.9213 0.0000 4.7163 0.0000
# 2 26.6485 125.1981 48.4511 0.0000 6.8565 0.0000
# 3 37.9213 48.4511 153.0824 0.0000 6.8387 0.0000
# 4 0.0000 0.0000 0.0000 10.8699 0.0000 -7.7854
# 5 4.7163 6.8565 6.8387 0.0000 50.3958 0.0000
# 6 0.0000 0.0000 0.0000 -7.7854 0.0000 8.9293
#
#
#
# Elastic Compliance Matrix: (Units=1/GPa)
#
#
# Indices 1 2 3 4 5 6 
#
# 1 0.013863 -0.001820 -0.002828 0.000000 -0.000666 0.000000
# 2 -0.001820 0.009378 -0.002483 0.000000 -0.000769 0.000000
# 3 -0.002828 -0.002483 0.008041 0.000000 -0.000489 0.000000
# 4 0.000000 0.000000 0.000000 0.244990 0.000000 0.213607
# 5 -0.000666 -0.000769 -0.000489 0.000000 0.020076 0.000000
# 6 0.000000 0.000000 0.000000 0.213607 0.000000 0.298234
#
#
# Mechanical properties :
#
#
# Convention : Reuss Voigt Hill
#
# Bulk Modulus (GPa) = 58.75708 65.32432 62.04070
# Shear Modulus (GPa) = 8.13647 30.62942 19.38294
#
# Velocity S-wave (km/s) = 1.75922 3.41328 2.71526
# Velocity P-wave (km/s) = 5.14546 6.35462 5.78174
#
# Compressibility (1/GPa) = 0.01701923
#
# Stress axis : x y z
#
# Youngs Moduli (GPa) = 72.13516 106.63660 124.36623
#
# Poissons Ratio (x) = 0.19404 0.35176
# Poissons Ratio (y) = 0.13126 0.30880
# Poissons Ratio (z) = 0.20403 0.26477
#
# Static dielectric constant tensor:
#      x y z
#    x 2.068930 0.000000 0.023200 
#    y 0.000000 3.199640 0.000000 
#    z 0.023200 0.000000 2.005270 
# 
# From -- ./inp_files/991.got.cif
#   From: 2010.05.17/outbox.cif.g08.bks.cpg/sg11_1_cif.got.tgz:991.got - 2010.06.03 12:22:45.
