data_PCOD9166278
_publ_section_title
;
Structure prediction by ZEFSAII (Michael W. Deem and Ramdas Pophale) SiO2 
 PCOD9166278
Probable space group: P 21/M
;
_chemical_formula_sum "Si O2"
_cell_formula_units_Z 20
_cell_length_a 7.491556
_cell_length_b 20.249082
_cell_length_c 5.687089
_cell_angle_alpha 90.000000
_cell_angle_beta 115.540789
_cell_angle_gamma 90.000000
_cell_volume 778.409340
_symmetry_space_group_name_H-M "P 21/M"
_symmetry_group_IT_number 11
_symmetry_cell_setting 'monoclinic'
loop_
_space_group_symop_operation_xyz
x,y,z
-x,1/2+y,-z
-x,-y,-z
x,1/2-y,z
loop_
_atom_site_type_symbol
_atom_site_label
_atom_site_fract_x
_atom_site_fract_y
_atom_site_fract_z
Si Si1 0.416602 0.250000 0.608957
Si Si2 0.500000 0.500000 0.500000
Si Si3 0.776087 0.250000 0.199288
Si Si4 0.852317 0.750000 0.923304
Si Si5 0.821163 0.499554 0.081645
Si Si6 0.667141 0.386513 0.302050
Si Si7 0.253869 0.362674 0.808360
O O1 0.375325 0.250000 0.306814
O O2 0.610014 0.250000 0.888986
O O3 0.300568 0.317410 0.612398
O O4 0.623329 0.505563 0.813436
O O5 0.612094 0.427403 0.503390
O O6 0.763771 0.314515 0.356935
O O7 0.981194 0.250000 0.177079
O O8 0.868729 0.815987 0.087100
O O9 0.829778 0.563614 0.257937
O O10 0.804326 0.434546 0.225483
O O11 0.000000 0.500000 0.000000
O O12 0.466789 0.373284 0.045828
#
# Coordination Sequence:
#
# PCOD9166278 Si02
#       7
#     2   2   2   2   4   4   4
#     4   9  21  39  60  80 118 163 188 245 307 344
#     4  10  22  40  64  88 122 166 200 246 304 360
#     4  10  22  40  60  90 122 149 205 255 286 363
#     4  11  21  37  62  88 120 162 199 246 303 351
#     4  11  23  39  62  90 120 157 203 251 298 355
#     4  10  22  42  62  88 125 160 199 250 302 356
#     4   9  20  38  57  88 121 151 205 246 286 366
#
# _framework density 25.693422000000002
#
# number of rings (size 3 to 8) (size 9 to 14) (size 15 to 20)
#    0.000    2.000    0.000    4.200    0.000   12.000 
#    0.000    9.000    0.000    0.000    0.000    0.000 
#    0.000    0.000    0.000    0.000    0.000    0.000 
#
# Total GULP energy -111375.782832 kJ/mol
# GULP energy per Si atom -5568.789142 kJ/mol
# Density = 2.563494 g / cm^3
# Si number density = 25.693422 Si / 1000 Ang^3
#
#
#
# Elastic Constant Matrix: (Units=GPa)
#
#
# Indices 1 2 3 4 5 6 
#
# 1 88.1127 60.4386 15.1956 0.0000 -1.9245 0.0000
# 2 60.4386 251.2113 25.2107 0.0000 -21.1881 0.0000
# 3 15.1956 25.2107 87.8559 0.0000 37.1310 0.0000
# 4 0.0000 0.0000 0.0000 3.8013 0.0000 -17.8145
# 5 -1.9245 -21.1881 37.1310 0.0000 26.7905 0.0000
# 6 0.0000 0.0000 0.0000 -17.8145 0.0000 7.3112
#
#
#
# Elastic Compliance Matrix: (Units=1/GPa)
#
#
# Indices 1 2 3 4 5 6 
#
# 1 0.013804 -0.002906 -0.002417 0.000000 0.002043 0.000000
# 2 -0.002906 0.007165 -0.009318 0.000000 0.018372 0.000000
# 3 -0.002417 -0.009318 0.042637 0.000000 -0.066637 0.000000
# 4 0.000000 0.000000 0.000000 -0.025249 0.000000 -0.061522
# 5 0.002043 0.018372 -0.066637 0.000000 0.144361 0.000000
# 6 0.000000 0.000000 0.000000 -0.061522 0.000000 -0.013127
#
#
# Mechanical properties :
#
#
# Convention : Reuss Voigt Hill
#
# Bulk Modulus (GPa) = 29.13455 69.87442 49.50449
# Shear Modulus (GPa) = 23.77398 29.33627 26.55512
#
# Velocity S-wave (km/s) = 3.04517 3.38269 3.21836
# Velocity P-wave (km/s) = 4.87114 6.52007 5.75497
#
# Compressibility (1/GPa) = 0.03432351
#
# Stress axis : x y z
#
# Youngs Moduli (GPa) = 72.44282 139.57598 23.45358
#
# Poissons Ratio (x) = 0.40563 0.05669
# Poissons Ratio (y) = 0.21053 0.21854
# Poissons Ratio (z) = 0.17511 1.30055
#
# Static dielectric constant tensor:
#      x y z
#    x 2.146760 0.000000 0.003070 
#    y 0.000000 2.017570 0.000000 
#    z 0.003070 0.000000 1.946900 
# 
# From -- ./inp_files/2224.got.cif
#   From: 2010.05.17/outbox.cif.g08.bks.cpg/sg11_2_cif.got.tgz:2224.got - 2010.06.03 12:22:45.
