data_PCOD9166421
_publ_section_title
;
Structure prediction by ZEFSAII (Michael W. Deem and Ramdas Pophale) SiO2 
 PCOD9166421
Probable space group: P 21/M
;
_chemical_formula_sum "Si O2"
_cell_formula_units_Z 32
_cell_length_a 15.655383
_cell_length_b 8.805505
_cell_length_c 12.384748
_cell_angle_alpha 90.000000
_cell_angle_beta 89.526254
_cell_angle_gamma 90.000000
_cell_volume 1707.223158
_symmetry_space_group_name_H-M "P 21/M"
_symmetry_group_IT_number 11
_symmetry_cell_setting 'monoclinic'
loop_
_space_group_symop_operation_xyz
x,y,z
-x,1/2+y,-z
-x,-y,-z
x,1/2-y,z
loop_
_atom_site_type_symbol
_atom_site_label
_atom_site_fract_x
_atom_site_fract_y
_atom_site_fract_z
Si Si1 0.147544 0.924352 0.742431
Si Si2 0.250249 0.434921 0.363418
Si Si3 0.648758 0.076233 0.266202
Si Si4 0.906585 0.932127 0.482186
Si Si5 0.591487 0.067261 0.028536
Si Si6 0.406475 0.069776 0.513346
Si Si7 0.253265 0.066183 0.112410
Si Si8 0.090836 0.432019 0.967129
O O1 0.116217 0.750000 0.737725
O O2 0.249692 0.921456 0.748274
O O3 0.122944 0.012047 0.634628
O O4 0.113464 0.005769 0.848998
O O5 0.250615 0.250000 0.364696
O O6 0.164975 0.482323 0.429380
O O7 0.334931 0.485481 0.427948
O O8 0.250528 0.481692 0.238118
O O9 0.619841 0.250000 0.288684
O O10 0.625438 0.973044 0.367204
O O11 0.610535 0.025635 0.152716
O O12 0.910657 0.750000 0.485700
O O13 0.000000 0.000000 0.500000
O O14 0.591320 0.250000 0.021385
O O15 0.665928 0.002846 0.951074
O O16 0.500000 0.000000 0.000000
O O17 0.412452 0.250000 0.501013
O O18 0.500000 0.000000 0.500000
O O19 0.260184 0.250000 0.109559
O O20 0.166522 0.023748 0.049642
O O21 0.086561 0.250000 0.966165
O O22 0.000000 0.500000 0.000000
#
# Coordination Sequence:
#
# PCOD9166421 Si02
#       8
#     4   4   4   4   4   4   4   4
#     4  11  22  41  66  90 123 163 208 262 314 368
#     4   9  21  41  62  85 122 164 200 246 306 365
#     4  10  22  41  64  88 121 161 206 258 310 363
#     4  11  23  41  64  94 126 164 210 256 311 372
#     4  11  24  42  63  92 124 161 205 257 311 369
#     4  11  23  40  63  91 124 161 204 253 306 367
#     4  10  22  42  64  88 122 166 206 249 308 371
#     4  11  24  40  64  94 126 164 209 257 310 374
#
# _framework density 18.743888999999999
#
# number of rings (size 3 to 8) (size 9 to 14) (size 15 to 20)
#    0.000    1.500    2.500    1.875    3.500    2.000 
#    0.000    1.875    0.000    0.000    0.000    0.000 
#    0.000    0.000    0.000    0.000    0.000    0.000 
#
# Total GULP energy -178790.756993 kJ/mol
# GULP energy per Si atom -5587.211156 kJ/mol
# Density = 1.870123 g / cm^3
# Si number density = 18.743889 Si / 1000 Ang^3
#
#
#
# Elastic Constant Matrix: (Units=GPa)
#
#
# Indices 1 2 3 4 5 6 
#
# 1 125.3348 31.0861 50.7239 0.0000 -5.1689 0.0000
# 2 31.0861 45.9993 27.7965 0.0000 -4.0252 0.0000
# 3 50.7239 27.7965 130.9387 0.0000 -3.1343 0.0000
# 4 0.0000 0.0000 0.0000 30.8238 0.0000 -3.8075
# 5 -5.1689 -4.0252 -3.1343 0.0000 31.7321 0.0000
# 6 0.0000 0.0000 0.0000 -3.8075 0.0000 36.0972
#
#
#
# Elastic Compliance Matrix: (Units=1/GPa)
#
#
# Indices 1 2 3 4 5 6 
#
# 1 0.010501 -0.005258 -0.002934 0.000000 0.000754 0.000000
# 2 -0.005258 0.027795 -0.003809 0.000000 0.002293 0.000000
# 3 -0.002934 -0.003809 0.009582 0.000000 -0.000015 0.000000
# 4 0.000000 0.000000 0.000000 0.032871 0.000000 0.003467
# 5 0.000754 0.002293 -0.000015 0.000000 0.031926 0.000000
# 6 0.000000 0.000000 0.000000 0.003467 0.000000 0.028069
#
#
# Mechanical properties :
#
#
# Convention : Reuss Voigt Hill
#
# Bulk Modulus (GPa) = 41.88109 57.94288 49.91199
# Shear Modulus (GPa) = 28.95140 32.57503 30.76321
#
# Velocity S-wave (km/s) = 3.93438 4.17334 4.05562
# Velocity P-wave (km/s) = 6.55984 7.36223 6.97258
#
# Compressibility (1/GPa) = 0.02387713
#
# Stress axis : x y z
#
# Youngs Moduli (GPa) = 95.22804 35.97782 104.36367
#
# Poissons Ratio (x) = 0.18916 0.30618
# Poissons Ratio (y) = 0.50069 0.39750
# Poissons Ratio (z) = 0.27938 0.13703
#
# Static dielectric constant tensor:
#      x y z
#    x 1.668740 0.000000 -0.013800 
#    y 0.000000 1.645810 0.000000 
#    z -0.013800 0.000000 1.570120 
# 
# From -- ./inp_files/38074.got.cif
#   From: 2010.05.17/outbox.cif.g08.bks.cpg/sg11_20_cif.got.tgz:38074.got - 2010.06.03 12:22:45.
