data_PCOD9166559
_publ_section_title
;
Structure prediction by ZEFSAII (Michael W. Deem and Ramdas Pophale) SiO2 
 PCOD9166559
Probable space group: P 21/M
;
_chemical_formula_sum "Si O2"
_cell_formula_units_Z 18
_cell_length_a 4.903867
_cell_length_b 18.819754
_cell_length_c 8.708876
_cell_angle_alpha 90.000000
_cell_angle_beta 76.779452
_cell_angle_gamma 90.000000
_cell_volume 782.436904
_symmetry_space_group_name_H-M "P 21/M"
_symmetry_group_IT_number 11
_symmetry_cell_setting 'monoclinic'
loop_
_space_group_symop_operation_xyz
x,y,z
-x,1/2+y,-z
-x,-y,-z
x,1/2-y,z
loop_
_atom_site_type_symbol
_atom_site_label
_atom_site_fract_x
_atom_site_fract_y
_atom_site_fract_z
Si Si1 0.144981 0.061154 0.879378
Si Si2 0.927505 0.171748 0.132014
Si Si3 0.266794 0.961986 0.328930
Si Si4 0.486760 0.107877 0.404342
Si Si5 0.725525 0.750000 0.660257
O O1 0.475931 0.050850 0.822437
O O2 0.012942 0.055450 0.726958
O O3 0.064221 0.135791 0.968135
O O4 0.000000 0.000000 0.000000
O O5 0.781385 0.250000 0.126339
O O6 0.705205 0.119719 0.236694
O O7 0.155829 0.189471 0.231756
O O8 0.340944 0.915549 0.467652
O O9 0.286481 0.043485 0.380849
O O10 0.362476 0.185807 0.445086
#
# Coordination Sequence:
#
# PCOD9166559 Si02
#       5
#     4   4   4   4   2
#     4  12  24  45  68 102 135 173 218 277 334 393
#     4  10  24  40  69  92 132 179 220 262 331 408
#     4  11  28  41  72 100 135 170 225 284 330 379
#     4  11  23  45  67  98 130 177 227 272 329 401
#     4  10  22  42  70  94 130 182 222 266 328 412
#
# _framework density 23.005049
#
# number of rings (size 3 to 8) (size 9 to 14) (size 15 to 20)
#    0.667    0.444    3.333    2.000    6.222    1.778 
#    4.000    0.000    0.000    0.000    0.000    0.000 
#    0.000    0.000    0.000    0.000    0.000    0.000 
#
# Total GULP energy -100253.288685 kJ/mol
# GULP energy per Si atom -5569.627149 kJ/mol
# Density = 2.295269 g / cm^3
# Si number density = 23.005049 Si / 1000 Ang^3
#
#
#
# Elastic Constant Matrix: (Units=GPa)
#
#
# Indices 1 2 3 4 5 6 
#
# 1 85.8982 8.5157 -65.5614 0.0000 -14.3927 0.0000
# 2 8.5157 160.9109 51.2699 0.0000 30.2146 0.0000
# 3 -65.5614 51.2699 356.0631 0.0000 91.4625 0.0000
# 4 0.0000 0.0000 0.0000 45.8594 0.0000 7.6470
# 5 -14.3927 30.2146 91.4625 0.0000 72.4407 0.0000
# 6 0.0000 0.0000 0.0000 7.6470 0.0000 31.6300
#
#
#
# Elastic Compliance Matrix: (Units=1/GPa)
#
#
# Indices 1 2 3 4 5 6 
#
# 1 0.013943 -0.001616 0.002835 0.000000 -0.000135 0.000000
# 2 -0.001616 0.006963 -0.000698 0.000000 -0.002344 0.000000
# 3 0.002835 -0.000698 0.004753 0.000000 -0.005147 0.000000
# 4 0.000000 0.000000 0.000000 0.022722 0.000000 -0.005493
# 5 -0.000135 -0.002344 -0.005147 0.000000 0.021253 0.000000
# 6 0.000000 0.000000 0.000000 -0.005493 0.000000 0.032944
#
#
# Mechanical properties :
#
#
# Convention : Reuss Voigt Hill
#
# Bulk Modulus (GPa) = 37.45336 65.70228 51.57782
# Shear Modulus (GPa) = 45.27533 70.56257 57.91895
#
# Velocity S-wave (km/s) = 4.44110 5.54430 5.02307
# Velocity P-wave (km/s) = 6.52791 8.34312 7.49070
#
# Compressibility (1/GPa) = 0.02669988
#
# Stress axis : x y z
#
# Youngs Moduli (GPa) = 71.72204 143.62398 210.39560
#
# Poissons Ratio (x) = 0.23206 -0.59637
# Poissons Ratio (y) = 0.11588 0.14686
# Poissons Ratio (z) = -0.20330 0.10025
#
# Static dielectric constant tensor:
#      x y z
#    x 2.214950 0.000000 -0.159190 
#    y 0.000000 1.865500 0.000000 
#    z -0.159190 0.000000 1.885880 
# 
# From -- ./inp_files/1981.got.cif
#   From: 2010.05.17/outbox.cif.g08.bks.cpg/sg11_1_cif.got.tgz:1981.got - 2010.06.03 12:22:45.
