data_PCOD9166431
_publ_section_title
;
Structure prediction by ZEFSAII (Michael W. Deem and Ramdas Pophale) SiO2 
 PCOD9166431
Probable space group: P 21/M
;
_chemical_formula_sum "Si O2"
_cell_formula_units_Z 28
_cell_length_a 15.976217
_cell_length_b 8.602176
_cell_length_c 12.097430
_cell_angle_alpha 90.000000
_cell_angle_beta 123.887303
_cell_angle_gamma 90.000000
_cell_volume 1380.144532
_symmetry_space_group_name_H-M "P 21/M"
_symmetry_group_IT_number 11
_symmetry_cell_setting 'monoclinic'
loop_
_space_group_symop_operation_xyz
x,y,z
-x,1/2+y,-z
-x,-y,-z
x,1/2-y,z
loop_
_atom_site_type_symbol
_atom_site_label
_atom_site_fract_x
_atom_site_fract_y
_atom_site_fract_z
Si Si1 0.710282 0.564118 0.414122
Si Si2 0.112954 0.935160 0.593907
Si Si3 0.679636 0.062181 0.870585
Si Si4 0.043598 0.063861 0.147603
Si Si5 0.862026 0.564721 0.151110
Si Si6 0.268846 0.935890 0.337816
Si Si7 0.483612 0.062680 0.865497
O O1 0.719634 0.750000 0.415619
O O2 0.815228 0.489757 0.452360
O O3 0.684987 0.513924 0.519865
O O4 0.621539 0.511961 0.266352
O O5 0.109725 0.750000 0.596043
O O6 0.158465 0.002957 0.741108
O O7 0.000000 0.000000 0.500000
O O8 0.691229 0.250000 0.886229
O O9 0.681373 0.020423 0.742606
O O10 0.576990 0.016805 0.856272
O O11 0.773614 0.986157 0.003047
O O12 0.050159 0.250000 0.148990
O O13 0.153052 0.991303 0.246191
O O14 0.965464 0.011003 0.183913
O O15 0.000000 0.000000 0.000000
O O16 0.871762 0.750000 0.159374
O O17 0.272465 0.750000 0.351722
O O18 0.482137 0.250000 0.868676
O O19 0.500000 0.000000 0.000000
#
# Coordination Sequence:
#
# PCOD9166431 Si02
#       7
#     4   4   4   4   4   4   4
#     4  11  24  43  65  93 130 167 209 261 319 378
#     4  12  25  43  65  91 125 164 210 259 315 377
#     4  10  22  41  64  91 125 164 212 262 313 370
#     4  12  23  38  60  90 128 169 211 258 311 370
#     4  12  24  39  62  93 127 165 211 260 318 376
#     4  11  23  40  63  92 128 169 214 260 314 378
#     4  10  23  43  67  94 124 163 208 263 319 376
#
# _framework density 20.287731000000001
#
# number of rings (size 3 to 8) (size 9 to 14) (size 15 to 20)
#    0.000    0.857    1.429    6.429    0.000    5.143 
#    0.000    0.000    0.000    0.000    0.000    0.000 
#    0.000    0.000    0.000    0.000    0.000    0.000 
#
# Total GULP energy -156749.737553 kJ/mol
# GULP energy per Si atom -5598.204913 kJ/mol
# Density = 2.024156 g / cm^3
# Si number density = 20.287731 Si / 1000 Ang^3
#
#
#
# Elastic Constant Matrix: (Units=GPa)
#
#
# Indices 1 2 3 4 5 6 
#
# 1 116.1245 6.9253 35.5606 0.0000 -6.4308 0.0000
# 2 6.9253 35.2590 10.9553 0.0000 -0.8462 0.0000
# 3 35.5606 10.9553 124.1285 0.0000 -10.6193 0.0000
# 4 0.0000 0.0000 0.0000 36.3038 0.0000 -7.5158
# 5 -6.4308 -0.8462 -10.6193 0.0000 37.0660 0.0000
# 6 0.0000 0.0000 0.0000 -7.5158 0.0000 22.9573
#
#
#
# Elastic Compliance Matrix: (Units=1/GPa)
#
#
# Indices 1 2 3 4 5 6 
#
# 1 0.009506 -0.001052 -0.002554 0.000000 0.000893 0.000000
# 2 -0.001052 0.029278 -0.002297 0.000000 -0.000172 0.000000
# 3 -0.002554 -0.002297 0.009173 0.000000 0.002133 0.000000
# 4 0.000000 0.000000 0.000000 0.029548 0.000000 0.009673
# 5 0.000893 -0.000172 0.002133 0.000000 0.027741 0.000000
# 6 0.000000 0.000000 0.000000 0.009673 0.000000 0.046726
#
#
# Mechanical properties :
#
#
# Convention : Reuss Voigt Hill
#
# Bulk Modulus (GPa) = 27.66256 42.48825 35.07541
# Shear Modulus (GPa) = 28.43684 34.07013 31.25349
#
# Velocity S-wave (km/s) = 3.74796 4.10243 3.92919
# Velocity P-wave (km/s) = 5.69160 6.59001 6.15721
#
# Compressibility (1/GPa) = 0.03614995
#
# Stress axis : x y z
#
# Youngs Moduli (GPa) = 105.19938 34.15551 109.01533
#
# Poissons Ratio (x) = 0.03593 0.27842
# Poissons Ratio (y) = 0.11068 0.25044
# Poissons Ratio (z) = 0.26867 0.07847
#
# Static dielectric constant tensor:
#      x y z
#    x 1.710760 0.000000 -0.025700 
#    y 0.000000 1.677380 0.000000 
#    z -0.025700 0.000000 1.629820 
# 
# From -- ./inp_files/38468.got.cif
#   From: 2010.05.17/outbox.cif.g08.bks.cpg/sg11_20_cif.got.tgz:38468.got - 2010.06.03 12:22:45.
