data_PCOD9166942
_publ_section_title
;
Structure prediction by ZEFSAII (Michael W. Deem and Ramdas Pophale) SiO2 
 PCOD9166942
Probable space group: P 21/M
;
_chemical_formula_sum "Si O2"
_cell_formula_units_Z 30
_cell_length_a 14.856313
_cell_length_b 9.068748
_cell_length_c 12.074152
_cell_angle_alpha 90.000000
_cell_angle_beta 71.703677
_cell_angle_gamma 90.000000
_cell_volume 1544.490039
_symmetry_space_group_name_H-M "P 21/M"
_symmetry_group_IT_number 11
_symmetry_cell_setting 'monoclinic'
loop_
_space_group_symop_operation_xyz
x,y,z
-x,1/2+y,-z
-x,-y,-z
x,1/2-y,z
loop_
_atom_site_type_symbol
_atom_site_label
_atom_site_fract_x
_atom_site_fract_y
_atom_site_fract_z
Si Si1 0.649223 0.500613 0.976942
Si Si2 0.514652 0.574938 0.375330
Si Si3 0.010533 0.575080 0.616362
Si Si4 0.202762 0.082122 0.265212
Si Si5 0.489566 0.750000 0.061428
Si Si6 0.190979 0.425902 0.659033
Si Si7 0.696986 0.421564 0.201383
Si Si8 0.301522 0.578174 0.424727
O O1 0.730098 0.563897 0.865734
O O2 0.572652 0.622924 0.041141
O O3 0.590678 0.377335 0.933727
O O4 0.696466 0.437720 0.069938
O O5 0.500000 0.500000 0.500000
O O6 0.535397 0.750000 0.376536
O O7 0.597861 0.490937 0.281297
O O8 0.412831 0.560605 0.354615
O O9 0.030302 0.750000 0.596628
O O10 0.094388 0.496735 0.650529
O O11 0.000000 0.500000 0.500000
O O12 0.908188 0.558165 0.713765
O O13 0.212455 0.250000 0.305140
O O14 0.238573 0.972820 0.346634
O O15 0.186110 0.250000 0.661710
O O16 0.221508 0.490064 0.765757
O O17 0.271652 0.480958 0.541511
O O18 0.701089 0.250000 0.231516
O O19 0.286323 0.750000 0.457251
#
# Coordination Sequence:
#
# PCOD9166942 Si02
#       8
#     4   4   4   4   2   4   4   4
#     4  11  25  44  68 101 136 179 224 273 331 390
#     4  11  24  38  58  90 129 173 216 264 323 393
#     4  11  23  43  69  99 133 173 222 281 340 399
#     4  11  25  42  67  98 134 170 220 278 333 397
#     4  10  24  44  68  94 132 178 228 266 316 390
#     4  12  25  43  66  95 129 174 220 274 340 401
#     4  12  26  43  65  93 135 180 225 274 335 406
#     4  11  24  38  62  94 131 171 218 270 329 396
#
# _framework density 19.423886
#
# number of rings (size 3 to 8) (size 9 to 14) (size 15 to 20)
#    0.000    0.800    4.000    2.800    6.533    2.133 
#    0.000    0.667    0.000    0.000    0.000    0.000 
#    0.000    0.000    0.000    0.000    0.000    0.000 
#
# Total GULP energy -167239.282262 kJ/mol
# GULP energy per Si atom -5574.642742 kJ/mol
# Density = 1.937968 g / cm^3
# Si number density = 19.423886 Si / 1000 Ang^3
#
#
#
# Elastic Constant Matrix: (Units=GPa)
#
#
# Indices 1 2 3 4 5 6 
#
# 1 134.0131 63.7899 27.7608 0.0000 1.5153 0.0000
# 2 63.7899 158.2778 10.5876 0.0000 0.7498 0.0000
# 3 27.7608 10.5876 51.4797 0.0000 5.4461 0.0000
# 4 0.0000 0.0000 0.0000 12.8238 0.0000 -4.2544
# 5 1.5153 0.7498 5.4461 0.0000 13.2381 0.0000
# 6 0.0000 0.0000 0.0000 -4.2544 0.0000 31.4737
#
#
#
# Elastic Compliance Matrix: (Units=1/GPa)
#
#
# Indices 1 2 3 4 5 6 
#
# 1 0.010277 -0.003821 -0.004866 0.000000 0.001042 0.000000
# 2 -0.003821 0.007827 0.000472 0.000000 -0.000200 0.000000
# 3 -0.004866 0.000472 0.022893 0.000000 -0.008888 0.000000
# 4 0.000000 0.000000 0.000000 0.081641 0.000000 0.011036
# 5 0.001042 -0.000200 -0.008888 0.000000 0.079088 0.000000
# 6 0.000000 0.000000 0.000000 0.011036 0.000000 0.033264
#
#
# Mechanical properties :
#
#
# Convention : Reuss Voigt Hill
#
# Bulk Modulus (GPa) = 40.70703 60.89411 50.80057
# Shear Modulus (GPa) = 19.25959 27.61593 23.43776
#
# Velocity S-wave (km/s) = 3.15229 3.77470 3.47745
# Velocity P-wave (km/s) = 5.85252 7.10042 6.50646
#
# Compressibility (1/GPa) = 0.02456578
#
# Stress axis : x y z
#
# Youngs Moduli (GPa) = 97.30271 127.75487 43.68240
#
# Poissons Ratio (x) = 0.48820 0.21257
# Poissons Ratio (y) = 0.37183 -0.02062
# Poissons Ratio (z) = 0.47351 -0.06030
#
# Static dielectric constant tensor:
#      x y z
#    x 1.673180 0.000000 0.004260 
#    y 0.000000 1.659910 0.000000 
#    z 0.004260 0.000000 1.684580 
# 
# From -- ./inp_files/38024.got.cif
#   From: 2010.05.17/outbox.cif.g08.bks.cpg/sg11_20_cif.got.tgz:38024.got - 2010.06.03 12:22:45.
