data_PCOD9166648
_publ_section_title
;
Structure prediction by ZEFSAII (Michael W. Deem and Ramdas Pophale) SiO2 
 PCOD9166648
Probable space group: P 21/M
;
_chemical_formula_sum "Si O2"
_cell_formula_units_Z 20
_cell_length_a 5.242351
_cell_length_b 27.757143
_cell_length_c 8.806986
_cell_angle_alpha 90.000000
_cell_angle_beta 136.158832
_cell_angle_gamma 90.000000
_cell_volume 887.665358
_symmetry_space_group_name_H-M "P 21/M"
_symmetry_group_IT_number 11
_symmetry_cell_setting 'monoclinic'
loop_
_space_group_symop_operation_xyz
x,y,z
-x,1/2+y,-z
-x,-y,-z
x,1/2-y,z
loop_
_atom_site_type_symbol
_atom_site_label
_atom_site_fract_x
_atom_site_fract_y
_atom_site_fract_z
Si Si1 0.177507 0.194023 0.012781
Si Si2 0.655367 0.562535 0.424666
Si Si3 0.522249 0.023677 0.173962
Si Si4 0.719875 0.608998 0.753957
Si Si5 0.482976 0.645743 0.125619
O O1 0.261853 0.250000 0.061662
O O2 0.268765 0.173367 0.886834
O O3 0.752693 0.182571 0.871503
O O4 0.399734 0.160405 0.229207
O O5 0.433492 0.517631 0.260251
O O6 0.520119 0.585358 0.525053
O O7 0.669306 0.605586 0.309254
O O8 0.059392 0.541203 0.624788
O O9 0.285492 0.070735 0.111387
O O10 0.500000 0.000000 0.000000
O O11 0.145904 0.618820 0.893478
#
# Coordination Sequence:
#
# PCOD9166648 Si02
#       5
#     4   4   4   4   4
#     4  10  22  45  71  95 129 173 223 284 345 394
#     4  11  23  39  65  99 137 181 223 273 329 407
#     4  11  24  40  64 100 142 185 220 274 333 407
#     4  10  23  40  66  96 135 174 222 278 331 399
#     4  10  24  42  71  95 135 172 222 275 337 398
#
# _framework density 22.531015
#
# number of rings (size 3 to 8) (size 9 to 14) (size 15 to 20)
#    1.200    0.400    0.000    4.800    2.800    4.800 
#    0.000    2.000    0.000    0.000    0.000    0.000 
#    0.000    0.000    0.000    0.000    0.000    0.000 
#
# Total GULP energy -111707.769514 kJ/mol
# GULP energy per Si atom -5585.388476 kJ/mol
# Density = 2.247973 g / cm^3
# Si number density = 22.531015 Si / 1000 Ang^3
#
#
#
# Elastic Constant Matrix: (Units=GPa)
#
#
# Indices 1 2 3 4 5 6 
#
# 1 101.8781 50.8347 19.0210 0.0000 -29.1910 0.0000
# 2 50.8347 210.3314 58.3728 0.0000 -36.3693 0.0000
# 3 19.0210 58.3728 49.2922 0.0000 -23.3549 0.0000
# 4 0.0000 0.0000 0.0000 24.8401 0.0000 -3.2196
# 5 -29.1910 -36.3693 -23.3549 0.0000 32.0814 0.0000
# 6 0.0000 0.0000 0.0000 -3.2196 0.0000 27.4707
#
#
#
# Elastic Compliance Matrix: (Units=1/GPa)
#
#
# Indices 1 2 3 4 5 6 
#
# 1 0.013837 -0.002006 0.002937 0.000000 0.012454 0.000000
# 2 -0.002006 0.007559 -0.007605 0.000000 0.001208 0.000000
# 3 0.002937 -0.007605 0.038684 0.000000 0.022212 0.000000
# 4 0.000000 0.000000 0.000000 0.040878 0.000000 0.004791
# 5 0.012454 0.001208 0.022212 0.000000 0.060042 0.000000
# 6 0.000000 0.000000 0.000000 0.004791 0.000000 0.036964
#
#
# Mechanical properties :
#
#
# Convention : Reuss Voigt Hill
#
# Bulk Modulus (GPa) = 21.39879 68.66207 45.03043
# Shear Modulus (GPa) = 22.03726 32.43000 27.23363
#
# Velocity S-wave (km/s) = 3.13083 3.79799 3.48043
# Velocity P-wave (km/s) = 4.75264 7.05504 6.01503
#
# Compressibility (1/GPa) = 0.04673161
#
# Stress axis : x y z
#
# Youngs Moduli (GPa) = 72.27204 132.30131 25.85040
#
# Poissons Ratio (x) = 0.26535 -0.07591
# Poissons Ratio (y) = 0.14495 0.19659
# Poissons Ratio (z) = -0.21224 1.00613
#
# Static dielectric constant tensor:
#      x y z
#    x 1.867260 0.000000 0.012900 
#    y 0.000000 1.813010 0.000000 
#    z 0.012900 0.000000 1.872640 
# 
# From -- ./inp_files/10628.got.cif
#   From: 2010.05.17/outbox.cif.g08.bks.cpg/sg11_6_cif.got.tgz:10628.got - 2010.06.03 12:22:45.
