data_PCOD9166974
_publ_section_title
;
Structure prediction by ZEFSAII (Michael W. Deem and Ramdas Pophale) SiO2 
 PCOD9166974
Probable space group: P 21/M
;
_chemical_formula_sum "Si O2"
_cell_formula_units_Z 28
_cell_length_a 16.950927
_cell_length_b 15.070115
_cell_length_c 4.926073
_cell_angle_alpha 90.000000
_cell_angle_beta 62.888032
_cell_angle_gamma 90.000000
_cell_volume 1120.103790
_symmetry_space_group_name_H-M "P 21/M"
_symmetry_group_IT_number 11
_symmetry_cell_setting 'monoclinic'
loop_
_space_group_symop_operation_xyz
x,y,z
-x,1/2+y,-z
-x,-y,-z
x,1/2-y,z
loop_
_atom_site_type_symbol
_atom_site_label
_atom_site_fract_x
_atom_site_fract_y
_atom_site_fract_z
Si Si1 0.367148 0.646830 0.496572
Si Si2 0.906427 0.418310 0.910469
Si Si3 0.552576 0.855175 0.894079
Si Si4 0.177641 0.098003 0.805012
Si Si5 0.915594 0.655001 0.536972
Si Si6 0.814706 0.348233 0.539890
Si Si7 0.369649 0.453434 0.720489
O O1 0.363228 0.750000 0.613508
O O2 0.279278 0.632278 0.452564
O O3 0.453648 0.643220 0.170926
O O4 0.370897 0.560617 0.687610
O O5 0.875460 0.506576 0.105555
O O6 0.844503 0.408419 0.742690
O O7 0.006218 0.412630 0.651223
O O8 0.884897 0.349753 0.184081
O O9 0.578288 0.750000 0.832868
O O10 0.561458 0.905699 0.594311
O O11 0.610422 0.913056 0.015974
O O12 0.120436 0.153722 0.105528
O O13 0.168181 0.137938 0.523949
O O14 0.275276 0.081029 0.758724
O O15 0.956348 0.750000 0.413120
O O16 0.810229 0.250000 0.666409
#
# Coordination Sequence:
#
# PCOD9166974 Si02
#       7
#     4   4   4   4   4   4   4
#     4  10  24  46  72 108 144 180 232 288 349 421
#     4  12  24  45  69  97 136 171 227 274 344 407
#     4  11  26  46  73 105 140 185 237 288 341 410
#     4  12  26  44  70  98 137 177 230 279 340 409
#     4  12  26  45  69  99 134 179 226 285 341 405
#     4  11  23  40  69 102 136 174 217 279 342 409
#     4  12  25  46  74 100 144 187 230 285 354 408
#
# _framework density 24.997682000000001
#
# number of rings (size 3 to 8) (size 9 to 14) (size 15 to 20)
#    0.000    0.571    1.429    6.429    2.000    4.571 
#    0.000    6.429    0.000    0.000    0.000    0.000 
#    0.000    0.000    0.000    0.000    0.000    0.000 
#
# Total GULP energy -156843.629037 kJ/mol
# GULP energy per Si atom -5601.558180 kJ/mol
# Density = 2.494079 g / cm^3
# Si number density = 24.997682 Si / 1000 Ang^3
#
#
#
# Elastic Constant Matrix: (Units=GPa)
#
#
# Indices 1 2 3 4 5 6 
#
# 1 80.3585 14.8956 4.6486 0.0000 -5.0829 0.0000
# 2 14.8956 80.2230 17.7448 0.0000 16.5380 0.0000
# 3 4.6486 17.7448 67.9265 0.0000 3.5756 0.0000
# 4 0.0000 0.0000 0.0000 18.8785 0.0000 -4.1958
# 5 -5.0829 16.5380 3.5756 0.0000 47.9483 0.0000
# 6 0.0000 0.0000 0.0000 -4.1958 0.0000 19.4334
#
#
#
# Elastic Compliance Matrix: (Units=1/GPa)
#
#
# Indices 1 2 3 4 5 6 
#
# 1 0.013145 -0.002876 -0.000275 0.000000 0.002406 0.000000
# 2 -0.002876 0.014816 -0.003402 0.000000 -0.005161 0.000000
# 3 -0.000275 -0.003402 0.015630 0.000000 -0.000021 0.000000
# 4 0.000000 0.000000 0.000000 0.055640 0.000000 0.012013
# 5 0.002406 -0.005161 -0.000021 0.000000 0.022893 0.000000
# 6 0.000000 0.000000 0.000000 0.012013 0.000000 0.054052
#
#
# Mechanical properties :
#
#
# Convention : Reuss Voigt Hill
#
# Bulk Modulus (GPa) = 32.80202 33.67625 33.23913
# Shear Modulus (GPa) = 25.06971 29.99997 27.53484
#
# Velocity S-wave (km/s) = 3.17027 3.46802 3.32248
# Velocity P-wave (km/s) = 5.15279 5.43481 5.29568
#
# Compressibility (1/GPa) = 0.03048593
#
# Stress axis : x y z
#
# Youngs Moduli (GPa) = 76.07209 67.49580 63.97777
#
# Poissons Ratio (x) = 0.19412 0.01759
# Poissons Ratio (y) = 0.21878 0.21765
# Poissons Ratio (z) = 0.02092 0.22961
#
# Static dielectric constant tensor:
#      x y z
#    x 1.935560 0.000000 -0.025070 
#    y 0.000000 1.788440 0.000000 
#    z -0.025070 0.000000 1.907510 
# 
# From -- ./inp_files/8000.got.cif
#   From: 2010.05.17/outbox.cif.g08.bks.cpg/sg11_4_cif.got.tgz:8000.got - 2010.06.03 12:22:45.
