data_PCOD9166285
_publ_section_title
;
Structure prediction by ZEFSAII (Michael W. Deem and Ramdas Pophale) SiO2 
 PCOD9166285
Probable space group: P 21/M
;
_chemical_formula_sum "Si O2"
_cell_formula_units_Z 28
_cell_length_a 9.495235
_cell_length_b 9.001458
_cell_length_c 24.964724
_cell_angle_alpha 90.000000
_cell_angle_beta 37.692666
_cell_angle_gamma 90.000000
_cell_volume 1304.635152
_symmetry_space_group_name_H-M "P 21/M"
_symmetry_group_IT_number 11
_symmetry_cell_setting 'monoclinic'
loop_
_space_group_symop_operation_xyz
x,y,z
-x,1/2+y,-z
-x,-y,-z
x,1/2-y,z
loop_
_atom_site_type_symbol
_atom_site_label
_atom_site_fract_x
_atom_site_fract_y
_atom_site_fract_z
Si Si1 0.956821 0.923733 0.175861
Si Si2 0.533882 0.424474 0.258862
Si Si3 0.251134 0.924220 0.923937
Si Si4 0.983148 0.572502 0.610467
Si Si5 0.955173 0.422008 0.283201
Si Si6 0.648064 0.926042 0.002023
Si Si7 0.433808 0.079334 0.464764
O O1 0.999382 0.750000 0.154065
O O2 0.691825 0.966476 0.245668
O O3 0.037315 0.972734 0.210848
O O4 0.094283 0.025883 0.092515
O O5 0.562893 0.250000 0.266177
O O6 0.622593 0.437093 0.170875
O O7 0.263938 0.461629 0.340219
O O8 0.223877 0.750000 0.944284
O O9 0.396188 0.002383 0.927039
O O10 0.000000 0.000000 0.000000
O O11 0.014599 0.750000 0.600578
O O12 0.985706 0.532037 0.673564
O O13 0.201495 0.499352 0.515603
O O14 0.032161 0.250000 0.252557
O O15 0.676183 0.423665 0.361413
O O16 0.622814 0.750000 0.010625
O O17 0.500000 0.000000 0.000000
O O18 0.376422 0.250000 0.492041
O O19 0.500000 0.000000 0.500000
#
# Coordination Sequence:
#
# PCOD9166285 Si02
#       7
#     4   4   4   4   4   4   4
#     4  12  25  40  59  87 119 155 198 242 295 350
#     4  10  22  40  61  85 118 159 195 237 294 350
#     4  11  22  39  64  90 117 158 202 240 291 349
#     4   9  19  36  60  89 116 150 194 239 291 347
#     4   9  19  36  59  85 117 155 192 238 296 349
#     4  12  26  44  64  88 120 155 196 247 298 351
#     4   9  17  32  56  85 116 152 190 235 290 344
#
# _framework density 21.461939000000001
#
# number of rings (size 3 to 8) (size 9 to 14) (size 15 to 20)
#    0.000    1.714    1.429    4.286    2.000    4.000 
#    0.000    0.714    0.000    0.000    0.000    0.000 
#    0.000    0.000    0.000    0.000    0.000    0.000 
#
# Total GULP energy -156450.757073 kJ/mol
# GULP energy per Si atom -5587.527038 kJ/mol
# Density = 2.141309 g / cm^3
# Si number density = 21.461939 Si / 1000 Ang^3
#
#
#
# Elastic Constant Matrix: (Units=GPa)
#
#
# Indices 1 2 3 4 5 6 
#
# 1 73.1186 29.4023 -4.1376 0.0000 -7.7918 0.0000
# 2 29.4023 97.9933 5.2694 0.0000 2.8006 0.0000
# 3 -4.1376 5.2694 17.8403 0.0000 -16.4877 0.0000
# 4 0.0000 0.0000 0.0000 28.6181 0.0000 -3.8563
# 5 -7.7918 2.8006 -16.4877 0.0000 36.4589 0.0000
# 6 0.0000 0.0000 0.0000 -3.8563 0.0000 32.9427
#
#
#
# Elastic Compliance Matrix: (Units=1/GPa)
#
#
# Indices 1 2 3 4 5 6 
#
# 1 0.018920 -0.007034 0.018386 0.000000 0.012899 0.000000
# 2 -0.007034 0.013292 -0.013556 0.000000 -0.008655 0.000000
# 3 0.018386 -0.013556 0.118398 0.000000 0.058513 0.000000
# 4 0.000000 0.000000 0.000000 0.035503 0.000000 0.004156
# 5 0.012899 -0.008655 0.058513 0.000000 0.057311 0.000000
# 6 0.000000 0.000000 0.000000 0.004156 0.000000 0.030842
#
#
# Mechanical properties :
#
#
# Convention : Reuss Voigt Hill
#
# Bulk Modulus (GPa) = 6.83983 27.78004 17.30994
# Shear Modulus (GPa) = 15.27152 30.16514 22.71833
#
# Velocity S-wave (km/s) = 2.67041 3.75309 3.25705
# Velocity P-wave (km/s) = 3.56398 5.63497 4.71460
#
# Compressibility (1/GPa) = 0.14620246
#
# Stress axis : x y z
#
# Youngs Moduli (GPa) = 52.85431 75.23548 8.44610
#
# Poissons Ratio (x) = 0.52922 -0.15529
# Poissons Ratio (y) = 0.37178 0.11449
# Poissons Ratio (z) = -0.97179 1.01986
#
# Static dielectric constant tensor:
#      x y z
#    x 2.334620 0.000000 -0.558940 
#    y 0.000000 1.705230 0.000000 
#    z -0.558940 0.000000 2.376460 
# 
# From -- ./inp_files/70830.got.cif
#   From: 2010.05.17/outbox.cif.g08.bks.cpg/sg11_36_cif.got.tgz:70830.got - 2010.06.03 12:22:45.
