data_PCOD9166353
_publ_section_title
;
Structure prediction by ZEFSAII (Michael W. Deem and Ramdas Pophale) SiO2 
 PCOD9166353
Probable space group: P 21/M
;
_chemical_formula_sum "Si O2"
_cell_formula_units_Z 24
_cell_length_a 15.002412
_cell_length_b 8.694173
_cell_length_c 15.344700
_cell_angle_alpha 90.000000
_cell_angle_beta 40.022488
_cell_angle_gamma 90.000000
_cell_volume 1287.117886
_symmetry_space_group_name_H-M "P 21/M"
_symmetry_group_IT_number 11
_symmetry_cell_setting 'monoclinic'
loop_
_space_group_symop_operation_xyz
x,y,z
-x,1/2+y,-z
-x,-y,-z
x,1/2-y,z
loop_
_atom_site_type_symbol
_atom_site_label
_atom_site_fract_x
_atom_site_fract_y
_atom_site_fract_z
Si Si1 0.148960 0.566019 0.917888
Si Si2 0.848757 0.565976 0.589998
Si Si3 0.843041 0.566961 0.896509
Si Si4 0.654433 0.066216 0.884145
Si Si5 0.137939 0.433426 0.621536
Si Si6 0.653910 0.565705 0.378203
O O1 0.142417 0.750000 0.923015
O O2 0.180002 0.504507 0.991102
O O3 0.262973 0.507644 0.764339
O O4 0.000000 0.500000 0.000000
O O5 0.849018 0.750000 0.602943
O O6 0.736939 0.490461 0.737088
O O7 0.821687 0.534472 0.508369
O O8 0.000000 0.500000 0.500000
O O9 0.828147 0.750000 0.910862
O O10 0.738695 0.496866 0.904060
O O11 0.998676 0.522888 0.750651
O O12 0.651874 0.250000 0.888397
O O13 0.500000 0.000000 0.000000
O O14 0.107595 0.250000 0.650755
O O15 0.258373 0.469259 0.600028
O O16 0.500000 0.500000 0.500000
O O17 0.650180 0.750000 0.370888
#
# Coordination Sequence:
#
# PCOD9166353 Si02
#       6
#     4   4   4   4   4   4
#     4  12  24  41  66  97 131 171 219 269 323 385
#     4  11  22  39  65  97 129 168 218 266 320 382
#     4  12  24  40  67  98 128 168 219 269 324 389
#     4  12  26  45  66  94 134 174 217 271 328 385
#     4  10  22  40  65  93 128 170 214 264 321 383
#     4  11  24  43  65  94 133 173 217 268 327 384
#
# _framework density 18.64631
#
# number of rings (size 3 to 8) (size 9 to 14) (size 15 to 20)
#    0.000    0.667    3.333    5.500    0.000    2.667 
#    0.000    5.000    0.000    0.000    0.000    0.000 
#    0.000    0.000    0.000    0.000    0.000    0.000 
#
# Total GULP energy -134325.875001 kJ/mol
# GULP energy per Si atom -5596.911458 kJ/mol
# Density = 1.860387 g / cm^3
# Si number density = 18.646310 Si / 1000 Ang^3
#
#
#
# Elastic Constant Matrix: (Units=GPa)
#
#
# Indices 1 2 3 4 5 6 
#
# 1 170.2364 107.6285 113.3577 0.0000 8.2940 0.0000
# 2 107.6285 167.2055 103.4204 0.0000 5.1361 0.0000
# 3 113.3577 103.4204 193.4742 0.0000 0.9889 0.0000
# 4 0.0000 0.0000 0.0000 40.1269 0.0000 -0.8401
# 5 8.2940 5.1361 0.9889 0.0000 41.7377 0.0000
# 6 0.0000 0.0000 0.0000 -0.8401 0.0000 33.7239
#
#
#
# Elastic Compliance Matrix: (Units=1/GPa)
#
#
# Indices 1 2 3 4 5 6 
#
# 1 0.012012 -0.004979 -0.004368 0.000000 -0.001671 0.000000
# 2 -0.004979 0.011039 -0.002982 0.000000 -0.000298 0.000000
# 3 -0.004368 -0.002982 0.009317 0.000000 0.001014 0.000000
# 4 0.000000 0.000000 0.000000 0.024934 0.000000 0.000621
# 5 -0.001671 -0.000298 0.001014 0.000000 0.024304 0.000000
# 6 0.000000 0.000000 0.000000 0.000621 0.000000 0.029668
#
#
# Mechanical properties :
#
#
# Convention : Reuss Voigt Hill
#
# Bulk Modulus (GPa) = 129.70449 131.08106 130.39278
# Shear Modulus (GPa) = 36.10055 36.88501 36.49278
#
# Velocity S-wave (km/s) = 4.40485 4.45245 4.42872
# Velocity P-wave (km/s) = 9.77659 9.84295 9.80983
#
# Compressibility (1/GPa) = 0.00770983
#
# Stress axis : x y z
#
# Youngs Moduli (GPa) = 83.25043 90.58473 107.33380
#
# Poissons Ratio (x) = 0.45103 0.46881
# Poissons Ratio (y) = 0.41451 0.32010
# Poissons Ratio (z) = 0.36362 0.27015
#
# Static dielectric constant tensor:
#      x y z
#    x 1.068970 0.000000 -0.799740 
#    y 0.000000 1.630090 0.000000 
#    z -0.799740 0.000000 0.401560 
# 
# From -- ./inp_files/51483.got.cif
#   From: 2010.05.17/outbox.cif.g08.bks.cpg/sg11_26_cif.got.tgz:51483.got - 2010.06.03 12:22:45.
