data_PCOD9166591
_publ_section_title
;
Structure prediction by ZEFSAII (Michael W. Deem and Ramdas Pophale) SiO2 
 PCOD9166591
Probable space group: P 21/M
;
_chemical_formula_sum "Si O2"
_cell_formula_units_Z 32
_cell_length_a 17.464712
_cell_length_b 14.828575
_cell_length_c 11.687160
_cell_angle_alpha 90.000000
_cell_angle_beta 32.048225
_cell_angle_gamma 90.000000
_cell_volume 1606.068194
_symmetry_space_group_name_H-M "P 21/M"
_symmetry_group_IT_number 11
_symmetry_cell_setting 'monoclinic'
loop_
_space_group_symop_operation_xyz
x,y,z
-x,1/2+y,-z
-x,-y,-z
x,1/2-y,z
loop_
_atom_site_type_symbol
_atom_site_label
_atom_site_fract_x
_atom_site_fract_y
_atom_site_fract_z
Si Si1 0.949717 0.350608 0.575920
Si Si2 0.910162 0.465178 0.837471
Si Si3 0.356691 0.357423 0.219069
Si Si4 0.286103 0.973056 0.711086
Si Si5 0.425160 0.354135 0.655750
Si Si6 0.316797 0.856873 0.236018
Si Si7 0.253688 0.106693 0.095231
Si Si8 0.791715 0.010670 0.450811
O O1 0.904778 0.250000 0.659999
O O2 0.978873 0.398084 0.658692
O O3 0.816383 0.390138 0.673287
O O4 0.095124 0.351282 0.317847
O O5 0.790904 0.514129 0.909930
O O6 0.043198 0.522832 0.717519
O O7 0.825575 0.432097 0.055686
O O8 0.324143 0.250000 0.264371
O O9 0.323648 0.392115 0.131900
O O10 0.269584 0.416840 0.420242
O O11 0.528378 0.370100 0.018425
O O12 0.332023 0.073206 0.699279
O O13 0.220697 0.984913 0.668801
O O14 0.421584 0.905249 0.532612
O O15 0.432361 0.250000 0.603673
O O16 0.355184 0.349588 0.871240
O O17 0.299714 0.750000 0.279104
O O18 0.304496 0.912292 0.368095
#
# Coordination Sequence:
#
# PCOD9166591 Si02
#       8
#     4   4   4   4   4   4   4   4
#     4  11  21  37  62  92 123 159 203 253 312 373
#     4  11  23  40  61  87 125 165 206 254 304 357
#     4  11  23  37  60  93 126 157 199 256 314 370
#     4  10  25  41  61  92 122 163 213 249 296 368
#     4  10  22  43  67  89 118 160 208 260 305 357
#     4  10  23  39  59  94 127 157 201 255 313 369
#     4  11  20  38  65  91 118 156 207 253 309 365
#     4  12  22  40  61  86 124 168 202 250 304 362
#
# _framework density 19.924434000000002
#
# number of rings (size 3 to 8) (size 9 to 14) (size 15 to 20)
#    0.000    1.250    2.500    3.750    0.000    5.500 
#    0.000    1.250    0.000    3.000    0.000    0.000 
#    0.000    0.000    0.000    0.000    0.000    0.000 
#
# Total GULP energy -178482.447338 kJ/mol
# GULP energy per Si atom -5577.576479 kJ/mol
# Density = 1.987909 g / cm^3
# Si number density = 19.924434 Si / 1000 Ang^3
#
#
#
# Elastic Constant Matrix: (Units=GPa)
#
#
# Indices 1 2 3 4 5 6 
#
# 1 77.3058 10.6812 22.4754 0.0000 13.1804 0.0000
# 2 10.6812 57.9486 26.4162 0.0000 16.7896 0.0000
# 3 22.4754 26.4162 100.1320 0.0000 7.2706 0.0000
# 4 0.0000 0.0000 0.0000 -4.0494 0.0000 -13.9143
# 5 13.1804 16.7896 7.2706 0.0000 36.2795 0.0000
# 6 0.0000 0.0000 0.0000 -13.9143 0.0000 10.9263
#
#
#
# Elastic Compliance Matrix: (Units=1/GPa)
#
#
# Indices 1 2 3 4 5 6 
#
# 1 0.014592 0.000017 -0.002937 0.000000 -0.004721 0.000000
# 2 0.000017 0.022325 -0.005219 0.000000 -0.009292 0.000000
# 3 -0.002937 -0.005219 0.011944 0.000000 0.001089 0.000000
# 4 0.000000 0.000000 0.000000 -0.045938 0.000000 -0.058500
# 5 -0.004721 -0.009292 0.001089 0.000000 0.033361 0.000000
# 6 0.000000 0.000000 0.000000 -0.058500 0.000000 0.017025
#
#
# Mechanical properties :
#
#
# Convention : Reuss Voigt Hill
#
# Bulk Modulus (GPa) = 30.69092 39.39246 35.04169
# Shear Modulus (GPa) = 62.15293 20.35221 41.25257
#
# Velocity S-wave (km/s) = 5.59125 3.19951 4.55516
# Velocity P-wave (km/s) = 7.55777 5.78472 6.72989
#
# Compressibility (1/GPa) = 0.03258292
#
# Stress axis : x y z
#
# Youngs Moduli (GPa) = 68.53057 44.79357 83.72560
#
# Poissons Ratio (x) = -0.00076 0.24590
# Poissons Ratio (y) = -0.00116 0.43694
# Poissons Ratio (z) = 0.20127 0.23376
#
# Static dielectric constant tensor:
#      x y z
#    x 1.715650 0.000000 -0.024510 
#    y 0.000000 1.739400 0.000000 
#    z -0.024510 0.000000 1.702820 
# 
# From -- ./inp_files/41612.got.cif
#   From: 2010.05.17/outbox.cif.g08.bks.cpg/sg11_21_cif.got.tgz:41612.got - 2010.06.03 12:22:45.
