data_PCOD9166772
_publ_section_title
;
Structure prediction by ZEFSAII (Michael W. Deem and Ramdas Pophale) SiO2 
 PCOD9166772
Probable space group: P 21/M
;
_chemical_formula_sum "Si O2"
_cell_formula_units_Z 28
_cell_length_a 5.323802
_cell_length_b 12.446160
_cell_length_c 20.748355
_cell_angle_alpha 90.000000
_cell_angle_beta 75.001637
_cell_angle_gamma 90.000000
_cell_volume 1327.969338
_symmetry_space_group_name_H-M "P 21/M"
_symmetry_group_IT_number 11
_symmetry_cell_setting 'monoclinic'
loop_
_space_group_symop_operation_xyz
x,y,z
-x,1/2+y,-z
-x,-y,-z
x,1/2-y,z
loop_
_atom_site_type_symbol
_atom_site_label
_atom_site_fract_x
_atom_site_fract_y
_atom_site_fract_z
Si Si1 0.833615 0.250000 0.891458
Si Si2 0.579986 0.026954 0.755238
Si Si3 0.390601 0.029830 0.576651
Si Si4 0.859893 0.374346 0.631877
Si Si5 0.210656 0.375657 0.165450
Si Si6 0.794310 0.015852 0.956616
Si Si7 0.410646 0.250000 0.805513
Si Si8 0.760644 0.125778 0.305219
O O1 0.790596 0.137806 0.930582
O O2 0.654355 0.250000 0.838891
O O3 0.138193 0.250000 0.858094
O O4 0.841814 0.068646 0.703248
O O5 0.419089 0.137152 0.767405
O O6 0.590868 0.967521 0.822662
O O7 0.462253 0.936168 0.718205
O O8 0.632594 0.075805 0.602296
O O9 0.149154 0.111054 0.586057
O O10 0.500000 0.000000 0.500000
O O11 0.252942 0.931134 0.624242
O O12 0.802864 0.250000 0.644398
O O13 0.292376 0.250000 0.153474
O O14 0.127430 0.427841 0.103484
O O15 0.002709 0.377861 0.238500
O O16 0.500000 0.000000 0.000000
O O17 0.000000 0.000000 0.000000
O O18 0.701342 0.250000 0.318267
#
# Coordination Sequence:
#
# PCOD9166772 Si02
#       8
#     2   4   4   4   4   4   2   4
#     4  12  26  48  70 100 140 184 227 283 354 424
#     4  11  22  41  66 105 135 177 227 289 349 410
#     4  11  24  44  67 100 143 184 237 288 350 419
#     4  11  23  41  67 100 137 181 229 290 349 416
#     4  11  24  44  71  99 136 182 233 289 346 416
#     4  12  29  48  71 101 139 183 234 287 350 417
#     4  12  24  40  76 102 138 174 227 287 358 414
#     4  10  23  42  68  99 139 184 234 287 347 417
#
# _framework density 21.084824999999999
#
# number of rings (size 3 to 8) (size 9 to 14) (size 15 to 20)
#    0.000    0.857    3.571    3.000    4.000    1.143 
#    0.000    0.000    0.000    0.000    0.000    0.000 
#    0.000    0.000    0.000    0.000    0.000    0.000 
#
# Total GULP energy -156159.373283 kJ/mol
# GULP energy per Si atom -5577.120474 kJ/mol
# Density = 2.103683 g / cm^3
# Si number density = 21.084825 Si / 1000 Ang^3
#
#
#
# Elastic Constant Matrix: (Units=GPa)
#
#
# Indices 1 2 3 4 5 6 
#
# 1 135.0578 -12.3081 65.9037 0.0000 -34.1152 0.0000
# 2 -12.3081 185.8018 44.6055 0.0000 15.6172 0.0000
# 3 65.9037 44.6055 130.2945 0.0000 -24.8051 0.0000
# 4 0.0000 0.0000 0.0000 27.8785 0.0000 -6.9577
# 5 -34.1152 15.6172 -24.8051 0.0000 52.4225 0.0000
# 6 0.0000 0.0000 0.0000 -6.9577 0.0000 18.6942
#
#
#
# Elastic Compliance Matrix: (Units=1/GPa)
#
#
# Indices 1 2 3 4 5 6 
#
# 1 0.011320 0.001713 -0.005503 0.000000 0.004252 0.000000
# 2 0.001713 0.006575 -0.003603 0.000000 -0.002548 0.000000
# 3 -0.005503 -0.003603 0.012324 0.000000 0.003324 0.000000
# 4 0.000000 0.000000 0.000000 0.039543 0.000000 0.014717
# 5 0.004252 -0.002548 0.003324 0.000000 0.024175 0.000000
# 6 0.000000 0.000000 0.000000 0.014717 0.000000 0.058970
#
#
# Mechanical properties :
#
#
# Convention : Reuss Voigt Hill
#
# Bulk Modulus (GPa) = 64.78748 71.95070 68.36909
# Shear Modulus (GPa) = 28.92937 43.32925 36.12931
#
# Velocity S-wave (km/s) = 3.70813 4.53813 4.14396
# Velocity P-wave (km/s) = 7.00910 7.85226 7.44263
#
# Compressibility (1/GPa) = 0.01543508
#
# Stress axis : x y z
#
# Youngs Moduli (GPa) = 88.34259 152.09967 81.14096
#
# Poissons Ratio (x) = -0.26061 0.44648
# Poissons Ratio (y) = -0.15137 0.29232
# Poissons Ratio (z) = 0.48611 0.54795
#
# Static dielectric constant tensor:
#      x y z
#    x 1.729760 0.000000 0.076660 
#    y 0.000000 1.731360 0.000000 
#    z 0.076660 0.000000 1.768300 
# 
# From -- ./inp_files/8640.got.cif
#   From: 2010.05.17/outbox.cif.g08.bks.cpg/sg11_5_cif.got.tgz:8640.got - 2010.06.03 12:22:45.
