data_PCOD9166801
_publ_section_title
;
Structure prediction by ZEFSAII (Michael W. Deem and Ramdas Pophale) SiO2 
 PCOD9166801
Probable space group: P 21/M
;
_chemical_formula_sum "Si O2"
_cell_formula_units_Z 32
_cell_length_a 11.298113
_cell_length_b 18.266354
_cell_length_c 14.811796
_cell_angle_alpha 90.000000
_cell_angle_beta 150.744021
_cell_angle_gamma 90.000000
_cell_volume 1493.890494
_symmetry_space_group_name_H-M "P 21/M"
_symmetry_group_IT_number 11
_symmetry_cell_setting 'monoclinic'
loop_
_space_group_symop_operation_xyz
x,y,z
-x,1/2+y,-z
-x,-y,-z
x,1/2-y,z
loop_
_atom_site_type_symbol
_atom_site_label
_atom_site_fract_x
_atom_site_fract_y
_atom_site_fract_z
Si Si1 0.362685 0.596297 0.825569
Si Si2 0.598734 0.590300 0.789498
Si Si3 0.151572 0.162668 0.514982
Si Si4 0.117439 0.530049 0.925532
Si Si5 0.544902 0.166350 0.636187
Si Si6 0.378512 0.427846 0.829032
Si Si7 0.029739 0.330635 0.076342
Si Si8 0.679304 0.057571 0.572182
O O1 0.475312 0.608231 0.802035
O O2 0.279998 0.510613 0.772840
O O3 0.129106 0.645398 0.687797
O O4 0.571767 0.605721 0.039680
O O5 0.766786 0.654427 0.862926
O O6 0.400989 0.571937 0.582704
O O7 0.769600 0.518772 0.918251
O O8 0.192725 0.250000 0.552018
O O9 0.316317 0.135507 0.540287
O O10 0.235643 0.120442 0.661619
O O11 0.962323 0.599955 0.852710
O O12 0.947177 0.474878 0.758071
O O13 0.349100 0.559792 0.027239
O O14 0.488102 0.250000 0.576374
O O15 0.636538 0.127211 0.607519
O O16 0.768111 0.164818 0.854985
O O17 0.055342 0.250000 0.134381
O O18 0.500000 0.000000 0.500000
#
# Coordination Sequence:
#
# PCOD9166801 Si02
#       8
#     4   4   4   4   4   4   4   4
#     4  10  25  43  67  95 129 173 222 269 319 388
#     4  11  24  42  66  92 129 172 213 264 320 384
#     4  11  24  44  70  96 133 174 215 276 330 382
#     4  11  22  41  65  94 130 161 218 270 323 381
#     4  10  23  43  66  98 135 169 215 272 328 384
#     4  10  23  43  70  97 127 169 222 272 325 382
#     4  11  21  39  65  91 129 170 204 264 332 384
#     4  12  24  37  67 100 128 171 214 263 325 393
#
# _framework density 21.420580000000001
#
# number of rings (size 3 to 8) (size 9 to 14) (size 15 to 20)
#    0.000    1.250    3.750    1.500    3.500    4.500 
#    0.000    0.000    0.000    0.000    0.000    0.000 
#    0.000    0.000    0.000    0.000    0.000    0.000 
#
# Total GULP energy -178982.430470 kJ/mol
# GULP energy per Si atom -5593.200952 kJ/mol
# Density = 2.137183 g / cm^3
# Si number density = 21.420580 Si / 1000 Ang^3
#
#
#
# Elastic Constant Matrix: (Units=GPa)
#
#
# Indices 1 2 3 4 5 6 
#
# 1 57.1520 11.8859 22.2478 0.0000 -4.4943 0.0000
# 2 11.8859 67.8749 17.2979 0.0000 1.5300 0.0000
# 3 22.2478 17.2979 75.4521 0.0000 -6.0710 0.0000
# 4 0.0000 0.0000 0.0000 22.3870 0.0000 8.2112
# 5 -4.4943 1.5300 -6.0710 0.0000 29.3701 0.0000
# 6 0.0000 0.0000 0.0000 8.2112 0.0000 23.8034
#
#
#
# Elastic Compliance Matrix: (Units=1/GPa)
#
#
# Indices 1 2 3 4 5 6 
#
# 1 0.020179 -0.002239 -0.005266 0.000000 0.002116 0.000000
# 2 -0.002239 0.015968 -0.003147 0.000000 -0.001825 0.000000
# 3 -0.005266 -0.003147 0.015738 0.000000 0.002611 0.000000
# 4 0.000000 0.000000 0.000000 0.051139 0.000000 -0.017641
# 5 0.002116 -0.001825 0.002611 0.000000 0.035007 0.000000
# 6 0.000000 0.000000 0.000000 -0.017641 0.000000 0.048096
#
#
# Mechanical properties :
#
#
# Convention : Reuss Voigt Hill
#
# Bulk Modulus (GPa) = 32.70173 33.70469 33.20321
# Shear Modulus (GPa) = 22.97505 25.04860 24.01183
#
# Velocity S-wave (km/s) = 3.27856 3.42332 3.35172
# Velocity P-wave (km/s) = 5.44349 5.60307 5.52386
#
# Compressibility (1/GPa) = 0.03057942
#
# Stress axis : x y z
#
# Youngs Moduli (GPa) = 49.55544 62.62382 63.54050
#
# Poissons Ratio (x) = 0.14023 0.33464
# Poissons Ratio (y) = 0.11097 0.19999
# Poissons Ratio (z) = 0.26098 0.19710
#
# Static dielectric constant tensor:
#      x y z
#    x 1.792980 0.000000 -0.020940 
#    y 0.000000 1.795150 0.000000 
#    z -0.020940 0.000000 1.785200 
# 
# From -- ./inp_files/50743.got.cif
#   From: 2010.05.17/outbox.cif.g08.bks.cpg/sg11_26_cif.got.tgz:50743.got - 2010.06.03 12:22:45.
