data_PCOD9166383
_publ_section_title
;
Structure prediction by ZEFSAII (Michael W. Deem and Ramdas Pophale) SiO2 
 PCOD9166383
Probable space group: P 21/M
;
_chemical_formula_sum "Si O2"
_cell_formula_units_Z 26
_cell_length_a 8.340001
_cell_length_b 22.396815
_cell_length_c 11.215091
_cell_angle_alpha 90.000000
_cell_angle_beta 148.124491
_cell_angle_gamma 90.000000
_cell_volume 1106.244436
_symmetry_space_group_name_H-M "P 21/M"
_symmetry_group_IT_number 11
_symmetry_cell_setting 'monoclinic'
loop_
_space_group_symop_operation_xyz
x,y,z
-x,1/2+y,-z
-x,-y,-z
x,1/2-y,z
loop_
_atom_site_type_symbol
_atom_site_label
_atom_site_fract_x
_atom_site_fract_y
_atom_site_fract_z
Si Si1 0.281283 0.750000 0.133230
Si Si2 0.634623 0.853955 0.241815
Si Si3 0.698286 0.315474 0.377628
Si Si4 0.506876 0.085245 0.090115
Si Si5 0.974412 0.478290 0.847783
Si Si6 0.810588 0.579389 0.569267
Si Si7 0.660815 0.151281 0.627393
O O1 0.237017 0.697938 0.208911
O O2 0.384636 0.803433 0.104144
O O3 0.962574 0.822118 0.462147
O O4 0.612232 0.907039 0.325506
O O5 0.637042 0.883233 0.114797
O O6 0.576289 0.250000 0.271480
O O7 0.705957 0.323844 0.524041
O O8 0.507465 0.368269 0.199376
O O9 0.313013 0.029136 0.008300
O O10 0.852562 0.075461 0.270557
O O11 0.824854 0.412705 0.744428
O O12 0.795758 0.523133 0.647295
O O13 0.000000 0.500000 0.000000
O O14 0.698259 0.636099 0.576716
#
# Coordination Sequence:
#
# PCOD9166383 Si02
#       7
#     2   4   4   4   4   4   4
#     4  10  22  40  72  96 136 180 226 280 344 418
#     4  10  22  44  70 100 140 182 233 284 354 412
#     4  11  22  43  71 100 140 179 230 287 353 418
#     4  11  25  45  69 106 135 183 238 284 349 414
#     4  12  26  46  71 102 143 184 239 289 348 416
#     4  10  25  44  70  99 138 185 230 286 341 420
#     4  11  23  47  69 102 139 184 226 289 353 408
#
# _framework density 23.502942999999998
#
# number of rings (size 3 to 8) (size 9 to 14) (size 15 to 20)
#    0.000    1.231    3.077    1.846    5.385    0.615 
#    1.385    0.000    0.000    0.000    0.000    0.000 
#    0.000    0.000    0.000    0.000    0.000    0.000 
#
# Total GULP energy -144776.275807 kJ/mol
# GULP energy per Si atom -5568.318300 kJ/mol
# Density = 2.344945 g / cm^3
# Si number density = 23.502943 Si / 1000 Ang^3
#
#
#
# Elastic Constant Matrix: (Units=GPa)
#
#
# Indices 1 2 3 4 5 6 
#
# 1 119.4008 19.7775 9.7934 0.0000 -7.2236 0.0000
# 2 19.7775 95.2798 17.6868 0.0000 -11.7734 0.0000
# 3 9.7934 17.6868 27.9645 0.0000 -4.0222 0.0000
# 4 0.0000 0.0000 0.0000 23.1829 0.0000 -13.3759
# 5 -7.2236 -11.7734 -4.0222 0.0000 38.1146 0.0000
# 6 0.0000 0.0000 0.0000 -13.3759 0.0000 42.7572
#
#
#
# Elastic Compliance Matrix: (Units=1/GPa)
#
#
# Indices 1 2 3 4 5 6 
#
# 1 0.008829 -0.001311 -0.002112 0.000000 0.001045 0.000000
# 2 -0.001311 0.012416 -0.006984 0.000000 0.002850 0.000000
# 3 -0.002112 -0.006984 0.041173 0.000000 0.001787 0.000000
# 4 0.000000 0.000000 0.000000 0.052636 0.000000 0.016466
# 5 0.001045 0.002850 0.001787 0.000000 0.027504 0.000000
# 6 0.000000 0.000000 0.000000 0.016466 0.000000 0.028539
#
#
# Mechanical properties :
#
#
# Convention : Reuss Voigt Hill
#
# Bulk Modulus (GPa) = 24.03623 37.46227 30.74925
# Shear Modulus (GPa) = 24.29787 33.83677 29.06732
#
# Velocity S-wave (km/s) = 3.21880 3.79843 3.52056
# Velocity P-wave (km/s) = 4.90544 5.93392 5.44402
#
# Compressibility (1/GPa) = 0.04160386
#
# Stress axis : x y z
#
# Youngs Moduli (GPa) = 113.26498 80.54037 24.28752
#
# Poissons Ratio (x) = 0.10562 0.05130
# Poissons Ratio (y) = 0.14853 0.16962
# Poissons Ratio (z) = 0.23923 0.56247
#
# Static dielectric constant tensor:
#      x y z
#    x 1.937540 0.000000 0.089680 
#    y 0.000000 1.881500 0.000000 
#    z 0.089680 0.000000 1.931700 
# 
# From -- ./inp_files/32871.got.cif
#   From: 2010.05.17/outbox.cif.g08.bks.cpg/sg11_17_cif.got.tgz:32871.got - 2010.06.03 12:22:45.
