data_PCOD9166472
_publ_section_title
;
Structure prediction by ZEFSAII (Michael W. Deem and Ramdas Pophale) SiO2 
 PCOD9166472
Probable space group: P 21/M
;
_chemical_formula_sum "Si O2"
_cell_formula_units_Z 28
_cell_length_a 14.929075
_cell_length_b 15.496665
_cell_length_c 7.355915
_cell_angle_alpha 90.000000
_cell_angle_beta 53.032642
_cell_angle_gamma 90.000000
_cell_volume 1359.699064
_symmetry_space_group_name_H-M "P 21/M"
_symmetry_group_IT_number 11
_symmetry_cell_setting 'monoclinic'
loop_
_space_group_symop_operation_xyz
x,y,z
-x,1/2+y,-z
-x,-y,-z
x,1/2-y,z
loop_
_atom_site_type_symbol
_atom_site_label
_atom_site_fract_x
_atom_site_fract_y
_atom_site_fract_z
Si Si1 0.125810 0.650975 0.553289
Si Si2 0.715147 0.854115 0.467067
Si Si3 0.718722 0.353570 0.313943
Si Si4 0.927051 0.575004 0.992960
Si Si5 0.386173 0.044287 0.070772
Si Si6 0.185851 0.949375 0.139048
Si Si7 0.463689 0.146410 0.627955
O O1 0.149171 0.750000 0.474404
O O2 0.225700 0.618103 0.563726
O O3 0.115421 0.594166 0.385522
O O4 0.014890 0.644299 0.810829
O O5 0.718295 0.750000 0.487597
O O6 0.678747 0.903591 0.693019
O O7 0.619272 0.875685 0.435074
O O8 0.832999 0.887550 0.241948
O O9 0.719137 0.250000 0.315524
O O10 0.591357 0.385000 0.446825
O O11 0.791280 0.385954 0.056908
O O12 0.867708 0.532770 0.889738
O O13 0.000000 0.500000 0.000000
O O14 0.303331 0.973856 0.087011
O O15 0.417591 0.108945 0.870573
O O16 0.500000 0.000000 0.000000
O O17 0.467403 0.250000 0.633450
#
# Coordination Sequence:
#
# PCOD9166472 Si02
#       7
#     4   4   4   4   4   4   4
#     4  11  24  43  65  95 130 173 220 268 331 397
#     4  11  25  46  67  96 135 180 224 272 335 402
#     4  10  22  41  66  95 132 173 216 268 328 396
#     4  12  24  45  68  94 133 171 227 277 328 383
#     4  12  25  39  68 101 134 168 218 270 333 394
#     4  12  24  41  66  96 131 166 218 271 332 383
#     4  10  22  42  65  93 132 174 218 270 330 397
#
# _framework density 20.592791999999999
#
# number of rings (size 3 to 8) (size 9 to 14) (size 15 to 20)
#    0.000    0.857    2.857    4.286    2.000    1.143 
#    0.000    7.143    0.000    0.000    0.000    0.000 
#    0.000    0.000    0.000    0.000    0.000    0.000 
#
# Total GULP energy -156619.649660 kJ/mol
# GULP energy per Si atom -5593.558916 kJ/mol
# Density = 2.054592 g / cm^3
# Si number density = 20.592792 Si / 1000 Ang^3
#
#
#
# Elastic Constant Matrix: (Units=GPa)
#
#
# Indices 1 2 3 4 5 6 
#
# 1 49.4737 8.7914 6.3656 0.0000 1.6156 0.0000
# 2 8.7914 39.7602 22.4818 0.0000 7.3921 0.0000
# 3 6.3656 22.4818 117.2839 0.0000 3.2330 0.0000
# 4 0.0000 0.0000 0.0000 41.7935 0.0000 -1.7502
# 5 1.6156 7.3921 3.2330 0.0000 36.9814 0.0000
# 6 0.0000 0.0000 0.0000 -1.7502 0.0000 33.4877
#
#
#
# Elastic Compliance Matrix: (Units=1/GPa)
#
#
# Indices 1 2 3 4 5 6 
#
# 1 0.021048 -0.004496 -0.000281 0.000000 0.000004 0.000000
# 2 -0.004496 0.030194 -0.005396 0.000000 -0.005367 0.000000
# 3 -0.000281 -0.005396 0.009569 0.000000 0.000254 0.000000
# 4 0.000000 0.000000 0.000000 0.023980 0.000000 0.001253
# 5 0.000004 -0.005367 0.000254 0.000000 0.028091 0.000000
# 6 0.000000 0.000000 0.000000 0.001253 0.000000 0.029927
#
#
# Mechanical properties :
#
#
# Convention : Reuss Voigt Hill
#
# Bulk Modulus (GPa) = 24.71236 31.31062 28.01149
# Shear Modulus (GPa) = 28.30596 33.71111 31.00854
#
# Velocity S-wave (km/s) = 3.71152 4.05042 3.88467
# Velocity P-wave (km/s) = 5.51305 6.09198 5.80973
#
# Compressibility (1/GPa) = 0.04046558
#
# Stress axis : x y z
#
# Youngs Moduli (GPa) = 47.51117 33.11955 104.50582
#
# Poissons Ratio (x) = 0.14890 0.02933
# Poissons Ratio (y) = 0.21360 0.56389
# Poissons Ratio (z) = 0.01334 0.17871
#
# Static dielectric constant tensor:
#      x y z
#    x 1.745250 0.000000 -0.011410 
#    y 0.000000 1.748780 0.000000 
#    z -0.011410 0.000000 1.695850 
# 
# From -- ./inp_files/6784.got.cif
#   From: 2010.05.17/outbox.cif.g08.bks.cpg/sg11_4_cif.got.tgz:6784.got - 2010.06.03 12:22:45.
