data_PCOD9166786
_publ_section_title
;
Structure prediction by ZEFSAII (Michael W. Deem and Ramdas Pophale) SiO2 
 PCOD9166786
Probable space group: P 21/M
;
_chemical_formula_sum "Si O2"
_cell_formula_units_Z 32
_cell_length_a 12.107782
_cell_length_b 8.815459
_cell_length_c 15.751978
_cell_angle_alpha 90.000000
_cell_angle_beta 91.340274
_cell_angle_gamma 90.000000
_cell_volume 1680.837724
_symmetry_space_group_name_H-M "P 21/M"
_symmetry_group_IT_number 11
_symmetry_cell_setting 'monoclinic'
loop_
_space_group_symop_operation_xyz
x,y,z
-x,1/2+y,-z
-x,-y,-z
x,1/2-y,z
loop_
_atom_site_type_symbol
_atom_site_label
_atom_site_fract_x
_atom_site_fract_y
_atom_site_fract_z
Si Si1 0.623144 0.066420 0.499190
Si Si2 0.273307 0.069570 0.154686
Si Si3 0.744476 0.926138 0.153442
Si Si4 0.763064 0.074343 0.336066
Si Si5 0.492547 0.927553 0.092000
Si Si6 0.775870 0.431091 0.663498
Si Si7 0.123570 0.568425 0.000754
Si Si8 0.011311 0.074417 0.408834
O O1 0.618103 0.250000 0.498399
O O2 0.687739 0.020210 0.413964
O O3 0.694323 0.023565 0.584199
O O4 0.500000 0.000000 0.500000
O O5 0.262246 0.250000 0.147755
O O6 0.398221 0.017664 0.139021
O O7 0.247525 0.012811 0.248526
O O8 0.194467 0.994696 0.081754
O O9 0.776506 0.750000 0.145125
O O10 0.614368 0.939520 0.132204
O O11 0.757308 0.981359 0.249653
O O12 0.814024 0.018794 0.084811
O O13 0.731857 0.250000 0.318287
O O14 0.890098 0.072048 0.366846
O O15 0.461782 0.750000 0.087218
O O16 0.500000 0.000000 0.000000
O O17 0.766298 0.250000 0.673798
O O18 0.898956 0.477933 0.639624
O O19 0.118332 0.750000 0.005279
O O20 0.000000 0.500000 0.000000
O O21 0.047627 0.250000 0.414872
O O22 0.000000 0.000000 0.500000
#
# Coordination Sequence:
#
# PCOD9166786 Si02
#       8
#     4   4   4   4   4   4   4   4
#     4  10  23  43  64  91 129 169 212 263 319 377
#     4  12  26  44  67  98 132 170 218 267 322 390
#     4  11  25  43  66  98 131 169 217 266 321 385
#     4  10  23  43  64  92 129 169 212 265 322 379
#     4  11  23  42  68  96 129 168 215 269 323 382
#     4  11  24  44  66  94 130 169 215 269 325 384
#     4  12  26  46  70  95 131 173 215 266 324 385
#     4  11  22  41  67  94 126 166 215 267 323 385
#
# _framework density 19.038126999999999
#
# number of rings (size 3 to 8) (size 9 to 14) (size 15 to 20)
#    0.000    1.000    2.500    3.750    3.500    4.000 
#    0.000    0.000    0.000    0.000    0.000    0.000 
#    0.000    0.000    0.000    0.000    0.000    0.000 
#
# Total GULP energy -178891.963452 kJ/mol
# GULP energy per Si atom -5590.373858 kJ/mol
# Density = 1.899480 g / cm^3
# Si number density = 19.038127 Si / 1000 Ang^3
#
#
#
# Elastic Constant Matrix: (Units=GPa)
#
#
# Indices 1 2 3 4 5 6 
#
# 1 105.8487 58.0829 60.7519 0.0000 -23.1440 0.0000
# 2 58.0829 133.8458 70.1461 0.0000 1.7053 0.0000
# 3 60.7519 70.1461 157.3682 0.0000 -17.2192 0.0000
# 4 0.0000 0.0000 0.0000 30.3835 0.0000 -0.9548
# 5 -23.1440 1.7053 -17.2192 0.0000 35.0607 0.0000
# 6 0.0000 0.0000 0.0000 -0.9548 0.0000 38.9000
#
#
#
# Elastic Compliance Matrix: (Units=1/GPa)
#
#
# Indices 1 2 3 4 5 6 
#
# 1 0.016270 -0.005807 -0.002628 0.000000 0.009732 0.000000
# 2 -0.005807 0.012080 -0.003832 0.000000 -0.006303 0.000000
# 3 -0.002628 -0.003832 0.009414 0.000000 0.003075 0.000000
# 4 0.000000 0.000000 0.000000 0.032938 0.000000 0.000808
# 5 0.009732 -0.006303 0.003075 0.000000 0.036763 0.000000
# 6 0.000000 0.000000 0.000000 0.000808 0.000000 0.025727
#
#
# Mechanical properties :
#
#
# Convention : Reuss Voigt Hill
#
# Bulk Modulus (GPa) = 75.59036 86.11384 80.85210
# Shear Modulus (GPa) = 30.83811 34.74097 32.78954
#
# Velocity S-wave (km/s) = 4.02905 4.27641 4.15457
# Velocity P-wave (km/s) = 7.83806 8.34950 8.09782
#
# Compressibility (1/GPa) = 0.01322920
#
# Stress axis : x y z
#
# Youngs Moduli (GPa) = 61.46180 82.77944 106.22818
#
# Poissons Ratio (x) = 0.48074 0.27912
# Poissons Ratio (y) = 0.35694 0.40712
# Poissons Ratio (z) = 0.16150 0.31725
#
# Static dielectric constant tensor:
#      x y z
#    x 1.628050 0.000000 -0.050520 
#    y 0.000000 1.646490 0.000000 
#    z -0.050520 0.000000 1.982590 
# 
# From -- ./inp_files/49321.got.cif
#   From: 2010.05.17/outbox.cif.g08.bks.cpg/sg11_25_cif.got.tgz:49321.got - 2010.06.03 12:22:45.
