data_PCOD9166532
_publ_section_title
;
Structure prediction by ZEFSAII (Michael W. Deem and Ramdas Pophale) SiO2 
 PCOD9166532
Probable space group: P 21/M
;
_chemical_formula_sum "Si O2"
_cell_formula_units_Z 18
_cell_length_a 7.199621
_cell_length_b 11.173949
_cell_length_c 9.771009
_cell_angle_alpha 90.000000
_cell_angle_beta 110.508872
_cell_angle_gamma 90.000000
_cell_volume 736.237967
_symmetry_space_group_name_H-M "P 21/M"
_symmetry_group_IT_number 11
_symmetry_cell_setting 'monoclinic'
loop_
_space_group_symop_operation_xyz
x,y,z
-x,1/2+y,-z
-x,-y,-z
x,1/2-y,z
loop_
_atom_site_type_symbol
_atom_site_label
_atom_site_fract_x
_atom_site_fract_y
_atom_site_fract_z
Si Si1 0.058291 0.570731 0.788101
Si Si2 0.879438 0.621851 0.028868
Si Si3 0.436755 0.750000 0.586921
Si Si4 0.504194 0.025539 0.206371
Si Si5 0.571225 0.750000 0.309260
Si Si6 0.024708 0.250000 0.459233
O O1 0.287697 0.568119 0.805137
O O2 0.951144 0.636398 0.636787
O O3 0.009485 0.626582 0.924079
O O4 0.004481 0.435228 0.814020
O O5 0.805578 0.750000 0.049107
O O6 0.684237 0.549310 0.937153
O O7 0.517607 0.626318 0.678063
O O8 0.491412 0.750000 0.443562
O O9 0.199115 0.750000 0.545252
O O10 0.514111 0.882410 0.236777
O O11 0.809203 0.750000 0.384836
#
# Coordination Sequence:
#
# PCOD9166532 Si02
#       6
#     4   4   2   4   2   2
#     4  10  23  41  67  96 128 170 214 264 332 381
#     4  11  22  41  70  96 133 169 212 271 326 392
#     4  10  22  42  66  88 132 178 216 262 328 378
#     4  11  24  43  67  99 132 171 217 267 326 387
#     4  12  26  41  68  98 130 175 223 266 317 382
#     4  10  22  43  64  88 134 173 213 266 321 380
#
# _framework density 24.448616999999999
#
# number of rings (size 3 to 8) (size 9 to 14) (size 15 to 20)
#    0.000    1.333    2.222    2.667    1.556    6.222 
#    2.000    0.000    2.444    0.000    0.000    0.000 
#    0.000    0.000    0.000    0.000    0.000    0.000 
#
# Total GULP energy -100471.489118 kJ/mol
# GULP energy per Si atom -5581.749395 kJ/mol
# Density = 2.439297 g / cm^3
# Si number density = 24.448617 Si / 1000 Ang^3
#
#
#
# Elastic Constant Matrix: (Units=GPa)
#
#
# Indices 1 2 3 4 5 6 
#
# 1 64.9492 29.8763 17.4269 0.0000 -12.2087 0.0000
# 2 29.8763 208.5720 61.5750 0.0000 34.7884 0.0000
# 3 17.4269 61.5750 65.9074 0.0000 -1.2085 0.0000
# 4 0.0000 0.0000 0.0000 47.6470 0.0000 19.3624
# 5 -12.2087 34.7884 -1.2085 0.0000 31.7524 0.0000
# 6 0.0000 0.0000 0.0000 19.3624 0.0000 -51.4518
#
#
#
# Elastic Compliance Matrix: (Units=1/GPa)
#
#
# Indices 1 2 3 4 5 6 
#
# 1 0.020302 -0.004975 -0.000477 0.000000 0.013239 0.000000
# 2 -0.004975 0.010278 -0.008535 0.000000 -0.013499 0.000000
# 3 -0.000477 -0.008535 0.023457 0.000000 0.010060 0.000000
# 4 0.000000 0.000000 0.000000 0.018204 0.000000 0.006851
# 5 0.013239 -0.013499 0.010060 0.000000 0.051757 0.000000
# 6 0.000000 0.000000 0.000000 0.006851 0.000000 -0.016858
#
#
# Mechanical properties :
#
#
# Convention : Reuss Voigt Hill
#
# Bulk Modulus (GPa) = 38.36839 61.90943 50.13891
# Shear Modulus (GPa) = 34.77004 20.95954 27.86479
#
# Velocity S-wave (km/s) = 3.77526 2.93113 3.37965
# Velocity P-wave (km/s) = 5.89330 6.06898 5.98179
#
# Compressibility (1/GPa) = 0.02606312
#
# Stress axis : x y z
#
# Youngs Moduli (GPa) = 49.25642 97.29190 42.63122
#
# Poissons Ratio (x) = 0.48407 0.02033
# Poissons Ratio (y) = 0.24507 0.36384
# Poissons Ratio (z) = 0.02349 0.83035
#
# Static dielectric constant tensor:
#      x y z
#    x 1.963840 0.000000 -0.044960 
#    y 0.000000 2.120430 0.000000 
#    z -0.044960 0.000000 1.952300 
# 
# From -- ./inp_files/11889.got.cif
#   From: 2010.05.17/outbox.cif.g08.bks.cpg/sg11_6_cif.got.tgz:11889.got - 2010.06.03 12:22:45.
