data_PCOD9166071
_publ_section_title
;
Structure prediction by ZEFSAII (Michael W. Deem and Ramdas Pophale) SiO2 
 PCOD9166071
Probable space group: P 21/M
;
_chemical_formula_sum "Si O2"
_cell_formula_units_Z 32
_cell_length_a 28.311879
_cell_length_b 7.618414
_cell_length_c 20.403868
_cell_angle_alpha 90.000000
_cell_angle_beta 160.170985
_cell_angle_gamma 90.000000
_cell_volume 1492.863084
_symmetry_space_group_name_H-M "P 21/M"
_symmetry_group_IT_number 11
_symmetry_cell_setting 'monoclinic'
loop_
_space_group_symop_operation_xyz
x,y,z
-x,1/2+y,-z
-x,-y,-z
x,1/2-y,z
loop_
_atom_site_type_symbol
_atom_site_label
_atom_site_fract_x
_atom_site_fract_y
_atom_site_fract_z
Si Si1 0.309265 0.961920 0.048130
Si Si2 0.840366 0.464596 0.017661
Si Si3 0.152919 0.546012 0.116803
Si Si4 0.432494 0.958517 0.701842
Si Si5 0.968627 0.459773 0.384275
Si Si6 0.167375 0.964698 0.280207
Si Si7 0.125877 0.463026 0.461591
Si Si8 0.558013 0.446746 0.146114
O O1 0.308618 0.750000 0.047634
O O2 0.453442 0.018746 0.205364
O O3 0.267710 0.019314 0.067088
O O4 0.182500 0.024299 0.836288
O O5 0.840970 0.250000 0.016995
O O6 0.996128 0.513346 0.245518
O O7 0.806902 0.530410 0.901237
O O8 0.194314 0.750000 0.170017
O O9 0.202215 0.475119 0.251354
O O10 0.985084 0.532598 0.901020
O O11 0.411837 0.750000 0.683847
O O12 0.284607 0.026803 0.483342
O O13 0.480095 0.035437 0.834120
O O14 0.965556 0.250000 0.373660
O O15 0.000000 0.500000 0.500000
O O16 0.080513 0.518704 0.475937
O O17 0.160877 0.750000 0.271459
O O18 0.138704 0.250000 0.476391
O O19 0.274363 0.541237 0.637294
O O20 0.505024 0.250000 0.082736
O O21 0.500000 0.500000 0.000000
#
# Coordination Sequence:
#
# PCOD9166071 Si02
#       8
#     4   4   4   4   4   4   4   4
#     4   9  19  35  53  74  99 133 174 211 247 297
#     4   8  15  31  54  78 103 131 166 209 252 293
#     4   9  16  29  54  81 104 133 170 208 249 299
#     4  10  22  38  52  70 104 141 168 205 258 307
#     4   9  19  33  51  74  98 125 161 209 256 295
#     4   9  18  32  50  77 109 137 166 206 254 301
#     4   9  18  34  53  74 101 128 161 206 254 300
#     4  11  24  38  52  72  99 132 170 210 255 305
#
# _framework density 21.435321999999999
#
# number of rings (size 3 to 8) (size 9 to 14) (size 15 to 20)
#    0.000    2.750    0.000    2.625    1.750    2.500 
#    0.000    3.125    0.000    0.000    0.000    0.000 
#    0.000    0.000    0.000    0.000    0.000    0.000 
#
# Total GULP energy -178479.545016 kJ/mol
# GULP energy per Si atom -5577.485782 kJ/mol
# Density = 2.138653 g / cm^3
# Si number density = 21.435322 Si / 1000 Ang^3
#
#
#
# Elastic Constant Matrix: (Units=GPa)
#
#
# Indices 1 2 3 4 5 6 
#
# 1 125.5982 2.0961 20.8323 0.0000 -28.2926 0.0000
# 2 2.0961 37.4115 -4.4732 0.0000 -11.5939 0.0000
# 3 20.8323 -4.4732 32.5686 0.0000 -6.5352 0.0000
# 4 0.0000 0.0000 0.0000 15.1926 0.0000 4.1334
# 5 -28.2926 -11.5939 -6.5352 0.0000 28.9907 0.0000
# 6 0.0000 0.0000 0.0000 4.1334 0.0000 13.5333
#
#
#
# Elastic Compliance Matrix: (Units=1/GPa)
#
#
# Indices 1 2 3 4 5 6 
#
# 1 0.011094 0.002109 -0.004676 0.000000 0.010616 0.000000
# 2 0.002109 0.032494 0.006425 0.000000 0.016501 0.000000
# 3 -0.004676 0.006425 0.035797 0.000000 0.006075 0.000000
# 4 0.000000 0.000000 0.000000 0.071787 0.000000 -0.021925
# 5 0.010616 0.016501 0.006075 0.000000 0.052823 0.000000
# 6 0.000000 0.000000 0.000000 -0.021925 0.000000 0.080588
#
#
# Mechanical properties :
#
#
# Convention : Reuss Voigt Hill
#
# Bulk Modulus (GPa) = 11.48101 25.83208 18.65655
# Shear Modulus (GPa) = 16.34523 23.35151 19.84837
#
# Velocity S-wave (km/s) = 2.76440 3.30418 3.04627
# Velocity P-wave (km/s) = 3.94423 5.16083 4.59299
#
# Compressibility (1/GPa) = 0.08710032
#
# Stress axis : x y z
#
# Youngs Moduli (GPa) = 90.14149 30.77531 27.93528
#
# Poissons Ratio (x) = -0.06491 0.13063
# Poissons Ratio (y) = -0.19013 -0.17948
# Poissons Ratio (z) = 0.42151 -0.19773
#
# Static dielectric constant tensor:
#      x y z
#    x 1.835970 0.000000 -0.027520 
#    y 0.000000 1.907560 0.000000 
#    z -0.027520 0.000000 1.737140 
# 
# From -- ./inp_files/67295.got.cif
#   From: 2010.05.17/outbox.cif.g08.bks.cpg/sg11_34_cif.got.tgz:67295.got - 2010.06.03 12:22:45.
