data_PCOD9166454
_publ_section_title
;
Structure prediction by ZEFSAII (Michael W. Deem and Ramdas Pophale) SiO2 
 PCOD9166454
Probable space group: P 21/M
;
_chemical_formula_sum "Si O2"
_cell_formula_units_Z 26
_cell_length_a 15.825041
_cell_length_b 9.581768
_cell_length_c 14.814302
_cell_angle_alpha 90.000000
_cell_angle_beta 142.742383
_cell_angle_gamma 90.000000
_cell_volume 1359.921893
_symmetry_space_group_name_H-M "P 21/M"
_symmetry_group_IT_number 11
_symmetry_cell_setting 'monoclinic'
loop_
_space_group_symop_operation_xyz
x,y,z
-x,1/2+y,-z
-x,-y,-z
x,1/2-y,z
loop_
_atom_site_type_symbol
_atom_site_label
_atom_site_fract_x
_atom_site_fract_y
_atom_site_fract_z
Si Si1 0.373290 0.588613 0.430340
Si Si2 0.815544 0.415488 0.563648
Si Si3 0.128758 0.412008 0.567975
Si Si4 0.559337 0.250000 0.059366
Si Si5 0.675063 0.537344 0.097979
Si Si6 0.128071 0.409410 0.904292
Si Si7 0.129968 0.911421 0.075170
O O1 0.500000 0.500000 0.500000
O O2 0.416227 0.750000 0.476471
O O3 0.305628 0.545423 0.468669
O O4 0.250138 0.582307 0.252062
O O5 0.801065 0.250000 0.527666
O O6 0.821039 0.510164 0.479622
O O7 0.965295 0.430020 0.740454
O O8 0.089657 0.250000 0.518488
O O9 0.251300 0.415576 0.746082
O O10 0.000000 0.500000 0.500000
O O11 0.644411 0.374289 0.078998
O O12 0.464834 0.127786 0.029793
O O13 0.781575 0.571508 0.108581
O O14 0.142548 0.250000 0.949684
O O15 0.174180 0.517531 0.019385
O O16 0.091321 0.750000 0.029104
O O17 0.000000 0.000000 0.000000
#
# Coordination Sequence:
#
# PCOD9166454 Si02
#       7
#     4   4   4   2   4   4   4
#     4  10  23  46  65  91 130 170 205 262 325 381
#     4  10  22  41  65  92 127 165 211 265 321 377
#     4  12  24  39  63  96 128 166 212 266 320 372
#     4  10  24  44  64  86 128 178 214 258 312 382
#     4  11  23  44  64  91 130 172 214 260 315 380
#     4  11  21  40  66  94 127 164 212 267 314 373
#     4  11  23  41  67  97 127 163 213 267 320 378
#
# _framework density 19.118744
#
# number of rings (size 3 to 8) (size 9 to 14) (size 15 to 20)
#    0.000    1.231    4.615    0.923    3.231    2.462 
#    5.538    0.000    0.000    0.000    0.000    0.000 
#    0.000    0.000    0.000    0.000    0.000    0.000 
#
# Total GULP energy -144742.182494 kJ/mol
# GULP energy per Si atom -5567.007019 kJ/mol
# Density = 1.907523 g / cm^3
# Si number density = 19.118744 Si / 1000 Ang^3
#
#
#
# Elastic Constant Matrix: (Units=GPa)
#
#
# Indices 1 2 3 4 5 6 
#
# 1 155.8760 74.5210 32.3673 0.0000 -5.7706 0.0000
# 2 74.5210 163.8339 27.8525 0.0000 -6.5811 0.0000
# 3 32.3673 27.8525 12.9019 0.0000 -9.2299 0.0000
# 4 0.0000 0.0000 0.0000 24.4042 0.0000 2.3206
# 5 -5.7706 -6.5811 -9.2299 0.0000 35.1947 0.0000
# 6 0.0000 0.0000 0.0000 2.3206 0.0000 41.1563
#
#
#
# Elastic Compliance Matrix: (Units=1/GPa)
#
#
# Indices 1 2 3 4 5 6 
#
# 1 0.015629 0.000556 -0.047394 0.000000 -0.009763 0.000000
# 2 0.000556 0.010278 -0.027257 0.000000 -0.005135 0.000000
# 3 -0.047394 -0.027257 0.302865 0.000000 0.066559 0.000000
# 4 0.000000 0.000000 0.000000 0.041197 0.000000 -0.002323
# 5 -0.009763 -0.005135 0.066559 0.000000 0.043308 0.000000
# 6 0.000000 0.000000 0.000000 -0.002323 0.000000 0.024429
#
#
# Mechanical properties :
#
#
# Convention : Reuss Voigt Hill
#
# Bulk Modulus (GPa) = 5.53765 66.89925 36.21845
# Shear Modulus (GPa) = 7.73884 33.34244 20.54064
#
# Velocity S-wave (km/s) = 2.01409 4.18061 3.28132
# Velocity P-wave (km/s) = 2.88297 7.64008 5.77418
#
# Compressibility (1/GPa) = 0.18058209
#
# Stress axis : x y z
#
# Youngs Moduli (GPa) = 63.98177 97.29071 3.30180
#
# Poissons Ratio (x) = -0.05408 0.15649
# Poissons Ratio (y) = -0.03557 0.09000
# Poissons Ratio (z) = 3.03235 2.65187
#
# Static dielectric constant tensor:
#      x y z
#    x 1.665220 0.000000 0.002020 
#    y 0.000000 1.661790 0.000000 
#    z 0.002020 0.000000 1.680190 
# 
# From -- ./inp_files/51941.got.cif
#   From: 2010.05.17/outbox.cif.g08.bks.cpg/sg11_26_cif.got.tgz:51941.got - 2010.06.03 12:22:45.
