data_PCOD9166881
_publ_section_title
;
Structure prediction by ZEFSAII (Michael W. Deem and Ramdas Pophale) SiO2 
 PCOD9166881
Probable space group: P 21/M
;
_chemical_formula_sum "Si O2"
_cell_formula_units_Z 14
_cell_length_a 12.927090
_cell_length_b 7.314215
_cell_length_c 7.899504
_cell_angle_alpha 90.000000
_cell_angle_beta 133.164579
_cell_angle_gamma 90.000000
_cell_volume 544.789998
_symmetry_space_group_name_H-M "P 21/M"
_symmetry_group_IT_number 11
_symmetry_cell_setting 'monoclinic'
loop_
_space_group_symop_operation_xyz
x,y,z
-x,1/2+y,-z
-x,-y,-z
x,1/2-y,z
loop_
_atom_site_type_symbol
_atom_site_label
_atom_site_fract_x
_atom_site_fract_y
_atom_site_fract_z
Si Si1 0.834749 0.968242 0.765327
Si Si2 0.426685 0.035922 0.098144
Si Si3 0.378222 0.750000 0.289294
Si Si4 0.157454 0.034055 0.614262
O O1 0.809770 0.750000 0.755301
O O2 0.819296 0.027661 0.550920
O O3 0.729025 0.090383 0.755110
O O4 0.000000 0.000000 0.000000
O O5 0.438258 0.250000 0.155805
O O6 0.267819 0.965245 0.876382
O O7 0.500000 0.000000 0.000000
O O8 0.475562 0.908138 0.301454
O O9 0.183845 0.250000 0.640759
O O10 0.000000 0.000000 0.500000
#
# Coordination Sequence:
#
# PCOD9166881 Si02
#       4
#     4   4   2   4
#     4  11  23  41  63 100 141 175 218 277 343 399
#     4  11  24  46  71  97 132 179 232 275 331 403
#     4  12  24  40  70  92 136 176 220 276 340 386
#     4  10  24  40  68 100 132 172 225 275 332 401
#
# _framework density 25.697973999999999
#
# number of rings (size 3 to 8) (size 9 to 14) (size 15 to 20)
#    0.000    1.143    2.857    2.571    8.000    2.286 
#    0.000    1.429    0.000    0.000    0.000    0.000 
#    0.000    0.000    0.000    0.000    0.000    0.000 
#
# Total GULP energy -77999.887991 kJ/mol
# GULP energy per Si atom -5571.420571 kJ/mol
# Density = 2.563948 g / cm^3
# Si number density = 25.697974 Si / 1000 Ang^3
#
#
#
# Elastic Constant Matrix: (Units=GPa)
#
#
# Indices 1 2 3 4 5 6 
#
# 1 151.5361 54.5957 16.7713 0.0000 -21.7957 0.0000
# 2 54.5957 235.4372 32.4997 0.0000 -18.3450 0.0000
# 3 16.7713 32.4997 105.3873 0.0000 -5.2316 0.0000
# 4 0.0000 0.0000 0.0000 -0.7701 0.0000 -7.6090
# 5 -21.7957 -18.3450 -5.2316 0.0000 49.9223 0.0000
# 6 0.0000 0.0000 0.0000 -7.6090 0.0000 62.3199
#
#
#
# Elastic Compliance Matrix: (Units=1/GPa)
#
#
# Indices 1 2 3 4 5 6 
#
# 1 0.007584 -0.001462 -0.000622 0.000000 0.002709 0.000000
# 2 -0.001462 0.004832 -0.001207 0.000000 0.001011 0.000000
# 3 -0.000622 -0.001207 0.009976 0.000000 0.000330 0.000000
# 4 0.000000 0.000000 0.000000 -0.588519 0.000000 -0.071856
# 5 0.002709 0.001011 0.000330 0.000000 0.021620 0.000000
# 6 0.000000 0.000000 0.000000 -0.071856 0.000000 0.007273
#
#
# Mechanical properties :
#
#
# Convention : Reuss Voigt Hill
#
# Bulk Modulus (GPa) = 63.24719 77.78821 70.51770
# Shear Modulus (GPa) = -9.51688 48.19401 19.33857
#
# Velocity S-wave (km/s) = -1.92650 4.33529 2.74621
# Velocity P-wave (km/s) = 4.44034 7.44282 6.12830
#
# Compressibility (1/GPa) = 0.01581098
#
# Stress axis : x y z
#
# Youngs Moduli (GPa) = 131.85342 206.96190 100.23620
#
# Poissons Ratio (x) = 0.30254 0.06231
# Poissons Ratio (y) = 0.19275 0.12101
# Poissons Ratio (z) = 0.08197 0.24985
#
# Static dielectric constant tensor:
#      x y z
#    x 1.984190 0.000000 -0.048500 
#    y 0.000000 1.964690 0.000000 
#    z -0.048500 0.000000 2.103360 
# 
# From -- ./inp_files/15546.got.cif
#   From: 2010.05.17/outbox.cif.g08.bks.cpg/sg11_8_cif.got.tgz:15546.got - 2010.06.03 12:22:45.
