data_PCOD9166792
_publ_section_title
;
Structure prediction by ZEFSAII (Michael W. Deem and Ramdas Pophale) SiO2 
 PCOD9166792
Probable space group: P 21/M
;
_chemical_formula_sum "Si O2"
_cell_formula_units_Z 20
_cell_length_a 5.366365
_cell_length_b 24.161093
_cell_length_c 6.746905
_cell_angle_alpha 90.000000
_cell_angle_beta 80.785963
_cell_angle_gamma 90.000000
_cell_volume 863.497812
_symmetry_space_group_name_H-M "P 21/M"
_symmetry_group_IT_number 11
_symmetry_cell_setting 'monoclinic'
loop_
_space_group_symop_operation_xyz
x,y,z
-x,1/2+y,-z
-x,-y,-z
x,1/2-y,z
loop_
_atom_site_type_symbol
_atom_site_label
_atom_site_fract_x
_atom_site_fract_y
_atom_site_fract_z
Si Si1 0.698016 0.550541 0.502248
Si Si2 0.570884 0.683796 0.825619
Si Si3 0.151679 0.990054 0.178186
Si Si4 0.421488 0.618405 0.227223
Si Si5 0.120894 0.683869 0.574168
O O1 0.500000 0.500000 0.500000
O O2 0.747746 0.545977 0.730598
O O3 0.591303 0.601532 0.393729
O O4 0.952767 0.535133 0.358118
O O5 0.564685 0.750000 0.854005
O O6 0.545213 0.655184 0.042078
O O7 0.327404 0.669799 0.719160
O O8 0.839663 0.671430 0.687520
O O9 0.351612 0.940657 0.136520
O O10 0.000000 0.000000 0.000000
O O11 0.193950 0.651393 0.364153
O O12 0.139466 0.750000 0.535995
#
# Coordination Sequence:
#
# PCOD9166792 Si02
#       5
#     4   4   4   4   4
#     4   9  22  42  60  93 130 172 224 278 341 404
#     4  10  24  44  70 106 142 180 230 287 351 418
#     4  10  23  43  65  94 136 178 226 292 345 404
#     4  11  24  41  71 100 133 185 234 279 350 424
#     4  10  24  45  69 103 144 179 226 292 346 413
#
# _framework density 23.161608000000001
#
# number of rings (size 3 to 8) (size 9 to 14) (size 15 to 20)
#    0.000    2.000    0.000    0.600    5.600    9.600 
#    0.000    6.000    0.000    0.000    0.000    0.000 
#    0.000    0.000    0.000    0.000    0.000    0.000 
#
# Total GULP energy -111773.227770 kJ/mol
# GULP energy per Si atom -5588.661388 kJ/mol
# Density = 2.310889 g / cm^3
# Si number density = 23.161608 Si / 1000 Ang^3
#
#
#
# Elastic Constant Matrix: (Units=GPa)
#
#
# Indices 1 2 3 4 5 6 
#
# 1 98.1467 23.9857 44.2940 0.0000 6.4550 0.0000
# 2 23.9857 80.9948 61.9350 0.0000 12.4271 0.0000
# 3 44.2940 61.9350 156.3127 0.0000 8.9002 0.0000
# 4 0.0000 0.0000 0.0000 40.3644 0.0000 3.9363
# 5 6.4550 12.4271 8.9002 0.0000 51.9152 0.0000
# 6 0.0000 0.0000 0.0000 3.9363 0.0000 28.2062
#
#
#
# Elastic Compliance Matrix: (Units=1/GPa)
#
#
# Indices 1 2 3 4 5 6 
#
# 1 0.011808 -0.001237 -0.002816 0.000000 -0.000689 0.000000
# 2 -0.001237 0.018340 -0.006741 0.000000 -0.003081 0.000000
# 3 -0.002816 -0.006741 0.009851 0.000000 0.000275 0.000000
# 4 0.000000 0.000000 0.000000 0.025116 0.000000 -0.003505
# 5 -0.000689 -0.003081 0.000275 0.000000 0.020038 0.000000
# 6 0.000000 0.000000 0.000000 -0.003505 0.000000 0.035942
#
#
# Mechanical properties :
#
#
# Convention : Reuss Voigt Hill
#
# Bulk Modulus (GPa) = 54.32004 66.20929 60.26467
# Shear Modulus (GPa) = 33.59753 37.77979 35.68866
#
# Velocity S-wave (km/s) = 3.81277 4.04312 3.92963
# Velocity P-wave (km/s) = 6.54877 7.10236 6.83118
#
# Compressibility (1/GPa) = 0.01840941
#
# Stress axis : x y z
#
# Youngs Moduli (GPa) = 84.69131 54.52539 101.51543
#
# Poissons Ratio (x) = 0.06746 0.28591
# Poissons Ratio (y) = 0.10479 0.68429
# Poissons Ratio (z) = 0.23852 0.36754
#
# Static dielectric constant tensor:
#      x y z
#    x 1.861690 0.000000 0.008400 
#    y 0.000000 2.000110 0.000000 
#    z 0.008400 0.000000 1.828360 
# 
# From -- ./inp_files/783.got.cif
#   From: 2010.05.17/outbox.cif.g08.bks.cpg/sg11_1_cif.got.tgz:783.got - 2010.06.03 12:22:45.
