data_PCOD9166572
_publ_section_title
;
Structure prediction by ZEFSAII (Michael W. Deem and Ramdas Pophale) SiO2 
 PCOD9166572
Probable space group: P 21/M
;
_chemical_formula_sum "Si O2"
_cell_formula_units_Z 20
_cell_length_a 5.116545
_cell_length_b 19.716783
_cell_length_c 9.654768
_cell_angle_alpha 90.000000
_cell_angle_beta 57.372933
_cell_angle_gamma 90.000000
_cell_volume 820.292595
_symmetry_space_group_name_H-M "P 21/M"
_symmetry_group_IT_number 11
_symmetry_cell_setting 'monoclinic'
loop_
_space_group_symop_operation_xyz
x,y,z
-x,1/2+y,-z
-x,-y,-z
x,1/2-y,z
loop_
_atom_site_type_symbol
_atom_site_label
_atom_site_fract_x
_atom_site_fract_y
_atom_site_fract_z
Si Si1 0.056437 0.750000 0.233150
Si Si2 0.435727 0.322962 0.064188
Si Si3 0.519594 0.355401 0.355643
Si Si4 0.327340 0.750000 0.464083
Si Si5 0.949819 0.543651 0.879689
Si Si6 0.161813 0.034929 0.580264
O O1 0.134105 0.750000 0.376698
O O2 0.690298 0.750000 0.316402
O O3 0.228411 0.812147 0.103759
O O4 0.276050 0.250000 0.066955
O O5 0.440514 0.322215 0.230624
O O6 0.294864 0.394584 0.056170
O O7 0.700502 0.312629 0.420407
O O8 0.738228 0.415472 0.242228
O O9 0.228829 0.387750 0.519973
O O10 0.932281 0.485645 0.768481
O O11 0.000000 0.500000 0.000000
O O12 0.500000 0.000000 0.500000
O O13 0.000000 0.000000 0.500000
#
# Coordination Sequence:
#
# PCOD9166572 Si02
#       6
#     2   4   4   2   4   4
#     4  10  29  43  70 108 148 183 244 309 375 429
#     4  10  24  45  71 107 145 189 247 310 373 436
#     4  11  25  43  74 102 144 190 246 300 373 437
#     4  12  27  47  74 108 140 193 238 313 365 447
#     4  11  26  45  72 107 149 199 244 308 373 449
#     4  10  22  43  64 101 140 186 232 287 352 434
#
# _framework density 24.381542
#
# number of rings (size 3 to 8) (size 9 to 14) (size 15 to 20)
#    0.600    0.800    3.000    0.000    9.800    0.800 
#    3.600    0.000    0.000    0.000    0.000    0.000 
#    0.000    0.000    0.000    0.000    0.000    0.000 
#
# Total GULP energy -111590.157768 kJ/mol
# GULP energy per Si atom -5579.507888 kJ/mol
# Density = 2.432605 g / cm^3
# Si number density = 24.381542 Si / 1000 Ang^3
#
#
#
# Elastic Constant Matrix: (Units=GPa)
#
#
# Indices 1 2 3 4 5 6 
#
# 1 77.1888 15.5653 11.3847 0.0000 3.3532 0.0000
# 2 15.5653 121.2814 56.3179 0.0000 -7.9689 0.0000
# 3 11.3847 56.3179 134.9422 0.0000 17.8487 0.0000
# 4 0.0000 0.0000 0.0000 61.9203 0.0000 -10.3869
# 5 3.3532 -7.9689 17.8487 0.0000 42.4860 0.0000
# 6 0.0000 0.0000 0.0000 -10.3869 0.0000 35.9807
#
#
#
# Elastic Compliance Matrix: (Units=1/GPa)
#
#
# Indices 1 2 3 4 5 6 
#
# 1 0.013387 -0.001680 -0.000262 0.000000 -0.001262 0.000000
# 2 -0.001680 0.011098 -0.005064 0.000000 0.004342 0.000000
# 3 -0.000262 -0.005064 0.010238 0.000000 -0.005230 0.000000
# 4 0.000000 0.000000 0.000000 0.016972 0.000000 0.004899
# 5 -0.001262 0.004342 -0.005230 0.000000 0.026648 0.000000
# 6 0.000000 0.000000 0.000000 0.004899 0.000000 0.029207
#
#
# Mechanical properties :
#
#
# Convention : Reuss Voigt Hill
#
# Bulk Modulus (GPa) = 48.28039 55.54981 51.91510
# Shear Modulus (GPa) = 38.92114 44.75368 41.83741
#
# Velocity S-wave (km/s) = 3.99975 4.28899 4.14689
# Velocity P-wave (km/s) = 6.41683 6.88188 6.65342
#
# Compressibility (1/GPa) = 0.02071234
#
# Stress axis : x y z
#
# Youngs Moduli (GPa) = 74.69746 90.10882 97.67548
#
# Poissons Ratio (x) = 0.15134 0.02555
# Poissons Ratio (y) = 0.12546 0.49465
# Poissons Ratio (z) = 0.01954 0.45633
#
# Static dielectric constant tensor:
#      x y z
#    x 1.947370 0.000000 -0.045480 
#    y 0.000000 2.032360 0.000000 
#    z -0.045480 0.000000 1.955590 
# 
# From -- ./inp_files/10247.got.cif
#   From: 2010.05.17/outbox.cif.g08.bks.cpg/sg11_6_cif.got.tgz:10247.got - 2010.06.03 12:22:45.
