data_PCOD9166188
_publ_section_title
;
Structure prediction by ZEFSAII (Michael W. Deem and Ramdas Pophale) SiO2 
 PCOD9166188
Probable space group: P 21/M
;
_chemical_formula_sum "Si O2"
_cell_formula_units_Z 24
_cell_length_a 12.763338
_cell_length_b 8.781602
_cell_length_c 12.509153
_cell_angle_alpha 90.000000
_cell_angle_beta 109.123640
_cell_angle_gamma 90.000000
_cell_volume 1324.683612
_symmetry_space_group_name_H-M "P 21/M"
_symmetry_group_IT_number 11
_symmetry_cell_setting 'monoclinic'
loop_
_space_group_symop_operation_xyz
x,y,z
-x,1/2+y,-z
-x,-y,-z
x,1/2-y,z
loop_
_atom_site_type_symbol
_atom_site_label
_atom_site_fract_x
_atom_site_fract_y
_atom_site_fract_z
Si Si1 0.869355 0.430177 0.635325
Si Si2 0.489951 0.568978 0.377572
Si Si3 0.104259 0.932678 0.734220
Si Si4 0.714561 0.068576 0.377540
Si Si5 0.263541 0.431280 0.213629
Si Si6 0.887467 0.432305 0.012220
O O1 0.867465 0.250000 0.657977
O O2 0.790486 0.458066 0.507563
O O3 0.821006 0.519830 0.720467
O O4 0.994077 0.484467 0.656107
O O5 0.500000 0.500000 0.500000
O O6 0.478769 0.750000 0.382114
O O7 0.601151 0.522189 0.352562
O O8 0.381921 0.500303 0.284884
O O9 0.088149 0.750000 0.718397
O O10 0.211239 0.973022 0.699830
O O11 0.118198 0.968675 0.863994
O O12 0.690285 0.250000 0.365520
O O13 0.269584 0.250000 0.209939
O O14 0.214187 0.499204 0.088321
O O15 0.889315 0.250000 0.001064
O O16 0.000000 0.500000 0.000000
#
# Coordination Sequence:
#
# PCOD9166188 Si02
#       6
#     4   4   4   4   4   4
#     4  11  21  34  59  90 124 158 196 246 301 361
#     4  12  24  40  63  90 120 157 200 247 299 359
#     4  10  22  39  60  87 124 163 201 245 301 359
#     4  10  22  40  60  88 124 162 200 245 299 359
#     4  12  24  39  61  89 121 157 202 252 299 352
#     4  11  22  38  61  89 122 160 202 250 298 355
#
# _framework density 18.117533000000002
#
# number of rings (size 3 to 8) (size 9 to 14) (size 15 to 20)
#    0.000    1.000    3.333    4.500    0.000    2.000 
#    0.000    0.833    0.000    0.000    0.000    0.000 
#    0.000    0.000    0.000    0.000    0.000    0.000 
#
# Total GULP energy -134236.572401 kJ/mol
# GULP energy per Si atom -5593.190517 kJ/mol
# Density = 1.807630 g / cm^3
# Si number density = 18.117533 Si / 1000 Ang^3
#
#
#
# Elastic Constant Matrix: (Units=GPa)
#
#
# Indices 1 2 3 4 5 6 
#
# 1 106.6043 39.8157 27.1120 0.0000 11.7674 0.0000
# 2 39.8157 81.5618 36.4835 0.0000 7.3415 0.0000
# 3 27.1120 36.4835 60.4823 0.0000 16.8753 0.0000
# 4 0.0000 0.0000 0.0000 24.4300 0.0000 5.6274
# 5 11.7674 7.3415 16.8753 0.0000 34.9934 0.0000
# 6 0.0000 0.0000 0.0000 5.6274 0.0000 34.9480
#
#
#
# Elastic Compliance Matrix: (Units=1/GPa)
#
#
# Indices 1 2 3 4 5 6 
#
# 1 0.011867 -0.004775 -0.001855 0.000000 -0.002094 0.000000
# 2 -0.004775 0.018788 -0.009869 0.000000 0.002423 0.000000
# 3 -0.001855 -0.009869 0.026075 0.000000 -0.009880 0.000000
# 4 0.000000 0.000000 0.000000 0.042510 0.000000 -0.006845
# 5 -0.002094 0.002423 -0.009880 0.000000 0.033537 0.000000
# 6 0.000000 0.000000 0.000000 -0.006845 0.000000 0.029716
#
#
# Mechanical properties :
#
#
# Convention : Reuss Voigt Hill
#
# Bulk Modulus (GPa) = 42.13609 50.60787 46.37198
# Shear Modulus (GPa) = 24.58204 28.55676 26.56940
#
# Velocity S-wave (km/s) = 3.68749 3.97444 3.83365
# Velocity P-wave (km/s) = 6.43721 7.00395 6.72655
#
# Compressibility (1/GPa) = 0.02373262
#
# Stress axis : x y z
#
# Youngs Moduli (GPa) = 84.26936 53.22617 38.35106
#
# Poissons Ratio (x) = 0.25414 0.07114
# Poissons Ratio (y) = 0.40236 0.37848
# Poissons Ratio (z) = 0.15632 0.52527
#
# Static dielectric constant tensor:
#      x y z
#    x 1.602160 0.000000 -0.005940 
#    y 0.000000 1.607440 0.000000 
#    z -0.005940 0.000000 1.604520 
# 
# From -- ./inp_files/33721.got.cif
#   From: 2010.05.17/outbox.cif.g08.bks.cpg/sg11_17_cif.got.tgz:33721.got - 2010.06.03 12:22:45.
