data_PCOD9166747
_publ_section_title
;
Structure prediction by ZEFSAII (Michael W. Deem and Ramdas Pophale) SiO2 
 PCOD9166747
Probable space group: P 21/M
;
_chemical_formula_sum "Si O2"
_cell_formula_units_Z 32
_cell_length_a 24.871498
_cell_length_b 7.981228
_cell_length_c 15.252944
_cell_angle_alpha 90.000000
_cell_angle_beta 150.429565
_cell_angle_gamma 90.000000
_cell_volume 1494.192159
_symmetry_space_group_name_H-M "P 21/M"
_symmetry_group_IT_number 11
_symmetry_cell_setting 'monoclinic'
loop_
_space_group_symop_operation_xyz
x,y,z
-x,1/2+y,-z
-x,-y,-z
x,1/2-y,z
loop_
_atom_site_type_symbol
_atom_site_label
_atom_site_fract_x
_atom_site_fract_y
_atom_site_fract_z
Si Si1 0.907307 0.451308 0.935380
Si Si2 0.319101 0.443107 0.451877
Si Si3 0.234095 0.946967 0.979433
Si Si4 0.021328 0.548838 0.768253
Si Si5 0.417114 0.942754 0.765182
Si Si6 0.378673 0.049354 0.348211
Si Si7 0.227448 0.553072 0.621121
Si Si8 0.344053 0.449563 0.954792
O O1 0.888039 0.250000 0.909119
O O2 0.806014 0.547201 0.750653
O O3 0.000000 0.500000 0.000000
O O4 0.938794 0.505966 0.078485
O O5 0.353140 0.250000 0.515238
O O6 0.351018 0.548033 0.581033
O O7 0.367692 0.513854 0.431560
O O8 0.225622 0.750000 0.950242
O O9 0.298181 0.974993 0.161613
O O10 0.110950 0.013726 0.823967
O O11 0.305186 0.016092 0.999159
O O12 0.029489 0.750000 0.779095
O O13 0.894139 0.508570 0.573545
O O14 0.436320 0.750000 0.819879
O O15 0.331969 0.020155 0.714858
O O16 0.536585 0.014982 0.908824
O O17 0.362203 0.250000 0.325591
O O18 0.500000 0.000000 0.500000
O O19 0.226498 0.750000 0.600443
O O20 0.255453 0.521321 0.761983
O O21 0.347735 0.250000 0.950992
#
# Coordination Sequence:
#
# PCOD9166747 Si02
#       8
#     4   4   4   4   4   4   4   4
#     4  11  22  38  60  88 123 164 206 253 306 365
#     4  11  23  37  58  90 124 162 204 246 301 368
#     4  11  23  42  65  91 126 167 213 263 316 375
#     4  10  23  42  63  89 125 168 210 258 315 374
#     4  10  23  42  64  93 128 165 208 260 319 379
#     4  11  23  38  59  89 125 165 210 255 306 368
#     4  11  24  42  66  94 123 162 210 264 320 379
#     4  11  24  43  67  94 125 164 209 263 324 383
#
# _framework density 21.416253999999999
#
# number of rings (size 3 to 8) (size 9 to 14) (size 15 to 20)
#    0.000    1.250    1.250    4.125    0.000   10.000 
#    0.000    0.000    0.000    0.000    0.000    0.000 
#    0.000    0.000    0.000    0.000    0.000    0.000 
#
# Total GULP energy -178590.531833 kJ/mol
# GULP energy per Si atom -5580.954120 kJ/mol
# Density = 2.136751 g / cm^3
# Si number density = 21.416254 Si / 1000 Ang^3
#
#
#
# Elastic Constant Matrix: (Units=GPa)
#
#
# Indices 1 2 3 4 5 6 
#
# 1 106.5853 -7.1797 28.2792 0.0000 18.9266 0.0000
# 2 -7.1797 30.2547 -6.0149 0.0000 4.8141 0.0000
# 3 28.2792 -6.0149 102.8942 0.0000 10.1793 0.0000
# 4 0.0000 0.0000 0.0000 26.5754 0.0000 -1.5302
# 5 18.9266 4.8141 10.1793 0.0000 40.7741 0.0000
# 6 0.0000 0.0000 0.0000 -1.5302 0.0000 38.7911
#
#
#
# Elastic Compliance Matrix: (Units=1/GPa)
#
#
# Indices 1 2 3 4 5 6 
#
# 1 0.011083 0.002934 -0.002390 0.000000 -0.004894 0.000000
# 2 0.002934 0.035061 0.001833 0.000000 -0.005959 0.000000
# 3 -0.002390 0.001833 0.010658 0.000000 -0.001768 0.000000
# 4 0.000000 0.000000 0.000000 0.037714 0.000000 0.001488
# 5 -0.004894 -0.005959 -0.001768 0.000000 0.027942 0.000000
# 6 0.000000 0.000000 0.000000 0.001488 0.000000 0.025838
#
#
# Mechanical properties :
#
#
# Convention : Reuss Voigt Hill
#
# Bulk Modulus (GPa) = 16.24580 29.98926 23.11753
# Shear Modulus (GPa) = 30.47623 36.20477 33.34050
#
# Velocity S-wave (km/s) = 3.77642 4.11606 3.94989
# Velocity P-wave (km/s) = 5.15919 6.05167 5.62317
#
# Compressibility (1/GPa) = 0.06155437
#
# Stress axis : x y z
#
# Youngs Moduli (GPa) = 90.22785 28.52137 93.82900
#
# Poissons Ratio (x) = -0.08367 0.22429
# Poissons Ratio (y) = -0.26469 -0.17197
# Poissons Ratio (z) = 0.21568 -0.05228
#
# Static dielectric constant tensor:
#      x y z
#    x 1.736910 0.000000 0.002360 
#    y 0.000000 1.787190 0.000000 
#    z 0.002360 0.000000 1.731290 
# 
# From -- ./inp_files/55656.got.cif
#   From: 2010.05.17/outbox.cif.g08.bks.cpg/sg11_28_cif.got.tgz:55656.got - 2010.06.03 12:22:45.
