data_PCOD9166315
_publ_section_title
;
Structure prediction by ZEFSAII (Michael W. Deem and Ramdas Pophale) SiO2 
 PCOD9166315
Probable space group: P 21/M
;
_chemical_formula_sum "Si O2"
_cell_formula_units_Z 28
_cell_length_a 27.878569
_cell_length_b 8.868751
_cell_length_c 10.314402
_cell_angle_alpha 90.000000
_cell_angle_beta 34.906816
_cell_angle_gamma 90.000000
_cell_volume 1459.344458
_symmetry_space_group_name_H-M "P 21/M"
_symmetry_group_IT_number 11
_symmetry_cell_setting 'monoclinic'
loop_
_space_group_symop_operation_xyz
x,y,z
-x,1/2+y,-z
-x,-y,-z
x,1/2-y,z
loop_
_atom_site_type_symbol
_atom_site_label
_atom_site_fract_x
_atom_site_fract_y
_atom_site_fract_z
Si Si1 0.559052 0.570620 0.478686
Si Si2 0.991065 0.430057 0.877132
Si Si3 0.199791 0.930361 0.765167
Si Si4 0.155101 0.570708 0.400817
Si Si5 0.262875 0.929733 0.913203
Si Si6 0.280005 0.070650 0.334593
Si Si7 0.476399 0.430715 0.913450
O O1 0.500000 0.500000 0.500000
O O2 0.550372 0.750000 0.499228
O O3 0.653953 0.522035 0.239950
O O4 0.532237 0.502343 0.676623
O O5 0.998353 0.250000 0.869760
O O6 0.066218 0.493991 0.624386
O O7 0.000000 0.500000 0.000000
O O8 0.898605 0.466823 0.029630
O O9 0.209124 0.750000 0.723568
O O10 0.232700 0.965718 0.835269
O O11 0.250286 0.015781 0.541674
O O12 0.146421 0.750000 0.436972
O O13 0.222106 0.510492 0.357074
O O14 0.191942 0.539757 0.177027
O O15 0.281761 0.750000 0.877029
O O16 0.268328 0.250000 0.349132
O O17 0.378555 0.037223 0.100404
O O18 0.487843 0.250000 0.890879
O O19 0.500000 0.500000 0.000000
#
# Coordination Sequence:
#
# PCOD9166315 Si02
#       7
#     4   4   4   4   4   4   4
#     4  12  25  42  65  92 124 166 211 258 314 373
#     4  11  22  38  62  92 124 160 205 251 301 362
#     4  10  22  40  63  89 122 162 202 249 308 365
#     4  11  23  39  62  90 121 159 202 250 306 363
#     4  10  23  43  64  90 124 162 205 254 310 372
#     4  11  23  38  60  89 119 156 205 254 300 360
#     4  11  24  41  62  92 126 162 207 258 314 373
#
# _framework density 19.186696999999999
#
# number of rings (size 3 to 8) (size 9 to 14) (size 15 to 20)
#    0.000    1.143    1.429    4.714    0.000    9.714 
#    0.000    0.000    0.000    0.000    0.000    0.000 
#    0.000    0.000    0.000    0.000    0.000    0.000 
#
# Total GULP energy -156671.918023 kJ/mol
# GULP energy per Si atom -5595.425644 kJ/mol
# Density = 1.914303 g / cm^3
# Si number density = 19.186697 Si / 1000 Ang^3
#
#
#
# Elastic Constant Matrix: (Units=GPa)
#
#
# Indices 1 2 3 4 5 6 
#
# 1 41.0902 15.0059 -11.8268 0.0000 -0.9564 0.0000
# 2 15.0059 57.4446 33.7891 0.0000 -8.9687 0.0000
# 3 -11.8268 33.7891 79.1317 0.0000 -3.1609 0.0000
# 4 0.0000 0.0000 0.0000 36.9207 0.0000 -5.4430
# 5 -0.9564 -8.9687 -3.1609 0.0000 38.3319 0.0000
# 6 0.0000 0.0000 0.0000 -5.4430 0.0000 21.0306
#
#
#
# Elastic Compliance Matrix: (Units=1/GPa)
#
#
# Indices 1 2 3 4 5 6 
#
# 1 0.033501 -0.015961 0.011745 0.000000 -0.001930 0.000000
# 2 -0.015961 0.031703 -0.015694 0.000000 0.005725 0.000000
# 3 0.011745 -0.015694 0.021028 0.000000 -0.001645 0.000000
# 4 0.000000 0.000000 0.000000 0.028160 0.000000 0.007288
# 5 -0.001930 0.005725 -0.001645 0.000000 0.027244 0.000000
# 6 0.000000 0.000000 0.000000 0.007288 0.000000 0.049436
#
#
# Mechanical properties :
#
#
# Convention : Reuss Voigt Hill
#
# Bulk Modulus (GPa) = 21.54591 27.95587 24.75089
# Shear Modulus (GPa) = 20.29536 28.63652 24.46594
#
# Velocity S-wave (km/s) = 3.25589 3.86750 3.57480
# Velocity P-wave (km/s) = 5.03869 5.87755 5.47421
#
# Compressibility (1/GPa) = 0.04641252
#
# Stress axis : x y z
#
# Youngs Moduli (GPa) = 29.84954 31.54316 47.55539
#
# Poissons Ratio (x) = 0.50347 -0.55856
# Poissons Ratio (y) = 0.47644 0.74632
# Poissons Ratio (z) = -0.35059 0.49503
#
# Static dielectric constant tensor:
#      x y z
#    x 1.637720 0.000000 -0.005650 
#    y 0.000000 1.646400 0.000000 
#    z -0.005650 0.000000 1.644660 
# 
# From -- ./inp_files/28390.got.cif
#   From: 2010.05.17/outbox.cif.g08.bks.cpg/sg11_15_cif.got.tgz:28390.got - 2010.06.03 12:22:45.
