data_PCOD9166358
_publ_section_title
;
Structure prediction by ZEFSAII (Michael W. Deem and Ramdas Pophale) SiO2 
 PCOD9166358
Probable space group: P 21/M
;
_chemical_formula_sum "Si O2"
_cell_formula_units_Z 20
_cell_length_a 7.037557
_cell_length_b 12.670748
_cell_length_c 13.329513
_cell_angle_alpha 90.000000
_cell_angle_beta 139.674919
_cell_angle_gamma 90.000000
_cell_volume 769.175923
_symmetry_space_group_name_H-M "P 21/M"
_symmetry_group_IT_number 11
_symmetry_cell_setting 'monoclinic'
loop_
_space_group_symop_operation_xyz
x,y,z
-x,1/2+y,-z
-x,-y,-z
x,1/2-y,z
loop_
_atom_site_type_symbol
_atom_site_label
_atom_site_fract_x
_atom_site_fract_y
_atom_site_fract_z
Si Si1 0.320378 0.571587 0.753578
Si Si2 0.018811 0.931937 0.842667
Si Si3 0.009156 0.365009 0.956206
Si Si4 0.462618 0.870598 0.511170
Si Si5 0.885908 0.862651 0.414671
O O1 0.234369 0.562720 0.835311
O O2 0.641253 0.621568 0.880399
O O3 0.051369 0.629575 0.588377
O O4 0.315551 0.461611 0.690650
O O5 0.138198 0.885250 0.995029
O O6 0.738740 0.866106 0.696834
O O7 0.933098 0.049901 0.841801
O O8 0.953873 0.250000 0.895805
O O9 0.472974 0.750000 0.464327
O O10 0.151761 0.869752 0.442328
O O11 0.500000 0.000000 0.500000
O O12 0.737972 0.750000 0.345002
#
# Coordination Sequence:
#
# PCOD9166358 Si02
#       5
#     4   4   4   4   4
#     4  11  22  42  67  93 130 169 221 263 330 397
#     4  11  24  43  66  94 130 171 221 269 327 394
#     4  11  25  44  66  92 128 172 222 277 326 387
#     4  11  22  42  69  99 136 175 220 273 334 397
#     4  10  22  40  65  96 135 170 210 274 332 391
#
# _framework density 26.001854000000002
#
# number of rings (size 3 to 8) (size 9 to 14) (size 15 to 20)
#    0.000    1.200    4.000    1.800    0.000    4.800 
#    0.000    5.000    0.000    0.000    0.000    0.000 
#    0.000    0.000    0.000    0.000    0.000    0.000 
#
# Total GULP energy -111715.956999 kJ/mol
# GULP energy per Si atom -5585.797850 kJ/mol
# Density = 2.594267 g / cm^3
# Si number density = 26.001854 Si / 1000 Ang^3
#
#
#
# Elastic Constant Matrix: (Units=GPa)
#
#
# Indices 1 2 3 4 5 6 
#
# 1 108.4339 18.4262 45.1491 0.0000 -25.7802 0.0000
# 2 18.4262 232.2794 37.0521 0.0000 -3.9404 0.0000
# 3 45.1491 37.0521 107.7893 0.0000 5.4586 0.0000
# 4 0.0000 0.0000 0.0000 11.5420 0.0000 4.8377
# 5 -25.7802 -3.9404 5.4586 0.0000 41.1600 0.0000
# 6 0.0000 0.0000 0.0000 4.8377 0.0000 13.5936
#
#
#
# Elastic Compliance Matrix: (Units=1/GPa)
#
#
# Indices 1 2 3 4 5 6 
#
# 1 0.014235 0.000071 -0.006482 0.000000 0.009782 0.000000
# 2 0.000071 0.004573 -0.001637 0.000000 0.000699 0.000000
# 3 -0.006482 -0.001637 0.012855 0.000000 -0.005922 0.000000
# 4 0.000000 0.000000 0.000000 0.101829 0.000000 -0.036239
# 5 0.009782 0.000699 -0.005922 0.000000 0.031275 0.000000
# 6 0.000000 0.000000 0.000000 -0.036239 0.000000 0.086461
#
#
# Mechanical properties :
#
#
# Convention : Reuss Voigt Hill
#
# Bulk Modulus (GPa) = 64.24288 72.19527 68.21907
# Shear Modulus (GPa) = 18.34775 36.45079 27.39927
#
# Velocity S-wave (km/s) = 2.65926 3.74820 3.24966
# Velocity P-wave (km/s) = 5.84718 6.82332 6.35402
#
# Compressibility (1/GPa) = 0.01556593
#
# Stress axis : x y z
#
# Youngs Moduli (GPa) = 70.24936 218.69845 77.79028
#
# Poissons Ratio (x) = -0.01547 0.50426
# Poissons Ratio (y) = -0.00497 0.12733
# Poissons Ratio (z) = 0.45537 0.35797
#
# Static dielectric constant tensor:
#      x y z
#    x 2.047510 0.000000 -0.015990 
#    y 0.000000 2.116460 0.000000 
#    z -0.015990 0.000000 1.985800 
# 
# From -- ./inp_files/46848.got.cif
#   From: 2010.05.17/outbox.cif.g08.bks.cpg/sg11_24_cif.got.tgz:46848.got - 2010.06.03 12:22:45.
