data_PCOD9166545
_publ_section_title
;
Structure prediction by ZEFSAII (Michael W. Deem and Ramdas Pophale) SiO2 
 PCOD9166545
Probable space group: P 21/M
;
_chemical_formula_sum "Si O2"
_cell_formula_units_Z 28
_cell_length_a 12.325552
_cell_length_b 14.577403
_cell_length_c 9.933248
_cell_angle_alpha 90.000000
_cell_angle_beta 34.845809
_cell_angle_gamma 90.000000
_cell_volume 1019.753446
_symmetry_space_group_name_H-M "P 21/M"
_symmetry_group_IT_number 11
_symmetry_cell_setting 'monoclinic'
loop_
_space_group_symop_operation_xyz
x,y,z
-x,1/2+y,-z
-x,-y,-z
x,1/2-y,z
loop_
_atom_site_type_symbol
_atom_site_label
_atom_site_fract_x
_atom_site_fract_y
_atom_site_fract_z
Si Si1 0.000000 0.000000 0.000000
Si Si2 0.521275 0.381488 0.611991
Si Si3 0.552905 0.898893 0.898586
Si Si4 0.059043 0.645749 0.717058
Si Si5 0.945841 0.360928 0.872595
Si Si6 0.394910 0.095292 0.453704
Si Si7 0.479085 0.250000 0.862658
Si Si8 0.001860 0.139710 0.518137
O O1 0.154459 0.925198 0.916973
O O2 0.032899 0.073968 0.088339
O O3 0.721977 0.343026 0.460033
O O4 0.545952 0.489586 0.601110
O O5 0.459070 0.357399 0.524909
O O6 0.391542 0.331569 0.853523
O O7 0.527729 0.871388 0.767520
O O8 0.778517 0.886230 0.688110
O O9 0.453241 0.828139 0.097309
O O10 0.500000 0.000000 0.000000
O O11 0.986804 0.750000 0.793329
O O12 0.059603 0.605572 0.565009
O O13 0.938528 0.250000 0.898869
O O14 0.162352 0.399121 0.687870
O O15 0.905569 0.384734 0.758526
O O16 0.995977 0.250000 0.518738
#
# Coordination Sequence:
#
# PCOD9166545 Si02
#       8
#     2   4   4   4   4   4   2   4
#     4  12  24  40  62 100 130 168 218 276 320 394
#     4  11  23  43  68  95 132 182 216 269 344 399
#     4  11  22  41  68 103 134 170 225 283 330 391
#     4  11  24  44  67  93 136 175 219 266 333 398
#     4  10  22  42  67  94 126 171 225 267 328 391
#     4  10  23  43  69  94 132 176 220 275 336 397
#     4  12  24  40  68 104 134 168 230 276 334 394
#     4   9  21  43  69  94 128 176 220 267 327 396
#
# _framework density 27.457618
#
# number of rings (size 3 to 8) (size 9 to 14) (size 15 to 20)
#    0.000    1.429    4.286    0.429    2.000    2.857 
#    0.000    1.429    0.000    0.000    0.000    0.000 
#    0.000    0.000    0.000    0.000    0.000    0.000 
#
# Total GULP energy -155964.618605 kJ/mol
# GULP energy per Si atom -5570.164950 kJ/mol
# Density = 2.739512 g / cm^3
# Si number density = 27.457618 Si / 1000 Ang^3
#
#
#
# Elastic Constant Matrix: (Units=GPa)
#
#
# Indices 1 2 3 4 5 6 
#
# 1 141.3335 24.3650 73.1196 0.0000 58.6545 0.0000
# 2 24.3650 167.5616 17.0467 0.0000 33.0218 0.0000
# 3 73.1196 17.0467 90.6255 0.0000 38.6478 0.0000
# 4 0.0000 0.0000 0.0000 162.8967 0.0000 58.5352
# 5 58.6545 33.0218 38.6478 0.0000 90.0349 0.0000
# 6 0.0000 0.0000 0.0000 58.5352 0.0000 50.5616
#
#
#
# Elastic Compliance Matrix: (Units=1/GPa)
#
#
# Indices 1 2 3 4 5 6 
#
# 1 0.013875 -0.000089 -0.008981 0.000000 -0.005151 0.000000
# 2 -0.000089 0.006438 -0.000192 0.000000 -0.002221 0.000000
# 3 -0.008981 -0.000192 0.019330 0.000000 -0.002376 0.000000
# 4 0.000000 0.000000 0.000000 0.010512 0.000000 -0.012170
# 5 -0.005151 -0.002221 -0.002376 0.000000 0.016297 0.000000
# 6 0.000000 0.000000 0.000000 -0.012170 0.000000 0.033867
#
#
# Mechanical properties :
#
#
# Convention : Reuss Voigt Hill
#
# Bulk Modulus (GPa) = 47.35126 69.84259 58.59692
# Shear Modulus (GPa) = 39.71916 79.69793 59.70855
#
# Velocity S-wave (km/s) = 3.80750 5.39340 4.66829
# Velocity P-wave (km/s) = 6.05079 8.01728 7.10242
#
# Compressibility (1/GPa) = 0.02111876
#
# Stress axis : x y z
#
# Youngs Moduli (GPa) = 72.07104 155.32520 51.73199
#
# Poissons Ratio (x) = 0.01377 0.46463
# Poissons Ratio (y) = 0.00639 0.00995
# Poissons Ratio (z) = 0.64730 0.02987
#
# Static dielectric constant tensor:
#      x y z
#    x 2.168280 0.000000 -0.078160 
#    y 0.000000 1.695420 0.000000 
#    z -0.078160 0.000000 1.960610 
# 
# From -- ./inp_files/17978.got.cif
#   From: 2010.05.17/outbox.cif.g08.bks.cpg/sg11_9_cif.got.tgz:17978.got - 2010.06.03 12:22:45.
