data_PCOD9166637
_publ_section_title
;
Structure prediction by ZEFSAII (Michael W. Deem and Ramdas Pophale) SiO2 
 PCOD9166637
Probable space group: P 21/M
;
_chemical_formula_sum "Si O2"
_cell_formula_units_Z 14
_cell_length_a 8.867286
_cell_length_b 8.129013
_cell_length_c 11.260306
_cell_angle_alpha 90.000000
_cell_angle_beta 41.302093
_cell_angle_gamma 90.000000
_cell_volume 535.724882
_symmetry_space_group_name_H-M "P 21/M"
_symmetry_group_IT_number 11
_symmetry_cell_setting 'monoclinic'
loop_
_space_group_symop_operation_xyz
x,y,z
-x,1/2+y,-z
-x,-y,-z
x,1/2-y,z
loop_
_atom_site_type_symbol
_atom_site_label
_atom_site_fract_x
_atom_site_fract_y
_atom_site_fract_z
Si Si1 0.165992 0.250000 0.357664
Si Si2 0.649338 0.250000 0.614018
Si Si3 0.625914 0.750000 0.005699
Si Si4 0.678406 0.923100 0.513810
Si Si5 0.922707 0.059163 0.916109
O O1 0.198747 0.398536 0.430723
O O2 0.922671 0.250000 0.436771
O O3 0.360885 0.250000 0.143254
O O4 0.603797 0.250000 0.781575
O O5 0.545445 0.409530 0.611557
O O6 0.750444 0.581133 0.971750
O O7 0.548577 0.750000 0.575985
O O8 0.868777 0.940075 0.301167
O O9 0.842650 0.250000 0.969674
O O10 0.000000 0.000000 0.000000
#
# Coordination Sequence:
#
# PCOD9166637 Si02
#       5
#     2   2   2   4   4
#     4  10  22  45  62  94 136 171 209 259 320 385
#     4  12  22  40  65  96 135 162 214 265 318 380
#     4  12  26  39  67 102 125 169 213 264 324 379
#     4   9  22  40  67  90 126 176 208 255 324 374
#     4  11  22  43  72  91 125 173 216 262 321 380
#
# _framework density 26.132815000000001
#
# number of rings (size 3 to 8) (size 9 to 14) (size 15 to 20)
#    0.857    0.571    4.286    0.857    0.000    2.286 
#    0.000    1.429    0.000    0.000    0.000    0.000 
#    0.000    0.000    0.000    0.000    0.000    0.000 
#
# Total GULP energy -78348.495790 kJ/mol
# GULP energy per Si atom -5596.321128 kJ/mol
# Density = 2.607334 g / cm^3
# Si number density = 26.132815 Si / 1000 Ang^3
#
#
#
# Elastic Constant Matrix: (Units=GPa)
#
#
# Indices 1 2 3 4 5 6 
#
# 1 81.6366 49.7868 18.9549 0.0000 14.0517 0.0000
# 2 49.7868 231.6763 60.7170 0.0000 16.1864 0.0000
# 3 18.9549 60.7170 172.6152 0.0000 29.6276 0.0000
# 4 0.0000 0.0000 0.0000 40.8210 0.0000 16.9610
# 5 14.0517 16.1864 29.6276 0.0000 36.8023 0.0000
# 6 0.0000 0.0000 0.0000 16.9610 0.0000 27.3256
#
#
#
# Elastic Compliance Matrix: (Units=1/GPa)
#
#
# Indices 1 2 3 4 5 6 
#
# 1 0.014753 -0.002901 0.000172 0.000000 -0.004495 0.000000
# 2 -0.002901 0.005349 -0.001566 0.000000 0.000016 0.000000
# 3 0.000172 -0.001566 0.007215 0.000000 -0.005186 0.000000
# 4 0.000000 0.000000 0.000000 0.033011 0.000000 -0.020490
# 5 -0.004495 0.000016 -0.005186 0.000000 0.033056 0.000000
# 6 0.000000 0.000000 0.000000 -0.020490 0.000000 0.049314
#
#
# Mechanical properties :
#
#
# Convention : Reuss Voigt Hill
#
# Bulk Modulus (GPa) = 53.39842 82.76061 68.07952
# Shear Modulus (GPa) = 31.74006 44.75441 38.24723
#
# Velocity S-wave (km/s) = 3.48884 4.14282 3.82982
# Velocity P-wave (km/s) = 6.05865 7.39066 6.75756
#
# Compressibility (1/GPa) = 0.01872715
#
# Stress axis : x y z
#
# Youngs Moduli (GPa) = 67.78460 186.94791 138.59847
#
# Poissons Ratio (x) = 0.54240 -0.02386
# Poissons Ratio (y) = 0.19667 0.21699
# Poissons Ratio (z) = -0.01167 0.29268
#
# Static dielectric constant tensor:
#      x y z
#    x 2.009930 0.000000 0.032370 
#    y 0.000000 2.157200 0.000000 
#    z 0.032370 0.000000 1.971520 
# 
# From -- ./inp_files/33377.got.cif
#   From: 2010.05.17/outbox.cif.g08.bks.cpg/sg11_17_cif.got.tgz:33377.got - 2010.06.03 12:22:45.
