data_PCOD9166981
_publ_section_title
;
Structure prediction by ZEFSAII (Michael W. Deem and Ramdas Pophale) SiO2 
 PCOD9166981
Probable space group: P 21/M
;
_chemical_formula_sum "Si O2"
_cell_formula_units_Z 30
_cell_length_a 8.085839
_cell_length_b 26.284856
_cell_length_c 11.844965
_cell_angle_alpha 90.000000
_cell_angle_beta 144.189510
_cell_angle_gamma 90.000000
_cell_volume 1472.987777
_symmetry_space_group_name_H-M "P 21/M"
_symmetry_group_IT_number 11
_symmetry_cell_setting 'monoclinic'
loop_
_space_group_symop_operation_xyz
x,y,z
-x,1/2+y,-z
-x,-y,-z
x,1/2-y,z
loop_
_atom_site_type_symbol
_atom_site_label
_atom_site_fract_x
_atom_site_fract_y
_atom_site_fract_z
Si Si1 0.151192 0.444689 0.787123
Si Si2 0.315825 0.376860 0.497681
Si Si3 0.072984 0.250000 0.757676
Si Si4 0.362055 0.007094 0.545749
Si Si5 0.696800 0.028766 0.946284
Si Si6 0.025787 0.851837 0.165219
Si Si7 0.399445 0.193978 0.743060
Si Si8 0.016209 0.635081 0.911100
O O1 0.419129 0.448387 0.854243
O O2 0.872297 0.463732 0.567564
O O3 0.123148 0.391163 0.833156
O O4 0.184988 0.486326 0.905140
O O5 0.236225 0.435518 0.476968
O O6 0.655360 0.373397 0.673810
O O7 0.248492 0.341476 0.567366
O O8 0.177114 0.357576 0.305270
O O9 0.965780 0.295459 0.781924
O O10 0.206396 0.206676 0.743196
O O11 0.594988 0.005693 0.772137
O O12 0.500000 0.000000 0.500000
O O13 0.904436 0.075581 0.042362
O O14 0.892143 0.851600 0.965369
O O15 0.463554 0.250000 0.727306
O O16 0.693756 0.167308 0.939694
#
# Coordination Sequence:
#
# PCOD9166981 Si02
#       8
#     4   4   2   4   4   4   4   4
#     4  11  24  39  64  97 131 171 213 259 314 386
#     4  11  23  40  67  97 125 170 215 257 319 388
#     4  10  24  48  68  88 130 164 212 270 328 366
#     4  12  22  40  63  94 135 174 210 255 320 383
#     4  11  23  40  62  94 132 174 210 258 316 379
#     4  11  24  42  66  93 131 169 210 268 317 371
#     4   9  22  45  68  88 119 171 207 268 319 366
#     4  11  22  41  67  95 127 164 215 259 316 388
#
# _framework density 20.366768
#
# number of rings (size 3 to 8) (size 9 to 14) (size 15 to 20)
#    0.400    0.800    5.333    1.200    5.600    1.600 
#    0.000    4.000    0.000    0.000    0.000    0.000 
#    0.000    0.000    0.000    0.000    0.000    0.000 
#
# Total GULP energy -167119.515486 kJ/mol
# GULP energy per Si atom -5570.650516 kJ/mol
# Density = 2.032041 g / cm^3
# Si number density = 20.366768 Si / 1000 Ang^3
#
#
#
# Elastic Constant Matrix: (Units=GPa)
#
#
# Indices 1 2 3 4 5 6 
#
# 1 55.3782 19.0659 -5.4662 0.0000 -10.4866 0.0000
# 2 19.0659 103.3531 -6.5984 0.0000 -8.6994 0.0000
# 3 -5.4662 -6.5984 72.9358 0.0000 -18.3913 0.0000
# 4 0.0000 0.0000 0.0000 15.7517 0.0000 -11.7662
# 5 -10.4866 -8.6994 -18.3913 0.0000 17.4230 0.0000
# 6 0.0000 0.0000 0.0000 -11.7662 0.0000 41.5400
#
#
#
# Elastic Compliance Matrix: (Units=1/GPa)
#
#
# Indices 1 2 3 4 5 6 
#
# 1 0.023197 -0.002201 0.006518 0.000000 0.019743 0.000000
# 2 -0.002201 0.010807 0.002506 0.000000 0.006717 0.000000
# 3 0.006518 0.002506 0.021436 0.000000 0.027802 0.000000
# 4 0.000000 0.000000 0.000000 0.080522 0.000000 0.022808
# 5 0.019743 0.006717 0.027802 0.000000 0.101980 0.000000
# 6 0.000000 0.000000 0.000000 0.022808 0.000000 0.030533
#
#
# Mechanical properties :
#
#
# Convention : Reuss Voigt Hill
#
# Bulk Modulus (GPa) = 14.47464 27.29666 20.88565
# Shear Modulus (GPa) = 17.99469 29.92066 23.95767
#
# Velocity S-wave (km/s) = 2.97565 3.83703 3.43346
# Velocity P-wave (km/s) = 4.35068 5.74996 5.09855
#
# Compressibility (1/GPa) = 0.06908635
#
# Stress axis : x y z
#
# Youngs Moduli (GPa) = 43.10812 92.53225 46.64955
#
# Poissons Ratio (x) = 0.20370 -0.30405
# Poissons Ratio (y) = 0.09490 -0.11692
# Poissons Ratio (z) = -0.28097 -0.23192
#
# Static dielectric constant tensor:
#      x y z
#    x 1.735760 0.000000 0.002950 
#    y 0.000000 1.728300 0.000000 
#    z 0.002950 0.000000 1.733260 
# 
# From -- ./inp_files/33064.got.cif
#   From: 2010.05.17/outbox.cif.g08.bks.cpg/sg11_17_cif.got.tgz:33064.got - 2010.06.03 12:22:45.
