data_PCOD9166587
_publ_section_title
;
Structure prediction by ZEFSAII (Michael W. Deem and Ramdas Pophale) SiO2 
 PCOD9166587
Probable space group: P 21/M
;
_chemical_formula_sum "Si O2"
_cell_formula_units_Z 28
_cell_length_a 13.633725
_cell_length_b 8.650998
_cell_length_c 12.897414
_cell_angle_alpha 90.000000
_cell_angle_beta 68.207754
_cell_angle_gamma 90.000000
_cell_volume 1412.479535
_symmetry_space_group_name_H-M "P 21/M"
_symmetry_group_IT_number 11
_symmetry_cell_setting 'monoclinic'
loop_
_space_group_symop_operation_xyz
x,y,z
-x,1/2+y,-z
-x,-y,-z
x,1/2-y,z
loop_
_atom_site_type_symbol
_atom_site_label
_atom_site_fract_x
_atom_site_fract_y
_atom_site_fract_z
Si Si1 0.603898 0.563963 0.405676
Si Si2 0.694994 0.563569 0.158497
Si Si3 0.075428 0.565496 0.882005
Si Si4 0.000113 0.064788 0.320704
Si Si5 0.618381 0.563505 0.961231
Si Si6 0.213248 0.064484 0.506823
Si Si7 0.768491 0.065555 0.721696
O O1 0.500000 0.500000 0.500000
O O2 0.599433 0.750000 0.409090
O O3 0.616704 0.513127 0.281393
O O4 0.707672 0.518655 0.431146
O O5 0.696780 0.750000 0.157509
O O6 0.809637 0.504412 0.145214
O O7 0.663833 0.513743 0.055547
O O8 0.080511 0.750000 0.887720
O O9 0.030925 0.527272 0.785779
O O10 0.000000 0.500000 0.000000
O O11 0.010195 0.250000 0.327873
O O12 0.902735 0.005182 0.427919
O O13 0.111393 0.987165 0.302895
O O14 0.617889 0.750000 0.957305
O O15 0.691768 0.500130 0.840474
O O16 0.500000 0.500000 0.000000
O O17 0.205491 0.250000 0.507245
O O18 0.258095 0.002786 0.380789
O O19 0.761519 0.250000 0.722402
#
# Coordination Sequence:
#
# PCOD9166587 Si02
#       7
#     4   4   4   4   4   4   4
#     4  10  23  41  65  96 128 165 207 259 318 376
#     4  10  22  43  66  92 127 164 207 261 314 370
#     4  11  23  37  61  93 127 167 208 257 311 373
#     4  11  23  41  63  94 130 167 211 261 318 380
#     4  11  25  45  68  95 128 168 215 266 317 376
#     4  11  23  42  67  96 129 168 211 261 318 382
#     4  12  26  43  65  93 129 172 215 264 316 376
#
# _framework density 19.823295999999999
#
# number of rings (size 3 to 8) (size 9 to 14) (size 15 to 20)
#    0.000    1.143    1.429    4.286    2.000    8.000 
#    0.000    0.000    0.000    0.000    0.000    0.000 
#    0.000    0.000    0.000    0.000    0.000    0.000 
#
# Total GULP energy -156648.596902 kJ/mol
# GULP energy per Si atom -5594.592747 kJ/mol
# Density = 1.977818 g / cm^3
# Si number density = 19.823296 Si / 1000 Ang^3
#
#
#
# Elastic Constant Matrix: (Units=GPa)
#
#
# Indices 1 2 3 4 5 6 
#
# 1 49.8904 13.6021 28.4280 0.0000 -3.9717 0.0000
# 2 13.6021 40.0694 30.4790 0.0000 7.6903 0.0000
# 3 28.4280 30.4790 170.5075 0.0000 -2.0987 0.0000
# 4 0.0000 0.0000 0.0000 35.9740 0.0000 -7.5551
# 5 -3.9717 7.6903 -2.0987 0.0000 41.2366 0.0000
# 6 0.0000 0.0000 0.0000 -7.5551 0.0000 33.5346
#
#
#
# Elastic Compliance Matrix: (Units=1/GPa)
#
#
# Indices 1 2 3 4 5 6 
#
# 1 0.023666 -0.006610 -0.002723 0.000000 0.003374 0.000000
# 2 -0.006610 0.032110 -0.004722 0.000000 -0.006865 0.000000
# 3 -0.002723 -0.004722 0.007175 0.000000 0.000984 0.000000
# 4 0.000000 0.000000 0.000000 0.029178 0.000000 0.006574
# 5 0.003374 -0.006865 0.000984 0.000000 0.025906 0.000000
# 6 0.000000 0.000000 0.000000 0.006574 0.000000 0.031301
#
#
# Mechanical properties :
#
#
# Convention : Reuss Voigt Hill
#
# Bulk Modulus (GPa) = 28.70176 45.05396 36.87786
# Shear Modulus (GPa) = 26.44662 34.67960 30.56311
#
# Velocity S-wave (km/s) = 3.65652 4.18716 3.93081
# Velocity P-wave (km/s) = 5.68657 6.79364 6.26461
#
# Compressibility (1/GPa) = 0.03484106
#
# Stress axis : x y z
#
# Youngs Moduli (GPa) = 42.25461 31.14275 139.37278
#
# Poissons Ratio (x) = 0.20586 0.37946
# Poissons Ratio (y) = 0.27931 0.65815
# Poissons Ratio (z) = 0.11504 0.14706
#
# Static dielectric constant tensor:
#      x y z
#    x 1.666820 0.000000 0.024350 
#    y 0.000000 1.667810 0.000000 
#    z 0.024350 0.000000 1.692950 
# 
# From -- ./inp_files/37838.got.cif
#   From: 2010.05.17/outbox.cif.g08.bks.cpg/sg11_19_cif.got.tgz:37838.got - 2010.06.03 12:22:45.
