data_PCOD9166849
_publ_section_title
;
Structure prediction by ZEFSAII (Michael W. Deem and Ramdas Pophale) SiO2 
 PCOD9166849
Probable space group: P 21/M
;
_chemical_formula_sum "Si O2"
_cell_formula_units_Z 32
_cell_length_a 14.136956
_cell_length_b 19.628652
_cell_length_c 8.571011
_cell_angle_alpha 90.000000
_cell_angle_beta 40.818909
_cell_angle_gamma 90.000000
_cell_volume 1554.666535
_symmetry_space_group_name_H-M "P 21/M"
_symmetry_group_IT_number 11
_symmetry_cell_setting 'monoclinic'
loop_
_space_group_symop_operation_xyz
x,y,z
-x,1/2+y,-z
-x,-y,-z
x,1/2-y,z
loop_
_atom_site_type_symbol
_atom_site_label
_atom_site_fract_x
_atom_site_fract_y
_atom_site_fract_z
Si Si1 0.436407 0.082968 0.668947
Si Si2 0.146906 0.329538 0.506253
Si Si3 0.922878 0.427441 0.613068
Si Si4 0.385482 0.555478 0.851601
Si Si5 0.371723 0.674924 0.408852
Si Si6 0.138981 0.565858 0.667721
Si Si7 0.479556 0.327351 0.104367
Si Si8 0.835217 0.578741 0.221596
O O1 0.566011 0.065793 0.387000
O O2 0.481464 0.153895 0.687237
O O3 0.293514 0.085141 0.741964
O O4 0.421994 0.025095 0.821323
O O5 0.108691 0.250000 0.547949
O O6 0.315590 0.337069 0.249087
O O7 0.147197 0.358840 0.681851
O O8 0.036541 0.373641 0.540609
O O9 0.872388 0.414840 0.499622
O O10 0.000000 0.500000 0.500000
O O11 0.782380 0.433017 0.899438
O O12 0.475622 0.610656 0.838753
O O13 0.323320 0.750000 0.512475
O O14 0.250689 0.619700 0.597055
O O15 0.412079 0.672357 0.176271
O O16 0.189593 0.488700 0.640728
O O17 0.982664 0.570757 0.941698
O O18 0.485320 0.250000 0.167894
#
# Coordination Sequence:
#
# PCOD9166849 Si02
#       8
#     4   4   4   4   4   4   4   4
#     4  11  25  41  68 101 132 172 224 279 325 402
#     4  11  26  45  67  98 136 178 222 273 338 406
#     4  12  25  42  69 100 130 173 223 277 337 395
#     4  11  23  43  68  97 128 171 226 272 339 392
#     4  11  26  44  66 100 135 178 224 273 336 400
#     4  11  24  43  70  99 138 173 220 282 328 402
#     4  10  23  45  67  94 134 174 224 281 333 399
#     4  11  24  45  68  99 138 174 224 272 335 398
#
# _framework density 20.583190999999999
#
# number of rings (size 3 to 8) (size 9 to 14) (size 15 to 20)
#    0.000    1.000    3.750    2.250    7.000    3.000 
#    0.000    0.000    0.000    0.000    0.000    0.000 
#    0.000    0.000    0.000    0.000    0.000    0.000 
#
# Total GULP energy -178737.798108 kJ/mol
# GULP energy per Si atom -5585.556191 kJ/mol
# Density = 2.053634 g / cm^3
# Si number density = 20.583191 Si / 1000 Ang^3
#
#
#
# Elastic Constant Matrix: (Units=GPa)
#
#
# Indices 1 2 3 4 5 6 
#
# 1 124.1352 75.9376 35.6737 0.0000 -16.7650 0.0000
# 2 75.9376 142.9534 46.8452 0.0000 -14.3690 0.0000
# 3 35.6737 46.8452 85.7379 0.0000 -20.9851 0.0000
# 4 0.0000 0.0000 0.0000 17.0659 0.0000 -1.8882
# 5 -16.7650 -14.3690 -20.9851 0.0000 25.7644 0.0000
# 6 0.0000 0.0000 0.0000 -1.8882 0.0000 29.3045
#
#
#
# Elastic Compliance Matrix: (Units=1/GPa)
#
#
# Indices 1 2 3 4 5 6 
#
# 1 0.012500 -0.005912 -0.000983 0.000000 0.004036 0.000000
# 2 -0.005912 0.011347 -0.003912 0.000000 -0.000706 0.000000
# 3 -0.000983 -0.003912 0.016886 0.000000 0.010932 0.000000
# 4 0.000000 0.000000 0.000000 0.059017 0.000000 0.003803
# 5 0.004036 -0.000706 0.010932 0.000000 0.049950 0.000000
# 6 0.000000 0.000000 0.000000 0.003803 0.000000 0.034369
#
#
# Mechanical properties :
#
#
# Convention : Reuss Voigt Hill
#
# Bulk Modulus (GPa) = 52.30773 74.41549 63.36161
# Shear Modulus (GPa) = 23.57856 27.38498 25.48177
#
# Velocity S-wave (km/s) = 3.38823 3.65150 3.52232
# Velocity P-wave (km/s) = 6.38552 7.34914 6.88421
#
# Compressibility (1/GPa) = 0.01911763
#
# Stress axis : x y z
#
# Youngs Moduli (GPa) = 80.00001 88.12796 59.22163
#
# Poissons Ratio (x) = 0.52104 0.05820
# Poissons Ratio (y) = 0.47299 0.23170
# Poissons Ratio (z) = 0.07862 0.34480
#
# Static dielectric constant tensor:
#      x y z
#    x 1.784600 0.000000 0.002490 
#    y 0.000000 1.763230 0.000000 
#    z 0.002490 0.000000 1.732640 
# 
# From -- ./inp_files/23058.got.cif
#   From: 2010.05.17/outbox.cif.g08.bks.cpg/sg11_12_cif.got.tgz:23058.got - 2010.06.03 12:22:45.
