data_PCOD9166331
_publ_section_title
;
Structure prediction by ZEFSAII (Michael W. Deem and Ramdas Pophale) SiO2 
 PCOD9166331
Probable space group: P 21/M
;
_chemical_formula_sum "Si O2"
_cell_formula_units_Z 28
_cell_length_a 17.696767
_cell_length_b 12.214860
_cell_length_c 5.865615
_cell_angle_alpha 90.000000
_cell_angle_beta 78.500853
_cell_angle_gamma 90.000000
_cell_volume 1242.481705
_symmetry_space_group_name_H-M "P 21/M"
_symmetry_group_IT_number 11
_symmetry_cell_setting 'monoclinic'
loop_
_space_group_symop_operation_xyz
x,y,z
-x,1/2+y,-z
-x,-y,-z
x,1/2-y,z
loop_
_atom_site_type_symbol
_atom_site_label
_atom_site_fract_x
_atom_site_fract_y
_atom_site_fract_z
Si Si1 0.387573 0.523004 0.951066
Si Si2 0.467936 0.375441 0.278948
Si Si3 0.932614 0.484937 0.724467
Si Si4 0.759858 0.250000 0.301891
Si Si5 0.314451 0.122490 0.653121
Si Si6 0.938546 0.873023 0.110714
Si Si7 0.184961 0.976158 0.562172
Si Si8 0.677036 0.250000 0.851366
O O1 0.449878 0.567777 0.728148
O O2 0.319283 0.455088 0.872609
O O3 0.364887 0.632223 0.101843
O O4 0.430232 0.438300 0.089764
O O5 0.483973 0.250000 0.207996
O O6 0.402002 0.373578 0.509165
O O7 0.000000 0.500000 0.500000
O O8 0.973318 0.403900 0.879726
O O9 0.924179 0.600340 0.855916
O O10 0.853293 0.448548 0.658448
O O11 0.803774 0.364572 0.306612
O O12 0.723023 0.250000 0.070028
O O13 0.710451 0.250000 0.571832
O O14 0.289891 0.250000 0.700424
O O15 0.260442 0.052991 0.514623
O O16 0.923731 0.750000 0.182536
O O17 0.878644 0.949725 0.276077
#
# Coordination Sequence:
#
# PCOD9166331 Si02
#       8
#     4   4   4   2   4   4   4   2
#     4  11  22  41  64  92 135 177 241 292 359 424
#     4  10  22  40  63  95 128 181 234 299 358 427
#     4   9  22  43  64  98 132 177 230 283 350 421
#     4  12  28  46  74 104 148 189 242 299 360 434
#     4  11  23  40  63  95 133 174 231 293 359 428
#     4  10  22  43  70 100 137 179 234 293 356 425
#     4  11  24  43  66 100 136 185 228 291 361 427
#     4  12  26  48  72 104 142 197 242 299 364 432
#
# _framework density 22.535543000000001
#
# number of rings (size 3 to 8) (size 9 to 14) (size 15 to 20)
#    0.000    1.429    2.143    2.143    3.000    4.000 
#   10.286    1.429    0.000    0.000    0.000    0.000 
#    0.000    0.000    0.000    0.000    0.000    0.000 
#
# Total GULP energy -156180.912912 kJ/mol
# GULP energy per Si atom -5577.889747 kJ/mol
# Density = 2.248425 g / cm^3
# Si number density = 22.535543 Si / 1000 Ang^3
#
#
#
# Elastic Constant Matrix: (Units=GPa)
#
#
# Indices 1 2 3 4 5 6 
#
# 1 59.5807 41.2988 3.2548 0.0000 12.0223 0.0000
# 2 41.2988 178.0023 6.7319 0.0000 -0.7195 0.0000
# 3 3.2548 6.7319 46.5520 0.0000 -3.3188 0.0000
# 4 0.0000 0.0000 0.0000 33.3973 0.0000 -5.6082
# 5 12.0223 -0.7195 -3.3188 0.0000 30.4847 0.0000
# 6 0.0000 0.0000 0.0000 -5.6082 0.0000 25.5995
#
#
#
# Elastic Compliance Matrix: (Units=1/GPa)
#
#
# Indices 1 2 3 4 5 6 
#
# 1 0.022258 -0.005146 -0.001458 0.000000 -0.009058 0.000000
# 2 -0.005146 0.006838 -0.000477 0.000000 0.002139 0.000000
# 3 -0.001458 -0.000477 0.021862 0.000000 0.002944 0.000000
# 4 0.000000 0.000000 0.000000 0.031086 0.000000 0.006810
# 5 -0.009058 0.002139 0.002944 0.000000 0.036747 0.000000
# 6 0.000000 0.000000 0.000000 0.006810 0.000000 0.040555
#
#
# Mechanical properties :
#
#
# Convention : Reuss Voigt Hill
#
# Bulk Modulus (GPa) = 27.17521 42.96734 35.07127
# Shear Modulus (GPa) = 26.91458 33.41960 30.16709
#
# Velocity S-wave (km/s) = 3.45964 3.85512 3.66272
# Velocity P-wave (km/s) = 5.29564 6.23889 5.78652
#
# Compressibility (1/GPa) = 0.03679825
#
# Stress axis : x y z
#
# Youngs Moduli (GPa) = 44.92746 146.23238 45.74133
#
# Poissons Ratio (x) = 0.75246 0.06668
# Poissons Ratio (y) = 0.23118 0.02180
# Poissons Ratio (z) = 0.06550 0.06970
#
# Static dielectric constant tensor:
#      x y z
#    x 1.876060 0.000000 0.000030 
#    y 0.000000 1.844190 0.000000 
#    z 0.000030 0.000000 1.920620 
# 
# From -- ./inp_files/8791.got.cif
#   From: 2010.05.17/outbox.cif.g08.bks.cpg/sg11_5_cif.got.tgz:8791.got - 2010.06.03 12:22:45.
