data_PCOD9166110
_publ_section_title
;
Structure prediction by ZEFSAII (Michael W. Deem and Ramdas Pophale) SiO2 
 PCOD9166110
Probable space group: P 21/M
;
_chemical_formula_sum "Si O2"
_cell_formula_units_Z 24
_cell_length_a 17.628820
_cell_length_b 8.613620
_cell_length_c 12.956013
_cell_angle_alpha 90.000000
_cell_angle_beta 33.004716
_cell_angle_gamma 90.000000
_cell_volume 1071.628195
_symmetry_space_group_name_H-M "P 21/M"
_symmetry_group_IT_number 11
_symmetry_cell_setting 'monoclinic'
loop_
_space_group_symop_operation_xyz
x,y,z
-x,1/2+y,-z
-x,-y,-z
x,1/2-y,z
loop_
_atom_site_type_symbol
_atom_site_label
_atom_site_fract_x
_atom_site_fract_y
_atom_site_fract_z
Si Si1 0.772733 0.066868 0.934483
Si Si2 0.149104 0.069381 0.360337
Si Si3 0.986064 0.063522 0.859182
Si Si4 0.780276 0.063836 0.275871
Si Si5 0.501892 0.437165 0.684443
Si Si6 0.609932 0.434512 0.791478
O O1 0.769881 0.250000 0.912405
O O2 0.916901 0.030928 0.828280
O O3 0.643999 0.025031 0.155069
O O4 0.761502 0.964783 0.845067
O O5 0.133310 0.250000 0.397999
O O6 0.237457 0.995688 0.351719
O O7 0.000000 0.000000 0.500000
O O8 0.000771 0.250000 0.851054
O O9 0.871111 0.009456 0.075018
O O10 0.129651 0.985580 0.727278
O O11 0.776140 0.250000 0.276521
O O12 0.621690 0.010686 0.468405
O O13 0.481831 0.250000 0.699980
O O14 0.563089 0.473133 0.728898
O O15 0.610471 0.250000 0.800209
O O16 0.500000 0.500000 0.000000
#
# Coordination Sequence:
#
# PCOD9166110 Si02
#       6
#     4   4   4   4   4   4
#     4  11  23  39  59  87 120 155 195 244 295 349
#     4  12  26  43  62  87 119 157 199 245 295 352
#     4   9  20  38  59  86 119 151 191 243 295 347
#     4   9  19  38  61  86 116 152 194 240 292 353
#     4  10  22  38  59  87 117 155 198 238 289 351
#     4  11  22  39  61  88 121 158 196 240 290 349
#
# _framework density 22.395826
#
# number of rings (size 3 to 8) (size 9 to 14) (size 15 to 20)
#    0.000    1.667    1.667    2.500    2.333    3.333 
#    0.000    0.000    0.000    0.000    0.000    0.000 
#    0.000    0.000    0.000    0.000    0.000    0.000 
#
# Total GULP energy -134216.994843 kJ/mol
# GULP energy per Si atom -5592.374785 kJ/mol
# Density = 2.234485 g / cm^3
# Si number density = 22.395826 Si / 1000 Ang^3
#
#
#
# Elastic Constant Matrix: (Units=GPa)
#
#
# Indices 1 2 3 4 5 6 
#
# 1 51.5303 5.1130 -8.8432 0.0000 -15.9461 0.0000
# 2 5.1130 16.7084 -3.4720 0.0000 -2.8090 0.0000
# 3 -8.8432 -3.4720 87.3206 0.0000 -15.1102 0.0000
# 4 0.0000 0.0000 0.0000 32.5882 0.0000 -9.4414
# 5 -15.9461 -2.8090 -15.1102 0.0000 35.1378 0.0000
# 6 0.0000 0.0000 0.0000 -9.4414 0.0000 23.7198
#
#
#
# Elastic Compliance Matrix: (Units=1/GPa)
#
#
# Indices 1 2 3 4 5 6 
#
# 1 0.024561 -0.004437 0.004514 0.000000 0.012733 0.000000
# 2 -0.004437 0.062481 0.002756 0.000000 0.004166 0.000000
# 3 0.004514 0.002756 0.013409 0.000000 0.008035 0.000000
# 4 0.000000 0.000000 0.000000 0.034686 0.000000 0.013806
# 5 0.012733 0.004166 0.008035 0.000000 0.038026 0.000000
# 6 0.000000 0.000000 0.000000 0.013806 0.000000 0.047654
#
#
# Mechanical properties :
#
#
# Convention : Reuss Voigt Hill
#
# Bulk Modulus (GPa) = 9.42355 15.68388 12.55371
# Shear Modulus (GPa) = 19.95808 29.13990 24.54899
#
# Velocity S-wave (km/s) = 2.98846 3.61103 3.31439
# Velocity P-wave (km/s) = 4.01555 4.94007 4.50161
#
# Compressibility (1/GPa) = 0.10611716
#
# Stress axis : x y z
#
# Youngs Moduli (GPa) = 40.71450 16.00486 74.57527
#
# Poissons Ratio (x) = 0.07102 -0.33666
# Poissons Ratio (y) = 0.18067 -0.20552
# Poissons Ratio (z) = -0.18380 -0.04411
#
# Static dielectric constant tensor:
#      x y z
#    x 1.846900 0.000000 0.040190 
#    y 0.000000 1.733950 0.000000 
#    z 0.040190 0.000000 1.899050 
# 
# From -- ./inp_files/20303.got.cif
#   From: 2010.05.17/outbox.cif.g08.bks.cpg/sg11_11_cif.got.tgz:20303.got - 2010.06.03 12:22:45.
