data_PCOD9166636
_publ_section_title
;
Structure prediction by ZEFSAII (Michael W. Deem and Ramdas Pophale) SiO2 
 PCOD9166636
Probable space group: P 21/M
;
_chemical_formula_sum "Si O2"
_cell_formula_units_Z 32
_cell_length_a 7.044469
_cell_length_b 23.011943
_cell_length_c 8.785802
_cell_angle_alpha 90.000000
_cell_angle_beta 51.576263
_cell_angle_gamma 90.000000
_cell_volume 1115.800415
_symmetry_space_group_name_H-M "P 21/M"
_symmetry_group_IT_number 11
_symmetry_cell_setting 'monoclinic'
loop_
_space_group_symop_operation_xyz
x,y,z
-x,1/2+y,-z
-x,-y,-z
x,1/2-y,z
loop_
_atom_site_type_symbol
_atom_site_label
_atom_site_fract_x
_atom_site_fract_y
_atom_site_fract_z
Si Si1 0.672349 0.030428 0.762884
Si Si2 0.824217 0.185258 0.825394
Si Si3 0.522264 0.099994 0.198428
Si Si4 0.934870 0.544358 0.164614
Si Si5 0.770528 0.875940 0.993989
Si Si6 0.082503 0.179346 0.392163
Si Si7 0.369405 0.189759 0.686447
Si Si8 0.597187 0.069841 0.486624
O O1 0.438161 0.073287 0.905365
O O2 0.756005 0.046908 0.549355
O O3 0.589142 0.962876 0.798341
O O4 0.874794 0.039688 0.792038
O O5 0.721830 0.250000 0.896558
O O6 0.666445 0.139745 0.002991
O O7 0.871314 0.170981 0.623449
O O8 0.102994 0.190213 0.744286
O O9 0.311839 0.144939 0.350776
O O10 0.661817 0.078492 0.279319
O O11 0.913798 0.601359 0.070488
O O12 0.666757 0.537647 0.368165
O O13 0.000000 0.500000 0.000000
O O14 0.661175 0.816986 0.116428
O O15 0.913303 0.856592 0.771675
O O16 0.110908 0.250000 0.360115
O O17 0.493376 0.250000 0.582784
O O18 0.526551 0.135815 0.560582
#
# Coordination Sequence:
#
# PCOD9166636 Si02
#       8
#     4   4   4   4   4   4   4   4
#     4  10  24  46  77 119 170 217 279 334 399 508
#     4  10  23  44  78 118 159 210 272 346 419 492
#     4  12  24  46  77 116 168 217 274 339 410 492
#     4  10  22  44  76 111 159 215 267 328 403 479
#     4  10  24  44  76 116 159 214 265 340 414 493
#     4  11  24  46  79 119 155 207 277 341 422 498
#     4   9  18  40  73 107 148 204 269 337 408 486
#     4  10  24  43  73 120 163 219 274 337 409 486
#
# _framework density 28.678965000000002
#
# number of rings (size 3 to 8) (size 9 to 14) (size 15 to 20)
#    0.000    2.000    1.250    1.875    0.000   11.500 
#    0.000    1.875    8.250   16.500    0.000    0.000 
#    0.000    0.000    0.000    0.000    0.000    0.000 
#
# Total GULP energy -178816.127103 kJ/mol
# GULP energy per Si atom -5588.003972 kJ/mol
# Density = 2.861369 g / cm^3
# Si number density = 28.678965 Si / 1000 Ang^3
#
#
#
# Elastic Constant Matrix: (Units=GPa)
#
#
# Indices 1 2 3 4 5 6 
#
# 1 169.3147 77.3781 98.3754 0.0000 25.0169 0.0000
# 2 77.3781 225.4947 103.0051 0.0000 7.5690 0.0000
# 3 98.3754 103.0051 231.5259 0.0000 20.7026 0.0000
# 4 0.0000 0.0000 0.0000 35.7968 0.0000 -5.3207
# 5 25.0169 7.5690 20.7026 0.0000 72.4247 0.0000
# 6 0.0000 0.0000 0.0000 -5.3207 0.0000 35.4447
#
#
#
# Elastic Compliance Matrix: (Units=1/GPa)
#
#
# Indices 1 2 3 4 5 6 
#
# 1 0.008521 -0.001612 -0.002725 0.000000 -0.001996 0.000000
# 2 -0.001612 0.005872 -0.001973 0.000000 0.000507 0.000000
# 3 -0.002725 -0.001973 0.006416 0.000000 -0.000687 0.000000
# 4 0.000000 0.000000 0.000000 0.028573 0.000000 0.004289
# 5 -0.001996 0.000507 -0.000687 0.000000 0.014640 0.000000
# 6 0.000000 0.000000 0.000000 0.004289 0.000000 0.028857
#
#
# Mechanical properties :
#
#
# Convention : Reuss Voigt Hill
#
# Bulk Modulus (GPa) = 122.10875 131.53917 126.82396
# Shear Modulus (GPa) = 46.19845 51.90502 49.05174
#
# Velocity S-wave (km/s) = 4.01793 4.25886 4.14015
# Velocity P-wave (km/s) = 8.01220 8.37553 8.19588
#
# Compressibility (1/GPa) = 0.00818942
#
# Stress axis : x y z
#
# Youngs Moduli (GPa) = 117.35583 170.29760 155.85990
#
# Poissons Ratio (x) = 0.27457 0.42469
# Poissons Ratio (y) = 0.18921 0.30747
# Poissons Ratio (z) = 0.31977 0.33595
#
# Static dielectric constant tensor:
#      x y z
#    x 2.398260 0.000000 0.004840 
#    y 0.000000 2.341410 0.000000 
#    z 0.004840 0.000000 2.276450 
# 
# From -- ./inp_files/19159.got.cif
#   From: 2010.05.17/outbox.cif.g08.bks.cpg/sg11_10_cif.got.tgz:19159.got - 2010.06.03 12:22:45.
