data_PCOD9166556
_publ_section_title
;
Structure prediction by ZEFSAII (Michael W. Deem and Ramdas Pophale) SiO2 
 PCOD9166556
Probable space group: P 21/M
;
_chemical_formula_sum "Si O2"
_cell_formula_units_Z 28
_cell_length_a 8.104311
_cell_length_b 8.132838
_cell_length_c 26.404826
_cell_angle_alpha 90.000000
_cell_angle_beta 42.663740
_cell_angle_gamma 90.000000
_cell_volume 1179.438912
_symmetry_space_group_name_H-M "P 21/M"
_symmetry_group_IT_number 11
_symmetry_cell_setting 'monoclinic'
loop_
_space_group_symop_operation_xyz
x,y,z
-x,1/2+y,-z
-x,-y,-z
x,1/2-y,z
loop_
_atom_site_type_symbol
_atom_site_label
_atom_site_fract_x
_atom_site_fract_y
_atom_site_fract_z
Si Si1 0.379796 0.502886 0.670019
Si Si2 0.858275 0.059998 0.733734
Si Si3 0.412138 0.553417 0.107053
Si Si4 0.819562 0.561165 0.628159
Si Si5 0.893103 0.941031 0.177856
Si Si6 0.328115 0.431496 0.494981
Si Si7 0.072455 0.446544 0.039190
O O1 0.130330 0.438937 0.698056
O O2 0.628292 0.442347 0.642830
O O3 0.251895 0.557689 0.751419
O O4 0.513037 0.578078 0.591451
O O5 0.795806 0.250000 0.738445
O O6 0.672269 0.990595 0.818364
O O7 0.845034 0.971442 0.682632
O O8 0.449353 0.750000 0.105412
O O9 0.648018 0.490406 0.024625
O O10 0.175213 0.532038 0.126539
O O11 0.739948 0.750000 0.637559
O O12 0.087702 0.539360 0.544478
O O13 0.830874 0.750000 0.204144
O O14 0.883504 0.974750 0.121064
O O15 0.500000 0.500000 0.500000
O O16 0.243661 0.250000 0.529155
O O17 0.066445 0.250000 0.048200
O O18 0.000000 0.500000 0.000000
#
# Coordination Sequence:
#
# PCOD9166556 Si02
#       7
#     4   4   4   4   4   4   4
#     4  11  25  44  70 102 139 178 231 286 344 413
#     4  10  22  43  71 101 134 181 235 287 344 410
#     4   8  18  39  65  92 125 170 222 271 330 398
#     4  12  27  44  69 103 141 181 229 284 349 419
#     4  10  22  42  69  97 126 172 225 276 337 408
#     4  12  26  46  73 101 139 185 232 287 347 411
#     4  11  23  39  61  94 136 176 220 278 334 399
#
# _framework density 23.740102
#
# number of rings (size 3 to 8) (size 9 to 14) (size 15 to 20)
#    0.000    1.429    1.429    3.857    2.000    5.714 
#    0.000    3.571    0.000    0.000    0.000    0.000 
#    0.000    0.000    0.000    0.000    0.000    0.000 
#
# Total GULP energy -155918.292184 kJ/mol
# GULP energy per Si atom -5568.510435 kJ/mol
# Density = 2.368607 g / cm^3
# Si number density = 23.740102 Si / 1000 Ang^3
#
#
#
# Elastic Constant Matrix: (Units=GPa)
#
#
# Indices 1 2 3 4 5 6 
#
# 1 111.0357 15.0410 43.7538 0.0000 10.2274 0.0000
# 2 15.0410 57.9665 22.0819 0.0000 1.8288 0.0000
# 3 43.7538 22.0819 158.8162 0.0000 25.1047 0.0000
# 4 0.0000 0.0000 0.0000 -31.4251 0.0000 -34.4109
# 5 10.2274 1.8288 25.1047 0.0000 53.8147 0.0000
# 6 0.0000 0.0000 0.0000 -34.4109 0.0000 -18.5940
#
#
#
# Elastic Compliance Matrix: (Units=1/GPa)
#
#
# Indices 1 2 3 4 5 6 
#
# 1 0.010281 -0.001700 -0.002479 0.000000 -0.000740 0.000000
# 2 -0.001700 0.018516 -0.002222 0.000000 0.000730 0.000000
# 3 -0.002479 -0.002222 0.007775 0.000000 -0.003081 0.000000
# 4 0.000000 0.000000 0.000000 0.031001 0.000000 -0.057371
# 5 -0.000740 0.000730 -0.003081 0.000000 0.020135 0.000000
# 6 0.000000 0.000000 0.000000 -0.057371 0.000000 0.052393
#
#
# Mechanical properties :
#
#
# Convention : Reuss Voigt Hill
#
# Bulk Modulus (GPa) = 42.06796 54.39687 48.23242
# Shear Modulus (GPa) = 31.08934 17.22191 24.15563
#
# Velocity S-wave (km/s) = 3.62273 2.69631 3.19329
# Velocity P-wave (km/s) = 5.93781 5.71460 5.82727
#
# Compressibility (1/GPa) = 0.02377106
#
# Stress axis : x y z
#
# Youngs Moduli (GPa) = 97.26228 54.00827 128.60977
#
# Poissons Ratio (x) = 0.09182 0.31886
# Poissons Ratio (y) = 0.16535 0.28571
# Poissons Ratio (z) = 0.24114 0.11998
#
# Static dielectric constant tensor:
#      x y z
#    x 1.930280 0.000000 -0.013020 
#    y 0.000000 1.927220 0.000000 
#    z -0.013020 0.000000 1.922640 
# 
# From -- ./inp_files/70812.got.cif
#   From: 2010.05.17/outbox.cif.g08.bks.cpg/sg11_36_cif.got.tgz:70812.got - 2010.06.03 12:22:45.
