data_PCOD9166578
_publ_section_title
;
Structure prediction by ZEFSAII (Michael W. Deem and Ramdas Pophale) SiO2 
 PCOD9166578
Probable space group: P 21/M
;
_chemical_formula_sum "Si O2"
_cell_formula_units_Z 28
_cell_length_a 6.026759
_cell_length_b 19.615387
_cell_length_c 11.406179
_cell_angle_alpha 90.000000
_cell_angle_beta 70.065681
_cell_angle_gamma 90.000000
_cell_volume 1267.615631
_symmetry_space_group_name_H-M "P 21/M"
_symmetry_group_IT_number 11
_symmetry_cell_setting 'monoclinic'
loop_
_space_group_symop_operation_xyz
x,y,z
-x,1/2+y,-z
-x,-y,-z
x,1/2-y,z
loop_
_atom_site_type_symbol
_atom_site_label
_atom_site_fract_x
_atom_site_fract_y
_atom_site_fract_z
Si Si1 0.529914 0.360101 0.920651
Si Si2 0.506312 0.387569 0.436570
Si Si3 0.175808 0.978442 0.132182
Si Si4 0.145252 0.498467 0.591547
Si Si5 0.054093 0.112720 0.029503
Si Si6 0.820758 0.250000 0.733167
Si Si7 0.588582 0.750000 0.403377
Si Si8 0.583376 0.328238 0.183949
O O1 0.582769 0.439541 0.881782
O O2 0.732925 0.315524 0.823823
O O3 0.520623 0.342422 0.060342
O O4 0.262577 0.345666 0.929405
O O5 0.340996 0.441921 0.530293
O O6 0.756051 0.426069 0.401109
O O7 0.472819 0.317034 0.509816
O O8 0.466000 0.375005 0.304897
O O9 0.006534 0.974045 0.272428
O O10 0.080672 0.932289 0.042697
O O11 0.170959 0.056274 0.093132
O O12 0.000000 0.500000 0.500000
O O13 0.864857 0.157288 0.132597
O O14 0.620973 0.250000 0.661557
O O15 0.113604 0.250000 0.666817
O O16 0.532684 0.250000 0.220676
#
# Coordination Sequence:
#
# PCOD9166578 Si02
#       8
#     4   4   4   4   4   2   2   4
#     4  11  25  40  71 103 137 191 227 310 355 442
#     4  11  26  47  71 101 144 195 245 311 364 448
#     4  10  22  43  65 100 138 176 242 292 368 426
#     4  11  26  44  71 101 141 192 249 305 370 441
#     4  10  23  41  68  96 139 181 230 301 363 431
#     4  12  30  49  77 108 152 190 256 295 376 439
#     4  12  30  53  77 110 148 204 248 305 370 449
#     4  11  23  44  65 101 140 178 242 292 371 431
#
# _framework density 22.088714
#
# number of rings (size 3 to 8) (size 9 to 14) (size 15 to 20)
#    0.000    1.143    2.857    1.286   13.000    1.143 
#    0.000    0.000    0.000    0.000    0.000    0.000 
#    0.000    0.000    0.000    0.000    0.000    0.000 
#
# Total GULP energy -156128.767411 kJ/mol
# GULP energy per Si atom -5576.027408 kJ/mol
# Density = 2.203844 g / cm^3
# Si number density = 22.088714 Si / 1000 Ang^3
#
#
#
# Elastic Constant Matrix: (Units=GPa)
#
#
# Indices 1 2 3 4 5 6 
#
# 1 47.8878 5.0522 13.4461 0.0000 -8.0288 0.0000
# 2 5.0522 80.8938 13.4498 0.0000 5.5499 0.0000
# 3 13.4461 13.4498 100.4231 0.0000 -9.2439 0.0000
# 4 0.0000 0.0000 0.0000 34.9287 0.0000 -6.3592
# 5 -8.0288 5.5499 -9.2439 0.0000 30.5015 0.0000
# 6 0.0000 0.0000 0.0000 -6.3592 0.0000 16.9823
#
#
#
# Elastic Compliance Matrix: (Units=1/GPa)
#
#
# Indices 1 2 3 4 5 6 
#
# 1 0.022607 -0.001401 -0.002333 0.000000 0.005499 0.000000
# 2 -0.001401 0.012984 -0.001854 0.000000 -0.003293 0.000000
# 3 -0.002333 -0.001854 0.010794 0.000000 0.002995 0.000000
# 4 0.000000 0.000000 0.000000 0.030724 0.000000 0.011505
# 5 0.005499 -0.003293 0.002995 0.000000 0.035739 0.000000
# 6 0.000000 0.000000 0.000000 0.011505 0.000000 0.063193
#
#
# Mechanical properties :
#
#
# Convention : Reuss Voigt Hill
#
# Bulk Modulus (GPa) = 28.40323 32.56677 30.48500
# Shear Modulus (GPa) = 25.13133 29.63296 27.38214
#
# Velocity S-wave (km/s) = 3.37671 3.66668 3.52468
# Velocity P-wave (km/s) = 5.29995 5.71854 5.51322
#
# Compressibility (1/GPa) = 0.03520726
#
# Stress axis : x y z
#
# Youngs Moduli (GPa) = 44.23418 77.01978 92.64166
#
# Poissons Ratio (x) = 0.10792 0.21614
# Poissons Ratio (y) = 0.06198 0.17180
# Poissons Ratio (z) = 0.10320 0.14283
#
# Static dielectric constant tensor:
#      x y z
#    x 1.942460 0.000000 -0.016670 
#    y 0.000000 1.822540 0.000000 
#    z -0.016670 0.000000 1.786840 
# 
# From -- ./inp_files/29986.got.cif
#   From: 2010.05.17/outbox.cif.g08.bks.cpg/sg11_15_cif.got.tgz:29986.got - 2010.06.03 12:22:45.
