data_PCOD9166448
_publ_section_title
;
Structure prediction by ZEFSAII (Michael W. Deem and Ramdas Pophale) SiO2 
 PCOD9166448
Probable space group: P 21/M
;
_chemical_formula_sum "Si O2"
_cell_formula_units_Z 24
_cell_length_a 14.077809
_cell_length_b 13.822978
_cell_length_c 12.033736
_cell_angle_alpha 90.000000
_cell_angle_beta 150.041294
_cell_angle_gamma 90.000000
_cell_volume 1169.404015
_symmetry_space_group_name_H-M "P 21/M"
_symmetry_group_IT_number 11
_symmetry_cell_setting 'monoclinic'
loop_
_space_group_symop_operation_xyz
x,y,z
-x,1/2+y,-z
-x,-y,-z
x,1/2-y,z
loop_
_atom_site_type_symbol
_atom_site_label
_atom_site_fract_x
_atom_site_fract_y
_atom_site_fract_z
Si Si1 0.023958 0.950944 0.230869
Si Si2 0.790289 0.355133 0.979741
Si Si3 0.364665 0.357390 0.124246
Si Si4 0.543709 0.058248 0.907792
Si Si5 0.359708 0.917495 0.405420
Si Si6 0.811139 0.470908 0.373824
O O1 0.125199 0.919968 0.448290
O O2 0.175533 0.953735 0.286281
O O3 0.934838 0.058051 0.152484
O O4 0.841735 0.882020 0.032448
O O5 0.871559 0.250000 0.085292
O O6 0.607037 0.375364 0.871067
O O7 0.720652 0.362656 0.782707
O O8 0.364889 0.250000 0.074044
O O9 0.410785 0.447262 0.088084
O O10 0.516332 0.361694 0.377611
O O11 0.324944 0.057909 0.721492
O O12 0.676214 0.081094 0.147581
O O13 0.500000 0.000000 0.500000
O O14 0.000000 0.500000 0.500000
#
# Coordination Sequence:
#
# PCOD9166448 Si02
#       6
#     4   4   4   4   4   4
#     4  11  23  42  65  93 127 165 211 259 315 371
#     4  11  23  41  65  95 129 165 208 259 319 379
#     4  11  23  39  62  92 124 163 209 255 311 371
#     4  10  22  41  65  89 125 164 207 255 315 367
#     4  12  22  43  65  89 126 170 208 258 315 370
#     4  11  19  40  70  86 122 173 203 255 316 369
#
# _framework density 20.523275999999999
#
# number of rings (size 3 to 8) (size 9 to 14) (size 15 to 20)
#    0.000    1.000    8.333    1.000    0.000    1.333 
#    0.000   10.000    0.000    0.000    0.000    0.000 
#    0.000    0.000    0.000    0.000    0.000    0.000 
#
# Total GULP energy -133903.677895 kJ/mol
# GULP energy per Si atom -5579.319912 kJ/mol
# Density = 2.047656 g / cm^3
# Si number density = 20.523276 Si / 1000 Ang^3
#
#
#
# Elastic Constant Matrix: (Units=GPa)
#
#
# Indices 1 2 3 4 5 6 
#
# 1 146.9658 7.5300 30.9697 0.0000 13.5627 0.0000
# 2 7.5300 92.2630 5.1018 0.0000 -2.1324 0.0000
# 3 30.9697 5.1018 94.5823 0.0000 5.0107 0.0000
# 4 0.0000 0.0000 0.0000 5.0517 0.0000 -1.7930
# 5 13.5627 -2.1324 5.0107 0.0000 47.1987 0.0000
# 6 0.0000 0.0000 0.0000 -1.7930 0.0000 -1.3468
#
#
#
# Elastic Compliance Matrix: (Units=1/GPa)
#
#
# Indices 1 2 3 4 5 6 
#
# 1 0.007500 -0.000528 -0.002325 0.000000 -0.001932 0.000000
# 2 -0.000528 0.010923 -0.000453 0.000000 0.000693 0.000000
# 3 -0.002325 -0.000453 0.011388 0.000000 -0.000561 0.000000
# 4 0.000000 0.000000 0.000000 0.134433 0.000000 -0.178971
# 5 -0.001932 0.000693 -0.000561 0.000000 0.021833 0.000000
# 6 0.000000 0.000000 0.000000 -0.178971 0.000000 -0.504244
#
#
# Mechanical properties :
#
#
# Convention : Reuss Voigt Hill
#
# Bulk Modulus (GPa) = 43.10590 46.77933 44.94262
# Shear Modulus (GPa) = -16.45694 29.52801 6.53554
#
# Velocity S-wave (km/s) = -2.83480 3.79721 1.78644
# Velocity P-wave (km/s) = 3.21469 6.48597 5.11870
#
# Compressibility (1/GPa) = 0.02319868
#
# Stress axis : x y z
#
# Youngs Moduli (GPa) = 133.34106 91.55197 87.81016
#
# Poissons Ratio (x) = 0.04836 0.20414
# Poissons Ratio (y) = 0.07043 0.03977
# Poissons Ratio (z) = 0.30999 0.04147
#
# Static dielectric constant tensor:
#      x y z
#    x 1.750610 0.000000 0.002290 
#    y 0.000000 1.703440 0.000000 
#    z 0.002290 0.000000 1.740730 
# 
# From -- ./inp_files/39738.got.cif
#   From: 2010.05.17/outbox.cif.g08.bks.cpg/sg11_20_cif.got.tgz:39738.got - 2010.06.03 12:22:45.
