data_PCOD9166020
_publ_section_title
;
Structure prediction by ZEFSAII (Michael W. Deem and Ramdas Pophale) SiO2 
 PCOD9166020
Probable space group: P 21/M
;
_chemical_formula_sum "Si O2"
_cell_formula_units_Z 26
_cell_length_a 15.893928
_cell_length_b 15.494434
_cell_length_c 9.112965
_cell_angle_alpha 90.000000
_cell_angle_beta 30.500052
_cell_angle_gamma 90.000000
_cell_volume 1139.032730
_symmetry_space_group_name_H-M "P 21/M"
_symmetry_group_IT_number 11
_symmetry_cell_setting 'monoclinic'
loop_
_space_group_symop_operation_xyz
x,y,z
-x,1/2+y,-z
-x,-y,-z
x,1/2-y,z
loop_
_atom_site_type_symbol
_atom_site_label
_atom_site_fract_x
_atom_site_fract_y
_atom_site_fract_z
Si Si1 0.394783 0.650259 0.911405
Si Si2 0.583617 0.387676 0.784493
Si Si3 0.764221 0.648689 0.820508
Si Si4 0.307744 0.497743 0.839236
Si Si5 0.025485 0.154093 0.753076
Si Si6 0.730350 0.554139 0.413842
Si Si7 0.741619 0.250000 0.322708
O O1 0.362564 0.750000 0.920534
O O2 0.297006 0.579986 0.962086
O O3 0.590105 0.627359 0.595972
O O4 0.360571 0.634839 0.135279
O O5 0.636625 0.482680 0.653346
O O6 0.661995 0.324103 0.547962
O O7 0.387150 0.372487 0.062566
O O8 0.759177 0.750000 0.869734
O O9 0.930058 0.628824 0.479505
O O10 0.734752 0.586405 0.001244
O O11 0.500000 0.500000 0.500000
O O12 0.215912 0.486090 0.822736
O O13 0.108976 0.250000 0.642595
O O14 0.115860 0.092679 0.731080
O O15 0.840032 0.176016 0.077688
#
# Coordination Sequence:
#
# PCOD9166020 Si02
#       7
#     4   4   4   4   4   4   2
#     4  11  20  34  58  91 123 154 187 250 304 352
#     4  12  20  36  64  90 118 145 202 259 298 338
#     4  11  19  36  64  92 118 155 194 255 302 348
#     4  10  22  35  52  99 125 148 197 241 304 361
#     4   9  21  39  60  87 117 150 206 244 294 359
#     4  11  21  37  59  90 124 153 195 248 300 359
#     4  10  24  38  58  94 114 152 206 252 298 346
#
# _framework density 22.826384000000001
#
# number of rings (size 3 to 8) (size 9 to 14) (size 15 to 20)
#    0.462    0.923    6.154    1.846    0.000    3.692 
#    1.385    0.000    0.000    5.538    0.000    0.000 
#    0.000    0.000    0.000    0.000    0.000    0.000 
#
# Total GULP energy -144804.098816 kJ/mol
# GULP energy per Si atom -5569.388416 kJ/mol
# Density = 2.277443 g / cm^3
# Si number density = 22.826384 Si / 1000 Ang^3
#
#
#
# Elastic Constant Matrix: (Units=GPa)
#
#
# Indices 1 2 3 4 5 6 
#
# 1 58.8975 43.1451 38.6644 0.0000 9.5724 0.0000
# 2 43.1451 137.0077 34.2061 0.0000 18.1315 0.0000
# 3 38.6644 34.2061 131.2311 0.0000 16.6542 0.0000
# 4 0.0000 0.0000 0.0000 45.1194 0.0000 11.7765
# 5 9.5724 18.1315 16.6542 0.0000 13.1589 0.0000
# 6 0.0000 0.0000 0.0000 11.7765 0.0000 19.9256
#
#
#
# Elastic Compliance Matrix: (Units=1/GPa)
#
#
# Indices 1 2 3 4 5 6 
#
# 1 0.025745 -0.006326 -0.005559 0.000000 -0.002977 0.000000
# 2 -0.006326 0.010574 0.000444 0.000000 -0.010529 0.000000
# 3 -0.005559 0.000444 0.010373 0.000000 -0.009696 0.000000
# 4 0.000000 0.000000 0.000000 0.026206 0.000000 -0.015488
# 5 -0.002977 -0.010529 -0.009696 0.000000 0.104940 0.000000
# 6 0.000000 0.000000 0.000000 -0.015488 0.000000 0.059340
#
#
# Mechanical properties :
#
#
# Convention : Reuss Voigt Hill
#
# Bulk Modulus (GPa) = 41.99778 62.12972 52.06375
# Shear Modulus (GPa) = 18.65701 29.71550 24.18625
#
# Velocity S-wave (km/s) = 2.86202 3.61197 3.25864
# Velocity P-wave (km/s) = 5.41852 6.68375 6.08411
#
# Compressibility (1/GPa) = 0.02381078
#
# Stress axis : x y z
#
# Youngs Moduli (GPa) = 38.84176 94.57603 96.40723
#
# Poissons Ratio (x) = 0.59826 0.53590
# Poissons Ratio (y) = 0.24570 -0.04280
# Poissons Ratio (z) = 0.21591 -0.04199
#
# Static dielectric constant tensor:
#      x y z
#    x 1.876520 0.000000 -0.010220 
#    y 0.000000 1.898140 0.000000 
#    z -0.010220 0.000000 1.863490 
# 
# From -- ./inp_files/26769.got.cif
#   From: 2010.05.17/outbox.cif.g08.bks.cpg/sg11_14_cif.got.tgz:26769.got - 2010.06.03 12:22:45.
