data_PCOD9166308
_publ_section_title
;
Structure prediction by ZEFSAII (Michael W. Deem and Ramdas Pophale) SiO2 
 PCOD9166308
Probable space group: P 21/M
;
_chemical_formula_sum "Si O2"
_cell_formula_units_Z 20
_cell_length_a 5.258978
_cell_length_b 10.185690
_cell_length_c 20.925742
_cell_angle_alpha 90.000000
_cell_angle_beta 60.283746
_cell_angle_gamma 90.000000
_cell_volume 973.504491
_symmetry_space_group_name_H-M "P 21/M"
_symmetry_group_IT_number 11
_symmetry_cell_setting 'monoclinic'
loop_
_space_group_symop_operation_xyz
x,y,z
-x,1/2+y,-z
-x,-y,-z
x,1/2-y,z
loop_
_atom_site_type_symbol
_atom_site_label
_atom_site_fract_x
_atom_site_fract_y
_atom_site_fract_z
Si Si1 0.339999 0.098927 0.567260
Si Si2 0.644197 0.098314 0.665469
Si Si3 0.642180 0.601476 0.779366
Si Si4 0.848943 0.390326 0.839673
Si Si5 0.789942 0.526806 0.084951
O O1 0.408214 0.250000 0.541285
O O2 0.459640 0.079016 0.624125
O O3 0.990117 0.083040 0.608237
O O4 0.500000 0.000000 0.500000
O O5 0.599897 0.250000 0.693146
O O6 0.571819 0.990986 0.728009
O O7 0.726325 0.750000 0.753810
O O8 0.880446 0.515299 0.789187
O O9 0.360179 0.598161 0.861519
O O10 0.914009 0.250000 0.799798
O O11 0.032117 0.403360 0.880960
O O12 0.502279 0.395571 0.898833
O O13 0.000000 0.500000 0.000000
#
# Coordination Sequence:
#
# PCOD9166308 Si02
#       5
#     4   4   4   4   4
#     4  10  22  40  64  93 124 158 202 249 300 362
#     4  10  22  40  62  90 124 165 207 247 298 368
#     4  10  25  41  61  93 129 163 208 263 317 367
#     4  10  22  40  64  87 115 159 210 254 310 377
#     4  10  23  42  61  91 123 161 209 263 317 369
#
# _framework density 20.544332000000001
#
# number of rings (size 3 to 8) (size 9 to 14) (size 15 to 20)
#    1.200    0.800    0.000    2.400    2.800    4.000 
#    0.000    0.000    0.000    0.000    0.000    0.000 
#    0.000    0.000    0.000    0.000    0.000    0.000 
#
# Total GULP energy -111530.198129 kJ/mol
# GULP energy per Si atom -5576.509906 kJ/mol
# Density = 2.049757 g / cm^3
# Si number density = 20.544332 Si / 1000 Ang^3
#
#
#
# Elastic Constant Matrix: (Units=GPa)
#
#
# Indices 1 2 3 4 5 6 
#
# 1 122.8794 14.7463 16.9760 0.0000 -6.0042 0.0000
# 2 14.7463 150.0000 59.4149 0.0000 -2.1292 0.0000
# 3 16.9760 59.4149 85.8432 0.0000 -9.6535 0.0000
# 4 0.0000 0.0000 0.0000 47.5229 0.0000 -22.1342
# 5 -6.0042 -2.1292 -9.6535 0.0000 29.8431 0.0000
# 6 0.0000 0.0000 0.0000 -22.1342 0.0000 34.9291
#
#
#
# Elastic Compliance Matrix: (Units=1/GPa)
#
#
# Indices 1 2 3 4 5 6 
#
# 1 0.008416 -0.000284 -0.001328 0.000000 0.001243 0.000000
# 2 -0.000284 0.009255 -0.006519 0.000000 -0.001506 0.000000
# 3 -0.001328 -0.006519 0.016959 0.000000 0.004753 0.000000
# 4 0.000000 0.000000 0.000000 0.029854 0.000000 0.018918
# 5 0.001243 -0.001506 0.004753 0.000000 0.035189 0.000000
# 6 0.000000 0.000000 0.000000 0.018918 0.000000 0.040618
#
#
# Mechanical properties :
#
#
# Convention : Reuss Voigt Hill
#
# Bulk Modulus (GPa) = 54.44215 60.11079 57.27647
# Shear Modulus (GPa) = 30.73606 40.29804 35.51705
#
# Velocity S-wave (km/s) = 3.87212 4.43371 4.16240
# Velocity P-wave (km/s) = 6.82264 7.45204 7.14428
#
# Compressibility (1/GPa) = 0.01836812
#
# Stress axis : x y z
#
# Youngs Moduli (GPa) = 118.81634 108.04464 58.96743
#
# Poissons Ratio (x) = 0.03065 0.07832
# Poissons Ratio (y) = 0.03370 0.38442
# Poissons Ratio (z) = 0.15782 0.70437
#
# Static dielectric constant tensor:
#      x y z
#    x 1.749180 0.000000 -0.019490 
#    y 0.000000 1.723480 0.000000 
#    z -0.019490 0.000000 1.720240 
# 
# From -- ./inp_files/62455.got.cif
#   From: 2010.05.17/outbox.cif.g08.bks.cpg/sg11_32_cif.got.tgz:62455.got - 2010.06.03 12:22:45.
