data_PCOD9166856
_publ_section_title
;
Structure prediction by ZEFSAII (Michael W. Deem and Ramdas Pophale) SiO2 
 PCOD9166856
Probable space group: P 21/M
;
_chemical_formula_sum "Si O2"
_cell_formula_units_Z 14
_cell_length_a 9.989536
_cell_length_b 7.663148
_cell_length_c 8.080000
_cell_angle_alpha 90.000000
_cell_angle_beta 57.159038
_cell_angle_gamma 90.000000
_cell_volume 519.679720
_symmetry_space_group_name_H-M "P 21/M"
_symmetry_group_IT_number 11
_symmetry_cell_setting 'monoclinic'
loop_
_space_group_symop_operation_xyz
x,y,z
-x,1/2+y,-z
-x,-y,-z
x,1/2-y,z
loop_
_atom_site_type_symbol
_atom_site_label
_atom_site_fract_x
_atom_site_fract_y
_atom_site_fract_z
Si Si1 0.897345 0.750000 0.236684
Si Si2 0.870889 0.750000 0.899337
Si Si3 0.391036 0.547208 0.915748
Si Si4 0.900257 0.250000 0.569750
Si Si5 0.680141 0.053135 0.507625
O O1 0.969553 0.750000 0.004886
O O2 0.782186 0.583304 0.336808
O O3 0.017132 0.750000 0.310098
O O4 0.757252 0.582072 0.983496
O O5 0.973492 0.750000 0.665330
O O6 0.349970 0.750000 0.949538
O O7 0.508177 0.510859 0.681358
O O8 0.500000 0.500000 0.000000
O O9 0.786692 0.085881 0.603990
O O10 0.671110 0.250000 0.445147
#
# Coordination Sequence:
#
# PCOD9166856 Si02
#       5
#     2   2   4   2   4
#     4  12  24  44  74 106 148 192 238 304 364 430
#     4  12  27  45  73 115 143 188 246 300 366 434
#     4  12  23  46  77 105 144 191 244 301 362 431
#     4  10  25  49  71 105 151 190 240 302 362 432
#     4  10  23  45  72 101 142 198 242 290 367 430
#
# _framework density 26.939671000000001
#
# number of rings (size 3 to 8) (size 9 to 14) (size 15 to 20)
#    0.857    0.000    4.286    2.571    0.000    3.429 
#    2.571    0.000    0.000    0.000    0.000    0.000 
#    0.000    0.000    0.000    0.000    0.000    0.000 
#
# Total GULP energy -78632.974377 kJ/mol
# GULP energy per Si atom -5616.641027 kJ/mol
# Density = 2.687836 g / cm^3
# Si number density = 26.939671 Si / 1000 Ang^3
#
#
#
# Elastic Constant Matrix: (Units=GPa)
#
#
# Indices 1 2 3 4 5 6 
#
# 1 152.1193 44.0905 70.0484 0.0000 15.7329 0.0000
# 2 44.0905 231.0611 54.7908 0.0000 -16.5941 0.0000
# 3 70.0484 54.7908 166.9457 0.0000 -6.5353 0.0000
# 4 0.0000 0.0000 0.0000 33.1897 0.0000 -10.1391
# 5 15.7329 -16.5941 -6.5353 0.0000 58.0805 0.0000
# 6 0.0000 0.0000 0.0000 -10.1391 0.0000 22.7749
#
#
#
# Elastic Compliance Matrix: (Units=1/GPa)
#
#
# Indices 1 2 3 4 5 6 
#
# 1 0.008798 -0.001080 -0.003457 0.000000 -0.003081 0.000000
# 2 -0.001080 0.004907 -0.001096 0.000000 0.001571 0.000000
# 3 -0.003457 -0.001096 0.007859 0.000000 0.001508 0.000000
# 4 0.000000 0.000000 0.000000 0.034873 0.000000 0.015525
# 5 -0.003081 0.001571 0.001508 0.000000 0.018671 0.000000
# 6 0.000000 0.000000 0.000000 0.015525 0.000000 0.050820
#
#
# Mechanical properties :
#
#
# Convention : Reuss Voigt Hill
#
# Bulk Modulus (GPa) = 97.11506 98.66506 97.89006
# Shear Modulus (GPa) = 35.55558 48.22209 41.88884
#
# Velocity S-wave (km/s) = 3.63688 4.23543 3.94752
# Velocity P-wave (km/s) = 7.33234 7.78604 7.56259
#
# Compressibility (1/GPa) = 0.01029706
#
# Stress axis : x y z
#
# Youngs Moduli (GPa) = 113.66753 203.80703 127.23795
#
# Poissons Ratio (x) = 0.22014 0.43992
# Poissons Ratio (y) = 0.12277 0.13940
# Poissons Ratio (z) = 0.39300 0.22329
#
# Static dielectric constant tensor:
#      x y z
#    x 2.130860 0.000000 0.071110 
#    y 0.000000 2.029660 0.000000 
#    z 0.071110 0.000000 2.098890 
# 
# From -- ./inp_files/11136.got.cif
#   From: 2010.05.17/outbox.cif.g08.bks.cpg/sg11_6_cif.got.tgz:11136.got - 2010.06.03 12:22:45.
