data_PCOD9166284
_publ_section_title
;
Structure prediction by ZEFSAII (Michael W. Deem and Ramdas Pophale) SiO2 
 PCOD9166284
Probable space group: P 21/M
;
_chemical_formula_sum "Si O2"
_cell_formula_units_Z 28
_cell_length_a 11.858732
_cell_length_b 8.550458
_cell_length_c 15.383985
_cell_angle_alpha 90.000000
_cell_angle_beta 65.710603
_cell_angle_gamma 90.000000
_cell_volume 1421.815829
_symmetry_space_group_name_H-M "P 21/M"
_symmetry_group_IT_number 11
_symmetry_cell_setting 'monoclinic'
loop_
_space_group_symop_operation_xyz
x,y,z
-x,1/2+y,-z
-x,-y,-z
x,1/2-y,z
loop_
_atom_site_type_symbol
_atom_site_label
_atom_site_fract_x
_atom_site_fract_y
_atom_site_fract_z
Si Si1 0.817409 0.562379 0.847677
Si Si2 0.473438 0.060855 0.412515
Si Si3 0.625491 0.060611 0.200334
Si Si4 0.554767 0.436890 0.891906
Si Si5 0.196101 0.438085 0.460180
Si Si6 0.017412 0.061231 0.359851
Si Si7 0.135705 0.937002 0.975817
O O1 0.813780 0.750000 0.854375
O O2 0.692977 0.503224 0.841303
O O3 0.933700 0.516721 0.750656
O O4 0.823351 0.493206 0.941925
O O5 0.472463 0.250000 0.414749
O O6 0.577192 0.010916 0.310056
O O7 0.337365 0.007832 0.423211
O O8 0.500000 0.000000 0.500000
O O9 0.622068 0.250000 0.198597
O O10 0.762106 0.010371 0.127087
O O11 0.530051 0.997736 0.159038
O O12 0.556235 0.250000 0.893305
O O13 0.500000 0.500000 0.000000
O O14 0.197995 0.250000 0.457339
O O15 0.121007 0.490043 0.397984
O O16 0.112448 0.492827 0.567566
O O17 0.009883 0.250000 0.365615
O O18 0.132957 0.750000 0.975598
O O19 0.000000 0.000000 0.000000
#
# Coordination Sequence:
#
# PCOD9166284 Si02
#       7
#     4   4   4   4   4   4   4
#     4  11  22  38  60  87 121 158 197 241 293 355
#     4  10  22  40  61  85 116 155 200 248 298 352
#     4  10  22  42  64  86 118 159 200 248 304 359
#     4  12  23  36  60  92 124 156 194 244 300 356
#     4   9  18  35  57  83 115 150 189 240 295 346
#     4   9  19  35  58  85 115 152 190 235 293 351
#     4  11  24  41  61  84 116 157 200 244 294 354
#
# _framework density 19.693127
#
# number of rings (size 3 to 8) (size 9 to 14) (size 15 to 20)
#    0.000    1.714    1.429    3.000    0.000    6.286 
#    0.000    7.143    0.000    0.000    0.000    0.000 
#    0.000    0.000    0.000    0.000    0.000    0.000 
#
# Total GULP energy -156449.802912 kJ/mol
# GULP energy per Si atom -5587.492961 kJ/mol
# Density = 1.964830 g / cm^3
# Si number density = 19.693127 Si / 1000 Ang^3
#
#
#
# Elastic Constant Matrix: (Units=GPa)
#
#
# Indices 1 2 3 4 5 6 
#
# 1 101.0335 19.4331 58.1216 0.0000 -20.8118 0.0000
# 2 19.4331 19.3396 29.4194 0.0000 -7.1573 0.0000
# 3 58.1216 29.4194 174.7092 0.0000 -20.2239 0.0000
# 4 0.0000 0.0000 0.0000 29.5627 0.0000 0.9358
# 5 -20.8118 -7.1573 -20.2239 0.0000 30.4467 0.0000
# 6 0.0000 0.0000 0.0000 0.9358 0.0000 32.0020
#
#
#
# Elastic Compliance Matrix: (Units=1/GPa)
#
#
# Indices 1 2 3 4 5 6 
#
# 1 0.014225 -0.007956 -0.002690 0.000000 0.006066 0.000000
# 2 -0.007956 0.076471 -0.009510 0.000000 0.006221 0.000000
# 3 -0.002690 -0.009510 0.008394 0.000000 0.001501 0.000000
# 4 0.000000 0.000000 0.000000 0.033858 0.000000 -0.000990
# 5 0.006066 0.006221 0.001501 0.000000 0.039450 0.000000
# 6 0.000000 0.000000 0.000000 -0.000990 0.000000 0.031277
#
#
# Mechanical properties :
#
#
# Convention : Reuss Voigt Hill
#
# Bulk Modulus (GPa) = 17.01356 56.55895 36.78626
# Shear Modulus (GPa) = 18.96950 30.94284 24.95617
#
# Velocity S-wave (km/s) = 3.10700 3.96820 3.56371
# Velocity P-wave (km/s) = 4.63998 7.05535 5.97107
#
# Compressibility (1/GPa) = 0.05877664
#
# Stress axis : x y z
#
# Youngs Moduli (GPa) = 70.29683 13.07689 119.13301
#
# Poissons Ratio (x) = 0.10404 0.32052
# Poissons Ratio (y) = 0.55931 1.13295
# Poissons Ratio (z) = 0.18913 0.12436
#
# Static dielectric constant tensor:
#      x y z
#    x 1.674690 0.000000 -0.018010 
#    y 0.000000 1.670300 0.000000 
#    z -0.018010 0.000000 1.698940 
# 
# From -- ./inp_files/49108.got.cif
#   From: 2010.05.17/outbox.cif.g08.bks.cpg/sg11_25_cif.got.tgz:49108.got - 2010.06.03 12:22:45.
