data_PCOD9166824
_publ_section_title
;
Structure prediction by ZEFSAII (Michael W. Deem and Ramdas Pophale) SiO2 
 PCOD9166824
Probable space group: P 21/M
;
_chemical_formula_sum "Si O2"
_cell_formula_units_Z 20
_cell_length_a 9.617241
_cell_length_b 16.142205
_cell_length_c 12.134650
_cell_angle_alpha 90.000000
_cell_angle_beta 151.235118
_cell_angle_gamma 90.000000
_cell_volume 906.527740
_symmetry_space_group_name_H-M "P 21/M"
_symmetry_group_IT_number 11
_symmetry_cell_setting 'monoclinic'
loop_
_space_group_symop_operation_xyz
x,y,z
-x,1/2+y,-z
-x,-y,-z
x,1/2-y,z
loop_
_atom_site_type_symbol
_atom_site_label
_atom_site_fract_x
_atom_site_fract_y
_atom_site_fract_z
Si Si1 0.304924 0.930459 0.679514
Si Si2 0.807413 0.841340 0.094096
Si Si3 0.660945 0.750000 0.619363
Si Si4 0.671435 0.895782 0.248120
Si Si5 0.359121 0.923086 0.462741
Si Si6 0.640965 0.250000 0.838631
O O1 0.294403 0.948636 0.543257
O O2 0.996951 0.911045 0.519819
O O3 0.449952 0.010832 0.835909
O O4 0.502245 0.850483 0.825137
O O5 0.930035 0.750000 0.174519
O O6 0.734329 0.862326 0.169908
O O7 0.039782 0.900047 0.197813
O O8 0.543645 0.838189 0.584485
O O9 0.514862 0.750000 0.391994
O O10 0.009462 0.750000 0.892939
O O11 0.487323 0.831313 0.189250
O O12 0.500000 0.000000 0.500000
#
# Coordination Sequence:
#
# PCOD9166824 Si02
#       6
#     4   4   2   4   4   2
#     4  10  24  41  72  94 139 179 239 291 361 420
#     4  11  23  40  71 100 135 181 232 299 354 427
#     4  12  30  47  70 107 144 194 246 290 358 432
#     4  10  23  44  65 106 132 181 233 295 361 426
#     4  11  26  46  67  98 141 189 244 291 353 425
#     4  12  28  45  74  99 150 184 240 296 362 414
#
# _framework density 22.062206
#
# number of rings (size 3 to 8) (size 9 to 14) (size 15 to 20)
#    0.000    1.200    2.000    1.800   11.200    0.800 
#    0.000    0.000    0.000    0.000    0.000    0.000 
#    0.000    0.000    0.000    0.000    0.000    0.000 
#
# Total GULP energy -111478.680671 kJ/mol
# GULP energy per Si atom -5573.934034 kJ/mol
# Density = 2.201199 g / cm^3
# Si number density = 22.062206 Si / 1000 Ang^3
#
#
#
# Elastic Constant Matrix: (Units=GPa)
#
#
# Indices 1 2 3 4 5 6 
#
# 1 81.1005 43.7193 37.8586 0.0000 15.5256 0.0000
# 2 43.7193 126.8192 36.2044 0.0000 24.2312 0.0000
# 3 37.8586 36.2044 86.3760 0.0000 20.5608 0.0000
# 4 0.0000 0.0000 0.0000 29.6608 0.0000 13.8197
# 5 15.5256 24.2312 20.5608 0.0000 33.7281 0.0000
# 6 0.0000 0.0000 0.0000 13.8197 0.0000 50.4179
#
#
#
# Elastic Compliance Matrix: (Units=1/GPa)
#
#
# Indices 1 2 3 4 5 6 
#
# 1 0.017451 -0.004114 -0.005517 0.000000 -0.001715 0.000000
# 2 -0.004114 0.010661 -0.001512 0.000000 -0.004843 0.000000
# 3 -0.005517 -0.001512 0.016103 0.000000 -0.006190 0.000000
# 4 0.000000 0.000000 0.000000 0.038651 0.000000 -0.010594
# 5 -0.001715 -0.004843 -0.006190 0.000000 0.037691 0.000000
# 6 0.000000 0.000000 0.000000 -0.010594 0.000000 0.022738
#
#
# Mechanical properties :
#
#
# Convention : Reuss Voigt Hill
#
# Bulk Modulus (GPa) = 45.60091 58.87337 52.23714
# Shear Modulus (GPa) = 28.92017 34.52892 31.72454
#
# Velocity S-wave (km/s) = 3.62449 3.96039 3.79616
# Velocity P-wave (km/s) = 6.18304 6.90333 6.55309
#
# Compressibility (1/GPa) = 0.02192939
#
# Stress axis : x y z
#
# Youngs Moduli (GPa) = 57.30198 93.80391 62.10161
#
# Poissons Ratio (x) = 0.38587 0.34258
# Poissons Ratio (y) = 0.23572 0.09393
# Poissons Ratio (z) = 0.31611 0.14188
#
# Static dielectric constant tensor:
#      x y z
#    x 1.768420 0.000000 -0.036710 
#    y 0.000000 1.873770 0.000000 
#    z -0.036710 0.000000 1.906890 
# 
# From -- ./inp_files/1901.got.cif
#   From: 2010.05.17/outbox.cif.g08.bks.cpg/sg11_1_cif.got.tgz:1901.got - 2010.06.03 12:22:45.
