data_PCOD9166271
_publ_section_title
;
Structure prediction by ZEFSAII (Michael W. Deem and Ramdas Pophale) SiO2 
 PCOD9166271
Probable space group: P 21/M
;
_chemical_formula_sum "Si O2"
_cell_formula_units_Z 28
_cell_length_a 7.847927
_cell_length_b 32.428259
_cell_length_c 5.338544
_cell_angle_alpha 90.000000
_cell_angle_beta 54.053680
_cell_angle_gamma 90.000000
_cell_volume 1099.903005
_symmetry_space_group_name_H-M "P 21/M"
_symmetry_group_IT_number 11
_symmetry_cell_setting 'monoclinic'
loop_
_space_group_symop_operation_xyz
x,y,z
-x,1/2+y,-z
-x,-y,-z
x,1/2-y,z
loop_
_atom_site_type_symbol
_atom_site_label
_atom_site_fract_x
_atom_site_fract_y
_atom_site_fract_z
Si Si1 0.674611 0.294457 0.545727
Si Si2 0.696494 0.970158 0.394606
Si Si3 0.806473 0.885105 0.468540
Si Si4 0.398261 0.203745 0.285047
Si Si5 0.770438 0.409014 0.075035
Si Si6 0.819701 0.380052 0.533009
Si Si7 0.752861 0.498630 0.849362
O O1 0.779937 0.250000 0.480766
O O2 0.568335 0.296863 0.364693
O O3 0.825220 0.332819 0.450081
O O4 0.503032 0.297530 0.918319
O O5 0.656711 0.924111 0.537003
O O6 0.500000 0.000000 0.500000
O O7 0.831856 0.991455 0.500007
O O8 0.799688 0.969353 0.031829
O O9 0.728997 0.838472 0.556207
O O10 0.993268 0.889593 0.103876
O O11 0.948950 0.894627 0.588899
O O12 0.295998 0.250000 0.393841
O O13 0.687631 0.382898 0.908920
O O14 0.786744 0.454101 0.943870
O O15 0.702143 0.405521 0.420205
O O16 0.500000 0.500000 0.000000
#
# Coordination Sequence:
#
# PCOD9166271 Si02
#       7
#     4   4   4   4   4   4   4
#     4  10  22  41  65  95 127 164 212 264 320 388
#     4  10  23  39  61  91 122 171 219 264 316 377
#     4  10  26  41  66  94 133 166 220 265 327 387
#     4  10  23  42  68  97 129 168 213 266 322 390
#     4  10  23  40  61  92 128 167 211 268 317 377
#     4  10  23  41  63  92 126 168 209 267 323 378
#     4  10  22  40  60  87 123 167 217 258 314 373
#
# _framework density 25.456790999999999
#
# number of rings (size 3 to 8) (size 9 to 14) (size 15 to 20)
#    0.857    1.143    0.000    1.714    4.000    8.571 
#    0.000    0.714    0.000    0.000    0.000    0.000 
#    0.000    0.000    0.000    0.000    0.000    0.000 
#
# Total GULP energy -156148.334667 kJ/mol
# GULP energy per Si atom -5576.726238 kJ/mol
# Density = 2.539885 g / cm^3
# Si number density = 25.456791 Si / 1000 Ang^3
#
#
#
# Elastic Constant Matrix: (Units=GPa)
#
#
# Indices 1 2 3 4 5 6 
#
# 1 98.2230 64.6623 45.1737 0.0000 46.3877 0.0000
# 2 64.6623 211.0044 36.3606 0.0000 12.3503 0.0000
# 3 45.1737 36.3606 104.0868 0.0000 49.0234 0.0000
# 4 0.0000 0.0000 0.0000 44.7764 0.0000 -0.3080
# 5 46.3877 12.3503 49.0234 0.0000 53.1355 0.0000
# 6 0.0000 0.0000 0.0000 -0.3080 0.0000 48.3115
#
#
#
# Elastic Compliance Matrix: (Units=1/GPa)
#
#
# Indices 1 2 3 4 5 6 
#
# 1 0.023000 -0.006156 0.001683 0.000000 -0.020201 0.000000
# 2 -0.006156 0.006710 -0.002598 0.000000 0.006211 0.000000
# 3 0.001683 -0.002598 0.018024 0.000000 -0.017495 0.000000
# 4 0.000000 0.000000 0.000000 0.022334 0.000000 0.000142
# 5 -0.020201 0.006211 -0.017495 0.000000 0.051152 0.000000
# 6 0.000000 0.000000 0.000000 0.000142 0.000000 0.020700
#
#
# Mechanical properties :
#
#
# Convention : Reuss Voigt Hill
#
# Bulk Modulus (GPa) = 29.76885 78.41195 54.09040
# Shear Modulus (GPa) = 29.89378 47.05252 38.47315
#
# Velocity S-wave (km/s) = 3.43052 4.30388 3.89178
# Velocity P-wave (km/s) = 5.23551 7.45431 6.44117
#
# Compressibility (1/GPa) = 0.03359216
#
# Stress axis : x y z
#
# Youngs Moduli (GPa) = 43.47884 149.03605 55.48097
#
# Poissons Ratio (x) = 0.91745 -0.09336
# Poissons Ratio (y) = 0.26765 0.14412
# Poissons Ratio (z) = -0.07316 0.38715
#
# Static dielectric constant tensor:
#      x y z
#    x 2.157690 0.000000 -0.239390 
#    y 0.000000 2.020360 0.000000 
#    z -0.239390 0.000000 2.381640 
# 
# From -- ./inp_files/3191.got.cif
#   From: 2010.05.17/outbox.cif.g08.bks.cpg/sg11_2_cif.got.tgz:3191.got - 2010.06.03 12:22:45.
