data_PCOD9166433
_publ_section_title
;
Structure prediction by ZEFSAII (Michael W. Deem and Ramdas Pophale) SiO2 
 PCOD9166433
Probable space group: P 21/M
;
_chemical_formula_sum "Si O2"
_cell_formula_units_Z 16
_cell_length_a 9.877554
_cell_length_b 10.257422
_cell_length_c 10.849238
_cell_angle_alpha 90.000000
_cell_angle_beta 40.030385
_cell_angle_gamma 90.000000
_cell_volume 707.015116
_symmetry_space_group_name_H-M "P 21/M"
_symmetry_group_IT_number 11
_symmetry_cell_setting 'monoclinic'
loop_
_space_group_symop_operation_xyz
x,y,z
-x,1/2+y,-z
-x,-y,-z
x,1/2-y,z
loop_
_atom_site_type_symbol
_atom_site_label
_atom_site_fract_x
_atom_site_fract_y
_atom_site_fract_z
Si Si1 0.251830 0.023361 0.158827
Si Si2 0.048674 0.111169 0.062273
Si Si3 0.380478 0.600181 0.491354
Si Si4 0.831710 0.609672 0.518364
O O1 0.224292 0.079754 0.040867
O O2 0.176515 0.110017 0.327593
O O3 0.070250 0.911388 0.300930
O O4 0.500000 0.000000 0.000000
O O5 0.084781 0.250000 0.974752
O O6 0.841695 0.119216 0.288370
O O7 0.000000 0.000000 0.000000
O O8 0.500000 0.500000 0.500000
O O9 0.461151 0.750000 0.414518
O O10 0.316661 0.510700 0.418938
O O11 0.752310 0.750000 0.527379
#
# Coordination Sequence:
#
# PCOD9166433 Si02
#       4
#     4   4   4   4
#     4  10  23  42  66  98 133 176 219 274 333 396
#     4  10  23  42  62  92 131 168 213 269 322 391
#     4  10  22  41  64  92 129 171 215 268 331 393
#     4  10  22  41  66  97 132 170 222 280 332 395
#
# _framework density 22.630351999999998
#
# number of rings (size 3 to 8) (size 9 to 14) (size 15 to 20)
#    0.000    2.000    0.000    1.500    3.500   13.000 
#    0.000    0.000    0.000    0.000    0.000    0.000 
#    0.000    0.000    0.000    0.000    0.000    0.000 
#
# Total GULP energy -89093.106975 kJ/mol
# GULP energy per Si atom -5568.319186 kJ/mol
# Density = 2.257884 g / cm^3
# Si number density = 22.630352 Si / 1000 Ang^3
#
#
#
# Elastic Constant Matrix: (Units=GPa)
#
#
# Indices 1 2 3 4 5 6 
#
# 1 146.0118 79.8113 16.4027 0.0000 5.7690 0.0000
# 2 79.8113 219.8582 32.7893 0.0000 26.3969 0.0000
# 3 16.4027 32.7893 65.3977 0.0000 -5.8103 0.0000
# 4 0.0000 0.0000 0.0000 3.7744 0.0000 3.2330
# 5 5.7690 26.3969 -5.8103 0.0000 51.4145 0.0000
# 6 0.0000 0.0000 0.0000 3.2330 0.0000 18.6417
#
#
#
# Elastic Compliance Matrix: (Units=1/GPa)
#
#
# Indices 1 2 3 4 5 6 
#
# 1 0.008584 -0.003103 -0.000547 0.000000 0.000568 0.000000
# 2 -0.003103 0.006482 -0.002764 0.000000 -0.003292 0.000000
# 3 -0.000547 -0.002764 0.017118 0.000000 0.003415 0.000000
# 4 0.000000 0.000000 0.000000 0.311165 0.000000 -0.053965
# 5 0.000568 -0.003292 0.003415 0.000000 0.021462 0.000000
# 6 0.000000 0.000000 0.000000 -0.053965 0.000000 0.063002
#
#
# Mechanical properties :
#
#
# Convention : Reuss Voigt Hill
#
# Bulk Modulus (GPa) = 51.66405 76.58604 64.12504
# Shear Modulus (GPa) = 11.18335 34.91708 23.05022
#
# Velocity S-wave (km/s) = 2.22542 3.93228 3.19494
# Velocity P-wave (km/s) = 5.42977 7.38463 6.48132
#
# Compressibility (1/GPa) = 0.01935582
#
# Stress axis : x y z
#
# Youngs Moduli (GPa) = 116.50035 154.26746 58.41911
#
# Poissons Ratio (x) = 0.47863 0.03195
# Poissons Ratio (y) = 0.36146 0.16150
# Poissons Ratio (z) = 0.06371 0.42646
#
# Static dielectric constant tensor:
#      x y z
#    x 1.969890 0.000000 0.025720 
#    y 0.000000 1.955190 0.000000 
#    z 0.025720 0.000000 1.836710 
# 
# From -- ./inp_files/11411.got.cif
#   From: 2010.05.17/outbox.cif.g08.bks.cpg/sg11_6_cif.got.tgz:11411.got - 2010.06.03 12:22:45.
