data_PCOD9166960
_publ_section_title
;
Structure prediction by ZEFSAII (Michael W. Deem and Ramdas Pophale) SiO2 
 PCOD9166960
Probable space group: P 21/M
;
_chemical_formula_sum "Si O2"
_cell_formula_units_Z 28
_cell_length_a 5.123541
_cell_length_b 20.819621
_cell_length_c 11.785694
_cell_angle_alpha 90.000000
_cell_angle_beta 104.052776
_cell_angle_gamma 90.000000
_cell_volume 1219.557774
_symmetry_space_group_name_H-M "P 21/M"
_symmetry_group_IT_number 11
_symmetry_cell_setting 'monoclinic'
loop_
_space_group_symop_operation_xyz
x,y,z
-x,1/2+y,-z
-x,-y,-z
x,1/2-y,z
loop_
_atom_site_type_symbol
_atom_site_label
_atom_site_fract_x
_atom_site_fract_y
_atom_site_fract_z
Si Si1 0.660768 0.067892 0.906352
Si Si2 0.831039 0.250000 0.565124
Si Si3 0.489609 0.825232 0.925876
Si Si4 0.980340 0.130651 0.289187
Si Si5 0.925449 0.572411 0.471349
Si Si6 0.272804 0.250000 0.413568
Si Si7 0.669428 0.116623 0.654166
Si Si8 0.815721 0.932120 0.890068
O O1 0.640997 0.098289 0.781188
O O2 0.600935 0.990277 0.887182
O O3 0.530602 0.121906 0.974526
O O4 0.959141 0.063115 0.989791
O O5 0.592571 0.250000 0.449629
O O6 0.753897 0.189372 0.634841
O O7 0.111756 0.250000 0.521392
O O8 0.505609 0.750000 0.957507
O O9 0.253802 0.839164 0.811480
O O10 0.741195 0.856630 0.889568
O O11 0.915650 0.109218 0.411115
O O12 0.187087 0.187036 0.337870
O O13 0.080766 0.068014 0.228906
O O14 0.064211 0.583909 0.366194
O O15 0.000000 0.500000 0.500000
O O16 0.611981 0.594128 0.435012
#
# Coordination Sequence:
#
# PCOD9166960 Si02
#       8
#     4   2   4   4   4   2   4   4
#     4  10  25  47  67  97 137 183 239 290 347 425
#     4  12  24  46  65 102 141 196 224 286 358 426
#     4  11  25  41  69 102 134 180 235 297 357 416
#     4  11  24  41  68 102 138 178 231 293 349 422
#     4  12  27  45  71 108 142 185 235 289 350 426
#     4  12  24  44  69  98 153 176 236 280 360 426
#     4  12  26  45  72 101 141 187 235 285 354 425
#     4  10  24  45  71  96 134 187 233 292 358 408
#
# _framework density 22.959143000000001
#
# number of rings (size 3 to 8) (size 9 to 14) (size 15 to 20)
#    0.000    0.857    3.571    1.714   10.000    0.571 
#    0.000    0.000    0.000    0.000    0.000    0.000 
#    0.000    0.000    0.000    0.000    0.000    0.000 
#
# Total GULP energy -155941.123116 kJ/mol
# GULP energy per Si atom -5569.325826 kJ/mol
# Density = 2.290689 g / cm^3
# Si number density = 22.959143 Si / 1000 Ang^3
#
#
#
# Elastic Constant Matrix: (Units=GPa)
#
#
# Indices 1 2 3 4 5 6 
#
# 1 15.3256 -43.1641 -49.1728 0.0000 -29.9305 0.0000
# 2 -43.1641 80.7644 -37.1708 0.0000 -59.9243 0.0000
# 3 -49.1728 -37.1708 41.5157 0.0000 -54.8396 0.0000
# 4 0.0000 0.0000 0.0000 47.7312 0.0000 16.0032
# 5 -29.9305 -59.9243 -54.8396 0.0000 -37.8143 0.0000
# 6 0.0000 0.0000 0.0000 16.0032 0.0000 36.7938
#
#
#
# Elastic Compliance Matrix: (Units=1/GPa)
#
#
# Indices 1 2 3 4 5 6 
#
# 1 0.026003 -0.001111 0.001695 0.000000 -0.021279 0.000000
# 2 -0.001111 0.006487 -0.002718 0.000000 -0.005458 0.000000
# 3 0.001695 -0.002718 0.009459 0.000000 -0.010752 0.000000
# 4 0.000000 0.000000 0.000000 0.024527 0.000000 -0.010668
# 5 -0.021279 -0.005458 -0.010752 0.000000 0.014640 0.000000
# 6 0.000000 0.000000 0.000000 -0.010668 0.000000 0.031818
#
#
# Mechanical properties :
#
#
# Convention : Reuss Voigt Hill
#
# Bulk Modulus (GPa) = 26.53907 -13.48998 6.52454
# Shear Modulus (GPa) = 38.53184 27.14970 32.84077
#
# Velocity S-wave (km/s) = 4.10112 3.44251 3.78617
# Velocity P-wave (km/s) = 5.83181 3.14846 4.68630
#
# Compressibility (1/GPa) = 0.03768030
#
# Stress axis : x y z
#
# Youngs Moduli (GPa) = 38.45773 154.15604 105.72060
#
# Poissons Ratio (x) = 0.17129 -0.17923
# Poissons Ratio (y) = 0.04273 0.28737
# Poissons Ratio (z) = -0.06520 0.41903
#
# Static dielectric constant tensor:
#      x y z
#    x 1.908030 0.000000 -0.061190 
#    y 0.000000 1.904570 0.000000 
#    z -0.061190 0.000000 1.858010 
# 
# From -- ./inp_files/5114.got.cif
#   From: 2010.05.17/outbox.cif.g08.bks.cpg/sg11_3_cif.got.tgz:5114.got - 2010.06.03 12:22:45.
