data_PCOD9166813
_publ_section_title
;
Structure prediction by ZEFSAII (Michael W. Deem and Ramdas Pophale) SiO2 
 PCOD9166813
Probable space group: P 21/M
;
_chemical_formula_sum "Si O2"
_cell_formula_units_Z 32
_cell_length_a 5.318735
_cell_length_b 29.763058
_cell_length_c 8.858899
_cell_angle_alpha 90.000000
_cell_angle_beta 91.925043
_cell_angle_gamma 90.000000
_cell_volume 1401.588357
_symmetry_space_group_name_H-M "P 21/M"
_symmetry_group_IT_number 11
_symmetry_cell_setting 'monoclinic'
loop_
_space_group_symop_operation_xyz
x,y,z
-x,1/2+y,-z
-x,-y,-z
x,1/2-y,z
loop_
_atom_site_type_symbol
_atom_site_label
_atom_site_fract_x
_atom_site_fract_y
_atom_site_fract_z
Si Si1 0.752940 0.512198 0.592104
Si Si2 0.946993 0.198589 0.967815
Si Si3 0.039450 0.336525 0.636800
Si Si4 0.534296 0.199150 0.500345
Si Si5 0.746975 0.477955 0.928962
Si Si6 0.001238 0.896541 0.613835
Si Si7 0.696775 0.832283 0.793819
Si Si8 0.324155 0.888590 0.904201
O O1 0.500000 0.500000 0.500000
O O2 0.747273 0.487432 0.751733
O O3 0.791997 0.565260 0.617781
O O4 0.000000 0.500000 0.500000
O O5 0.849575 0.250000 0.946350
O O6 0.023034 0.175597 0.811865
O O7 0.186345 0.200743 0.084011
O O8 0.774591 0.160500 0.043960
O O9 0.329948 0.328853 0.593159
O O10 0.953168 0.384476 0.560855
O O11 0.817672 0.305472 0.563115
O O12 0.446394 0.250000 0.511943
O O13 0.514832 0.185538 0.323921
O O14 0.500000 0.500000 0.000000
O O15 0.736291 0.425761 0.974247
O O16 0.000000 0.500000 0.000000
O O17 0.901928 0.849711 0.679788
O O18 0.217461 0.906797 0.740600
O O19 0.614174 0.877017 0.881738
#
# Coordination Sequence:
#
# PCOD9166813 Si02
#       8
#     4   4   4   4   4   4   4   4
#     4  12  28  45  73 111 150 188 236 306 374 440
#     4  11  26  44  65 104 145 185 241 308 364 426
#     4  11  25  43  69  97 138 186 228 295 366 423
#     4  11  22  41  66  94 128 178 235 282 346 426
#     4  12  26  48  79 109 148 197 249 304 373 454
#     4  10  23  46  70  98 142 184 241 290 359 437
#     4  10  23  43  69  97 132 190 236 295 348 424
#     4  11  24  45  75 100 143 193 248 297 366 438
#
# _framework density 22.831240000000001
#
# number of rings (size 3 to 8) (size 9 to 14) (size 15 to 20)
#    0.000    1.000    2.500    3.000    7.000    2.000 
#    0.000    0.000    0.000    0.000    0.000    0.000 
#    0.000    0.000    0.000    0.000    0.000    0.000 
#
# Total GULP energy -178533.747943 kJ/mol
# GULP energy per Si atom -5579.179623 kJ/mol
# Density = 2.277927 g / cm^3
# Si number density = 22.831240 Si / 1000 Ang^3
#
#
#
# Elastic Constant Matrix: (Units=GPa)
#
#
# Indices 1 2 3 4 5 6 
#
# 1 107.3047 20.0914 54.8830 0.0000 -4.4942 0.0000
# 2 20.0914 86.4871 43.7134 0.0000 -3.9236 0.0000
# 3 54.8830 43.7134 147.7466 0.0000 -1.9886 0.0000
# 4 0.0000 0.0000 0.0000 25.4907 0.0000 5.4768
# 5 -4.4942 -3.9236 -1.9886 0.0000 36.4168 0.0000
# 6 0.0000 0.0000 0.0000 5.4768 0.0000 26.9704
#
#
#
# Elastic Compliance Matrix: (Units=1/GPa)
#
#
# Indices 1 2 3 4 5 6 
#
# 1 0.011579 -0.000555 -0.004122 0.000000 0.001144 0.000000
# 2 -0.000555 0.013679 -0.003825 0.000000 0.001196 0.000000
# 3 -0.004122 -0.003825 0.009426 0.000000 -0.000406 0.000000
# 4 0.000000 0.000000 0.000000 0.041020 0.000000 -0.008330
# 5 0.001144 0.001196 -0.000406 0.000000 0.027708 0.000000
# 6 0.000000 0.000000 0.000000 -0.008330 0.000000 0.038769
#
#
# Mechanical properties :
#
#
# Convention : Reuss Voigt Hill
#
# Bulk Modulus (GPa) = 56.55854 64.32377 60.44116
# Shear Modulus (GPa) = 30.28890 32.63227 31.46059
#
# Velocity S-wave (km/s) = 3.64626 3.78469 3.71612
# Velocity P-wave (km/s) = 6.52328 6.87991 6.70397
#
# Compressibility (1/GPa) = 0.01768079
#
# Stress axis : x y z
#
# Youngs Moduli (GPa) = 86.36173 73.10571 106.09331
#
# Poissons Ratio (x) = 0.04055 0.43729
# Poissons Ratio (y) = 0.04791 0.40580
# Poissons Ratio (z) = 0.35596 0.27963
#
# Static dielectric constant tensor:
#      x y z
#    x 1.919210 0.000000 -0.022880 
#    y 0.000000 1.906160 0.000000 
#    z -0.022880 0.000000 1.941850 
# 
# From -- ./inp_files/10860.got.cif
#   From: 2010.05.17/outbox.cif.g08.bks.cpg/sg11_6_cif.got.tgz:10860.got - 2010.06.03 12:22:45.
