data_PCOD9166007
_publ_section_title
;
Structure prediction by ZEFSAII (Michael W. Deem and Ramdas Pophale) SiO2 
 PCOD9166007
Probable space group: P 21/M
;
_chemical_formula_sum "Si O2"
_cell_formula_units_Z 24
_cell_length_a 5.325969
_cell_length_b 13.541822
_cell_length_c 14.931325
_cell_angle_alpha 90.000000
_cell_angle_beta 106.398663
_cell_angle_gamma 90.000000
_cell_volume 1033.089238
_symmetry_space_group_name_H-M "P 21/M"
_symmetry_group_IT_number 11
_symmetry_cell_setting 'monoclinic'
loop_
_space_group_symop_operation_xyz
x,y,z
-x,1/2+y,-z
-x,-y,-z
x,1/2-y,z
loop_
_atom_site_type_symbol
_atom_site_label
_atom_site_fract_x
_atom_site_fract_y
_atom_site_fract_z
Si Si1 0.601158 0.136529 0.331772
Si Si2 0.705072 0.457678 0.152381
Si Si3 0.959811 0.865407 0.478603
Si Si4 0.220457 0.582381 0.028745
Si Si5 0.921245 0.143699 0.798160
Si Si6 0.612942 0.441044 0.618666
O O1 0.511716 0.250000 0.331542
O O2 0.875446 0.127833 0.412959
O O3 0.636433 0.103934 0.232883
O O4 0.410944 0.055254 0.356116
O O5 0.475296 0.526922 0.091121
O O6 0.919971 0.541289 0.198193
O O7 0.757988 0.385899 0.072474
O O8 0.935792 0.750000 0.454636
O O9 0.149051 0.914602 0.423289
O O10 0.669759 0.910319 0.448868
O O11 0.137008 0.649587 0.102329
O O12 0.000000 0.500000 0.000000
O O13 0.040656 0.250000 0.782898
O O14 0.664735 0.123772 0.712907
#
# Coordination Sequence:
#
# PCOD9166007 Si02
#       6
#     4   4   4   4   4   4
#     4  11  25  45  70 100 135 186 239 288 351 424
#     4  10  21  44  68  96 138 177 228 294 352 418
#     4  11  25  45  72 106 142 185 237 290 357 427
#     4   9  20  41  69  93 135 174 223 287 354 419
#     4  11  23  39  68 104 137 181 235 288 357 426
#     4  12  24  46  70 102 148 188 233 294 355 410
#
# _framework density 23.231293000000001
#
# number of rings (size 3 to 8) (size 9 to 14) (size 15 to 20)
#    0.000    1.333    1.667    3.500    0.000    2.667 
#    0.000   13.333    0.000    1.000    0.000    0.000 
#    0.000    0.000    0.000    0.000    0.000    0.000 
#
# Total GULP energy -134101.632642 kJ/mol
# GULP energy per Si atom -5587.568027 kJ/mol
# Density = 2.317842 g / cm^3
# Si number density = 23.231293 Si / 1000 Ang^3
#
#
#
# Elastic Constant Matrix: (Units=GPa)
#
#
# Indices 1 2 3 4 5 6 
#
# 1 62.4674 13.2306 17.1481 0.0000 0.4396 0.0000
# 2 13.2306 141.4512 34.3279 0.0000 -2.3839 0.0000
# 3 17.1481 34.3279 149.8062 0.0000 -9.6226 0.0000
# 4 0.0000 0.0000 0.0000 7.6569 0.0000 -12.7616
# 5 0.4396 -2.3839 -9.6226 0.0000 34.1625 0.0000
# 6 0.0000 0.0000 0.0000 -12.7616 0.0000 8.7165
#
#
#
# Elastic Compliance Matrix: (Units=1/GPa)
#
#
# Indices 1 2 3 4 5 6 
#
# 1 0.016727 -0.001166 -0.001697 0.000000 -0.000775 0.000000
# 2 -0.001166 0.007567 -0.001595 0.000000 0.000094 0.000000
# 3 -0.001697 -0.001595 0.007362 0.000000 0.001984 0.000000
# 4 0.000000 0.000000 0.000000 -0.090686 0.000000 -0.132772
# 5 -0.000775 0.000094 0.001984 0.000000 0.029847 0.000000
# 6 0.000000 0.000000 0.000000 -0.132772 0.000000 -0.079662
#
#
# Mechanical properties :
#
#
# Convention : Reuss Voigt Hill
#
# Bulk Modulus (GPa) = 43.97314 53.68201 48.82758
# Shear Modulus (GPa) = -54.14189 29.37507 -12.38341
#
# Velocity S-wave (km/s) = -4.83282 3.55978 -2.31129
# Velocity P-wave (km/s) = 3.48885 6.32881 3.73375
#
# Compressibility (1/GPa) = 0.02274116
#
# Stress axis : x y z
#
# Youngs Moduli (GPa) = 59.78494 132.14999 135.82480
#
# Poissons Ratio (x) = 0.15404 0.23054
# Poissons Ratio (y) = 0.06969 0.21658
# Poissons Ratio (z) = 0.10147 0.21072
#
# Static dielectric constant tensor:
#      x y z
#    x 1.845190 0.000000 -0.103810 
#    y 0.000000 1.839700 0.000000 
#    z -0.103810 0.000000 1.847050 
# 
# From -- ./inp_files/45729.got.cif
#   From: 2010.05.17/outbox.cif.g08.bks.cpg/sg11_23_cif.got.tgz:45729.got - 2010.06.03 12:22:45.
