data_PCOD9166767
_publ_section_title
;
Structure prediction by ZEFSAII (Michael W. Deem and Ramdas Pophale) SiO2 
 PCOD9166767
Probable space group: P 21/M
;
_chemical_formula_sum "Si O2"
_cell_formula_units_Z 24
_cell_length_a 30.491473
_cell_length_b 8.729696
_cell_length_c 9.669602
_cell_angle_alpha 90.000000
_cell_angle_beta 28.371888
_cell_angle_gamma 90.000000
_cell_volume 1223.082499
_symmetry_space_group_name_H-M "P 21/M"
_symmetry_group_IT_number 11
_symmetry_cell_setting 'monoclinic'
loop_
_space_group_symop_operation_xyz
x,y,z
-x,1/2+y,-z
-x,-y,-z
x,1/2-y,z
loop_
_atom_site_type_symbol
_atom_site_label
_atom_site_fract_x
_atom_site_fract_y
_atom_site_fract_z
Si Si1 0.563258 0.070232 0.206369
Si Si2 0.455960 0.931412 0.259034
Si Si3 0.253409 0.433083 0.885013
Si Si4 0.252526 0.071906 0.208443
Si Si5 0.074775 0.429055 0.896102
Si Si6 0.085599 0.933334 0.174172
O O1 0.546023 0.250000 0.234040
O O2 0.500000 0.000000 0.500000
O O3 0.531793 0.975571 0.161823
O O4 0.667125 0.038280 0.963270
O O5 0.443367 0.750000 0.284492
O O6 0.357047 0.006083 0.570945
O O7 0.500000 0.000000 0.000000
O O8 0.251601 0.250000 0.869468
O O9 0.227732 0.463563 0.117490
O O10 0.179504 0.509287 0.987524
O O11 0.285300 0.250000 0.117446
O O12 0.169322 0.060272 0.546832
O O13 0.054243 0.250000 0.976970
O O14 0.080088 0.509972 0.030474
O O15 0.000000 0.500000 0.000000
O O16 0.081703 0.750000 0.187465
O O17 0.000000 0.000000 0.500000
#
# Coordination Sequence:
#
# PCOD9166767 Si02
#       6
#     4   4   4   4   4   4
#     4  12  24  41  66  96 132 174 224 274 325 388
#     4  12  26  44  66  95 133 177 224 275 330 391
#     4  11  23  43  69  98 133 173 220 272 330 392
#     4  10  23  42  67  96 131 172 218 269 328 392
#     4  11  24  44  70 101 135 171 217 269 328 393
#     4  12  26  45  69  98 134 175 222 272 329 393
#
# _framework density 19.622553
#
# number of rings (size 3 to 8) (size 9 to 14) (size 15 to 20)
#    0.000    0.667    1.667    6.500    2.333    3.333 
#    0.000    0.000    0.000    0.000    0.000    0.000 
#    0.000    0.000    0.000    0.000    0.000    0.000 
#
# Total GULP energy -134239.536951 kJ/mol
# GULP energy per Si atom -5593.314040 kJ/mol
# Density = 1.957789 g / cm^3
# Si number density = 19.622553 Si / 1000 Ang^3
#
#
#
# Elastic Constant Matrix: (Units=GPa)
#
#
# Indices 1 2 3 4 5 6 
#
# 1 156.8813 68.2680 45.2424 0.0000 21.4973 0.0000
# 2 68.2680 155.3799 58.8378 0.0000 5.6970 0.0000
# 3 45.2424 58.8378 70.0669 0.0000 20.3870 0.0000
# 4 0.0000 0.0000 0.0000 34.1262 0.0000 -4.7477
# 5 21.4973 5.6970 20.3870 0.0000 42.7057 0.0000
# 6 0.0000 0.0000 0.0000 -4.7477 0.0000 39.4938
#
#
#
# Elastic Compliance Matrix: (Units=1/GPa)
#
#
# Indices 1 2 3 4 5 6 
#
# 1 0.008678 -0.002785 -0.002441 0.000000 -0.002831 0.000000
# 2 -0.002785 0.010657 -0.008298 0.000000 0.003941 0.000000
# 3 -0.002441 -0.008298 0.025708 0.000000 -0.009936 0.000000
# 4 0.000000 0.000000 0.000000 0.029801 0.000000 0.003583
# 5 -0.002831 0.003941 -0.009936 0.000000 0.029059 0.000000
# 6 0.000000 0.000000 0.000000 0.003583 0.000000 0.025751
#
#
# Mechanical properties :
#
#
# Convention : Reuss Voigt Hill
#
# Bulk Modulus (GPa) = 55.57024 80.78052 68.17538
# Shear Modulus (GPa) = 30.73151 37.26380 33.99766
#
# Velocity S-wave (km/s) = 3.96173 4.36251 4.16694
# Velocity P-wave (km/s) = 7.02198 8.16284 7.61381
#
# Compressibility (1/GPa) = 0.01799524
#
# Stress axis : x y z
#
# Youngs Moduli (GPa) = 115.23428 93.83628 38.89915
#
# Poissons Ratio (x) = 0.26129 0.09496
# Poissons Ratio (y) = 0.32087 0.32278
# Poissons Ratio (z) = 0.28132 0.77863
#
# Static dielectric constant tensor:
#      x y z
#    x 1.622880 0.000000 -0.027530 
#    y 0.000000 1.654870 0.000000 
#    z -0.027530 0.000000 1.653330 
# 
# From -- ./inp_files/28955.got.cif
#   From: 2010.05.17/outbox.cif.g08.bks.cpg/sg11_15_cif.got.tgz:28955.got - 2010.06.03 12:22:45.
