data_PCOD9166582
_publ_section_title
;
Structure prediction by ZEFSAII (Michael W. Deem and Ramdas Pophale) SiO2 
 PCOD9166582
Probable space group: P 21/M
;
_chemical_formula_sum "Si O2"
_cell_formula_units_Z 30
_cell_length_a 11.894572
_cell_length_b 9.371337
_cell_length_c 14.621134
_cell_angle_alpha 90.000000
_cell_angle_beta 102.133623
_cell_angle_gamma 90.000000
_cell_volume 1593.379792
_symmetry_space_group_name_H-M "P 21/M"
_symmetry_group_IT_number 11
_symmetry_cell_setting 'monoclinic'
loop_
_space_group_symop_operation_xyz
x,y,z
-x,1/2+y,-z
-x,-y,-z
x,1/2-y,z
loop_
_atom_site_type_symbol
_atom_site_label
_atom_site_fract_x
_atom_site_fract_y
_atom_site_fract_z
Si Si1 0.132420 0.023152 0.110432
Si Si2 0.380795 0.919792 0.492562
Si Si3 0.574800 0.581379 0.149322
Si Si4 0.273310 0.579285 0.675286
Si Si5 0.363374 0.410816 0.049413
Si Si6 0.961404 0.580691 0.401214
Si Si7 0.813367 0.081693 0.685071
Si Si8 0.959608 0.250000 0.013156
O O1 0.234725 0.081952 0.064113
O O2 0.179833 0.004410 0.220395
O O3 0.095144 0.873338 0.062450
O O4 0.023997 0.126421 0.085858
O O5 0.398644 0.750000 0.485959
O O6 0.327554 0.943238 0.583918
O O7 0.288142 0.964792 0.400367
O O8 0.500000 0.000000 0.500000
O O9 0.576083 0.750000 0.170978
O O10 0.643605 0.490501 0.235292
O O11 0.445621 0.522100 0.114837
O O12 0.630960 0.560859 0.058232
O O13 0.259685 0.750000 0.686862
O O14 0.151867 0.497455 0.655544
O O15 0.409673 0.250000 0.071179
O O16 0.940786 0.750000 0.414458
O O17 0.000000 0.500000 0.500000
O O18 0.066302 0.569656 0.348118
O O19 0.795688 0.250000 0.702083
#
# Coordination Sequence:
#
# PCOD9166582 Si02
#       8
#     4   4   4   4   4   4   4   2
#     4  11  22  44  64  92 126 169 203 269 314 378
#     4  10  23  43  64  92 130 168 211 262 311 373
#     4  10  23  41  65  95 121 165 213 255 312 384
#     4  11  23  43  64  94 131 166 206 264 318 369
#     4  10  22  43  65  90 129 162 204 263 321 370
#     4  11  22  42  66  91 126 165 209 261 312 375
#     4  10  22  43  67  92 127 170 210 254 325 374
#     4  10  24  40  62  90 128 156 216 252 314 370
#
# _framework density 18.827902999999999
#
# number of rings (size 3 to 8) (size 9 to 14) (size 15 to 20)
#    0.000    1.600    2.667    1.200    2.800    3.733 
#    6.000    0.000    0.000    0.000    0.000    0.000 
#    0.000    0.000    0.000    0.000    0.000    0.000 
#
# Total GULP energy -167022.374547 kJ/mol
# GULP energy per Si atom -5567.412485 kJ/mol
# Density = 1.878505 g / cm^3
# Si number density = 18.827903 Si / 1000 Ang^3
#
#
#
# Elastic Constant Matrix: (Units=GPa)
#
#
# Indices 1 2 3 4 5 6 
#
# 1 54.4312 38.6738 34.0453 0.0000 13.8247 0.0000
# 2 38.6738 113.3975 59.8477 0.0000 15.3045 0.0000
# 3 34.0453 59.8477 122.0928 0.0000 27.6989 0.0000
# 4 0.0000 0.0000 0.0000 9.5726 0.0000 17.9988
# 5 13.8247 15.3045 27.6989 0.0000 24.5983 0.0000
# 6 0.0000 0.0000 0.0000 17.9988 0.0000 28.0644
#
#
#
# Elastic Compliance Matrix: (Units=1/GPa)
#
#
# Indices 1 2 3 4 5 6 
#
# 1 0.026708 -0.006816 -0.002234 0.000000 -0.008254 0.000000
# 2 -0.006816 0.013658 -0.005018 0.000000 0.000982 0.000000
# 3 -0.002234 -0.005018 0.013807 0.000000 -0.011170 0.000000
# 4 0.000000 0.000000 0.000000 -0.507421 0.000000 0.325428
# 5 -0.008254 0.000982 -0.011170 0.000000 0.057259 0.000000
# 6 0.000000 0.000000 0.000000 0.325428 0.000000 -0.173077
#
#
# Mechanical properties :
#
#
# Convention : Reuss Voigt Hill
#
# Bulk Modulus (GPa) = 38.40322 61.67279 50.03800
# Shear Modulus (GPa) = -9.39406 22.93738 6.77166
#
# Velocity S-wave (km/s) = -2.23613 3.49415 1.89853
# Velocity P-wave (km/s) = 3.71136 7.00757 5.60715
#
# Compressibility (1/GPa) = 0.02603949
#
# Stress axis : x y z
#
# Youngs Moduli (GPa) = 37.44174 73.21462 72.42680
#
# Poissons Ratio (x) = 0.49901 0.16180
# Poissons Ratio (y) = 0.25519 0.36340
# Poissons Ratio (z) = 0.08364 0.36735
#
# Static dielectric constant tensor:
#      x y z
#    x 1.647350 0.000000 -0.002890 
#    y 0.000000 1.676960 0.000000 
#    z -0.002890 0.000000 1.629690 
# 
# From -- ./inp_files/49415.got.cif
#   From: 2010.05.17/outbox.cif.g08.bks.cpg/sg11_25_cif.got.tgz:49415.got - 2010.06.03 12:22:45.
