data_PCOD9166132
_publ_section_title
;
Structure prediction by ZEFSAII (Michael W. Deem and Ramdas Pophale) SiO2 
 PCOD9166132
Probable space group: P 21/M
;
_chemical_formula_sum "Si O2"
_cell_formula_units_Z 32
_cell_length_a 13.654397
_cell_length_b 21.527929
_cell_length_c 9.274594
_cell_angle_alpha 90.000000
_cell_angle_beta 31.407168
_cell_angle_gamma 90.000000
_cell_volume 1420.706724
_symmetry_space_group_name_H-M "P 21/M"
_symmetry_group_IT_number 11
_symmetry_cell_setting 'monoclinic'
loop_
_space_group_symop_operation_xyz
x,y,z
-x,1/2+y,-z
-x,-y,-z
x,1/2-y,z
loop_
_atom_site_type_symbol
_atom_site_label
_atom_site_fract_x
_atom_site_fract_y
_atom_site_fract_z
Si Si1 0.078026 0.820412 0.969083
Si Si2 0.495342 0.678444 0.522511
Si Si3 0.829993 0.855206 0.544425
Si Si4 0.996130 0.089588 0.204664
Si Si5 0.126188 0.561845 0.342799
Si Si6 0.661713 0.541472 0.367210
Si Si7 0.258405 0.315431 0.041626
Si Si8 0.458068 0.457931 0.188531
O O1 0.075943 0.750000 0.913841
O O2 0.911828 0.826850 0.295138
O O3 0.065587 0.869902 0.855213
O O4 0.272934 0.828919 0.810538
O O5 0.545063 0.750000 0.512584
O O6 0.600518 0.615755 0.447488
O O7 0.545155 0.679521 0.288617
O O8 0.661476 0.900417 0.715375
O O9 0.004668 0.889902 0.402869
O O10 0.744166 0.816499 0.784244
O O11 0.137772 0.037212 0.964363
O O12 0.138009 0.130287 0.124829
O O13 0.848949 0.074712 0.516090
O O14 0.000000 0.500000 0.500000
O O15 0.332709 0.556088 0.016619
O O16 0.500000 0.500000 0.500000
O O17 0.667169 0.516711 0.523208
O O18 0.171526 0.250000 0.103640
O O19 0.500000 0.500000 0.000000
#
# Coordination Sequence:
#
# PCOD9166132 Si02
#       8
#     4   4   4   4   4   4   4   4
#     4  11  22  40  63  93 128 165 216 277 327 392
#     4   9  21  40  66  93 127 170 218 270 329 395
#     4  11  23  41  62  92 125 166 214 259 328 383
#     4  10  22  38  62  92 122 163 211 261 327 381
#     4  11  23  42  63  88 130 170 207 265 320 391
#     4  11  23  42  65  94 129 171 218 271 332 393
#     4   9  19  38  62  86 119 163 205 257 318 380
#     4  12  25  41  63  92 129 170 212 264 325 385
#
# _framework density 22.524000999999998
#
# number of rings (size 3 to 8) (size 9 to 14) (size 15 to 20)
#    0.000    1.500    2.500    2.250    5.250    0.500 
#    0.000    1.875    0.000    2.250    0.000    0.000 
#    0.000    0.000    0.000    0.000    0.000    0.000 
#
# Total GULP energy -178419.042860 kJ/mol
# GULP energy per Si atom -5575.595089 kJ/mol
# Density = 2.247274 g / cm^3
# Si number density = 22.524001 Si / 1000 Ang^3
#
#
#
# Elastic Constant Matrix: (Units=GPa)
#
#
# Indices 1 2 3 4 5 6 
#
# 1 54.4529 11.3484 -1.7844 0.0000 9.9199 0.0000
# 2 11.3484 38.9500 -1.1603 0.0000 7.6743 0.0000
# 3 -1.7844 -1.1603 91.5823 0.0000 9.5472 0.0000
# 4 0.0000 0.0000 0.0000 7.5012 0.0000 22.1810
# 5 9.9199 7.6743 9.5472 0.0000 45.0188 0.0000
# 6 0.0000 0.0000 0.0000 22.1810 0.0000 -16.9659
#
#
#
# Elastic Compliance Matrix: (Units=1/GPa)
#
#
# Indices 1 2 3 4 5 6 
#
# 1 0.020130 -0.005112 0.000715 0.000000 -0.003716 0.000000
# 2 -0.005112 0.027926 0.000647 0.000000 -0.003771 0.000000
# 3 0.000715 0.000647 0.011217 0.000000 -0.002647 0.000000
# 4 0.000000 0.000000 0.000000 0.027397 0.000000 0.035819
# 5 -0.003716 -0.003771 -0.002647 0.000000 0.024236 0.000000
# 6 0.000000 0.000000 0.000000 0.035819 0.000000 -0.012113
#
#
# Mechanical properties :
#
#
# Convention : Reuss Voigt Hill
#
# Bulk Modulus (GPa) = 19.31468 22.42139 20.86803
# Shear Modulus (GPa) = 40.46951 18.88291 29.67621
#
# Velocity S-wave (km/s) = 4.24338 2.89856 3.63373
# Velocity P-wave (km/s) = 5.70983 4.60198 5.18558
#
# Compressibility (1/GPa) = 0.05177409
#
# Stress axis : x y z
#
# Youngs Moduli (GPa) = 49.67667 35.80939 89.14900
#
# Poissons Ratio (x) = 0.18304 -0.06373
# Poissons Ratio (y) = 0.25393 -0.05771
# Poissons Ratio (z) = -0.03551 -0.02318
#
# Static dielectric constant tensor:
#      x y z
#    x 1.818240 0.000000 0.032940 
#    y 0.000000 1.880590 0.000000 
#    z 0.032940 0.000000 1.873690 
# 
# From -- ./inp_files/23344.got.cif
#   From: 2010.05.17/outbox.cif.g08.bks.cpg/sg11_12_cif.got.tgz:23344.got - 2010.06.03 12:22:45.
