data_PCOD9166909
_publ_section_title
;
Structure prediction by ZEFSAII (Michael W. Deem and Ramdas Pophale) SiO2 
 PCOD9166909
Probable space group: P 21/M
;
_chemical_formula_sum "Si O2"
_cell_formula_units_Z 16
_cell_length_a 8.475404
_cell_length_b 17.026941
_cell_length_c 5.310698
_cell_angle_alpha 90.000000
_cell_angle_beta 119.507809
_cell_angle_gamma 90.000000
_cell_volume 666.978642
_symmetry_space_group_name_H-M "P 21/M"
_symmetry_group_IT_number 11
_symmetry_cell_setting 'monoclinic'
loop_
_space_group_symop_operation_xyz
x,y,z
-x,1/2+y,-z
-x,-y,-z
x,1/2-y,z
loop_
_atom_site_type_symbol
_atom_site_label
_atom_site_fract_x
_atom_site_fract_y
_atom_site_fract_z
Si Si1 0.250220 0.022288 0.000672
Si Si2 0.587883 0.111411 0.215234
Si Si3 0.912293 0.388629 0.784617
Si Si4 0.373105 0.250000 0.842383
Si Si5 0.873783 0.750000 0.842016
O O1 0.086602 0.076906 0.774776
O O2 0.323060 0.964042 0.846006
O O3 0.414022 0.076858 0.226305
O O4 0.177063 0.964183 0.155287
O O5 0.750241 0.149087 0.499793
O O6 0.500758 0.173435 0.956008
O O7 0.998716 0.326610 0.043970
O O8 0.249472 0.250000 0.500212
O O9 0.249840 0.250000 0.000482
#
# Coordination Sequence:
#
# PCOD9166909 Si02
#       5
#     4   4   4   2   2
#     4  10  24  42  72 110 144 180 246 298 362 430
#     4  11  24  45  74 104 145 189 243 293 370 423
#     4  11  24  45  74 104 145 189 243 293 370 423
#     4  12  29  49  74 105 150 192 246 300 357 430
#     4  12  29  49  74 105 150 192 246 300 357 430
#
# _framework density 23.988772999999998
#
# number of rings (size 3 to 8) (size 9 to 14) (size 15 to 20)
#    0.000    1.000    2.500    2.250    7.000    9.000 
#    0.000    0.000    0.000    0.000    0.000    0.000 
#    0.000    0.000    0.000    0.000    0.000    0.000 
#
# Total GULP energy -89519.702525 kJ/mol
# GULP energy per Si atom -5594.981408 kJ/mol
# Density = 2.393417 g / cm^3
# Si number density = 23.988773 Si / 1000 Ang^3
#
#
#
# Elastic Constant Matrix: (Units=GPa)
#
#
# Indices 1 2 3 4 5 6 
#
# 1 94.0623 27.4492 55.7915 0.0000 29.6139 0.0000
# 2 27.4492 131.0155 71.9712 0.0000 28.8970 0.0000
# 3 55.7915 71.9712 227.6679 0.0000 46.1731 0.0000
# 4 0.0000 0.0000 0.0000 175.7937 0.0000 293.6039
# 5 29.6139 28.8970 46.1731 0.0000 42.1655 0.0000
# 6 0.0000 0.0000 0.0000 293.6039 0.0000 624.7280
#
#
#
# Elastic Compliance Matrix: (Units=1/GPa)
#
#
# Indices 1 2 3 4 5 6 
#
# 1 0.014255 -0.000256 -0.001822 0.000000 -0.007841 0.000000
# 2 -0.000256 0.009806 -0.002199 0.000000 -0.004132 0.000000
# 3 -0.001822 -0.002199 0.006387 0.000000 -0.004208 0.000000
# 4 0.000000 0.000000 0.000000 0.026449 0.000000 -0.012430
# 5 -0.007841 -0.004132 -0.004208 0.000000 0.036663 0.000000
# 6 0.000000 0.000000 0.000000 -0.012430 0.000000 0.007443
#
#
# Mechanical properties :
#
#
# Convention : Reuss Voigt Hill
#
# Bulk Modulus (GPa) = 45.67519 84.79661 65.23590
# Shear Modulus (GPa) = 42.78789 188.37302 115.58045
#
# Velocity S-wave (km/s) = 4.22793 8.87107 6.94879
# Velocity P-wave (km/s) = 6.55098 11.84707 9.57258
#
# Compressibility (1/GPa) = 0.02189373
#
# Stress axis : x y z
#
# Youngs Moduli (GPa) = 70.14879 101.98106 156.55787
#
# Poissons Ratio (x) = 0.02614 0.28527
# Poissons Ratio (y) = 0.01798 0.34427
# Poissons Ratio (z) = 0.12782 0.22426
#
# Static dielectric constant tensor:
#      x y z
#    x 1.962510 0.000000 0.020190 
#    y 0.000000 1.895920 0.000000 
#    z 0.020190 0.000000 1.915940 
# 
# From -- ./inp_files/1830.got.cif
#   From: 2010.05.17/outbox.cif.g08.bks.cpg/sg11_1_cif.got.tgz:1830.got - 2010.06.03 12:22:45.
