data_PCOD9166186
_publ_section_title
;
Structure prediction by ZEFSAII (Michael W. Deem and Ramdas Pophale) SiO2 
 PCOD9166186
Probable space group: P 21/M
;
_chemical_formula_sum "Si O2"
_cell_formula_units_Z 24
_cell_length_a 17.420130
_cell_length_b 7.636881
_cell_length_c 7.292721
_cell_angle_alpha 90.000000
_cell_angle_beta 102.761373
_cell_angle_gamma 90.000000
_cell_volume 946.225325
_symmetry_space_group_name_H-M "P 21/M"
_symmetry_group_IT_number 11
_symmetry_cell_setting 'monoclinic'
loop_
_space_group_symop_operation_xyz
x,y,z
-x,1/2+y,-z
-x,-y,-z
x,1/2-y,z
loop_
_atom_site_type_symbol
_atom_site_label
_atom_site_fract_x
_atom_site_fract_y
_atom_site_fract_z
Si Si1 0.184834 0.036688 0.504146
Si Si2 0.021860 0.460083 0.299083
Si Si3 0.353124 0.454806 0.441920
Si Si4 0.860643 0.046561 0.101674
Si Si5 0.426660 0.958091 0.833804
Si Si6 0.696726 0.454308 0.958162
O O1 0.184414 0.250000 0.514829
O O2 0.270433 0.976983 0.483041
O O3 0.112378 0.980622 0.332965
O O4 0.164982 0.966249 0.696552
O O5 0.021788 0.250000 0.278238
O O6 0.948461 0.533292 0.142549
O O7 0.000000 0.500000 0.500000
O O8 0.343680 0.250000 0.404891
O O9 0.422357 0.481171 0.623131
O O10 0.359573 0.537044 0.246344
O O11 0.869041 0.250000 0.053446
O O12 0.783079 0.967413 0.965434
O O13 0.420169 0.750000 0.824677
O O14 0.349800 0.034705 0.896524
O O15 0.500000 0.000000 0.000000
O O16 0.710440 0.250000 0.005805
#
# Coordination Sequence:
#
# PCOD9166186 Si02
#       6
#     4   4   4   4   4   4
#     4   9  17  30  50  79 114 151 191 237 286 334
#     4   8  14  25  45  74 108 146 190 237 282 330
#     4  11  23  38  60  89 121 157 194 235 286 343
#     4   9  16  30  53  79 109 150 196 239 285 335
#     4  11  24  44  68  91 117 148 187 236 290 349
#     4  10  22  39  60  87 118 154 194 237 285 342
#
# _framework density 25.363935000000001
#
# number of rings (size 3 to 8) (size 9 to 14) (size 15 to 20)
#    0.000    2.333    1.667    1.000    0.000    3.333 
#    0.000    0.833    0.000    0.000    0.000    0.000 
#    0.000    0.000    0.000    0.000    0.000    0.000 
#
# Total GULP energy -134092.759951 kJ/mol
# GULP energy per Si atom -5587.198331 kJ/mol
# Density = 2.530621 g / cm^3
# Si number density = 25.363935 Si / 1000 Ang^3
#
#
#
# Elastic Constant Matrix: (Units=GPa)
#
#
# Indices 1 2 3 4 5 6 
#
# 1 55.8268 -0.5407 24.1903 0.0000 13.6800 0.0000
# 2 -0.5407 76.2573 -3.7051 0.0000 2.4330 0.0000
# 3 24.1903 -3.7051 126.8103 0.0000 32.3337 0.0000
# 4 0.0000 0.0000 0.0000 22.7222 0.0000 4.2057
# 5 13.6800 2.4330 32.3337 0.0000 47.1863 0.0000
# 6 0.0000 0.0000 0.0000 4.2057 0.0000 8.4996
#
#
#
# Elastic Compliance Matrix: (Units=1/GPa)
#
#
# Indices 1 2 3 4 5 6 
#
# 1 0.020096 0.000129 -0.002839 0.000000 -0.003888 0.000000
# 2 0.000129 0.013184 0.000659 0.000000 -0.001168 0.000000
# 3 -0.002839 0.000659 0.009991 0.000000 -0.006057 0.000000
# 4 0.000000 0.000000 0.000000 0.048447 0.000000 -0.023972
# 5 -0.003888 -0.001168 -0.006057 0.000000 0.026531 0.000000
# 6 0.000000 0.000000 0.000000 -0.023972 0.000000 0.129514
#
#
# Mechanical properties :
#
#
# Convention : Reuss Voigt Hill
#
# Bulk Modulus (GPa) = 25.53082 33.19816 29.36449
# Shear Modulus (GPa) = 18.87349 31.61162 25.24255
#
# Velocity S-wave (km/s) = 2.73079 3.53416 3.15812
# Velocity P-wave (km/s) = 4.47556 5.45627 4.99006
#
# Compressibility (1/GPa) = 0.03916835
#
# Stress axis : x y z
#
# Youngs Moduli (GPa) = 49.76005 75.85136 100.09060
#
# Poissons Ratio (x) = -0.00976 0.28411
# Poissons Ratio (y) = -0.00640 -0.06591
# Poissons Ratio (z) = 0.14125 -0.04995
#
# Static dielectric constant tensor:
#      x y z
#    x 2.074170 0.000000 0.051320 
#    y 0.000000 1.919440 0.000000 
#    z 0.051320 0.000000 1.907760 
# 
# From -- ./inp_files/25611.got.cif
#   From: 2010.05.17/outbox.cif.g08.bks.cpg/sg11_13_cif.got.tgz:25611.got - 2010.06.03 12:22:45.
