data_PCOD9166084
_publ_section_title
;
Structure prediction by ZEFSAII (Michael W. Deem and Ramdas Pophale) SiO2 
 PCOD9166084
Probable space group: P 21/M
;
_chemical_formula_sum "Si O2"
_cell_formula_units_Z 28
_cell_length_a 14.527387
_cell_length_b 8.778335
_cell_length_c 14.575226
_cell_angle_alpha 90.000000
_cell_angle_beta 119.702675
_cell_angle_gamma 90.000000
_cell_volume 1614.503422
_symmetry_space_group_name_H-M "P 21/M"
_symmetry_group_IT_number 11
_symmetry_cell_setting 'monoclinic'
loop_
_space_group_symop_operation_xyz
x,y,z
-x,1/2+y,-z
-x,-y,-z
x,1/2-y,z
loop_
_atom_site_type_symbol
_atom_site_label
_atom_site_fract_x
_atom_site_fract_y
_atom_site_fract_z
Si Si1 0.479203 0.569639 0.888443
Si Si2 0.901124 0.068749 0.508774
Si Si3 0.171072 0.573674 0.824273
Si Si4 0.288392 0.430087 0.047197
Si Si5 0.266810 0.070831 0.699816
Si Si6 0.887451 0.430994 0.910481
Si Si7 0.955388 0.429191 0.745220
O O1 0.461598 0.750000 0.891248
O O2 0.585895 0.548135 0.881171
O O3 0.378361 0.497726 0.788077
O O4 0.500000 0.500000 0.000000
O O5 0.904172 0.250000 0.497296
O O6 0.911517 0.036605 0.622421
O O7 0.791063 0.004305 0.415209
O O8 0.000000 0.000000 0.500000
O O9 0.180549 0.750000 0.803767
O O10 0.187723 0.468614 0.744461
O O11 0.057242 0.534895 0.809266
O O12 0.255911 0.524782 0.941319
O O13 0.269404 0.250000 0.021545
O O14 0.210695 0.488180 0.088119
O O15 0.276340 0.250000 0.692152
O O16 0.886228 0.250000 0.930538
O O17 0.882125 0.450393 0.797704
O O18 0.000000 0.500000 0.000000
O O19 0.987743 0.250000 0.762109
#
# Coordination Sequence:
#
# PCOD9166084 Si02
#       7
#     4   4   4   4   4   4   4
#     4  11  23  38  59  84 114 152 192 234 286 343
#     4  11  22  37  58  84 115 152 193 236 286 341
#     4  12  22  32  55  84 115 153 193 232 278 342
#     4  11  23  38  56  82 118 152 188 236 287 339
#     4  12  24  38  56  82 119 154 190 238 286 341
#     4  11  22  36  57  84 115 153 192 233 285 340
#     4  10  22  38  56  80 117 154 190 235 284 335
#
# _framework density 17.342794000000001
#
# number of rings (size 3 to 8) (size 9 to 14) (size 15 to 20)
#    0.000    0.857    4.286    4.286    0.000    2.857 
#    0.000    0.000    0.000    0.857    0.000    0.000 
#    0.000    0.000    0.000    0.000    0.000    0.000 
#
# Total GULP energy -156405.946795 kJ/mol
# GULP energy per Si atom -5585.926671 kJ/mol
# Density = 1.730332 g / cm^3
# Si number density = 17.342794 Si / 1000 Ang^3
#
#
#
# Elastic Constant Matrix: (Units=GPa)
#
#
# Indices 1 2 3 4 5 6 
#
# 1 87.1586 29.2909 31.5143 0.0000 3.1053 0.0000
# 2 29.2909 77.3498 40.2916 0.0000 6.9190 0.0000
# 3 31.5143 40.2916 100.7269 0.0000 5.6492 0.0000
# 4 0.0000 0.0000 0.0000 24.6498 0.0000 1.9804
# 5 3.1053 6.9190 5.6492 0.0000 28.4017 0.0000
# 6 0.0000 0.0000 0.0000 1.9804 0.0000 30.8322
#
#
#
# Elastic Compliance Matrix: (Units=1/GPa)
#
#
# Indices 1 2 3 4 5 6 
#
# 1 0.013745 -0.003743 -0.002801 0.000000 -0.000034 0.000000
# 2 -0.003743 0.017559 -0.005699 0.000000 -0.002735 0.000000
# 3 -0.002801 -0.005699 0.013136 0.000000 -0.000918 0.000000
# 4 0.000000 0.000000 0.000000 0.040779 0.000000 -0.002619
# 5 -0.000034 -0.002735 -0.000918 0.000000 0.036062 0.000000
# 6 0.000000 0.000000 0.000000 -0.002619 0.000000 0.032602
#
#
# Mechanical properties :
#
#
# Convention : Reuss Voigt Hill
#
# Bulk Modulus (GPa) = 50.11846 51.93655 51.02750
# Shear Modulus (GPa) = 27.02406 27.71931 27.37168
#
# Velocity S-wave (km/s) = 3.95172 4.00223 3.97706
# Velocity P-wave (km/s) = 7.05570 7.16723 7.11169
#
# Compressibility (1/GPa) = 0.01995273
#
# Stress axis : x y z
#
# Youngs Moduli (GPa) = 72.75225 56.95065 76.12897
#
# Poissons Ratio (x) = 0.21315 0.21327
# Poissons Ratio (y) = 0.27230 0.43389
# Poissons Ratio (z) = 0.20381 0.32458
#
# Static dielectric constant tensor:
#      x y z
#    x 1.593870 0.000000 -0.009470 
#    y 0.000000 1.589340 0.000000 
#    z -0.009470 0.000000 1.596530 
# 
# From -- ./inp_files/51099.got.cif
#   From: 2010.05.17/outbox.cif.g08.bks.cpg/sg11_26_cif.got.tgz:51099.got - 2010.06.03 12:22:45.
