data_PCOD9166834
_publ_section_title
;
Structure prediction by ZEFSAII (Michael W. Deem and Ramdas Pophale) SiO2 
 PCOD9166834
Probable space group: P 21/M
;
_chemical_formula_sum "Si O2"
_cell_formula_units_Z 26
_cell_length_a 10.485533
_cell_length_b 15.698650
_cell_length_c 7.985968
_cell_angle_alpha 90.000000
_cell_angle_beta 118.276342
_cell_angle_gamma 90.000000
_cell_volume 1157.697466
_symmetry_space_group_name_H-M "P 21/M"
_symmetry_group_IT_number 11
_symmetry_cell_setting 'monoclinic'
loop_
_space_group_symop_operation_xyz
x,y,z
-x,1/2+y,-z
-x,-y,-z
x,1/2-y,z
loop_
_atom_site_type_symbol
_atom_site_label
_atom_site_fract_x
_atom_site_fract_y
_atom_site_fract_z
Si Si1 0.543018 0.579646 0.137424
Si Si2 0.011854 0.424646 0.876749
Si Si3 0.293649 0.250000 0.492139
Si Si4 0.515140 0.100326 0.550392
Si Si5 0.772781 0.349076 0.483131
Si Si6 0.651483 0.750000 0.083048
Si Si7 0.118615 0.250000 0.076356
Si Si8 0.835985 0.001910 0.324375
O O1 0.435108 0.598284 0.223758
O O2 0.560583 0.663629 0.037500
O O3 0.700583 0.551470 0.314486
O O4 0.500000 0.500000 0.000000
O O5 0.142798 0.455705 0.839422
O O6 0.876091 0.402796 0.673469
O O7 0.038875 0.336765 0.985835
O O8 0.000000 0.500000 0.000000
O O9 0.382332 0.166827 0.484425
O O10 0.274039 0.250000 0.681852
O O11 0.152338 0.250000 0.293206
O O12 0.618471 0.140207 0.475026
O O13 0.500000 0.000000 0.500000
O O14 0.813627 0.250000 0.497608
O O15 0.787541 0.400332 0.318245
O O16 0.750511 0.750000 0.980485
O O17 0.000000 0.000000 0.500000
#
# Coordination Sequence:
#
# PCOD9166834 Si02
#       8
#     4   4   2   4   4   2   2   4
#     4  11  24  42  67 102 137 179 230 291 352 412
#     4  11  26  45  68 100 137 178 234 288 353 415
#     4  10  26  41  65 108 131 183 236 277 353 423
#     4  11  23  40  67  97 137 177 226 279 343 424
#     4  11  23  45  68  96 139 182 231 284 355 425
#     4  10  24  44  68  98 142 180 239 287 345 435
#     4  12  24  45  75  98 139 187 233 298 346 412
#     4  10  23  44  68  97 135 181 226 288 355 419
#
# _framework density 22.458371
#
# number of rings (size 3 to 8) (size 9 to 14) (size 15 to 20)
#    0.000    1.231    4.615    0.000    6.462    1.231 
#    2.769    0.000    0.000    0.000    0.000    0.000 
#    0.000    0.000    0.000    0.000    0.000    0.000 
#
# Total GULP energy -144940.777206 kJ/mol
# GULP energy per Si atom -5574.645277 kJ/mol
# Density = 2.240726 g / cm^3
# Si number density = 22.458371 Si / 1000 Ang^3
#
#
#
# Elastic Constant Matrix: (Units=GPa)
#
#
# Indices 1 2 3 4 5 6 
#
# 1 43.0658 11.1985 -1.5437 0.0000 -3.6290 0.0000
# 2 11.1985 177.0668 16.1510 0.0000 4.7204 0.0000
# 3 -1.5437 16.1510 41.7113 0.0000 2.9691 0.0000
# 4 0.0000 0.0000 0.0000 43.5688 0.0000 -3.1970
# 5 -3.6290 4.7204 2.9691 0.0000 15.5097 0.0000
# 6 0.0000 0.0000 0.0000 -3.1970 0.0000 11.6859
#
#
#
# Elastic Compliance Matrix: (Units=1/GPa)
#
#
# Indices 1 2 3 4 5 6 
#
# 1 0.024235 -0.001799 0.001167 0.000000 0.005995 0.000000
# 2 -0.001799 0.006017 -0.002267 0.000000 -0.001818 0.000000
# 3 0.001167 -0.002267 0.025170 0.000000 -0.003855 0.000000
# 4 0.000000 0.000000 0.000000 0.023422 0.000000 0.006408
# 5 0.005995 -0.001818 -0.003855 0.000000 0.067170 0.000000
# 6 0.000000 0.000000 0.000000 0.006408 0.000000 0.087326
#
#
# Mechanical properties :
#
#
# Convention : Reuss Voigt Hill
#
# Bulk Modulus (GPa) = 20.15181 34.82837 27.49009
# Shear Modulus (GPa) = 19.55574 29.88874 24.72224
#
# Velocity S-wave (km/s) = 2.95406 3.65204 3.32143
# Velocity P-wave (km/s) = 4.54177 5.77277 5.19387
#
# Compressibility (1/GPa) = 0.04962333
#
# Stress axis : x y z
#
# Youngs Moduli (GPa) = 41.26250 166.20689 39.73029
#
# Poissons Ratio (x) = 0.29900 -0.04636
# Poissons Ratio (y) = 0.07423 0.09006
# Poissons Ratio (z) = -0.04814 0.37677
#
# Static dielectric constant tensor:
#      x y z
#    x 1.906450 0.000000 0.006720 
#    y 0.000000 1.814480 0.000000 
#    z 0.006720 0.000000 1.973240 
# 
# From -- ./inp_files/17885.got.cif
#   From: 2010.05.17/outbox.cif.g08.bks.cpg/sg11_9_cif.got.tgz:17885.got - 2010.06.03 12:22:45.
