data_PCOD9166135
_publ_section_title
;
Structure prediction by ZEFSAII (Michael W. Deem and Ramdas Pophale) SiO2 
 PCOD9166135
Probable space group: P 21/M
;
_chemical_formula_sum "Si O2"
_cell_formula_units_Z 28
_cell_length_a 10.671716
_cell_length_b 17.927765
_cell_length_c 11.442261
_cell_angle_alpha 90.000000
_cell_angle_beta 150.219836
_cell_angle_gamma 90.000000
_cell_volume 1087.284646
_symmetry_space_group_name_H-M "P 21/M"
_symmetry_group_IT_number 11
_symmetry_cell_setting 'monoclinic'
loop_
_space_group_symop_operation_xyz
x,y,z
-x,1/2+y,-z
-x,-y,-z
x,1/2-y,z
loop_
_atom_site_type_symbol
_atom_site_label
_atom_site_fract_x
_atom_site_fract_y
_atom_site_fract_z
Si Si1 0.915695 0.436694 0.275620
Si Si2 0.540233 0.958383 0.240784
Si Si3 0.538734 0.927882 0.660710
Si Si4 0.169706 0.337428 0.631988
Si Si5 0.058987 0.336522 0.168581
Si Si6 0.814834 0.329332 0.737107
Si Si7 0.654908 0.667767 0.966343
O O1 0.163945 0.485253 0.510846
O O2 0.914874 0.378857 0.383120
O O3 0.988243 0.384063 0.224066
O O4 0.661758 0.475774 0.025392
O O5 0.611240 0.871949 0.273870
O O6 0.423019 0.987852 0.266936
O O7 0.738276 0.885887 0.739921
O O8 0.286985 0.907502 0.390162
O O9 0.512408 0.888026 0.765936
O O10 0.143723 0.250000 0.599470
O O11 0.261502 0.355158 0.836722
O O12 0.133336 0.250000 0.255133
O O13 0.837077 0.330181 0.893868
O O14 0.682285 0.250000 0.594941
O O15 0.086092 0.324198 0.896960
O O16 0.533627 0.750000 0.874859
#
# Coordination Sequence:
#
# PCOD9166135 Si02
#       7
#     4   4   4   4   4   4   4
#     4  10  24  45  60  92 121 167 213 258 305 379
#     4  10  26  42  65  93 129 167 213 247 324 369
#     4  11  22  38  61  91 131 166 202 264 309 386
#     4   9  21  41  64  90 124 164 215 264 312 369
#     4  10  22  38  63  90 123 165 213 262 313 366
#     4   9  19  35  59  91 121 161 207 257 319 370
#     4   9  19  37  62  93 123 162 211 262 313 367
#
# _framework density 25.752226
#
# number of rings (size 3 to 8) (size 9 to 14) (size 15 to 20)
#    0.857    1.429    0.000    2.571    6.000    4.000 
#    0.000    4.286    0.000    0.000    0.000    0.000 
#    0.000    0.000    0.000    0.000    0.000    0.000 
#
# Total GULP energy -156021.073362 kJ/mol
# GULP energy per Si atom -5572.181191 kJ/mol
# Density = 2.569361 g / cm^3
# Si number density = 25.752226 Si / 1000 Ang^3
#
#
#
# Elastic Constant Matrix: (Units=GPa)
#
#
# Indices 1 2 3 4 5 6 
#
# 1 106.9644 60.9305 17.9118 0.0000 -22.9720 0.0000
# 2 60.9305 108.3465 45.5872 0.0000 -22.3692 0.0000
# 3 17.9118 45.5872 133.6929 0.0000 -10.5080 0.0000
# 4 0.0000 0.0000 0.0000 19.9976 0.0000 11.5854
# 5 -22.9720 -22.3692 -10.5080 0.0000 29.3857 0.0000
# 6 0.0000 0.0000 0.0000 11.5854 0.0000 -8.7723
#
#
#
# Elastic Compliance Matrix: (Units=1/GPa)
#
#
# Indices 1 2 3 4 5 6 
#
# 1 0.014759 -0.007456 0.001055 0.000000 0.006240 0.000000
# 2 -0.007456 0.016197 -0.004129 0.000000 0.005025 0.000000
# 3 0.001055 -0.004129 0.008812 0.000000 0.000833 0.000000
# 4 0.000000 0.000000 0.000000 0.028330 0.000000 0.037415
# 5 0.006240 0.005025 0.000833 0.000000 0.043031 0.000000
# 6 0.000000 0.000000 0.000000 0.037415 0.000000 -0.064582
#
#
# Mechanical properties :
#
#
# Convention : Reuss Voigt Hill
#
# Bulk Modulus (GPa) = 53.44998 66.42922 59.93960
# Shear Modulus (GPa) = 67.71043 23.09380 45.40212
#
# Velocity S-wave (km/s) = 5.13324 2.99786 4.20341
# Velocity P-wave (km/s) = 7.47891 6.15097 6.84721
#
# Compressibility (1/GPa) = 0.01870908
#
# Stress axis : x y z
#
# Youngs Moduli (GPa) = 67.75322 61.73812 113.48307
#
# Poissons Ratio (x) = 0.46032 -0.11977
# Poissons Ratio (y) = 0.50517 0.46860
# Poissons Ratio (z) = -0.07151 0.25493
#
# Static dielectric constant tensor:
#      x y z
#    x 2.029440 0.000000 0.059710 
#    y 0.000000 2.173600 0.000000 
#    z 0.059710 0.000000 2.099800 
# 
# From -- ./inp_files/36423.got.cif
#   From: 2010.05.17/outbox.cif.g08.bks.cpg/sg11_19_cif.got.tgz:36423.got - 2010.06.03 12:22:45.
