data_PCOD9166904
_publ_section_title
;
Structure prediction by ZEFSAII (Michael W. Deem and Ramdas Pophale) SiO2 
 PCOD9166904
Probable space group: P 21/M
;
_chemical_formula_sum "Si O2"
_cell_formula_units_Z 30
_cell_length_a 8.413234
_cell_length_b 15.160682
_cell_length_c 12.311248
_cell_angle_alpha 90.000000
_cell_angle_beta 62.059882
_cell_angle_gamma 90.000000
_cell_volume 1387.266027
_symmetry_space_group_name_H-M "P 21/M"
_symmetry_group_IT_number 11
_symmetry_cell_setting 'monoclinic'
loop_
_space_group_symop_operation_xyz
x,y,z
-x,1/2+y,-z
-x,-y,-z
x,1/2-y,z
loop_
_atom_site_type_symbol
_atom_site_label
_atom_site_fract_x
_atom_site_fract_y
_atom_site_fract_z
Si Si1 0.555991 0.564843 0.254315
Si Si2 0.190842 0.040682 0.409452
Si Si3 0.811054 0.097114 0.139218
Si Si4 0.575015 0.652331 0.024087
Si Si5 0.133947 0.042022 0.188044
Si Si6 0.348742 0.152979 0.552872
Si Si7 0.159573 0.850538 0.106885
Si Si8 0.374756 0.750000 0.670518
O O1 0.357032 0.527004 0.341482
O O2 0.684999 0.487790 0.169577
O O3 0.551184 0.636331 0.160205
O O4 0.636080 0.600211 0.341276
O O5 0.161305 0.080607 0.299249
O O6 0.245483 0.105535 0.488662
O O7 0.000000 0.000000 0.500000
O O8 0.688751 0.174473 0.223527
O O9 0.963176 0.079218 0.179729
O O10 0.899557 0.122985 0.995869
O O11 0.655175 0.750000 0.978852
O O12 0.376786 0.650491 0.036543
O O13 0.694026 0.575293 0.934396
O O14 0.113696 0.935192 0.196398
O O15 0.268766 0.250000 0.598537
O O16 0.545776 0.174036 0.439704
O O17 0.102814 0.750000 0.152487
#
# Coordination Sequence:
#
# PCOD9166904 Si02
#       8
#     4   4   4   4   4   4   4   2
#     4  12  22  46  72  95 143 184 235 281 354 426
#     4  12  26  44  71 102 139 182 235 291 353 420
#     4  12  24  42  73  99 139 185 235 285 351 422
#     4  11  25  41  69 104 137 182 227 293 355 419
#     4  12  26  44  67 109 142 180 235 296 355 418
#     4  10  24  44  70  99 132 186 235 279 343 415
#     4  11  23  44  69  97 138 183 234 285 355 419
#     4  10  24  42  70 100 132 186 242 282 342 424
#
# _framework density 21.625268999999999
#
# number of rings (size 3 to 8) (size 9 to 14) (size 15 to 20)
#    0.400    0.267    4.667    3.200    2.800    0.533 
#    0.000    4.000    0.000    0.000    0.000    0.000 
#    0.000    0.000    0.000    0.000    0.000    0.000 
#
# Total GULP energy -167142.355299 kJ/mol
# GULP energy per Si atom -5571.411843 kJ/mol
# Density = 2.157605 g / cm^3
# Si number density = 21.625269 Si / 1000 Ang^3
#
#
#
# Elastic Constant Matrix: (Units=GPa)
#
#
# Indices 1 2 3 4 5 6 
#
# 1 81.0432 20.0294 40.0125 0.0000 29.0149 0.0000
# 2 20.0294 68.2388 -1.8105 0.0000 24.8628 0.0000
# 3 40.0125 -1.8105 54.3921 0.0000 17.8461 0.0000
# 4 0.0000 0.0000 0.0000 14.5945 0.0000 9.8314
# 5 29.0149 24.8628 17.8461 0.0000 32.0077 0.0000
# 6 0.0000 0.0000 0.0000 9.8314 0.0000 3.5009
#
#
#
# Elastic Compliance Matrix: (Units=1/GPa)
#
#
# Indices 1 2 3 4 5 6 
#
# 1 0.024297 -0.003301 -0.014195 0.000000 -0.011546 0.000000
# 2 -0.003301 0.023491 0.010055 0.000000 -0.020860 0.000000
# 3 -0.014195 0.010055 0.033661 0.000000 -0.013710 0.000000
# 4 0.000000 0.000000 0.000000 -0.076839 0.000000 0.215780
# 5 -0.011546 -0.020860 -0.013710 0.000000 0.065557 0.000000
# 6 0.000000 0.000000 0.000000 0.215780 0.000000 -0.320322
#
#
# Mechanical properties :
#
#
# Convention : Reuss Voigt Hill
#
# Bulk Modulus (GPa) = 15.02300 35.57075 25.29688
# Shear Modulus (GPa) = -23.46508 19.71682 -1.87413
#
# Velocity S-wave (km/s) = -3.29762 3.02279 -0.93194
# Velocity P-wave (km/s) = 2.74537 5.35420 3.25042
#
# Compressibility (1/GPa) = 0.06656462
#
# Stress axis : x y z
#
# Youngs Moduli (GPa) = 41.15676 42.57004 29.70834
#
# Poissons Ratio (x) = 0.14054 0.42172
# Poissons Ratio (y) = 0.13588 -0.29872
# Poissons Ratio (z) = 0.58424 -0.42804
#
# Static dielectric constant tensor:
#      x y z
#    x 1.786130 0.000000 -0.007460 
#    y 0.000000 15.901090 0.000000 
#    z -0.007460 0.000000 1.807250 
# 
# From -- ./inp_files/31844.got.cif
#   From: 2010.05.17/outbox.cif.g08.bks.cpg/sg11_16_cif.got.tgz:31844.got - 2010.06.03 12:22:45.
