data_PCOD9166166
_publ_section_title
;
Structure prediction by ZEFSAII (Michael W. Deem and Ramdas Pophale) SiO2 
 PCOD9166166
Probable space group: P 21/M
;
_chemical_formula_sum "Si O2"
_cell_formula_units_Z 32
_cell_length_a 7.994211
_cell_length_b 29.966550
_cell_length_c 11.148630
_cell_angle_alpha 90.000000
_cell_angle_beta 142.959929
_cell_angle_gamma 90.000000
_cell_volume 1608.791098
_symmetry_space_group_name_H-M "P 21/M"
_symmetry_group_IT_number 11
_symmetry_cell_setting 'monoclinic'
loop_
_space_group_symop_operation_xyz
x,y,z
-x,1/2+y,-z
-x,-y,-z
x,1/2-y,z
loop_
_atom_site_type_symbol
_atom_site_label
_atom_site_fract_x
_atom_site_fract_y
_atom_site_fract_z
Si Si1 0.263043 0.859244 0.530629
Si Si2 0.140150 0.927566 0.258136
Si Si3 0.621876 0.981608 0.946499
Si Si4 0.361070 0.638575 0.048299
Si Si5 0.113229 0.348781 0.048198
Si Si6 0.403234 0.058957 0.655557
Si Si7 0.807905 0.802207 0.158207
Si Si8 0.183438 0.908732 0.712916
O O1 0.156032 0.901850 0.392779
O O2 0.595356 0.855660 0.717237
O O3 0.102304 0.817505 0.382829
O O4 0.171792 0.867565 0.614820
O O5 0.446459 0.936730 0.385716
O O6 0.945078 0.970660 0.146116
O O7 0.001404 0.893539 0.082565
O O8 0.461978 0.935031 0.838328
O O9 0.538826 0.016641 0.798039
O O10 0.500000 0.000000 0.000000
O O11 0.134938 0.663477 0.002168
O O12 0.200581 0.609116 0.857150
O O13 0.525222 0.602970 0.224688
O O14 0.573938 0.669537 0.096070
O O15 0.176587 0.316003 0.973016
O O16 0.074374 0.058518 0.453834
O O17 0.758832 0.750000 0.143163
#
# Coordination Sequence:
#
# PCOD9166166 Si02
#       8
#     4   4   4   4   4   4   4   4
#     4  11  20  41  66  90 124 164 206 252 311 377
#     4  10  22  39  58  88 123 165 210 261 305 362
#     4  12  22  38  57  86 126 166 216 268 305 354
#     4  11  22  42  66  92 124 165 208 250 308 378
#     4  10  22  41  67  90 123 163 203 251 308 371
#     4  11  23  38  59  88 127 166 215 258 310 359
#     4  11  24  43  67  95 124 155 195 252 315 379
#     4  12  21  39  63  90 120 168 213 254 307 366
#
# _framework density 19.890711
#
# number of rings (size 3 to 8) (size 9 to 14) (size 15 to 20)
#    0.000    1.000    5.000    3.000    0.000    1.000 
#    0.000    1.250    0.000    0.000    0.000    0.000 
#    0.000    0.000    0.000    0.000    0.000    0.000 
#
# Total GULP energy -178762.594811 kJ/mol
# GULP energy per Si atom -5586.331088 kJ/mol
# Density = 1.984544 g / cm^3
# Si number density = 19.890711 Si / 1000 Ang^3
#
#
#
# Elastic Constant Matrix: (Units=GPa)
#
#
# Indices 1 2 3 4 5 6 
#
# 1 101.3938 13.0650 16.5654 0.0000 11.5216 0.0000
# 2 13.0650 45.6397 -5.4983 0.0000 -6.3989 0.0000
# 3 16.5654 -5.4983 69.1030 0.0000 12.5626 0.0000
# 4 0.0000 0.0000 0.0000 8.5174 0.0000 0.9333
# 5 11.5216 -6.3989 12.5626 0.0000 19.5668 0.0000
# 6 0.0000 0.0000 0.0000 0.9333 0.0000 11.4849
#
#
#
# Elastic Compliance Matrix: (Units=1/GPa)
#
#
# Indices 1 2 3 4 5 6 
#
# 1 0.011553 -0.004524 -0.001838 0.000000 -0.007102 0.000000
# 2 -0.004524 0.024752 0.001243 0.000000 0.009961 0.000000
# 3 -0.001838 0.001243 0.016688 0.000000 -0.009225 0.000000
# 4 0.000000 0.000000 0.000000 0.118462 0.000000 -0.009626
# 5 -0.007102 0.009961 -0.009225 0.000000 0.064469 0.000000
# 6 0.000000 0.000000 0.000000 -0.009626 0.000000 0.087853
#
#
# Mechanical properties :
#
#
# Convention : Reuss Voigt Hill
#
# Bulk Modulus (GPa) = 23.38965 29.37787 26.38376
# Shear Modulus (GPa) = 14.35682 20.71413 17.53547
#
# Velocity S-wave (km/s) = 2.68952 3.23057 2.97238
# Velocity P-wave (km/s) = 4.62918 5.35884 5.00732
#
# Compressibility (1/GPa) = 0.04275396
#
# Stress axis : x y z
#
# Youngs Moduli (GPa) = 86.55845 40.40044 59.92394
#
# Poissons Ratio (x) = 0.18279 0.11016
# Poissons Ratio (y) = 0.39162 -0.07450
# Poissons Ratio (z) = 0.15912 -0.05023
#
# Static dielectric constant tensor:
#      x y z
#    x 1.714360 0.000000 0.000350 
#    y 0.000000 1.729700 0.000000 
#    z 0.000350 0.000000 1.719100 
# 
# From -- ./inp_files/33228.got.cif
#   From: 2010.05.17/outbox.cif.g08.bks.cpg/sg11_17_cif.got.tgz:33228.got - 2010.06.03 12:22:45.
