data_PCOD9166455
_publ_section_title
;
Structure prediction by ZEFSAII (Michael W. Deem and Ramdas Pophale) SiO2 
 PCOD9166455
Probable space group: P 21/M
;
_chemical_formula_sum "Si O2"
_cell_formula_units_Z 32
_cell_length_a 11.937786
_cell_length_b 23.055777
_cell_length_c 5.501755
_cell_angle_alpha 90.000000
_cell_angle_beta 114.168205
_cell_angle_gamma 90.000000
_cell_volume 1381.545088
_symmetry_space_group_name_H-M "P 21/M"
_symmetry_group_IT_number 11
_symmetry_cell_setting 'monoclinic'
loop_
_space_group_symop_operation_xyz
x,y,z
-x,1/2+y,-z
-x,-y,-z
x,1/2-y,z
loop_
_atom_site_type_symbol
_atom_site_label
_atom_site_fract_x
_atom_site_fract_y
_atom_site_fract_z
Si Si1 0.173915 0.507877 0.102203
Si Si2 0.963843 0.183731 0.735771
Si Si3 0.219348 0.597929 0.546131
Si Si4 0.020515 0.093384 0.165575
Si Si5 0.823376 0.683933 0.405755
Si Si6 0.413082 0.540962 0.078742
Si Si7 0.540461 0.842711 0.226798
Si Si8 0.589738 0.313550 0.404955
O O1 0.167372 0.543776 0.349330
O O2 0.109278 0.446273 0.074750
O O3 0.318695 0.506418 0.168764
O O4 0.084344 0.546968 0.849049
O O5 0.924883 0.250000 0.718844
O O6 0.883612 0.145406 0.474740
O O7 0.107197 0.184655 0.790781
O O8 0.952305 0.144963 0.962942
O O9 0.312032 0.574299 0.827739
O O10 0.309879 0.636882 0.457808
O O11 0.112282 0.128582 0.415789
O O12 0.847668 0.750000 0.527857
O O13 0.680285 0.671855 0.290662
O O14 0.500000 0.500000 0.000000
O O15 0.505632 0.590400 0.251912
O O16 0.500759 0.813518 0.444926
O O17 0.470302 0.824732 0.914294
O O18 0.647375 0.250000 0.443418
#
# Coordination Sequence:
#
# PCOD9166455 Si02
#       8
#     4   4   4   4   4   4   4   4
#     4  10  22  43  62  97 125 170 223 278 342 400
#     4  10  22  41  65  95 125 168 220 277 340 405
#     4  10  22  41  65  92 130 168 224 280 338 403
#     4  10  23  39  68  91 129 168 218 278 341 406
#     4  11  24  41  62  94 131 173 220 276 339 410
#     4  11  25  41  64  94 132 178 224 282 336 410
#     4  11  26  43  66 100 137 183 230 282 346 410
#     4  11  22  43  68  97 133 179 229 285 344 409
#
# _framework density 23.162469999999999
#
# number of rings (size 3 to 8) (size 9 to 14) (size 15 to 20)
#    0.000    1.500    1.250    2.625    5.250    1.500 
#    0.000    3.750    0.000    0.000    0.000    0.000 
#    0.000    0.000    0.000    0.000    0.000    0.000 
#
# Total GULP energy -178403.007930 kJ/mol
# GULP energy per Si atom -5575.093998 kJ/mol
# Density = 2.310975 g / cm^3
# Si number density = 23.162470 Si / 1000 Ang^3
#
#
#
# Elastic Constant Matrix: (Units=GPa)
#
#
# Indices 1 2 3 4 5 6 
#
# 1 157.5366 36.2282 9.8697 0.0000 -0.1191 0.0000
# 2 36.2282 113.4709 10.5525 0.0000 2.4652 0.0000
# 3 9.8697 10.5525 52.1574 0.0000 -2.6887 0.0000
# 4 0.0000 0.0000 0.0000 35.9437 0.0000 -10.4145
# 5 -0.1191 2.4652 -2.6887 0.0000 21.4556 0.0000
# 6 0.0000 0.0000 0.0000 -10.4145 0.0000 36.2945
#
#
#
# Elastic Compliance Matrix: (Units=1/GPa)
#
#
# Indices 1 2 3 4 5 6 
#
# 1 0.006890 -0.002123 -0.000865 0.000000 0.000174 0.000000
# 2 -0.002123 0.009670 -0.001623 0.000000 -0.001326 0.000000
# 3 -0.000865 -0.001623 0.019802 0.000000 0.002663 0.000000
# 4 0.000000 0.000000 0.000000 0.030344 0.000000 0.008707
# 5 0.000174 -0.001326 0.002663 0.000000 0.047095 0.000000
# 6 0.000000 0.000000 0.000000 0.008707 0.000000 0.030051
#
#
# Mechanical properties :
#
#
# Convention : Reuss Voigt Hill
#
# Bulk Modulus (GPa) = 36.84646 48.49620 42.67133
# Shear Modulus (GPa) = 30.84082 36.50639 33.67361
#
# Velocity S-wave (km/s) = 3.65293 3.97432 3.81701
# Velocity P-wave (km/s) = 5.80812 6.48407 6.15538
#
# Compressibility (1/GPa) = 0.02713965
#
# Stress axis : x y z
#
# Youngs Moduli (GPa) = 145.13067 103.40758 50.49955
#
# Poissons Ratio (x) = 0.21956 0.04370
# Poissons Ratio (y) = 0.30814 0.08197
# Poissons Ratio (z) = 0.12559 0.16784
#
# Static dielectric constant tensor:
#      x y z
#    x 1.925880 0.000000 -0.039870 
#    y 0.000000 1.944380 0.000000 
#    z -0.039870 0.000000 1.952670 
# 
# From -- ./inp_files/5491.got.cif
#   From: 2010.05.17/outbox.cif.g08.bks.cpg/sg11_3_cif.got.tgz:5491.got - 2010.06.03 12:22:45.
