data_PCOD9166065
_publ_section_title
;
Structure prediction by ZEFSAII (Michael W. Deem and Ramdas Pophale) SiO2 
 PCOD9166065
Probable space group: P 21/M
;
_chemical_formula_sum "Si O2"
_cell_formula_units_Z 20
_cell_length_a 8.896218
_cell_length_b 21.698853
_cell_length_c 5.394412
_cell_angle_alpha 90.000000
_cell_angle_beta 100.737108
_cell_angle_gamma 90.000000
_cell_volume 1023.093867
_symmetry_space_group_name_H-M "P 21/M"
_symmetry_group_IT_number 11
_symmetry_cell_setting 'monoclinic'
loop_
_space_group_symop_operation_xyz
x,y,z
-x,1/2+y,-z
-x,-y,-z
x,1/2-y,z
loop_
_atom_site_type_symbol
_atom_site_label
_atom_site_fract_x
_atom_site_fract_y
_atom_site_fract_z
Si Si1 0.095055 0.951619 0.865405
Si Si2 0.337919 0.176901 0.807830
Si Si3 0.418814 0.581217 0.209451
Si Si4 0.313299 0.497561 0.567382
Si Si5 0.798132 0.881095 0.730173
O O1 0.154178 0.988423 0.645504
O O2 0.978609 0.895588 0.788701
O O3 0.257958 0.929520 0.026422
O O4 0.000000 0.000000 0.000000
O O5 0.343617 0.250000 0.832750
O O6 0.505939 0.146706 0.822358
O O7 0.247925 0.157405 0.528877
O O8 0.260346 0.148296 0.031567
O O9 0.378734 0.561010 0.479050
O O10 0.564624 0.535357 0.216380
O O11 0.282117 0.447683 0.342035
#
# Coordination Sequence:
#
# PCOD9166065 Si02
#       5
#     4   4   4   4   4
#     4  12  22  36  62 102 140 166 197 265 343 409
#     4  11  26  48  66  86 122 180 234 269 306 379
#     4  10  23  36  65  93 132 169 208 260 322 389
#     4  10  22  37  61 101 135 166 201 263 330 404
#     4  11  24  41  69  95 130 168 211 267 335 385
#
# _framework density 19.548546000000002
#
# number of rings (size 3 to 8) (size 9 to 14) (size 15 to 20)
#    0.000    1.200    2.000    4.200   11.200    0.000 
#    0.000    2.000    0.000    0.000    0.000    0.000 
#    0.000    0.000    0.000    0.000    0.000    0.000 
#
# Total GULP energy -111518.426669 kJ/mol
# GULP energy per Si atom -5575.921333 kJ/mol
# Density = 1.950405 g / cm^3
# Si number density = 19.548546 Si / 1000 Ang^3
#
#
#
# Elastic Constant Matrix: (Units=GPa)
#
#
# Indices 1 2 3 4 5 6 
#
# 1 180.0269 81.6975 68.4018 0.0000 10.3857 0.0000
# 2 81.6975 114.6255 69.4848 0.0000 -13.8307 0.0000
# 3 68.4018 69.4848 110.2370 0.0000 -4.8398 0.0000
# 4 0.0000 0.0000 0.0000 27.3390 0.0000 -2.9439
# 5 10.3857 -13.8307 -4.8398 0.0000 57.3161 0.0000
# 6 0.0000 0.0000 0.0000 -2.9439 0.0000 21.9515
#
#
#
# Elastic Compliance Matrix: (Units=1/GPa)
#
#
# Indices 1 2 3 4 5 6 
#
# 1 0.009101 -0.005439 -0.002358 0.000000 -0.003161 0.000000
# 2 -0.005439 0.017787 -0.007633 0.000000 0.004633 0.000000
# 3 -0.002358 -0.007633 0.015340 0.000000 -0.000119 0.000000
# 4 0.000000 0.000000 0.000000 0.037114 0.000000 0.004977
# 5 -0.003161 0.004633 -0.000119 0.000000 0.019128 0.000000
# 6 0.000000 0.000000 0.000000 0.004977 0.000000 0.046223
#
#
# Mechanical properties :
#
#
# Convention : Reuss Voigt Hill
#
# Bulk Modulus (GPa) = 87.96033 93.78418 90.87226
# Shear Modulus (GPa) = 27.87985 33.67499 30.77742
#
# Velocity S-wave (km/s) = 3.78058 4.15497 3.97219
# Velocity P-wave (km/s) = 8.00941 8.43193 8.22338
#
# Compressibility (1/GPa) = 0.01136876
#
# Stress axis : x y z
#
# Youngs Moduli (GPa) = 109.87769 56.22228 65.18695
#
# Poissons Ratio (x) = 0.30578 0.15370
# Poissons Ratio (y) = 0.59759 0.49758
# Poissons Ratio (z) = 0.25907 0.42915
#
# Static dielectric constant tensor:
#      x y z
#    x 1.701920 0.000000 0.024220 
#    y 0.000000 1.681900 0.000000 
#    z 0.024220 0.000000 1.809350 
# 
# From -- ./inp_files/2391.got.cif
#   From: 2010.05.17/outbox.cif.g08.bks.cpg/sg11_2_cif.got.tgz:2391.got - 2010.06.03 12:22:45.
