data_PCOD9166732
_publ_section_title
;
Structure prediction by ZEFSAII (Michael W. Deem and Ramdas Pophale) SiO2 
 PCOD9166732
Probable space group: P 21/M
;
_chemical_formula_sum "Si O2"
_cell_formula_units_Z 32
_cell_length_a 9.499578
_cell_length_b 27.308838
_cell_length_c 11.635027
_cell_angle_alpha 90.000000
_cell_angle_beta 26.574028
_cell_angle_gamma 90.000000
_cell_volume 1350.286691
_symmetry_space_group_name_H-M "P 21/M"
_symmetry_group_IT_number 11
_symmetry_cell_setting 'monoclinic'
loop_
_space_group_symop_operation_xyz
x,y,z
-x,1/2+y,-z
-x,-y,-z
x,1/2-y,z
loop_
_atom_site_type_symbol
_atom_site_label
_atom_site_fract_x
_atom_site_fract_y
_atom_site_fract_z
Si Si1 0.398885 0.956984 0.659836
Si Si2 0.266985 0.606958 0.264358
Si Si3 0.409682 0.197448 0.086181
Si Si4 0.366106 0.693781 0.828784
Si Si5 0.695179 0.646757 0.368577
Si Si6 0.135577 0.445431 0.094749
Si Si7 0.839119 0.152941 0.415151
Si Si8 0.885279 0.977896 0.464144
O O1 0.593139 0.909036 0.475389
O O2 0.518948 0.971922 0.698363
O O3 0.025803 0.951229 0.911792
O O4 0.500000 0.000000 0.500000
O O5 0.165890 0.635521 0.450364
O O6 0.015627 0.577059 0.375942
O O7 0.419480 0.647860 0.074247
O O8 0.504940 0.566744 0.144781
O O9 0.570672 0.250000 0.944379
O O10 0.402219 0.193936 0.229964
O O11 0.093283 0.195704 0.240418
O O12 0.253453 0.750000 0.897052
O O13 0.555848 0.677121 0.577955
O O14 0.060969 0.659392 0.077442
O O15 0.493426 0.661930 0.402211
O O16 0.978670 0.394000 0.247995
O O17 0.034190 0.488286 0.256085
O O18 0.000000 0.000000 0.500000
#
# Coordination Sequence:
#
# PCOD9166732 Si02
#       8
#     4   4   4   4   4   4   4   4
#     4   9  21  40  63  95 136 179 231 276 342 404
#     4  11  22  39  68  96 130 175 222 274 344 409
#     4  10  25  44  67  97 130 172 223 288 349 411
#     4  11  26  47  72 102 136 177 233 289 350 417
#     4  11  25  46  72 100 141 184 231 290 344 412
#     4   9  20  40  59  89 132 169 222 274 329 396
#     4  10  23  41  65  94 132 175 224 280 338 411
#     4  11  20  36  64  94 132 174 219 275 334 405
#
# _framework density 23.698671000000001
#
# number of rings (size 3 to 8) (size 9 to 14) (size 15 to 20)
#    0.000    1.750    1.250    1.500    8.750    1.500 
#    0.000    3.750    0.000    0.000    0.000    0.000 
#    0.000    0.000    0.000    0.000    0.000    0.000 
#
# Total GULP energy -178661.514634 kJ/mol
# GULP energy per Si atom -5583.172332 kJ/mol
# Density = 2.364473 g / cm^3
# Si number density = 23.698671 Si / 1000 Ang^3
#
#
#
# Elastic Constant Matrix: (Units=GPa)
#
#
# Indices 1 2 3 4 5 6 
#
# 1 150.6293 38.1397 19.0999 0.0000 -14.1195 0.0000
# 2 38.1397 134.4322 19.2585 0.0000 -30.5925 0.0000
# 3 19.0999 19.2585 58.4953 0.0000 -31.2052 0.0000
# 4 0.0000 0.0000 0.0000 17.8770 0.0000 -2.9552
# 5 -14.1195 -30.5925 -31.2052 0.0000 81.6251 0.0000
# 6 0.0000 0.0000 0.0000 -2.9552 0.0000 33.5255
#
#
#
# Elastic Compliance Matrix: (Units=1/GPa)
#
#
# Indices 1 2 3 4 5 6 
#
# 1 0.007329 -0.001843 -0.001857 0.000000 -0.000133 0.000000
# 2 -0.001843 0.008678 -0.000867 0.000000 0.002602 0.000000
# 3 -0.001857 -0.000867 0.022162 0.000000 0.007826 0.000000
# 4 0.000000 0.000000 0.000000 0.056765 0.000000 0.005004
# 5 -0.000133 0.002602 0.007826 0.000000 0.016195 0.000000
# 6 0.000000 0.000000 0.000000 0.005004 0.000000 0.030269
#
#
# Mechanical properties :
#
#
# Convention : Reuss Voigt Hill
#
# Bulk Modulus (GPa) = 34.44243 55.17254 44.80749
# Shear Modulus (GPa) = 31.20874 44.40942 37.80908
#
# Velocity S-wave (km/s) = 3.63285 4.33358 3.99859
# Velocity P-wave (km/s) = 5.67114 6.95494 6.34559
#
# Compressibility (1/GPa) = 0.02903395
#
# Stress axis : x y z
#
# Youngs Moduli (GPa) = 136.45222 115.23298 45.12161
#
# Poissons Ratio (x) = 0.21243 0.08379
# Poissons Ratio (y) = 0.25154 0.03912
# Poissons Ratio (z) = 0.25340 0.09991
#
# Static dielectric constant tensor:
#      x y z
#    x 1.917340 0.000000 -0.037720 
#    y 0.000000 2.014510 0.000000 
#    z -0.037720 0.000000 1.946570 
# 
# From -- ./inp_files/33196.got.cif
#   From: 2010.05.17/outbox.cif.g08.bks.cpg/sg11_17_cif.got.tgz:33196.got - 2010.06.03 12:22:45.
