data_PCOD9166622
_publ_section_title
;
Structure prediction by ZEFSAII (Michael W. Deem and Ramdas Pophale) SiO2 
 PCOD9166622
Probable space group: P 21/M
;
_chemical_formula_sum "Si O2"
_cell_formula_units_Z 30
_cell_length_a 7.586072
_cell_length_b 15.670122
_cell_length_c 10.137772
_cell_angle_alpha 90.000000
_cell_angle_beta 93.662464
_cell_angle_gamma 90.000000
_cell_volume 1202.663091
_symmetry_space_group_name_H-M "P 21/M"
_symmetry_group_IT_number 11
_symmetry_cell_setting 'monoclinic'
loop_
_space_group_symop_operation_xyz
x,y,z
-x,1/2+y,-z
-x,-y,-z
x,1/2-y,z
loop_
_atom_site_type_symbol
_atom_site_label
_atom_site_fract_x
_atom_site_fract_y
_atom_site_fract_z
Si Si1 0.700765 0.349805 0.508382
Si Si2 0.676395 0.250000 0.158146
Si Si3 0.046320 0.105391 0.366112
Si Si4 0.923797 0.424223 0.755193
Si Si5 0.454191 0.049279 0.828641
Si Si6 0.774500 0.652385 0.367243
Si Si7 0.249507 0.586943 0.975780
Si Si8 0.412564 0.118408 0.288260
O O1 0.673251 0.250000 0.533808
O O2 0.772283 0.395429 0.642519
O O3 0.523864 0.384982 0.431088
O O4 0.861097 0.354187 0.405642
O O5 0.536502 0.177855 0.207656
O O6 0.799522 0.171812 0.105361
O O7 0.148481 0.095633 0.510714
O O8 0.209802 0.147416 0.293984
O O9 0.014407 0.016597 0.292947
O O10 0.876711 0.427505 0.905972
O O11 0.073438 0.353984 0.735584
O O12 0.389663 0.109673 0.710085
O O13 0.562102 0.103007 0.940439
O O14 0.578378 0.974511 0.777157
O O15 0.295968 0.996841 0.892070
O O16 0.751495 0.750000 0.409584
#
# Coordination Sequence:
#
# PCOD9166622 Si02
#       8
#     4   2   4   4   4   4   4   4
#     4  11  24  39  64 102 135 167 214 275 339 405
#     4  10  24  40  66  94 130 168 226 284 320 396
#     4  11  23  41  67 100 135 174 216 277 338 405
#     4  11  22  42  66  95 131 177 214 274 341 401
#     4  10  22  44  62  92 126 169 230 271 326 400
#     4  11  25  41  64 100 141 169 221 281 333 408
#     4  10  23  41  69  88 127 175 224 280 325 392
#     4  11  22  43  69  96 128 175 224 272 337 404
#
# _framework density 24.944641000000001
#
# number of rings (size 3 to 8) (size 9 to 14) (size 15 to 20)
#    0.000    1.333    2.000    4.800    6.533    1.600 
#    0.000    0.000    2.933    0.000    0.000    0.000 
#    0.000    0.000    0.000    0.000    0.000    0.000 
#
# Total GULP energy -167258.253213 kJ/mol
# GULP energy per Si atom -5575.275107 kJ/mol
# Density = 2.488787 g / cm^3
# Si number density = 24.944641 Si / 1000 Ang^3
#
#
#
# Elastic Constant Matrix: (Units=GPa)
#
#
# Indices 1 2 3 4 5 6 
#
# 1 108.2067 4.2381 12.8111 0.0000 -10.6976 0.0000
# 2 4.2381 46.6750 5.8009 0.0000 -18.8277 0.0000
# 3 12.8111 5.8009 79.3230 0.0000 -19.2696 0.0000
# 4 0.0000 0.0000 0.0000 -0.9270 0.0000 -12.5066
# 5 -10.6976 -18.8277 -19.2696 0.0000 52.7221 0.0000
# 6 0.0000 0.0000 0.0000 -12.5066 0.0000 22.7861
#
#
#
# Elastic Compliance Matrix: (Units=1/GPa)
#
#
# Indices 1 2 3 4 5 6 
#
# 1 0.009530 -0.000131 -0.001176 0.000000 0.001457 0.000000
# 2 -0.000131 0.025042 0.000391 0.000000 0.009059 0.000000
# 3 -0.001176 0.000391 0.013986 0.000000 0.005013 0.000000
# 4 0.000000 0.000000 0.000000 -0.128345 0.000000 -0.070445
# 5 0.001457 0.009059 0.005013 0.000000 0.024330 0.000000
# 6 0.000000 0.000000 0.000000 -0.070445 0.000000 0.005221
#
#
# Mechanical properties :
#
#
# Convention : Reuss Voigt Hill
#
# Bulk Modulus (GPa) = 21.40184 31.10055 26.25119
# Shear Modulus (GPa) = -152.31121 29.00655 -61.65233
#
# Velocity S-wave (km/s) = -7.82255 3.41374 -4.97688
# Velocity P-wave (km/s) = 8.54349 5.29462 4.74122
#
# Compressibility (1/GPa) = 0.04672496
#
# Stress axis : x y z
#
# Youngs Moduli (GPa) = 104.93232 39.93243 71.50168
#
# Poissons Ratio (x) = 0.00525 0.08406
# Poissons Ratio (y) = 0.01379 -0.02792
# Poissons Ratio (z) = 0.12336 -0.01560
#
# Static dielectric constant tensor:
#      x y z
#    x 2.070180 0.000000 -0.051690 
#    y 0.000000 1.926920 0.000000 
#    z -0.051690 0.000000 2.033950 
# 
# From -- ./inp_files/31694.got.cif
#   From: 2010.05.17/outbox.cif.g08.bks.cpg/sg11_16_cif.got.tgz:31694.got - 2010.06.03 12:22:45.
