data_PCOD9166266
_publ_section_title
;
Structure prediction by ZEFSAII (Michael W. Deem and Ramdas Pophale) SiO2 
 PCOD9166266
Probable space group: P 21/M
;
_chemical_formula_sum "Si O2"
_cell_formula_units_Z 28
_cell_length_a 15.147702
_cell_length_b 7.821775
_cell_length_c 12.586085
_cell_angle_alpha 90.000000
_cell_angle_beta 48.521762
_cell_angle_gamma 90.000000
_cell_volume 1117.235577
_symmetry_space_group_name_H-M "P 21/M"
_symmetry_group_IT_number 11
_symmetry_cell_setting 'monoclinic'
loop_
_space_group_symop_operation_xyz
x,y,z
-x,1/2+y,-z
-x,-y,-z
x,1/2-y,z
loop_
_atom_site_type_symbol
_atom_site_label
_atom_site_fract_x
_atom_site_fract_y
_atom_site_fract_z
Si Si1 0.893063 0.443805 0.513478
Si Si2 0.964989 0.552341 0.814438
Si Si3 0.281803 0.448528 0.076979
Si Si4 0.349110 0.948320 0.803945
Si Si5 0.816982 0.460130 0.246312
Si Si6 0.647348 0.559130 0.757390
Si Si7 0.595955 0.052515 0.564700
O O1 0.855161 0.250000 0.568706
O O2 0.941144 0.444584 0.356524
O O3 0.786659 0.566292 0.622943
O O4 0.000000 0.500000 0.500000
O O5 0.935641 0.750000 0.865587
O O6 0.050503 0.475604 0.836505
O O7 0.845074 0.476038 0.859672
O O8 0.260206 0.250000 0.123123
O O9 0.351228 0.518731 0.124470
O O10 0.355565 0.457834 0.910778
O O11 0.330870 0.750000 0.841736
O O12 0.238669 0.010132 0.822281
O O13 0.470337 0.966240 0.642521
O O14 0.821885 0.250000 0.246329
O O15 0.714448 0.513846 0.412521
O O16 0.593970 0.750000 0.799139
O O17 0.607685 0.462810 0.683088
O O18 0.586404 0.250000 0.542745
#
# Coordination Sequence:
#
# PCOD9166266 Si02
#       7
#     4   4   4   4   4   4   4
#     4  11  19  32  56  87 123 160 195 241 299 355
#     4   9  17  34  59  87 119 155 191 233 292 353
#     4  10  22  40  60  84 121 165 198 232 291 362
#     4  11  24  41  60  85 119 157 202 253 292 342
#     4   9  19  37  63  91 118 151 193 246 304 352
#     4  11  22  37  59  91 123 154 196 248 299 353
#     4  11  22  40  66  90 115 154 198 245 307 364
#
# _framework density 25.061858000000001
#
# number of rings (size 3 to 8) (size 9 to 14) (size 15 to 20)
#    0.000    1.714    2.857    2.143    0.000    2.286 
#    0.000    2.143    0.000    0.000    0.000    0.000 
#    0.000    0.000    0.000    0.000    0.000    0.000 
#
# Total GULP energy -156358.763164 kJ/mol
# GULP energy per Si atom -5584.241542 kJ/mol
# Density = 2.500482 g / cm^3
# Si number density = 25.061858 Si / 1000 Ang^3
#
#
#
# Elastic Constant Matrix: (Units=GPa)
#
#
# Indices 1 2 3 4 5 6 
#
# 1 57.1860 -5.1234 2.9449 0.0000 4.6789 0.0000
# 2 -5.1234 59.7080 6.3658 0.0000 2.4151 0.0000
# 3 2.9449 6.3658 81.3809 0.0000 14.1576 0.0000
# 4 0.0000 0.0000 0.0000 19.5076 0.0000 -6.9958
# 5 4.6789 2.4151 14.1576 0.0000 41.5717 0.0000
# 6 0.0000 0.0000 0.0000 -6.9958 0.0000 8.2895
#
#
#
# Elastic Compliance Matrix: (Units=1/GPa)
#
#
# Indices 1 2 3 4 5 6 
#
# 1 0.017817 0.001654 -0.000434 0.000000 -0.001954 0.000000
# 2 0.001654 0.017055 -0.001264 0.000000 -0.000746 0.000000
# 3 -0.000434 -0.001264 0.013161 0.000000 -0.004360 0.000000
# 4 0.000000 0.000000 0.000000 0.073510 0.000000 0.062038
# 5 -0.001954 -0.000746 -0.004360 0.000000 0.025803 0.000000
# 6 0.000000 0.000000 0.000000 0.062038 0.000000 0.172991
#
#
# Mechanical properties :
#
#
# Convention : Reuss Voigt Hill
#
# Bulk Modulus (GPa) = 20.85733 22.96107 21.90920
# Shear Modulus (GPa) = 14.86293 26.81292 20.83792
#
# Velocity S-wave (km/s) = 2.43790 3.27443 2.88663
# Velocity P-wave (km/s) = 4.03298 4.84536 4.45772
#
# Compressibility (1/GPa) = 0.04794476
#
# Stress axis : x y z
#
# Youngs Moduli (GPa) = 56.12557 58.63360 75.98237
#
# Poissons Ratio (x) = -0.09699 0.03300
# Poissons Ratio (y) = -0.09284 0.09605
# Poissons Ratio (z) = 0.02437 0.07412
#
# Static dielectric constant tensor:
#      x y z
#    x 2.068760 0.000000 0.062180 
#    y 0.000000 1.919000 0.000000 
#    z 0.062180 0.000000 1.898060 
# 
# From -- ./inp_files/37886.got.cif
#   From: 2010.05.17/outbox.cif.g08.bks.cpg/sg11_19_cif.got.tgz:37886.got - 2010.06.03 12:22:45.
