data_PCOD9166987
_publ_section_title
;
Structure prediction by ZEFSAII (Michael W. Deem and Ramdas Pophale) SiO2 
 PCOD9166987
Probable space group: P 21/M
;
_chemical_formula_sum "Si O2"
_cell_formula_units_Z 24
_cell_length_a 9.192144
_cell_length_b 17.344056
_cell_length_c 13.850285
_cell_angle_alpha 90.000000
_cell_angle_beta 29.025144
_cell_angle_gamma 90.000000
_cell_volume 1071.373939
_symmetry_space_group_name_H-M "P 21/M"
_symmetry_group_IT_number 11
_symmetry_cell_setting 'monoclinic'
loop_
_space_group_symop_operation_xyz
x,y,z
-x,1/2+y,-z
-x,-y,-z
x,1/2-y,z
loop_
_atom_site_type_symbol
_atom_site_label
_atom_site_fract_x
_atom_site_fract_y
_atom_site_fract_z
Si Si1 0.798188 0.606624 0.998950
Si Si2 0.662498 0.526682 0.678621
Si Si3 0.424005 0.750000 0.292048
Si Si4 0.484837 0.874012 0.630733
Si Si5 0.264216 0.250000 0.366173
Si Si6 0.555556 0.591614 0.943306
Si Si7 0.378504 0.250000 0.606556
Si Si8 0.288789 0.750000 0.064106
O O1 0.807664 0.610408 0.876595
O O2 0.131315 0.612376 0.846041
O O3 0.605818 0.533316 0.144843
O O4 0.603407 0.677237 0.148988
O O5 0.637958 0.547818 0.578907
O O6 0.619246 0.587200 0.792638
O O7 0.000000 0.500000 0.500000
O O8 0.452834 0.750000 0.390619
O O9 0.088340 0.750000 0.447246
O O10 0.622791 0.819230 0.632425
O O11 0.541331 0.827342 0.500223
O O12 0.425668 0.250000 0.170396
O O13 0.319429 0.664141 0.096399
O O14 0.500000 0.500000 0.000000
O O15 0.016689 0.250000 0.819892
#
# Coordination Sequence:
#
# PCOD9166987 Si02
#       8
#     4   4   2   4   2   4   2   2
#     4  11  25  44  72 100 144 190 238 307 365 438
#     4  11  24  45  72 105 146 190 244 304 374 449
#     4  12  26  47  67 105 139 185 247 298 377 432
#     4  11  24  45  66 105 140 183 242 295 369 443
#     4  11  24  41  72  96 138 186 243 300 366 444
#     4  10  25  43  74 108 146 189 253 296 377 440
#     4  11  29  42  72 104 143 185 252 308 368 456
#     4  12  23  44  75  97 146 200 236 308 379 432
#
# _framework density 22.401143000000001
#
# number of rings (size 3 to 8) (size 9 to 14) (size 15 to 20)
#    0.000    1.000    1.667    4.000   11.667    0.000 
#    0.000    1.667    0.000    0.000    0.000    0.000 
#    0.000    0.000    0.000    0.000    0.000    0.000 
#
# Total GULP energy -133684.377424 kJ/mol
# GULP energy per Si atom -5570.182393 kJ/mol
# Density = 2.235016 g / cm^3
# Si number density = 22.401143 Si / 1000 Ang^3
#
#
#
# Elastic Constant Matrix: (Units=GPa)
#
#
# Indices 1 2 3 4 5 6 
#
# 1 153.1264 54.3686 45.5017 0.0000 -23.9374 0.0000
# 2 54.3686 92.3017 34.3240 0.0000 -4.7294 0.0000
# 3 45.5017 34.3240 93.5944 0.0000 -40.6979 0.0000
# 4 0.0000 0.0000 0.0000 29.8443 0.0000 0.5345
# 5 -23.9374 -4.7294 -40.6979 0.0000 57.6607 0.0000
# 6 0.0000 0.0000 0.0000 0.5345 0.0000 40.3989
#
#
#
# Elastic Compliance Matrix: (Units=1/GPa)
#
#
# Indices 1 2 3 4 5 6 
#
# 1 0.009000 -0.004522 -0.001809 0.000000 0.002089 0.000000
# 2 -0.004522 0.015240 -0.005286 0.000000 -0.004358 0.000000
# 3 -0.001809 -0.005286 0.018738 0.000000 0.012041 0.000000
# 4 0.000000 0.000000 0.000000 0.033515 0.000000 -0.000443
# 5 0.002089 -0.004358 0.012041 0.000000 0.026351 0.000000
# 6 0.000000 0.000000 0.000000 -0.000443 0.000000 0.024759
#
#
# Mechanical properties :
#
#
# Convention : Reuss Voigt Hill
#
# Bulk Modulus (GPa) = 50.64453 67.49011 59.06732
# Shear Modulus (GPa) = 31.76270 39.23600 35.49935
#
# Velocity S-wave (km/s) = 3.76959 4.18965 3.98516
# Velocity P-wave (km/s) = 6.45008 7.32104 6.89932
#
# Compressibility (1/GPa) = 0.01974547
#
# Stress axis : x y z
#
# Youngs Moduli (GPa) = 111.11089 65.61846 53.36707
#
# Poissons Ratio (x) = 0.29670 0.09654
# Poissons Ratio (y) = 0.50239 0.28207
# Poissons Ratio (z) = 0.20101 0.34683
#
# Static dielectric constant tensor:
#      x y z
#    x 1.824960 0.000000 0.055140 
#    y 0.000000 2.054700 0.000000 
#    z 0.055140 0.000000 1.802240 
# 
# From -- ./inp_files/47974.got.cif
#   From: 2010.05.17/outbox.cif.g08.bks.cpg/sg11_24_cif.got.tgz:47974.got - 2010.06.03 12:22:45.
