data_PCOD9166032
_publ_section_title
;
Structure prediction by ZEFSAII (Michael W. Deem and Ramdas Pophale) SiO2 
 PCOD9166032
Probable space group: P 21/M
;
_chemical_formula_sum "Si O2"
_cell_formula_units_Z 24
_cell_length_a 5.008889
_cell_length_b 22.685359
_cell_length_c 13.200424
_cell_angle_alpha 90.000000
_cell_angle_beta 126.585704
_cell_angle_gamma 90.000000
_cell_volume 1204.404080
_symmetry_space_group_name_H-M "P 21/M"
_symmetry_group_IT_number 11
_symmetry_cell_setting 'monoclinic'
loop_
_space_group_symop_operation_xyz
x,y,z
-x,1/2+y,-z
-x,-y,-z
x,1/2-y,z
loop_
_atom_site_type_symbol
_atom_site_label
_atom_site_fract_x
_atom_site_fract_y
_atom_site_fract_z
Si Si1 0.527357 0.179990 0.495334
Si Si2 0.444668 0.429533 0.101610
Si Si3 0.293238 0.058687 0.835051
Si Si4 0.765967 0.880146 0.370818
Si Si5 0.195326 0.389560 0.245354
Si Si6 0.451099 0.509018 0.371739
O O1 0.557180 0.250000 0.506117
O O2 0.401325 0.155520 0.575129
O O3 0.306683 0.161366 0.347559
O O4 0.876415 0.148111 0.557989
O O5 0.471400 0.500693 0.128297
O O6 0.230540 0.390416 0.131468
O O7 0.823679 0.407301 0.190906
O O8 0.325958 0.424071 0.959328
O O9 0.377567 0.111158 0.775607
O O10 0.908615 0.039214 0.730542
O O11 0.739127 0.948171 0.398809
O O12 0.439670 0.444503 0.322710
O O13 0.500000 0.500000 0.500000
#
# Coordination Sequence:
#
# PCOD9166032 Si02
#       6
#     4   4   4   4   4   4
#     4  12  27  43  63  88 119 162 214 267 310 354
#     4  10  23  35  60  92 131 165 194 240 306 379
#     4  10  22  36  59  95 135 161 196 241 309 382
#     4  12  22  40  65  91 125 163 198 258 314 374
#     4  11  22  38  61  89 123 164 201 250 305 375
#     4  11  21  35  62  98 131 159 199 246 324 375
#
# _framework density 19.926867000000001
#
# number of rings (size 3 to 8) (size 9 to 14) (size 15 to 20)
#    0.000    1.000    5.000    1.500    4.667    3.333 
#    0.000    0.000    0.000    6.000    0.000    0.000 
#    0.000    0.000    0.000    0.000    0.000    0.000 
#
# Total GULP energy -133964.262275 kJ/mol
# GULP energy per Si atom -5581.844261 kJ/mol
# Density = 1.988151 g / cm^3
# Si number density = 19.926867 Si / 1000 Ang^3
#
#
#
# Elastic Constant Matrix: (Units=GPa)
#
#
# Indices 1 2 3 4 5 6 
#
# 1 82.6156 14.6977 10.3353 0.0000 -15.8692 0.0000
# 2 14.6977 68.5472 36.7445 0.0000 1.2404 0.0000
# 3 10.3353 36.7445 110.3959 0.0000 -18.4267 0.0000
# 4 0.0000 0.0000 0.0000 15.1849 0.0000 -1.1939
# 5 -15.8692 1.2404 -18.4267 0.0000 30.7987 0.0000
# 6 0.0000 0.0000 0.0000 -1.1939 0.0000 5.2247
#
#
#
# Elastic Compliance Matrix: (Units=1/GPa)
#
#
# Indices 1 2 3 4 5 6 
#
# 1 0.014229 -0.003932 0.001363 0.000000 0.008305 0.000000
# 2 -0.003932 0.019484 -0.007317 0.000000 -0.007188 0.000000
# 3 0.001363 -0.007317 0.012812 0.000000 0.008662 0.000000
# 4 0.000000 0.000000 0.000000 0.067060 0.000000 0.015324
# 5 0.008305 -0.007188 0.008662 0.000000 0.042220 0.000000
# 6 0.000000 0.000000 0.000000 0.015324 0.000000 0.194900
#
#
# Mechanical properties :
#
#
# Convention : Reuss Voigt Hill
#
# Bulk Modulus (GPa) = 37.37912 42.79041 40.08477
# Shear Modulus (GPa) = 13.17897 23.56041 18.36969
#
# Velocity S-wave (km/s) = 2.57450 3.44225 3.03950
# Velocity P-wave (km/s) = 5.25702 6.10894 5.69892
#
# Compressibility (1/GPa) = 0.02675290
#
# Stress axis : x y z
#
# Youngs Moduli (GPa) = 70.28144 51.32501 78.05252
#
# Poissons Ratio (x) = 0.20179 -0.10637
# Poissons Ratio (y) = 0.27632 0.57109
# Poissons Ratio (z) = -0.09578 0.37553
#
# Static dielectric constant tensor:
#      x y z
#    x 1.766840 0.000000 -0.057960 
#    y 0.000000 2.078120 0.000000 
#    z -0.057960 0.000000 1.805610 
# 
# From -- ./inp_files/30123.got.cif
#   From: 2010.05.17/outbox.cif.g08.bks.cpg/sg11_16_cif.got.tgz:30123.got - 2010.06.03 12:22:45.
