data_PCOD9166979
_publ_section_title
;
Structure prediction by ZEFSAII (Michael W. Deem and Ramdas Pophale) SiO2 
 PCOD9166979
Probable space group: P 21/M
;
_chemical_formula_sum "Si O2"
_cell_formula_units_Z 20
_cell_length_a 4.997037
_cell_length_b 20.939494
_cell_length_c 8.544368
_cell_angle_alpha 90.000000
_cell_angle_beta 98.231001
_cell_angle_gamma 90.000000
_cell_volume 884.833968
_symmetry_space_group_name_H-M "P 21/M"
_symmetry_group_IT_number 11
_symmetry_cell_setting 'monoclinic'
loop_
_space_group_symop_operation_xyz
x,y,z
-x,1/2+y,-z
-x,-y,-z
x,1/2-y,z
loop_
_atom_site_type_symbol
_atom_site_label
_atom_site_fract_x
_atom_site_fract_y
_atom_site_fract_z
Si Si1 0.171908 0.824102 0.362887
Si Si2 0.743580 0.455710 0.453716
Si Si3 0.556671 0.750000 0.546158
Si Si4 0.400150 0.934474 0.918903
Si Si5 0.058186 0.360658 0.992365
Si Si6 0.097196 0.750000 0.778974
O O1 0.080705 0.750000 0.387241
O O2 0.155135 0.888503 0.461885
O O3 0.491779 0.809685 0.426686
O O4 0.044921 0.838081 0.184862
O O5 0.500000 0.500000 0.500000
O O6 0.656516 0.439887 0.269581
O O7 0.000000 0.500000 0.500000
O O8 0.359665 0.750000 0.686994
O O9 0.844117 0.750000 0.644112
O O10 0.117687 0.921723 0.979923
O O11 0.626683 0.879463 0.971050
O O12 0.500000 0.000000 0.000000
O O13 0.951445 0.310221 0.112125
#
# Coordination Sequence:
#
# PCOD9166979 Si02
#       6
#     4   4   2   4   4   2
#     4  10  24  48  65 107 135 188 228 295 346 423
#     4  12  25  46  73 102 142 186 236 289 353 417
#     4  10  25  40  69  92 144 164 240 264 359 394
#     4  12  26  45  70 103 137 186 230 287 346 422
#     4  12  24  43  69  97 141 170 236 274 355 404
#     4  12  21  42  61 100 122 182 208 296 325 416
#
# _framework density 22.603111999999999
#
# number of rings (size 3 to 8) (size 9 to 14) (size 15 to 20)
#    0.600    0.000    1.000    7.800    0.000    3.200 
#    0.000    0.000    0.000    0.000    0.000    0.000 
#    0.000    0.000    0.000    0.000    0.000    0.000 
#
# Total GULP energy -111431.580278 kJ/mol
# GULP energy per Si atom -5571.579014 kJ/mol
# Density = 2.255167 g / cm^3
# Si number density = 22.603112 Si / 1000 Ang^3
#
#
#
# Elastic Constant Matrix: (Units=GPa)
#
#
# Indices 1 2 3 4 5 6 
#
# 1 117.7303 26.1702 47.3152 0.0000 16.3968 0.0000
# 2 26.1702 137.1516 69.3485 0.0000 9.0261 0.0000
# 3 47.3152 69.3485 230.9773 0.0000 24.7886 0.0000
# 4 0.0000 0.0000 0.0000 36.6208 0.0000 47.4923
# 5 16.3968 9.0261 24.7886 0.0000 29.4778 0.0000
# 6 0.0000 0.0000 0.0000 47.4923 0.0000 -53.2788
#
#
#
# Elastic Compliance Matrix: (Units=1/GPa)
#
#
# Indices 1 2 3 4 5 6 
#
# 1 0.009788 -0.000951 -0.001282 0.000000 -0.004075 0.000000
# 2 -0.000951 0.008696 -0.002404 0.000000 -0.000112 0.000000
# 3 -0.001282 -0.002404 0.005670 0.000000 -0.003319 0.000000
# 4 0.000000 0.000000 0.000000 0.012665 0.000000 0.011290
# 5 -0.004075 -0.000112 -0.003319 0.000000 0.039016 0.000000
# 6 0.000000 0.000000 0.000000 0.011290 0.000000 -0.008705
#
#
# Mechanical properties :
#
#
# Convention : Reuss Voigt Hill
#
# Bulk Modulus (GPa) = 67.20737 85.72523 76.46630
# Shear Modulus (GPa) = 61.45231 25.43232 43.44231
#
# Velocity S-wave (km/s) = 5.21982 3.35799 4.38877
# Velocity P-wave (km/s) = 8.13185 7.28309 7.71915
#
# Compressibility (1/GPa) = 0.01487932
#
# Stress axis : x y z
#
# Youngs Moduli (GPa) = 102.16279 115.00121 176.36720
#
# Poissons Ratio (x) = 0.10939 0.22613
# Poissons Ratio (y) = 0.09718 0.42396
# Poissons Ratio (z) = 0.13099 0.27645
#
# Static dielectric constant tensor:
#      x y z
#    x 1.946150 0.000000 -0.034820 
#    y 0.000000 1.926690 0.000000 
#    z -0.034820 0.000000 1.884130 
# 
# From -- ./inp_files/10290.got.cif
#   From: 2010.05.17/outbox.cif.g08.bks.cpg/sg11_6_cif.got.tgz:10290.got - 2010.06.03 12:22:45.
