data_PCOD9166865
_publ_section_title
;
Structure prediction by ZEFSAII (Michael W. Deem and Ramdas Pophale) SiO2 
 PCOD9166865
Probable space group: P 21/M
;
_chemical_formula_sum "Si O2"
_cell_formula_units_Z 24
_cell_length_a 9.106838
_cell_length_b 14.452649
_cell_length_c 7.312896
_cell_angle_alpha 90.000000
_cell_angle_beta 116.340286
_cell_angle_gamma 90.000000
_cell_volume 862.575524
_symmetry_space_group_name_H-M "P 21/M"
_symmetry_group_IT_number 11
_symmetry_cell_setting 'monoclinic'
loop_
_space_group_symop_operation_xyz
x,y,z
-x,1/2+y,-z
-x,-y,-z
x,1/2-y,z
loop_
_atom_site_type_symbol
_atom_site_label
_atom_site_fract_x
_atom_site_fract_y
_atom_site_fract_z
Si Si1 0.554518 0.353324 0.154236
Si Si2 0.957443 0.141932 0.574584
Si Si3 0.769419 0.071313 0.804056
Si Si4 0.572895 0.644977 0.499030
Si Si5 0.939818 0.853881 0.774356
Si Si6 0.271678 0.458784 0.878162
O O1 0.623809 0.250000 0.155512
O O2 0.766303 0.519095 0.930801
O O3 0.654204 0.447553 0.166063
O O4 0.394536 0.372767 0.944081
O O5 0.973850 0.250000 0.639850
O O6 0.955465 0.144352 0.354703
O O7 0.108103 0.075962 0.700128
O O8 0.818516 0.096280 0.623700
O O9 0.575582 0.097867 0.695392
O O10 0.759568 0.894411 0.610622
O O11 0.924536 0.118279 0.998799
O O12 0.583536 0.750000 0.436625
O O13 0.506901 0.647257 0.670927
O O14 0.891168 0.750000 0.800478
#
# Coordination Sequence:
#
# PCOD9166865 Si02
#       6
#     4   4   4   4   4   4
#     4  10  24  47  76 113 158 205 260 325 395 469
#     4  11  25  48  76 109 158 210 258 322 395 465
#     4  12  26  47  76 114 157 202 264 324 387 465
#     4  10  23  46  77 111 151 206 263 322 391 464
#     4  10  24  46  75 112 155 205 259 322 390 462
#     4  11  26  46  74 119 154 205 263 325 392 465
#
# _framework density 27.823651999999999
#
# number of rings (size 3 to 8) (size 9 to 14) (size 15 to 20)
#    0.000    1.333    0.000    3.500    7.000    4.667 
#    3.000    0.000    0.000    0.000    0.000    0.000 
#    0.000    0.000    0.000    0.000    0.000    0.000 
#
# Total GULP energy -134045.572953 kJ/mol
# GULP energy per Si atom -5585.232206 kJ/mol
# Density = 2.776032 g / cm^3
# Si number density = 27.823652 Si / 1000 Ang^3
#
#
#
# Elastic Constant Matrix: (Units=GPa)
#
#
# Indices 1 2 3 4 5 6 
#
# 1 145.4612 39.1060 82.1395 0.0000 22.5993 0.0000
# 2 39.1060 134.1476 28.3161 0.0000 17.7889 0.0000
# 3 82.1395 28.3161 129.5290 0.0000 18.7255 0.0000
# 4 0.0000 0.0000 0.0000 36.7980 0.0000 2.5958
# 5 22.5993 17.7889 18.7255 0.0000 60.2212 0.0000
# 6 0.0000 0.0000 0.0000 2.5958 0.0000 43.0684
#
#
#
# Elastic Compliance Matrix: (Units=1/GPa)
#
#
# Indices 1 2 3 4 5 6 
#
# 1 0.011287 -0.001683 -0.006543 0.000000 -0.001704 0.000000
# 2 -0.001683 0.008270 -0.000501 0.000000 -0.001656 0.000000
# 3 -0.006543 -0.000501 0.012149 0.000000 -0.001174 0.000000
# 4 0.000000 0.000000 0.000000 0.027291 0.000000 -0.001645
# 5 -0.001704 -0.001656 -0.001174 0.000000 0.018099 0.000000
# 6 0.000000 0.000000 0.000000 -0.001645 0.000000 0.023318
#
#
# Mechanical properties :
#
#
# Convention : Reuss Voigt Hill
#
# Bulk Modulus (GPa) = 70.17088 78.69568 74.43328
# Shear Modulus (GPa) = 40.77649 45.32260 43.04955
#
# Velocity S-wave (km/s) = 3.83238 4.04037 3.93775
# Velocity P-wave (km/s) = 6.69757 7.07893 6.89089
#
# Compressibility (1/GPa) = 0.01425093
#
# Stress axis : x y z
#
# Youngs Moduli (GPa) = 88.60024 120.91172 82.31263
#
# Poissons Ratio (x) = 0.20352 0.53857
# Poissons Ratio (y) = 0.14913 0.04126
# Poissons Ratio (z) = 0.57971 0.06061
#
# Static dielectric constant tensor:
#      x y z
#    x 2.224260 0.000000 -0.010230 
#    y 0.000000 2.229310 0.000000 
#    z -0.010230 0.000000 2.165560 
# 
# From -- ./inp_files/21752.got.cif
#   From: 2010.05.17/outbox.cif.g08.bks.cpg/sg11_11_cif.got.tgz:21752.got - 2010.06.03 12:22:45.
