data_PCOD9166481
_publ_section_title
;
Structure prediction by ZEFSAII (Michael W. Deem and Ramdas Pophale) SiO2 
 PCOD9166481
Probable space group: P 21/M
;
_chemical_formula_sum "Si O2"
_cell_formula_units_Z 20
_cell_length_a 5.181883
_cell_length_b 23.005927
_cell_length_c 6.958202
_cell_angle_alpha 90.000000
_cell_angle_beta 81.824603
_cell_angle_gamma 90.000000
_cell_volume 821.085202
_symmetry_space_group_name_H-M "P 21/M"
_symmetry_group_IT_number 11
_symmetry_cell_setting 'monoclinic'
loop_
_space_group_symop_operation_xyz
x,y,z
-x,1/2+y,-z
-x,-y,-z
x,1/2-y,z
loop_
_atom_site_type_symbol
_atom_site_label
_atom_site_fract_x
_atom_site_fract_y
_atom_site_fract_z
Si Si1 0.768917 0.026797 0.402143
Si Si2 0.127774 0.750000 0.493547
Si Si3 0.291112 0.362765 0.007216
Si Si4 0.416852 0.250000 0.239461
Si Si5 0.681013 0.371666 0.654610
Si Si6 0.777187 0.426638 0.027518
O O1 0.725635 0.095411 0.451493
O O2 0.819241 0.020534 0.168823
O O3 0.500000 0.000000 0.500000
O O4 0.000000 0.000000 0.500000
O O5 0.322254 0.750000 0.658950
O O6 0.190188 0.808606 0.369185
O O7 0.829900 0.750000 0.591417
O O8 0.382696 0.305148 0.104675
O O9 0.470476 0.412232 0.085531
O O10 0.991681 0.378093 0.061777
O O11 0.391712 0.362138 0.774540
O O12 0.793972 0.418293 0.796515
#
# Coordination Sequence:
#
# PCOD9166481 Si02
#       6
#     4   2   4   2   4   4
#     4  12  27  45  72 102 139 183 232 285 343 403
#     4  12  27  41  74 101 140 179 229 284 346 418
#     4  10  22  41  67  93 140 171 225 275 339 402
#     4  12  23  39  66 101 134 183 221 278 344 402
#     4  10  27  45  71 103 137 180 236 276 351 412
#     4  10  24  44  69  95 137 172 226 280 338 398
#
# _framework density 24.358007000000001
#
# number of rings (size 3 to 8) (size 9 to 14) (size 15 to 20)
#    1.200    0.000    0.000    5.400    5.600    2.400 
#    0.000    0.000    0.000    0.000    0.000    0.000 
#    0.000    0.000    0.000    0.000    0.000    0.000 
#
# Total GULP energy -111558.434305 kJ/mol
# GULP energy per Si atom -5577.921715 kJ/mol
# Density = 2.430257 g / cm^3
# Si number density = 24.358007 Si / 1000 Ang^3
#
#
#
# Elastic Constant Matrix: (Units=GPa)
#
#
# Indices 1 2 3 4 5 6 
#
# 1 87.2764 13.2016 27.8473 0.0000 0.8598 0.0000
# 2 13.2016 66.5520 24.6789 0.0000 -17.0379 0.0000
# 3 27.8473 24.6789 123.3039 0.0000 -19.9408 0.0000
# 4 0.0000 0.0000 0.0000 43.3069 0.0000 2.4904
# 5 0.8598 -17.0379 -19.9408 0.0000 33.7719 0.0000
# 6 0.0000 0.0000 0.0000 2.4904 0.0000 29.2310
#
#
#
# Elastic Compliance Matrix: (Units=1/GPa)
#
#
# Indices 1 2 3 4 5 6 
#
# 1 0.012773 -0.002261 -0.002951 0.000000 -0.003208 0.000000
# 2 -0.002261 0.018244 -0.001817 0.000000 0.008189 0.000000
# 3 -0.002951 -0.001817 0.009955 0.000000 0.005036 0.000000
# 4 0.000000 0.000000 0.000000 0.023205 0.000000 -0.001977
# 5 -0.003208 0.008189 0.005036 0.000000 0.036797 0.000000
# 6 0.000000 0.000000 0.000000 -0.001977 0.000000 0.034379
#
#
# Mechanical properties :
#
#
# Convention : Reuss Voigt Hill
#
# Bulk Modulus (GPa) = 37.15366 45.39866 41.27616
# Shear Modulus (GPa) = 31.56937 35.35559 33.46248
#
# Velocity S-wave (km/s) = 3.60398 3.81399 3.71047
# Velocity P-wave (km/s) = 5.71004 6.17040 5.94468
#
# Compressibility (1/GPa) = 0.02691525
#
# Stress axis : x y z
#
# Youngs Moduli (GPa) = 78.29009 54.81115 100.45617
#
# Poissons Ratio (x) = 0.12391 0.29645
# Poissons Ratio (y) = 0.17699 0.18249
# Poissons Ratio (z) = 0.23104 0.09957
#
# Static dielectric constant tensor:
#      x y z
#    x 1.876030 0.000000 0.019850 
#    y 0.000000 1.960840 0.000000 
#    z 0.019850 0.000000 1.973190 
# 
# From -- ./inp_files/635.got.cif
#   From: 2010.05.17/outbox.cif.g08.bks.cpg/sg11_1_cif.got.tgz:635.got - 2010.06.03 12:22:45.
