data_PCOD9166659
_publ_section_title
;
Structure prediction by ZEFSAII (Michael W. Deem and Ramdas Pophale) SiO2 
 PCOD9166659
Probable space group: P 21/M
;
_chemical_formula_sum "Si O2"
_cell_formula_units_Z 20
_cell_length_a 7.034004
_cell_length_b 20.290694
_cell_length_c 4.804973
_cell_angle_alpha 90.000000
_cell_angle_beta 77.079015
_cell_angle_gamma 90.000000
_cell_volume 668.424307
_symmetry_space_group_name_H-M "P 21/M"
_symmetry_group_IT_number 11
_symmetry_cell_setting 'monoclinic'
loop_
_space_group_symop_operation_xyz
x,y,z
-x,1/2+y,-z
-x,-y,-z
x,1/2-y,z
loop_
_atom_site_type_symbol
_atom_site_label
_atom_site_fract_x
_atom_site_fract_y
_atom_site_fract_z
Si Si1 0.649450 0.007887 0.201250
Si Si2 0.304792 0.328709 0.054791
Si Si3 0.957338 0.750000 0.260929
Si Si4 0.667340 0.122452 0.585219
Si Si5 0.071730 0.425384 0.575299
Si Si6 0.224745 0.750000 0.696623
O O1 0.509480 0.867199 0.137762
O O2 0.500000 0.000000 0.500000
O O3 0.718617 0.077472 0.293468
O O4 0.500000 0.000000 0.000000
O O5 0.350214 0.250000 0.131241
O O6 0.161896 0.311058 0.838217
O O7 0.202609 0.378699 0.319895
O O8 0.190118 0.451727 0.805927
O O9 0.160257 0.750000 0.031058
O O10 0.028280 0.750000 0.559116
O O11 0.865982 0.109979 0.687185
O O12 0.651074 0.189456 0.430748
O O13 0.000000 0.500000 0.500000
#
# Coordination Sequence:
#
# PCOD9166659 Si02
#       6
#     4   4   2   4   4   2
#     4  11  29  55  87 126 178 245 312 383 462 561
#     4  10  22  49  88 135 185 240 312 392 485 570
#     4  10  25  46  83 124 189 228 302 377 481 553
#     4  11  24  51  92 128 182 236 316 383 486 563
#     4  10  24  51  89 131 185 244 313 391 473 570
#     4  12  23  52  83 132 173 244 294 395 471 577
#
# _framework density 29.921115
#
# number of rings (size 3 to 8) (size 9 to 14) (size 15 to 20)
#    0.600    0.800    3.000    0.000    2.800    5.600 
#    0.000    7.000    2.200    0.000    0.000    0.000 
#    0.000    0.000    0.000    0.000    0.000    0.000 
#
# Total GULP energy -111498.474326 kJ/mol
# GULP energy per Si atom -5574.923716 kJ/mol
# Density = 2.985301 g / cm^3
# Si number density = 29.921115 Si / 1000 Ang^3
#
#
#
# Elastic Constant Matrix: (Units=GPa)
#
#
# Indices 1 2 3 4 5 6 
#
# 1 175.7583 45.5795 87.1223 0.0000 -14.2945 0.0000
# 2 45.5795 198.4124 65.5001 0.0000 -4.3160 0.0000
# 3 87.1223 65.5001 228.3661 0.0000 9.0507 0.0000
# 4 0.0000 0.0000 0.0000 35.3500 0.0000 -7.2405
# 5 -14.2945 -4.3160 9.0507 0.0000 80.4249 0.0000
# 6 0.0000 0.0000 0.0000 -7.2405 0.0000 54.6473
#
#
#
# Elastic Compliance Matrix: (Units=1/GPa)
#
#
# Indices 1 2 3 4 5 6 
#
# 1 0.007323 -0.000780 -0.002632 0.000000 0.001556 0.000000
# 2 -0.000780 0.005669 -0.001341 0.000000 0.000317 0.000000
# 3 -0.002632 -0.001341 0.005815 0.000000 -0.001194 0.000000
# 4 0.000000 0.000000 0.000000 0.029078 0.000000 0.003853
# 5 0.001556 0.000317 -0.001194 0.000000 0.012862 0.000000
# 6 0.000000 0.000000 0.000000 0.003853 0.000000 0.018810
#
#
# Mechanical properties :
#
#
# Convention : Reuss Voigt Hill
#
# Bulk Modulus (GPa) = 107.50670 110.99340 109.25005
# Shear Modulus (GPa) = 54.25290 61.04010 57.64650
#
# Velocity S-wave (km/s) = 4.26279 4.52157 4.39409
# Velocity P-wave (km/s) = 7.76122 8.02717 7.89531
#
# Compressibility (1/GPa) = 0.00930175
#
# Stress axis : x y z
#
# Youngs Moduli (GPa) = 136.55809 176.40793 171.97133
#
# Poissons Ratio (x) = 0.13752 0.45259
# Poissons Ratio (y) = 0.10646 0.23062
# Poissons Ratio (z) = 0.35939 0.23657
#
# Static dielectric constant tensor:
#      x y z
#    x 2.372890 0.000000 0.116550 
#    y 0.000000 2.521700 0.000000 
#    z 0.116550 0.000000 2.326670 
# 
# From -- ./inp_files/4722.got.cif
#   From: 2010.05.17/outbox.cif.g08.bks.cpg/sg11_3_cif.got.tgz:4722.got - 2010.06.03 12:22:45.
