data_PCOD9166581
_publ_section_title
;
Structure prediction by ZEFSAII (Michael W. Deem and Ramdas Pophale) SiO2 
 PCOD9166581
Probable space group: P 21/M
;
_chemical_formula_sum "Si O2"
_cell_formula_units_Z 28
_cell_length_a 11.725384
_cell_length_b 22.304915
_cell_length_c 5.251838
_cell_angle_alpha 90.000000
_cell_angle_beta 120.542087
_cell_angle_gamma 90.000000
_cell_volume 1182.963338
_symmetry_space_group_name_H-M "P 21/M"
_symmetry_group_IT_number 11
_symmetry_cell_setting 'monoclinic'
loop_
_space_group_symop_operation_xyz
x,y,z
-x,1/2+y,-z
-x,-y,-z
x,1/2-y,z
loop_
_atom_site_type_symbol
_atom_site_label
_atom_site_fract_x
_atom_site_fract_y
_atom_site_fract_z
Si Si1 0.352112 0.315821 0.577130
Si Si2 0.945129 0.446095 0.259243
Si Si3 0.449734 0.605568 0.471968
Si Si4 0.609489 0.999110 0.910849
Si Si5 0.917472 0.817536 0.047186
Si Si6 0.795123 0.907993 0.313931
Si Si7 0.165707 0.606801 0.353773
O O1 0.381317 0.250000 0.718267
O O2 0.466176 0.336811 0.512979
O O3 0.204198 0.312786 0.290887
O O4 0.334490 0.371352 0.747689
O O5 0.871482 0.407044 0.395090
O O6 0.000000 0.500000 0.500000
O O7 0.089738 0.417495 0.351219
O O8 0.873139 0.445503 0.900559
O O9 0.382008 0.566659 0.172474
O O10 0.557448 0.554147 0.669080
O O11 0.323508 0.617743 0.508176
O O12 0.745617 0.972451 0.164795
O O13 0.500000 0.000000 0.000000
O O14 0.926473 0.750000 0.169440
O O15 0.861844 0.867140 0.177092
O O16 0.067217 0.839127 0.154661
#
# Coordination Sequence:
#
# PCOD9166581 Si02
#       7
#     4   4   4   4   4   4   4
#     4  11  22  40  65  91 125 168 224 276 323 392
#     4  11  24  40  65  95 134 169 213 264 324 393
#     4  11  25  40  64  96 133 171 222 266 344 395
#     4  11  23  39  64  91 134 174 209 273 332 402
#     4  10  22  43  65  90 128 173 223 276 328 389
#     4  11  21  39  67  94 126 169 227 267 331 391
#     4  11  25  42  64  96 131 172 213 270 329 395
#
# _framework density 23.669371999999999
#
# number of rings (size 3 to 8) (size 9 to 14) (size 15 to 20)
#    0.000    1.143    4.286    1.714    4.000    1.714 
#    0.000    0.000    0.000    1.714    0.000    0.000 
#    0.000    0.000    0.000    0.000    0.000    0.000 
#
# Total GULP energy -155968.953479 kJ/mol
# GULP energy per Si atom -5570.319767 kJ/mol
# Density = 2.361550 g / cm^3
# Si number density = 23.669372 Si / 1000 Ang^3
#
#
#
# Elastic Constant Matrix: (Units=GPa)
#
#
# Indices 1 2 3 4 5 6 
#
# 1 133.0382 19.2687 4.9059 0.0000 19.7526 0.0000
# 2 19.2687 68.5674 1.1496 0.0000 5.8695 0.0000
# 3 4.9059 1.1496 64.7313 0.0000 14.1139 0.0000
# 4 0.0000 0.0000 0.0000 13.9153 0.0000 7.5067
# 5 19.7526 5.8695 14.1139 0.0000 36.9792 0.0000
# 6 0.0000 0.0000 0.0000 7.5067 0.0000 10.4742
#
#
#
# Elastic Compliance Matrix: (Units=1/GPa)
#
#
# Indices 1 2 3 4 5 6 
#
# 1 0.008436 -0.002007 0.000337 0.000000 -0.004316 0.000000
# 2 -0.002007 0.015267 0.000192 0.000000 -0.001424 0.000000
# 3 0.000337 0.000192 0.016869 0.000000 -0.006649 0.000000
# 4 0.000000 0.000000 0.000000 0.117161 0.000000 -0.083968
# 5 -0.004316 -0.001424 -0.006649 0.000000 0.032112 0.000000
# 6 0.000000 0.000000 0.000000 -0.083968 0.000000 0.155651
#
#
# Mechanical properties :
#
#
# Convention : Reuss Voigt Hill
#
# Bulk Modulus (GPa) = 26.58434 35.22060 30.90247
# Shear Modulus (GPa) = 13.85079 28.34124 21.09601
#
# Velocity S-wave (km/s) = 2.42167 3.46407 2.98867
# Velocity P-wave (km/s) = 4.36752 5.55988 4.99938
#
# Compressibility (1/GPa) = 0.03761614
#
# Stress axis : x y z
#
# Youngs Moduli (GPa) = 118.54396 65.50145 59.27939
#
# Poissons Ratio (x) = 0.13145 -0.02000
# Poissons Ratio (y) = 0.23789 -0.01135
# Poissons Ratio (z) = -0.04000 -0.01255
#
# Static dielectric constant tensor:
#      x y z
#    x 1.948320 0.000000 0.039110 
#    y 0.000000 1.875360 0.000000 
#    z 0.039110 0.000000 2.044340 
# 
# From -- ./inp_files/5087.got.cif
#   From: 2010.05.17/outbox.cif.g08.bks.cpg/sg11_3_cif.got.tgz:5087.got - 2010.06.03 12:22:45.
