data_PCOD9166661
_publ_section_title
;
Structure prediction by ZEFSAII (Michael W. Deem and Ramdas Pophale) SiO2 
 PCOD9166661
Probable space group: P 21/M
;
_chemical_formula_sum "Si O2"
_cell_formula_units_Z 28
_cell_length_a 9.459373
_cell_length_b 25.966627
_cell_length_c 6.437532
_cell_angle_alpha 90.000000
_cell_angle_beta 122.618033
_cell_angle_gamma 90.000000
_cell_volume 1331.849695
_symmetry_space_group_name_H-M "P 21/M"
_symmetry_group_IT_number 11
_symmetry_cell_setting 'monoclinic'
loop_
_space_group_symop_operation_xyz
x,y,z
-x,1/2+y,-z
-x,-y,-z
x,1/2-y,z
loop_
_atom_site_type_symbol
_atom_site_label
_atom_site_fract_x
_atom_site_fract_y
_atom_site_fract_z
Si Si1 0.997280 0.619152 0.406230
Si Si2 0.788352 0.869805 0.617486
Si Si3 0.446403 0.538953 0.644059
Si Si4 0.751799 0.052981 0.130506
Si Si5 0.182321 0.454888 0.041417
Si Si6 0.923293 0.311052 0.896328
Si Si7 0.402873 0.874791 0.303624
O O1 0.836695 0.633269 0.416408
O O2 0.121882 0.593647 0.670107
O O3 0.947897 0.575858 0.200516
O O4 0.059909 0.667676 0.325400
O O5 0.814120 0.927979 0.730043
O O6 0.592553 0.855877 0.485474
O O7 0.919581 0.835051 0.851367
O O8 0.500000 0.500000 0.500000
O O9 0.326569 0.522129 0.736063
O O10 0.625807 0.554949 0.878618
O O11 0.364739 0.588477 0.470919
O O12 0.836020 0.015208 0.026499
O O13 0.610705 0.085967 0.900816
O O14 0.926451 0.250000 0.910296
O O15 0.745395 0.333729 0.834553
#
# Coordination Sequence:
#
# PCOD9166661 Si02
#       7
#     4   4   4   4   4   4   4
#     4  11  23  42  62  98 136 174 224 281 329 400
#     4  10  24  43  67  99 134 172 220 277 335 401
#     4  11  22  37  59  92 138 184 222 263 318 388
#     4  12  22  37  64  97 139 183 227 260 328 400
#     4  10  23  35  59  94 136 183 222 259 317 395
#     4  11  25  49  71  93 126 170 225 290 346 395
#     4  11  23  43  69  98 134 171 228 272 329 405
#
# _framework density 21.023395000000001
#
# number of rings (size 3 to 8) (size 9 to 14) (size 15 to 20)
#    0.000    1.143    4.286    1.714    4.000    1.714 
#    0.000    0.000    0.000    0.000    0.000    0.000 
#    0.000    0.000    0.000    0.000    0.000    0.000 
#
# Total GULP energy -156276.756584 kJ/mol
# GULP energy per Si atom -5581.312735 kJ/mol
# Density = 2.097554 g / cm^3
# Si number density = 21.023395 Si / 1000 Ang^3
#
#
#
# Elastic Constant Matrix: (Units=GPa)
#
#
# Indices 1 2 3 4 5 6 
#
# 1 109.1502 48.7789 32.9673 0.0000 0.0701 0.0000
# 2 48.7789 118.6585 38.7095 0.0000 9.0716 0.0000
# 3 32.9673 38.7095 89.8738 0.0000 23.2311 0.0000
# 4 0.0000 0.0000 0.0000 18.6770 0.0000 0.6861
# 5 0.0701 9.0716 23.2311 0.0000 43.6336 0.0000
# 6 0.0000 0.0000 0.0000 0.6861 0.0000 22.3576
#
#
#
# Elastic Compliance Matrix: (Units=1/GPa)
#
#
# Indices 1 2 3 4 5 6 
#
# 1 0.011965 -0.004033 -0.003321 0.000000 0.002587 0.000000
# 2 -0.004033 0.011167 -0.003168 0.000000 -0.000629 0.000000
# 3 -0.003321 -0.003168 0.015698 0.000000 -0.007694 0.000000
# 4 0.000000 0.000000 0.000000 0.053602 0.000000 -0.001645
# 5 0.002587 -0.000629 -0.007694 0.000000 0.027141 0.000000
# 6 0.000000 0.000000 0.000000 -0.001645 0.000000 0.044778
#
#
# Mechanical properties :
#
#
# Convention : Reuss Voigt Hill
#
# Bulk Modulus (GPa) = 56.22142 62.06600 59.14371
# Shear Modulus (GPa) = 26.13364 30.08210 28.10787
#
# Velocity S-wave (km/s) = 3.52955 3.78681 3.66044
# Velocity P-wave (km/s) = 6.58868 6.97899 6.78664
#
# Compressibility (1/GPa) = 0.01778681
#
# Stress axis : x y z
#
# Youngs Moduli (GPa) = 83.57362 89.54899 63.70260
#
# Poissons Ratio (x) = 0.36118 0.21154
# Poissons Ratio (y) = 0.33708 0.20179
# Poissons Ratio (z) = 0.27753 0.28367
#
# Static dielectric constant tensor:
#      x y z
#    x 1.795140 0.000000 0.011650 
#    y 0.000000 1.735940 0.000000 
#    z 0.011650 0.000000 1.773410 
# 
# From -- ./inp_files/3453.got.cif
#   From: 2010.05.17/outbox.cif.g08.bks.cpg/sg11_2_cif.got.tgz:3453.got - 2010.06.03 12:22:45.
