data_PCOD9166739
_publ_section_title
;
Structure prediction by ZEFSAII (Michael W. Deem and Ramdas Pophale) SiO2 
 PCOD9166739
Probable space group: P 21/M
;
_chemical_formula_sum "Si O2"
_cell_formula_units_Z 24
_cell_length_a 9.890761
_cell_length_b 17.901034
_cell_length_c 11.368136
_cell_angle_alpha 90.000000
_cell_angle_beta 152.424410
_cell_angle_gamma 90.000000
_cell_volume 931.754644
_symmetry_space_group_name_H-M "P 21/M"
_symmetry_group_IT_number 11
_symmetry_cell_setting 'monoclinic'
loop_
_space_group_symop_operation_xyz
x,y,z
-x,1/2+y,-z
-x,-y,-z
x,1/2-y,z
loop_
_atom_site_type_symbol
_atom_site_label
_atom_site_fract_x
_atom_site_fract_y
_atom_site_fract_z
Si Si1 0.297906 0.166073 0.588627
Si Si2 0.096485 0.829900 0.069005
Si Si3 0.168534 0.889426 0.366139
Si Si4 0.549112 0.073045 0.962653
Si Si5 0.491718 0.839400 0.852111
Si Si6 0.083637 0.053393 0.226966
O O1 0.181853 0.250000 0.510443
O O2 0.644936 0.174462 0.826626
O O3 0.286190 0.115477 0.695743
O O4 0.187767 0.118214 0.394897
O O5 0.934367 0.750000 0.940750
O O6 0.240543 0.839608 0.307596
O O7 0.918255 0.905600 0.900688
O O8 0.335444 0.869510 0.614133
O O9 0.227848 0.974594 0.368933
O O10 0.822655 0.871539 0.114936
O O11 0.661986 0.132664 0.145960
O O12 0.751973 0.043061 0.014332
O O13 0.500000 0.000000 0.000000
O O14 0.501692 0.750000 0.856336
#
# Coordination Sequence:
#
# PCOD9166739 Si02
#       6
#     4   4   4   4   4   4
#     4  10  23  41  67  99 134 179 232 288 347 409
#     4  10  23  44  67  99 138 180 229 285 344 412
#     4  12  27  46  73 102 142 183 231 284 349 412
#     4  11  23  44  66  96 137 179 231 287 343 407
#     4  12  27  46  70 103 141 187 232 281 345 416
#     4  11  24  42  71 100 134 180 232 291 345 408
#
# _framework density 25.757853999999998
#
# number of rings (size 3 to 8) (size 9 to 14) (size 15 to 20)
#    0.000    1.000    1.667    4.000    7.000    4.000 
#    0.000    0.000    0.000    0.000    0.000    0.000 
#    0.000    0.000    0.000    0.000    0.000    0.000 
#
# Total GULP energy -134198.108325 kJ/mol
# GULP energy per Si atom -5591.587847 kJ/mol
# Density = 2.569923 g / cm^3
# Si number density = 25.757854 Si / 1000 Ang^3
#
#
#
# Elastic Constant Matrix: (Units=GPa)
#
#
# Indices 1 2 3 4 5 6 
#
# 1 61.5247 -21.6539 2.6199 0.0000 -6.5939 0.0000
# 2 -21.6539 100.7305 -2.9220 0.0000 17.0051 0.0000
# 3 2.6199 -2.9220 119.6308 0.0000 -15.8893 0.0000
# 4 0.0000 0.0000 0.0000 36.2393 0.0000 -5.6096
# 5 -6.5939 17.0051 -15.8893 0.0000 35.2711 0.0000
# 6 0.0000 0.0000 0.0000 -5.6096 0.0000 -28.7055
#
#
#
# Elastic Compliance Matrix: (Units=1/GPa)
#
#
# Indices 1 2 3 4 5 6 
#
# 1 0.017668 0.003532 -0.000094 0.000000 0.001558 0.000000
# 2 0.003532 0.011537 -0.000475 0.000000 -0.005116 0.000000
# 3 -0.000094 -0.000475 0.008911 0.000000 0.004226 0.000000
# 4 0.000000 0.000000 0.000000 0.026784 0.000000 -0.005234
# 5 0.001558 -0.005116 0.004226 0.000000 0.033013 0.000000
# 6 0.000000 0.000000 0.000000 -0.005234 0.000000 -0.033814
#
#
# Mechanical properties :
#
#
# Convention : Reuss Voigt Hill
#
# Bulk Modulus (GPa) = 22.70543 26.44154 24.57348
# Shear Modulus (GPa) = 68.63188 28.81712 48.72450
#
# Velocity S-wave (km/s) = 5.16748 3.34843 4.35401
# Velocity P-wave (km/s) = 6.66618 5.02365 5.90233
#
# Compressibility (1/GPa) = 0.04404233
#
# Stress axis : x y z
#
# Youngs Moduli (GPa) = 56.60012 86.68012 112.22389
#
# Poissons Ratio (x) = -0.30618 0.01052
# Poissons Ratio (y) = -0.19993 0.05331
# Poissons Ratio (z) = 0.00531 0.04118
#
# Static dielectric constant tensor:
#      x y z
#    x 2.179730 0.000000 0.109620 
#    y 0.000000 2.035380 0.000000 
#    z 0.109620 0.000000 2.051080 
# 
# From -- ./inp_files/36186.got.cif
#   From: 2010.05.17/outbox.cif.g08.bks.cpg/sg11_19_cif.got.tgz:36186.got - 2010.06.03 12:22:45.
