data_PCOD9166921
_publ_section_title
;
Structure prediction by ZEFSAII (Michael W. Deem and Ramdas Pophale) SiO2 
 PCOD9166921
Probable space group: P 21/M
;
_chemical_formula_sum "Si O2"
_cell_formula_units_Z 24
_cell_length_a 11.770336
_cell_length_b 11.278898
_cell_length_c 17.335679
_cell_angle_alpha 90.000000
_cell_angle_beta 150.179813
_cell_angle_gamma 90.000000
_cell_volume 1144.450704
_symmetry_space_group_name_H-M "P 21/M"
_symmetry_group_IT_number 11
_symmetry_cell_setting 'monoclinic'
loop_
_space_group_symop_operation_xyz
x,y,z
-x,1/2+y,-z
-x,-y,-z
x,1/2-y,z
loop_
_atom_site_type_symbol
_atom_site_label
_atom_site_fract_x
_atom_site_fract_y
_atom_site_fract_z
Si Si1 0.964350 0.934343 0.190698
Si Si2 0.008250 0.609951 0.668886
Si Si3 0.558837 0.119203 0.483311
Si Si4 0.453008 0.490433 0.673954
Si Si5 0.902144 0.380832 0.905314
Si Si6 0.536359 0.111591 0.153786
O O1 0.164824 0.874111 0.358186
O O2 0.049694 0.902829 0.155943
O O3 0.981364 0.065644 0.236424
O O4 0.699278 0.900103 0.032752
O O5 0.987053 0.750000 0.653904
O O6 0.245569 0.574031 0.767936
O O7 0.797293 0.553916 0.497701
O O8 0.477855 0.250000 0.463040
O O9 0.478690 0.089525 0.349704
O O10 0.500000 0.000000 0.500000
O O11 0.634749 0.386607 0.766910
O O12 0.472952 0.538515 0.772193
O O13 0.992814 0.250000 0.979802
O O14 0.000000 0.500000 0.000000
O O15 0.564177 0.250000 0.190230
#
# Coordination Sequence:
#
# PCOD9166921 Si02
#       6
#     4   4   4   4   4   4
#     4  11  23  41  64  93 130 169 215 262 327 385
#     4  10  24  43  65  93 127 172 220 271 322 381
#     4  11  23  38  60  93 130 171 214 259 319 387
#     4  11  23  41  64  96 130 169 215 267 329 389
#     4  12  25  42  66  98 136 173 212 267 331 393
#     4  11  22  42  67  92 128 170 219 272 324 384
#
# _framework density 20.970761
#
# number of rings (size 3 to 8) (size 9 to 14) (size 15 to 20)
#    0.000    1.000    3.333    3.500    0.000    4.000 
#    0.000    0.000    0.000    9.000    0.000    0.000 
#    0.000    0.000    0.000    0.000    0.000    0.000 
#
# Total GULP energy -133786.497111 kJ/mol
# GULP energy per Si atom -5574.437380 kJ/mol
# Density = 2.092303 g / cm^3
# Si number density = 20.970761 Si / 1000 Ang^3
#
#
#
# Elastic Constant Matrix: (Units=GPa)
#
#
# Indices 1 2 3 4 5 6 
#
# 1 59.6756 49.2029 17.8483 0.0000 13.4346 0.0000
# 2 49.2029 133.9344 47.9944 0.0000 -6.5841 0.0000
# 3 17.8483 47.9944 93.5846 0.0000 26.3128 0.0000
# 4 0.0000 0.0000 0.0000 18.5965 0.0000 5.7902
# 5 13.4346 -6.5841 26.3128 0.0000 37.6221 0.0000
# 6 0.0000 0.0000 0.0000 5.7902 0.0000 11.9848
#
#
#
# Elastic Compliance Matrix: (Units=1/GPa)
#
#
# Indices 1 2 3 4 5 6 
#
# 1 0.031032 -0.014756 0.006835 0.000000 -0.018444 0.000000
# 2 -0.014756 0.017435 -0.010539 0.000000 0.015692 0.000000
# 3 0.006835 -0.010539 0.019906 0.000000 -0.018208 0.000000
# 4 0.000000 0.000000 0.000000 0.063295 0.000000 -0.030579
# 5 -0.018444 0.015692 -0.018208 0.000000 0.048647 0.000000
# 6 0.000000 0.000000 0.000000 -0.030579 0.000000 0.098213
#
#
# Mechanical properties :
#
#
# Convention : Reuss Voigt Hill
#
# Bulk Modulus (GPa) = 31.79374 57.47619 44.63496
# Shear Modulus (GPa) = 15.34063 25.11728 20.22896
#
# Velocity S-wave (km/s) = 2.70761 3.46458 3.10921
# Velocity P-wave (km/s) = 4.99687 6.59330 5.84980
#
# Compressibility (1/GPa) = 0.03145274
#
# Stress axis : x y z
#
# Youngs Moduli (GPa) = 32.22524 57.35519 50.23526
#
# Poissons Ratio (x) = 0.84633 -0.34336
# Poissons Ratio (y) = 0.47551 0.52944
# Poissons Ratio (z) = -0.22026 0.60448
#
# Static dielectric constant tensor:
#      x y z
#    x 1.772160 0.000000 0.008230 
#    y 0.000000 1.782950 0.000000 
#    z 0.008230 0.000000 1.839230 
# 
# From -- ./inp_files/59200.got.cif
#   From: 2010.05.17/outbox.cif.g08.bks.cpg/sg11_30_cif.got.tgz:59200.got - 2010.06.03 12:22:45.
