data_PCOD9166036
_publ_section_title
;
Structure prediction by ZEFSAII (Michael W. Deem and Ramdas Pophale) SiO2 
 PCOD9166036
Probable space group: P 21/M
;
_chemical_formula_sum "Si O2"
_cell_formula_units_Z 30
_cell_length_a 18.161524
_cell_length_b 11.783553
_cell_length_c 15.315568
_cell_angle_alpha 90.000000
_cell_angle_beta 154.899433
_cell_angle_gamma 90.000000
_cell_volume 1390.403666
_symmetry_space_group_name_H-M "P 21/M"
_symmetry_group_IT_number 11
_symmetry_cell_setting 'monoclinic'
loop_
_space_group_symop_operation_xyz
x,y,z
-x,1/2+y,-z
-x,-y,-z
x,1/2-y,z
loop_
_atom_site_type_symbol
_atom_site_label
_atom_site_fract_x
_atom_site_fract_y
_atom_site_fract_z
Si Si1 0.305102 0.378414 0.227805
Si Si2 0.048555 0.516842 0.743855
Si Si3 0.772983 0.250000 0.078891
Si Si4 0.551692 0.592126 0.241569
Si Si5 0.815693 0.625426 0.370196
Si Si6 0.356387 0.119162 0.001746
Si Si7 0.605729 0.964979 0.489191
Si Si8 0.907444 0.383980 0.748772
O O1 0.343375 0.250000 0.238957
O O2 0.358901 0.392684 0.386602
O O3 0.421675 0.470691 0.302587
O O4 0.099244 0.397052 0.996897
O O5 0.106921 0.644814 0.831021
O O6 0.204084 0.428206 0.899344
O O7 0.955556 0.534113 0.550489
O O8 0.921139 0.459094 0.675986
O O9 0.634749 0.152626 0.968518
O O10 0.684761 0.630655 0.311319
O O11 0.603260 0.607741 0.397819
O O12 0.520781 0.458695 0.194625
O O13 0.904522 0.750000 0.456198
O O14 0.709819 0.604332 0.168821
O O15 0.389780 0.250000 0.053485
O O16 0.755026 0.060417 0.641783
O O17 0.878473 0.250000 0.702391
#
# Coordination Sequence:
#
# PCOD9166036 Si02
#       8
#     4   4   2   4   4   4   4   4
#     4  10  23  42  64  95 130 167 210 269 327 379
#     4  11  21  40  62  93 121 168 210 260 321 379
#     4  10  22  36  62  90 124 160 206 262 320 378
#     4  11  22  40  63  91 126 162 212 261 320 382
#     4  11  21  39  62  89 126 163 209 265 317 373
#     4  10  23  39  61  88 125 166 211 260 319 374
#     4  11  23  41  68  94 129 170 217 260 324 392
#     4  11  23  42  68  95 132 170 216 267 318 385
#
# _framework density 21.576467999999998
#
# number of rings (size 3 to 8) (size 9 to 14) (size 15 to 20)
#    0.000    1.333    2.667    3.600    0.933    2.133 
#    1.200    0.000    5.867    0.000    0.000    0.000 
#    0.000    0.000    0.000    0.000    0.000    0.000 
#
# Total GULP energy -167112.057234 kJ/mol
# GULP energy per Si atom -5570.401908 kJ/mol
# Density = 2.152736 g / cm^3
# Si number density = 21.576468 Si / 1000 Ang^3
#
#
#
# Elastic Constant Matrix: (Units=GPa)
#
#
# Indices 1 2 3 4 5 6 
#
# 1 61.8304 15.7866 -1.2873 0.0000 -3.5663 0.0000
# 2 15.7866 103.5450 29.4238 0.0000 8.2225 0.0000
# 3 -1.2873 29.4238 39.3338 0.0000 -2.8660 0.0000
# 4 0.0000 0.0000 0.0000 31.2652 0.0000 9.7126
# 5 -3.5663 8.2225 -2.8660 0.0000 39.3206 0.0000
# 6 0.0000 0.0000 0.0000 9.7126 0.0000 16.3157
#
#
#
# Elastic Compliance Matrix: (Units=1/GPa)
#
#
# Indices 1 2 3 4 5 6 
#
# 1 0.017403 -0.003914 0.003692 0.000000 0.002666 0.000000
# 2 -0.003914 0.013573 -0.010570 0.000000 -0.003964 0.000000
# 3 0.003692 -0.010570 0.033816 0.000000 0.005010 0.000000
# 4 0.000000 0.000000 0.000000 0.039241 0.000000 -0.023360
# 5 0.002666 -0.003964 0.005010 0.000000 0.026868 0.000000
# 6 0.000000 0.000000 0.000000 -0.023360 0.000000 0.075197
#
#
# Mechanical properties :
#
#
# Convention : Reuss Voigt Hill
#
# Bulk Modulus (GPa) = 23.14411 32.50616 27.82513
# Shear Modulus (GPa) = 20.65386 28.09936 24.37661
#
# Velocity S-wave (km/s) = 3.09729 3.61268 3.36486
# Velocity P-wave (km/s) = 4.85188 5.70089 5.29344
#
# Compressibility (1/GPa) = 0.04320754
#
# Stress axis : x y z
#
# Youngs Moduli (GPa) = 57.46044 73.67677 29.57151
#
# Poissons Ratio (x) = 0.28838 -0.10917
# Poissons Ratio (y) = 0.22491 0.31257
# Poissons Ratio (z) = -0.21213 0.77877
#
# Static dielectric constant tensor:
#      x y z
#    x 1.759930 0.000000 -0.015420 
#    y 0.000000 1.771930 0.000000 
#    z -0.015420 0.000000 1.870390 
# 
# From -- ./inp_files/24655.got.cif
#   From: 2010.05.17/outbox.cif.g08.bks.cpg/sg11_13_cif.got.tgz:24655.got - 2010.06.03 12:22:45.
