data_PCOD9166692
_publ_section_title
;
Structure prediction by ZEFSAII (Michael W. Deem and Ramdas Pophale) SiO2 
 PCOD9166692
Probable space group: P 21/M
;
_chemical_formula_sum "Si O2"
_cell_formula_units_Z 26
_cell_length_a 19.304891
_cell_length_b 14.931690
_cell_length_c 9.171098
_cell_angle_alpha 90.000000
_cell_angle_beta 28.559364
_cell_angle_gamma 90.000000
_cell_volume 1263.828882
_symmetry_space_group_name_H-M "P 21/M"
_symmetry_group_IT_number 11
_symmetry_cell_setting 'monoclinic'
loop_
_space_group_symop_operation_xyz
x,y,z
-x,1/2+y,-z
-x,-y,-z
x,1/2-y,z
loop_
_atom_site_type_symbol
_atom_site_label
_atom_site_fract_x
_atom_site_fract_y
_atom_site_fract_z
Si Si1 0.377885 0.647386 0.974488
Si Si2 0.599278 0.396884 0.732293
Si Si3 0.714976 0.643847 0.799275
Si Si4 0.331295 0.490189 0.856506
Si Si5 0.058346 0.098871 0.853603
Si Si6 0.692675 0.576041 0.400929
Si Si7 0.813260 0.250000 0.260518
O O1 0.334151 0.750000 0.036018
O O2 0.300276 0.579531 0.006978
O O3 0.551842 0.636803 0.630929
O O4 0.352768 0.619631 0.189413
O O5 0.632647 0.495698 0.613937
O O6 0.688223 0.327705 0.470612
O O7 0.430505 0.374099 0.025116
O O8 0.735919 0.750000 0.776182
O O9 0.850986 0.601652 0.463902
O O10 0.689860 0.593063 0.996982
O O11 0.500000 0.500000 0.500000
O O12 0.253943 0.469951 0.847450
O O13 0.176802 0.123168 0.757903
O O14 0.932739 0.171015 0.073908
O O15 0.000000 0.000000 0.000000
#
# Coordination Sequence:
#
# PCOD9166692 Si02
#       7
#     4   4   4   4   4   4   2
#     4  11  21  36  64 102 130 168 223 285 335 395
#     4  12  21  40  71  98 129 165 234 292 327 390
#     4  12  23  42  72 103 133 180 232 285 341 409
#     4  10  23  40  61 100 140 170 225 278 342 401
#     4  12  26  44  70  96 140 180 227 289 342 412
#     4  11  23  42  62  96 135 181 217 274 346 407
#     4  12  26  40  64 108 130 174 234 286 352 398
#
# _framework density 20.572405
#
# number of rings (size 3 to 8) (size 9 to 14) (size 15 to 20)
#    0.000    0.615    8.462    1.385    1.077    2.462 
#    1.385    0.769    0.000    1.846    0.000    0.000 
#    0.000    0.000    0.000    0.000    0.000    0.000 
#
# Total GULP energy -144812.009893 kJ/mol
# GULP energy per Si atom -5569.692688 kJ/mol
# Density = 2.052558 g / cm^3
# Si number density = 20.572405 Si / 1000 Ang^3
#
#
#
# Elastic Constant Matrix: (Units=GPa)
#
#
# Indices 1 2 3 4 5 6 
#
# 1 25.9110 2.7846 19.0243 0.0000 18.8414 0.0000
# 2 2.7846 144.0088 55.1613 0.0000 13.0954 0.0000
# 3 19.0243 55.1613 71.3750 0.0000 4.1569 0.0000
# 4 0.0000 0.0000 0.0000 26.2415 0.0000 -18.7054
# 5 18.8414 13.0954 4.1569 0.0000 41.7537 0.0000
# 6 0.0000 0.0000 0.0000 -18.7054 0.0000 12.3054
#
#
#
# Elastic Compliance Matrix: (Units=1/GPa)
#
#
# Indices 1 2 3 4 5 6 
#
# 1 0.094036 0.015327 -0.034357 0.000000 -0.043820 0.000000
# 2 0.015327 0.012597 -0.013264 0.000000 -0.009546 0.000000
# 3 -0.034357 -0.013264 0.032462 0.000000 0.016432 0.000000
# 4 0.000000 0.000000 0.000000 -0.456095 0.000000 -0.693308
# 5 -0.043820 -0.009546 0.016432 0.000000 0.045082 0.000000
# 6 0.000000 0.000000 0.000000 -0.693308 0.000000 -0.972629
#
#
# Mechanical properties :
#
#
# Convention : Reuss Voigt Hill
#
# Bulk Modulus (GPa) = 13.42185 43.91502 28.66844
# Shear Modulus (GPa) = -4.32855 27.01511 11.34328
#
# Velocity S-wave (km/s) = -1.45211 3.62770 2.35070
# Velocity P-wave (km/s) = 1.93051 6.24018 4.61881
#
# Compressibility (1/GPa) = 0.07450536
#
# Stress axis : x y z
#
# Youngs Moduli (GPa) = 10.63418 79.38710 30.80505
#
# Poissons Ratio (x) = -1.21675 1.05838
# Poissons Ratio (y) = -0.16299 0.40861
# Poissons Ratio (z) = 0.36536 1.05301
#
# Static dielectric constant tensor:
#      x y z
#    x 1.760920 0.000000 0.033110 
#    y 0.000000 1.716980 0.000000 
#    z 0.033110 0.000000 1.780450 
# 
# From -- ./inp_files/22401.got.cif
#   From: 2010.05.17/outbox.cif.g08.bks.cpg/sg11_12_cif.got.tgz:22401.got - 2010.06.03 12:22:45.
