data_PCOD9166843
_publ_section_title
;
Structure prediction by ZEFSAII (Michael W. Deem and Ramdas Pophale) SiO2 
 PCOD9166843
Probable space group: P 21/M
;
_chemical_formula_sum "Si O2"
_cell_formula_units_Z 20
_cell_length_a 8.274786
_cell_length_b 20.820341
_cell_length_c 7.629061
_cell_angle_alpha 90.000000
_cell_angle_beta 142.002930
_cell_angle_gamma 90.000000
_cell_volume 809.150390
_symmetry_space_group_name_H-M "P 21/M"
_symmetry_group_IT_number 11
_symmetry_cell_setting 'monoclinic'
loop_
_space_group_symop_operation_xyz
x,y,z
-x,1/2+y,-z
-x,-y,-z
x,1/2-y,z
loop_
_atom_site_type_symbol
_atom_site_label
_atom_site_fract_x
_atom_site_fract_y
_atom_site_fract_z
Si Si1 0.171960 0.181564 0.262466
Si Si2 0.411815 0.139430 0.135680
Si Si3 0.072142 0.573999 0.405239
Si Si4 0.270419 0.629975 0.912901
Si Si5 0.397130 0.456725 0.573969
O O1 0.266238 0.250000 0.419208
O O2 0.243809 0.183253 0.119003
O O3 0.287941 0.112174 0.416011
O O4 0.870753 0.173616 0.065204
O O5 0.508231 0.161157 0.024898
O O6 0.683518 0.117374 0.460410
O O7 0.207099 0.081653 0.923792
O O8 0.063900 0.606031 0.589623
O O9 0.616212 0.433086 0.897064
O O10 0.810167 0.496619 0.507882
O O11 0.500000 0.500000 0.500000
#
# Coordination Sequence:
#
# PCOD9166843 Si02
#       5
#     4   4   4   4   4
#     4  12  28  46  71 105 152 201 251 307 380 455
#     4  10  24  48  71 108 145 192 244 308 367 438
#     4  10  23  44  77 109 142 189 244 314 371 431
#     4  10  25  44  73 109 147 189 244 306 377 443
#     4  12  23  44  77 113 150 193 250 315 375 444
#
# _framework density 24.717283999999999
#
# number of rings (size 3 to 8) (size 9 to 14) (size 15 to 20)
#    1.200    0.000    2.000    3.000    2.800    4.800 
#    0.000    3.000    0.000    0.000    0.000    0.000 
#    0.000    0.000    0.000    0.000    0.000    0.000 
#
# Total GULP energy -111416.548712 kJ/mol
# GULP energy per Si atom -5570.827436 kJ/mol
# Density = 2.466103 g / cm^3
# Si number density = 24.717284 Si / 1000 Ang^3
#
#
#
# Elastic Constant Matrix: (Units=GPa)
#
#
# Indices 1 2 3 4 5 6 
#
# 1 213.8903 57.1246 22.5596 0.0000 12.6455 0.0000
# 2 57.1246 140.3964 13.2103 0.0000 3.8234 0.0000
# 3 22.5596 13.2103 54.5370 0.0000 9.9084 0.0000
# 4 0.0000 0.0000 0.0000 6.4395 0.0000 -14.6791
# 5 12.6455 3.8234 9.9084 0.0000 28.4733 0.0000
# 6 0.0000 0.0000 0.0000 -14.6791 0.0000 -28.3726
#
#
#
# Elastic Compliance Matrix: (Units=1/GPa)
#
#
# Indices 1 2 3 4 5 6 
#
# 1 0.005473 -0.002044 -0.001470 0.000000 -0.001645 0.000000
# 2 -0.002044 0.008056 -0.001147 0.000000 0.000225 0.000000
# 3 -0.001470 -0.001147 0.020363 0.000000 -0.006279 0.000000
# 4 0.000000 0.000000 0.000000 0.071256 0.000000 -0.036866
# 5 -0.001645 0.000225 -0.006279 0.000000 0.038006 0.000000
# 6 0.000000 0.000000 0.000000 -0.036866 0.000000 -0.016172
#
#
# Mechanical properties :
#
#
# Convention : Reuss Voigt Hill
#
# Bulk Modulus (GPa) = 40.69899 66.06807 53.38353
# Shear Modulus (GPa) = 34.60352 22.36998 28.48675
#
# Velocity S-wave (km/s) = 3.74568 3.01164 3.39854
# Velocity P-wave (km/s) = 5.93366 6.23545 6.08643
#
# Compressibility (1/GPa) = 0.02457063
#
# Stress axis : x y z
#
# Youngs Moduli (GPa) = 182.69903 124.12951 49.10879
#
# Poissons Ratio (x) = 0.25371 0.07220
# Poissons Ratio (y) = 0.37342 0.05632
# Poissons Ratio (z) = 0.26861 0.14235
#
# Static dielectric constant tensor:
#      x y z
#    x 2.077740 0.000000 0.005000 
#    y 0.000000 1.940670 0.000000 
#    z 0.005000 0.000000 1.954520 
# 
# From -- ./inp_files/14712.got.cif
#   From: 2010.05.17/outbox.cif.g08.bks.cpg/sg11_8_cif.got.tgz:14712.got - 2010.06.03 12:22:45.
