data_PCOD9166550
_publ_section_title
;
Structure prediction by ZEFSAII (Michael W. Deem and Ramdas Pophale) SiO2 
 PCOD9166550
Probable space group: P 21/M
;
_chemical_formula_sum "Si O2"
_cell_formula_units_Z 26
_cell_length_a 14.752822
_cell_length_b 14.616477
_cell_length_c 9.948552
_cell_angle_alpha 90.000000
_cell_angle_beta 32.209157
_cell_angle_gamma 90.000000
_cell_volume 1143.442341
_symmetry_space_group_name_H-M "P 21/M"
_symmetry_group_IT_number 11
_symmetry_cell_setting 'monoclinic'
loop_
_space_group_symop_operation_xyz
x,y,z
-x,1/2+y,-z
-x,-y,-z
x,1/2-y,z
loop_
_atom_site_type_symbol
_atom_site_label
_atom_site_fract_x
_atom_site_fract_y
_atom_site_fract_z
Si Si1 0.658942 0.852368 0.453719
Si Si2 0.495869 0.512489 0.846027
Si Si3 0.173676 0.750000 0.943839
Si Si4 0.023101 0.098136 0.300466
Si Si5 0.041516 0.606849 0.913089
Si Si6 0.416711 0.357009 0.748664
Si Si7 0.132763 0.599681 0.229298
O O1 0.591274 0.750000 0.563808
O O2 0.630414 0.917140 0.615381
O O3 0.858789 0.847621 0.175192
O O4 0.571519 0.885808 0.424089
O O5 0.508961 0.420802 0.740523
O O6 0.500000 0.500000 0.000000
O O7 0.315909 0.558329 0.035535
O O8 0.150687 0.671523 0.089964
O O9 0.174269 0.666612 0.829815
O O10 0.948366 0.136669 0.531548
O O11 0.024615 0.988063 0.316502
O O12 0.924727 0.117357 0.287116
O O13 0.216023 0.131418 0.035950
O O14 0.000000 0.500000 0.000000
O O15 0.459247 0.250000 0.701073
#
# Coordination Sequence:
#
# PCOD9166550 Si02
#       7
#     4   4   2   4   4   4   4
#     4  10  22  42  68  94 126 172 220 264 324 405
#     4  11  25  42  64  92 135 178 216 273 329 400
#     4  12  24  40  64 104 132 176 216 282 342 392
#     4   9  20  40  66  92 131 170 213 288 330 400
#     4  11  22  40  69 101 133 168 227 277 335 393
#     4   9  20  41  65  92 122 170 225 266 329 395
#     4  10  23  41  61  96 134 173 223 269 351 393
#
# _framework density 22.738358000000002
#
# number of rings (size 3 to 8) (size 9 to 14) (size 15 to 20)
#    0.000    1.846    2.308    0.462    5.385    1.846 
#    0.000    0.000    0.000    0.000    0.000    0.000 
#    0.000    0.000    0.000    0.000    0.000    0.000 
#
# Total GULP energy -144889.593991 kJ/mol
# GULP energy per Si atom -5572.676692 kJ/mol
# Density = 2.268660 g / cm^3
# Si number density = 22.738358 Si / 1000 Ang^3
#
#
#
# Elastic Constant Matrix: (Units=GPa)
#
#
# Indices 1 2 3 4 5 6 
#
# 1 69.8220 47.8432 52.1085 0.0000 45.8057 0.0000
# 2 47.8432 139.3627 27.9140 0.0000 31.2163 0.0000
# 3 52.1085 27.9140 95.7229 0.0000 38.3123 0.0000
# 4 0.0000 0.0000 0.0000 27.8275 0.0000 10.7083
# 5 45.8057 31.2163 38.3123 0.0000 46.1838 0.0000
# 6 0.0000 0.0000 0.0000 10.7083 0.0000 26.8215
#
#
#
# Elastic Compliance Matrix: (Units=1/GPa)
#
#
# Indices 1 2 3 4 5 6 
#
# 1 0.052655 -0.007322 -0.011388 0.000000 -0.037827 0.000000
# 2 -0.007322 0.009479 0.001317 0.000000 -0.000237 0.000000
# 3 -0.011388 0.001317 0.018111 0.000000 -0.004619 0.000000
# 4 0.000000 0.000000 0.000000 0.042459 0.000000 -0.016951
# 5 -0.037827 -0.000237 -0.004619 0.000000 0.063162 0.000000
# 6 0.000000 0.000000 0.000000 -0.016951 0.000000 0.044051
#
#
# Mechanical properties :
#
#
# Convention : Reuss Voigt Hill
#
# Bulk Modulus (GPa) = 21.99911 62.29323 42.14617
# Shear Modulus (GPa) = 17.86636 31.96935 24.91786
#
# Velocity S-wave (km/s) = 2.80614 3.75369 3.31396
# Velocity P-wave (km/s) = 4.49390 6.80015 5.76356
#
# Compressibility (1/GPa) = 0.04545638
#
# Stress axis : x y z
#
# Youngs Moduli (GPa) = 18.99173 105.50164 55.21493
#
# Poissons Ratio (x) = 0.77251 0.62880
# Poissons Ratio (y) = 0.13906 -0.07270
# Poissons Ratio (z) = 0.21628 -0.13891
#
# Static dielectric constant tensor:
#      x y z
#    x 1.789430 0.000000 0.075560 
#    y 0.000000 1.571690 0.000000 
#    z 0.075560 0.000000 1.656870 
# 
# From -- ./inp_files/22382.got.cif
#   From: 2010.05.17/outbox.cif.g08.bks.cpg/sg11_12_cif.got.tgz:22382.got - 2010.06.03 12:22:45.
