data_PCOD9166306
_publ_section_title
;
Structure prediction by ZEFSAII (Michael W. Deem and Ramdas Pophale) SiO2 
 PCOD9166306
Probable space group: P 21/M
;
_chemical_formula_sum "Si O2"
_cell_formula_units_Z 20
_cell_length_a 9.046981
_cell_length_b 17.731194
_cell_length_c 7.160557
_cell_angle_alpha 90.000000
_cell_angle_beta 48.604297
_cell_angle_gamma 90.000000
_cell_volume 861.673533
_symmetry_space_group_name_H-M "P 21/M"
_symmetry_group_IT_number 11
_symmetry_cell_setting 'monoclinic'
loop_
_space_group_symop_operation_xyz
x,y,z
-x,1/2+y,-z
-x,-y,-z
x,1/2-y,z
loop_
_atom_site_type_symbol
_atom_site_label
_atom_site_fract_x
_atom_site_fract_y
_atom_site_fract_z
Si Si1 0.950209 0.439449 0.247282
Si Si2 0.717795 0.161674 0.737642
Si Si3 0.360119 0.427704 0.090890
Si Si4 0.715684 0.162641 0.184877
Si Si5 0.644827 0.563625 0.474342
O O1 0.843986 0.399888 0.517880
O O2 0.891895 0.379430 0.139972
O O3 0.848798 0.517854 0.273348
O O4 0.176462 0.445487 0.114567
O O5 0.760048 0.250000 0.659664
O O6 0.489492 0.139287 0.896661
O O7 0.736299 0.150053 0.945412
O O8 0.307844 0.413646 0.348613
O O9 0.500000 0.500000 0.000000
O O10 0.729773 0.250000 0.209359
O O11 0.504533 0.133389 0.439044
O O12 0.500000 0.500000 0.500000
#
# Coordination Sequence:
#
# PCOD9166306 Si02
#       5
#     4   4   4   4   4
#     4  11  21  39  66  91 124 167 210 256 319 372
#     4  10  22  40  62  89 125 165 207 260 319 374
#     4  11  22  39  63  93 125 161 209 261 304 373
#     4   9  20  39  61  92 127 161 211 264 311 376
#     4   9  19  37  61  90 122 163 203 254 311 369
#
# _framework density 23.210645
#
# number of rings (size 3 to 8) (size 9 to 14) (size 15 to 20)
#    0.000    2.000    2.000    1.200    0.000    1.600 
#    3.600    3.000    0.000    4.800    0.000    0.000 
#    0.000    0.000    0.000    0.000    0.000    0.000 
#
# Total GULP energy -111364.015911 kJ/mol
# GULP energy per Si atom -5568.200796 kJ/mol
# Density = 2.315782 g / cm^3
# Si number density = 23.210645 Si / 1000 Ang^3
#
#
#
# Elastic Constant Matrix: (Units=GPa)
#
#
# Indices 1 2 3 4 5 6 
#
# 1 206.5492 52.6871 54.6815 0.0000 -23.4446 0.0000
# 2 52.6871 127.2431 49.9903 0.0000 -11.1426 0.0000
# 3 54.6815 49.9903 63.0085 0.0000 1.5938 0.0000
# 4 0.0000 0.0000 0.0000 28.3431 0.0000 -1.9309
# 5 -23.4446 -11.1426 1.5938 0.0000 46.8528 0.0000
# 6 0.0000 0.0000 0.0000 -1.9309 0.0000 21.8552
#
#
#
# Elastic Compliance Matrix: (Units=1/GPa)
#
#
# Indices 1 2 3 4 5 6 
#
# 1 0.006857 -0.000222 -0.005865 0.000000 0.003578 0.000000
# 2 -0.000222 0.011871 -0.009302 0.000000 0.003029 0.000000
# 3 -0.005865 -0.009302 0.028496 0.000000 -0.006117 0.000000
# 4 0.000000 0.000000 0.000000 0.035496 0.000000 0.003136
# 5 0.003578 0.003029 -0.006117 0.000000 0.024062 0.000000
# 6 0.000000 0.000000 0.000000 0.003136 0.000000 0.046033
#
#
# Mechanical properties :
#
#
# Convention : Reuss Voigt Hill
#
# Bulk Modulus (GPa) = 60.80846 79.05761 69.93304
# Shear Modulus (GPa) = 26.44459 35.37302 30.90880
#
# Velocity S-wave (km/s) = 3.37906 3.90808 3.65316
# Velocity P-wave (km/s) = 6.44045 7.38234 6.92742
#
# Compressibility (1/GPa) = 0.01644508
#
# Stress axis : x y z
#
# Youngs Moduli (GPa) = 145.83852 84.24216 35.09231
#
# Poissons Ratio (x) = 0.01866 0.20583
# Poissons Ratio (y) = 0.03230 0.32644
# Poissons Ratio (z) = 0.85541 0.78365
#
# Static dielectric constant tensor:
#      x y z
#    x 1.846860 0.000000 0.032280 
#    y 0.000000 1.827400 0.000000 
#    z 0.032280 0.000000 2.099860 
# 
# From -- ./inp_files/2128.got.cif
#   From: 2010.05.17/outbox.cif.g08.bks.cpg/sg11_2_cif.got.tgz:2128.got - 2010.06.03 12:22:45.
