data_PCOD9166469
_publ_section_title
;
Structure prediction by ZEFSAII (Michael W. Deem and Ramdas Pophale) SiO2 
 PCOD9166469
Probable space group: P 21/M
;
_chemical_formula_sum "Si O2"
_cell_formula_units_Z 32
_cell_length_a 19.957272
_cell_length_b 8.372260
_cell_length_c 11.913692
_cell_angle_alpha 90.000000
_cell_angle_beta 129.364416
_cell_angle_gamma 90.000000
_cell_volume 1539.010012
_symmetry_space_group_name_H-M "P 21/M"
_symmetry_group_IT_number 11
_symmetry_cell_setting 'monoclinic'
loop_
_space_group_symop_operation_xyz
x,y,z
-x,1/2+y,-z
-x,-y,-z
x,1/2-y,z
loop_
_atom_site_type_symbol
_atom_site_label
_atom_site_fract_x
_atom_site_fract_y
_atom_site_fract_z
Si Si1 0.579695 0.557462 0.661641
Si Si2 0.631371 0.562339 0.196611
Si Si3 0.233145 0.439945 0.224031
Si Si4 0.813676 0.433583 0.399844
Si Si5 0.447896 0.559106 0.113886
Si Si6 0.887778 0.944060 0.706935
Si Si7 0.925032 0.935315 0.338597
Si Si8 0.080107 0.936969 0.913441
O O1 0.500000 0.500000 0.500000
O O2 0.580123 0.750000 0.662853
O O3 0.672070 0.498826 0.709309
O O4 0.569843 0.498108 0.779129
O O5 0.649833 0.750000 0.228987
O O6 0.713822 0.462391 0.321645
O O7 0.546648 0.524420 0.180522
O O8 0.609576 0.522617 0.043885
O O9 0.242499 0.250000 0.247764
O O10 0.187681 0.500288 0.289557
O O11 0.160648 0.472633 0.053075
O O12 0.830688 0.250000 0.390259
O O13 0.870058 0.486610 0.565840
O O14 0.838655 0.540543 0.319871
O O15 0.435204 0.750000 0.093538
O O16 0.886890 0.750000 0.699471
O O17 0.984000 0.991492 0.849355
O O18 0.939289 0.750000 0.327208
O O19 0.920040 0.035220 0.219978
O O20 0.000000 0.000000 0.500000
O O21 0.089339 0.750000 0.949249
#
# Coordination Sequence:
#
# PCOD9166469 Si02
#       8
#     4   4   4   4   4   4   4   4
#     4  11  25  44  66  93 128 169 214 266 323 380
#     4  10  22  41  66  94 127 166 207 260 320 379
#     4  10  24  44  66  92 125 170 216 262 320 381
#     4  12  25  39  62  95 128 167 213 260 314 380
#     4  10  22  42  67  94 126 164 210 262 319 382
#     4  10  22  42  65  91 128 170 215 265 317 375
#     4  12  24  41  63  90 128 169 210 257 313 374
#     4  11  23  40  66  96 128 167 211 266 320 377
#
# _framework density 20.792586
#
# number of rings (size 3 to 8) (size 9 to 14) (size 15 to 20)
#    0.000    1.250    1.250    4.125    3.500    3.500 
#    0.000    0.000    0.000    0.000    0.000    0.000 
#    0.000    0.000    0.000    0.000    0.000    0.000 
#
# Total GULP energy -178927.007346 kJ/mol
# GULP energy per Si atom -5591.468980 kJ/mol
# Density = 2.074526 g / cm^3
# Si number density = 20.792586 Si / 1000 Ang^3
#
#
#
# Elastic Constant Matrix: (Units=GPa)
#
#
# Indices 1 2 3 4 5 6 
#
# 1 127.2673 12.5262 46.5293 0.0000 0.5971 0.0000
# 2 12.5262 24.3074 -1.5613 0.0000 7.9169 0.0000
# 3 46.5293 -1.5613 57.5857 0.0000 4.5922 0.0000
# 4 0.0000 0.0000 0.0000 34.3196 0.0000 0.1381
# 5 0.5971 7.9169 4.5922 0.0000 37.1223 0.0000
# 6 0.0000 0.0000 0.0000 0.1381 0.0000 26.6466
#
#
#
# Elastic Compliance Matrix: (Units=1/GPa)
#
#
# Indices 1 2 3 4 5 6 
#
# 1 0.012483 -0.008026 -0.010529 0.000000 0.002813 0.000000
# 2 -0.008026 0.049593 0.008749 0.000000 -0.011530 0.000000
# 3 -0.010529 0.008749 0.026507 0.000000 -0.004975 0.000000
# 4 0.000000 0.000000 0.000000 0.029139 0.000000 -0.000151
# 5 0.002813 -0.011530 -0.004975 0.000000 0.029967 0.000000
# 6 0.000000 0.000000 0.000000 -0.000151 0.000000 0.037529
#
#
# Mechanical properties :
#
#
# Convention : Reuss Voigt Hill
#
# Bulk Modulus (GPa) = 14.49872 36.01653 25.25762
# Shear Modulus (GPa) = 21.94728 29.72877 25.83803
#
# Velocity S-wave (km/s) = 3.25242 3.78534 3.52896
# Velocity P-wave (km/s) = 4.59266 6.03858 5.36456
#
# Compressibility (1/GPa) = 0.06897161
#
# Stress axis : x y z
#
# Youngs Moduli (GPa) = 80.10587 20.16432 37.72656
#
# Poissons Ratio (x) = 0.16183 0.39721
# Poissons Ratio (y) = 0.64289 -0.33006
# Poissons Ratio (z) = 0.84340 -0.17641
#
# Static dielectric constant tensor:
#      x y z
#    x 1.778880 0.000000 0.019540 
#    y 0.000000 1.709520 0.000000 
#    z 0.019540 0.000000 1.710130 
# 
# From -- ./inp_files/42934.got.cif
#   From: 2010.05.17/outbox.cif.g08.bks.cpg/sg11_22_cif.got.tgz:42934.got - 2010.06.03 12:22:45.
