data_PCOD9166706
_publ_section_title
;
Structure prediction by ZEFSAII (Michael W. Deem and Ramdas Pophale) SiO2 
 PCOD9166706
Probable space group: P 21/M
;
_chemical_formula_sum "Si O2"
_cell_formula_units_Z 26
_cell_length_a 12.190275
_cell_length_b 15.893064
_cell_length_c 8.706657
_cell_angle_alpha 90.000000
_cell_angle_beta 138.761788
_cell_angle_gamma 90.000000
_cell_volume 1111.946566
_symmetry_space_group_name_H-M "P 21/M"
_symmetry_group_IT_number 11
_symmetry_cell_setting 'monoclinic'
loop_
_space_group_symop_operation_xyz
x,y,z
-x,1/2+y,-z
-x,-y,-z
x,1/2-y,z
loop_
_atom_site_type_symbol
_atom_site_label
_atom_site_fract_x
_atom_site_fract_y
_atom_site_fract_z
Si Si1 0.844021 0.849410 0.431181
Si Si2 0.514335 0.929491 0.224629
Si Si3 0.667824 0.250000 0.974789
Si Si4 0.281894 0.033681 0.273071
Si Si5 0.044782 0.597225 0.917115
Si Si6 0.164838 0.750000 0.192233
Si Si7 0.346053 0.397350 0.029616
Si Si8 0.385110 0.750000 0.734233
O O1 0.813034 0.750000 0.420383
O O2 0.688605 0.904420 0.327631
O O3 0.004811 0.870667 0.702796
O O4 0.827338 0.871855 0.234943
O O5 0.427537 0.838952 0.134920
O O6 0.570416 0.963888 0.450360
O O7 0.409782 0.008793 0.052660
O O8 0.755124 0.250000 0.897241
O O9 0.718307 0.250000 0.212730
O O10 0.119120 0.046930 0.207851
O O11 0.316680 0.103304 0.181185
O O12 0.216122 0.953042 0.109434
O O13 0.054966 0.667467 0.059774
O O14 0.277876 0.750000 0.463143
O O15 0.490992 0.330808 0.139396
#
# Coordination Sequence:
#
# PCOD9166706 Si02
#       8
#     4   4   2   4   4   2   4   2
#     4  11  21  41  64  88 134 173 215 265 328 401
#     4  11  21  40  67  93 133 169 209 279 342 385
#     4  12  24  43  66 103 132 172 220 278 350 394
#     4  10  23  40  65  93 126 169 225 269 330 399
#     4  10  23  45  61  90 127 177 225 262 322 403
#     4  12  24  43  67  89 133 178 217 274 338 382
#     4  12  22  40  65 100 130 166 219 281 335 392
#     4  12  26  42  65 106 135 162 231 282 334 408
#
# _framework density 23.382417
#
# number of rings (size 3 to 8) (size 9 to 14) (size 15 to 20)
#    0.000    0.923    3.846    3.692    0.000    1.231 
#    2.769    0.000    0.000    0.000    0.000    0.000 
#    0.000    0.000    0.000    0.000    0.000    0.000 
#
# Total GULP energy -144896.592444 kJ/mol
# GULP energy per Si atom -5572.945863 kJ/mol
# Density = 2.332920 g / cm^3
# Si number density = 23.382417 Si / 1000 Ang^3
#
#
#
# Elastic Constant Matrix: (Units=GPa)
#
#
# Indices 1 2 3 4 5 6 
#
# 1 48.0913 -1.8947 12.0807 0.0000 -16.3724 0.0000
# 2 -1.8947 133.9713 60.8916 0.0000 10.7256 0.0000
# 3 12.0807 60.8916 223.7570 0.0000 -15.6911 0.0000
# 4 0.0000 0.0000 0.0000 38.1006 0.0000 -11.5904
# 5 -16.3724 10.7256 -15.6911 0.0000 34.4482 0.0000
# 6 0.0000 0.0000 0.0000 -11.5904 0.0000 41.0911
#
#
#
# Elastic Compliance Matrix: (Units=1/GPa)
#
#
# Indices 1 2 3 4 5 6 
#
# 1 0.024887 -0.000405 -0.000408 0.000000 0.011768 0.000000
# 2 -0.000405 0.009043 -0.002738 0.000000 -0.004255 0.000000
# 3 -0.000408 -0.002738 0.005457 0.000000 0.003144 0.000000
# 4 0.000000 0.000000 0.000000 0.028710 0.000000 0.008098
# 5 0.011768 -0.004255 0.003144 0.000000 0.037379 0.000000
# 6 0.000000 0.000000 0.000000 0.008098 0.000000 0.026620
#
#
# Mechanical properties :
#
#
# Convention : Reuss Voigt Hill
#
# Bulk Modulus (GPa) = 30.97320 60.88609 45.92965
# Shear Modulus (GPa) = 33.34243 45.04410 39.19327
#
# Velocity S-wave (km/s) = 3.78029 4.39385 4.09857
# Velocity P-wave (km/s) = 5.68588 7.19979 6.48715
#
# Compressibility (1/GPa) = 0.03228597
#
# Stress axis : x y z
#
# Youngs Moduli (GPa) = 40.18193 110.57700 183.26365
#
# Poissons Ratio (x) = 0.04474 0.07482
# Poissons Ratio (y) = 0.01626 0.50170
# Poissons Ratio (z) = 0.01641 0.30271
#
# Static dielectric constant tensor:
#      x y z
#    x 2.038840 0.000000 -0.046290 
#    y 0.000000 1.934870 0.000000 
#    z -0.046290 0.000000 1.923980 
# 
# From -- ./inp_files/22461.got.cif
#   From: 2010.05.17/outbox.cif.g08.bks.cpg/sg11_12_cif.got.tgz:22461.got - 2010.06.03 12:22:45.
