data_PCOD9166052
_publ_section_title
;
Structure prediction by ZEFSAII (Michael W. Deem and Ramdas Pophale) SiO2 
 PCOD9166052
Probable space group: P 21/M
;
_chemical_formula_sum "Si O2"
_cell_formula_units_Z 28
_cell_length_a 28.233574
_cell_length_b 8.756455
_cell_length_c 9.945920
_cell_angle_alpha 90.000000
_cell_angle_beta 36.294133
_cell_angle_gamma 90.000000
_cell_volume 1455.492485
_symmetry_space_group_name_H-M "P 21/M"
_symmetry_group_IT_number 11
_symmetry_cell_setting 'monoclinic'
loop_
_space_group_symop_operation_xyz
x,y,z
-x,1/2+y,-z
-x,-y,-z
x,1/2-y,z
loop_
_atom_site_type_symbol
_atom_site_label
_atom_site_fract_x
_atom_site_fract_y
_atom_site_fract_z
Si Si1 0.591534 0.067376 0.536838
Si Si2 0.855744 0.933457 0.559109
Si Si3 0.023951 0.932694 0.090718
Si Si4 0.182804 0.432379 0.660615
Si Si5 0.367422 0.067889 0.275728
Si Si6 0.572124 0.067544 0.140664
Si Si7 0.291394 0.566643 0.958954
O O1 0.590402 0.250000 0.554776
O O2 0.592838 0.987711 0.678087
O O3 0.512016 0.014814 0.640953
O O4 0.669565 0.022355 0.272273
O O5 0.850784 0.750000 0.575305
O O6 0.827885 0.981103 0.471636
O O7 0.949420 0.977293 0.356347
O O8 0.794298 0.000359 0.806369
O O9 0.025161 0.750000 0.080079
O O10 0.113173 0.993007 0.909159
O O11 0.000000 0.000000 0.000000
O O12 0.171043 0.250000 0.690022
O O13 0.272570 0.466277 0.499972
O O14 0.377858 0.250000 0.233842
O O15 0.401913 0.981215 0.068246
O O16 0.562200 0.250000 0.173260
O O17 0.643388 0.019794 0.077502
O O18 0.286411 0.750000 0.973908
#
# Coordination Sequence:
#
# PCOD9166052 Si02
#       7
#     4   4   4   4   4   4   4
#     4  11  24  40  55  78 110 144 181 224 272 322
#     4   9  17  31  51  78 109 140 174 217 267 317
#     4   9  17  28  46  76 110 141 174 216 265 314
#     4   9  18  32  51  78 108 139 176 219 268 316
#     4  11  22  38  58  81 110 144 181 224 271 322
#     4  11  22  38  59  83 106 138 183 226 273 323
#     4  10  22  37  56  81 109 141 181 224 269 321
#
# _framework density 19.237476000000001
#
# number of rings (size 3 to 8) (size 9 to 14) (size 15 to 20)
#    0.000    2.000    1.429    3.429    0.000    5.714 
#    0.000    0.000    0.000    0.857    0.000    0.000 
#    0.000    0.000    0.000    0.000    0.000    0.000 
#
# Total GULP energy -156298.059410 kJ/mol
# GULP energy per Si atom -5582.073550 kJ/mol
# Density = 1.919369 g / cm^3
# Si number density = 19.237476 Si / 1000 Ang^3
#
#
#
# Elastic Constant Matrix: (Units=GPa)
#
#
# Indices 1 2 3 4 5 6 
#
# 1 16.6430 0.8143 -3.4067 0.0000 -2.0456 0.0000
# 2 0.8143 17.0289 10.3529 0.0000 -10.3957 0.0000
# 3 -3.4067 10.3529 91.1407 0.0000 -17.8326 0.0000
# 4 0.0000 0.0000 0.0000 33.7628 0.0000 -10.3926
# 5 -2.0456 -10.3957 -17.8326 0.0000 32.8118 0.0000
# 6 0.0000 0.0000 0.0000 -10.3926 0.0000 17.0246
#
#
#
# Elastic Compliance Matrix: (Units=1/GPa)
#
#
# Indices 1 2 3 4 5 6 
#
# 1 0.061534 -0.001952 0.003526 0.000000 0.005134 0.000000
# 2 -0.001952 0.074336 -0.004401 0.000000 0.021038 0.000000
# 3 0.003526 -0.004401 0.012727 0.000000 0.005743 0.000000
# 4 0.000000 0.000000 0.000000 0.036471 0.000000 0.022264
# 5 0.005134 0.021038 0.005743 0.000000 0.040583 0.000000
# 6 0.000000 0.000000 0.000000 0.022264 0.000000 0.072329
#
#
# Mechanical properties :
#
#
# Convention : Reuss Voigt Hill
#
# Bulk Modulus (GPa) = 6.99573 15.59263 11.29418
# Shear Modulus (GPa) = 14.23359 24.52332 19.37846
#
# Velocity S-wave (km/s) = 2.72304 3.57426 3.17729
# Velocity P-wave (km/s) = 3.67845 5.01565 4.39817
#
# Compressibility (1/GPa) = 0.14294439
#
# Stress axis : x y z
#
# Youngs Moduli (GPa) = 16.25121 13.45250 78.57098
#
# Poissons Ratio (x) = 0.02626 -0.27707
# Poissons Ratio (y) = 0.03172 0.34576
# Poissons Ratio (z) = -0.05731 0.05920
#
# Static dielectric constant tensor:
#      x y z
#    x 1.661930 0.000000 -0.023100 
#    y 0.000000 1.641300 0.000000 
#    z -0.023100 0.000000 1.697930 
# 
# From -- ./inp_files/28347.got.cif
#   From: 2010.05.17/outbox.cif.g08.bks.cpg/sg11_15_cif.got.tgz:28347.got - 2010.06.03 12:22:45.
