data_PCOD9166283
_publ_section_title
;
Structure prediction by ZEFSAII (Michael W. Deem and Ramdas Pophale) SiO2 
 PCOD9166283
Probable space group: P 21/M
;
_chemical_formula_sum "Si O2"
_cell_formula_units_Z 32
_cell_length_a 23.674601
_cell_length_b 8.816156
_cell_length_c 15.988514
_cell_angle_alpha 90.000000
_cell_angle_beta 150.655828
_cell_angle_gamma 90.000000
_cell_volume 1635.364360
_symmetry_space_group_name_H-M "P 21/M"
_symmetry_group_IT_number 11
_symmetry_cell_setting 'monoclinic'
loop_
_space_group_symop_operation_xyz
x,y,z
-x,1/2+y,-z
-x,-y,-z
x,1/2-y,z
loop_
_atom_site_type_symbol
_atom_site_label
_atom_site_fract_x
_atom_site_fract_y
_atom_site_fract_z
Si Si1 0.049470 0.564819 0.296038
Si Si2 0.330962 0.927697 0.837104
Si Si3 0.543564 0.930239 0.845749
Si Si4 0.085981 0.431897 0.042766
Si Si5 0.566772 0.069665 0.706053
Si Si6 0.945616 0.426630 0.511299
Si Si7 0.329505 0.930820 0.334494
Si Si8 0.687732 0.065570 0.376191
O O1 0.052246 0.750000 0.302992
O O2 0.021110 0.511320 0.353560
O O3 0.180315 0.515855 0.441513
O O4 0.961540 0.521031 0.110190
O O5 0.364370 0.750000 0.888095
O O6 0.193080 0.936405 0.671094
O O7 0.351721 0.978570 0.768411
O O8 0.393389 0.025376 0.987431
O O9 0.545583 0.750000 0.836101
O O10 0.410026 0.981537 0.684785
O O11 0.601343 0.010796 0.841472
O O12 0.084342 0.250000 0.045283
O O13 0.214536 0.493178 0.220019
O O14 0.000000 0.500000 0.000000
O O15 0.551636 0.250000 0.687133
O O16 0.653457 0.032662 0.742205
O O17 0.445318 0.991228 0.527089
O O18 0.977847 0.250000 0.551882
O O19 0.000000 0.500000 0.500000
O O20 0.323104 0.750000 0.336599
O O21 0.689574 0.250000 0.379033
#
# Coordination Sequence:
#
# PCOD9166283 Si02
#       8
#     4   4   4   4   4   4   4   4
#     4   8  17  35  55  77 108 148 189 228 282 344
#     4   9  18  34  52  73 108 147 184 226 276 332
#     4  11  21  31  53  85 112 143 186 231 279 338
#     4  11  23  38  61  90 120 155 197 244 294 350
#     4  10  22  40  61  85 113 149 191 237 293 350
#     4   9  18  34  56  79 105 144 187 229 281 335
#     4  10  22  42  63  82 113 151 189 239 294 349
#     4   8  16  32  53  76 106 146 187 227 276 333
#
# _framework density 19.567504
#
# number of rings (size 3 to 8) (size 9 to 14) (size 15 to 20)
#    0.000    2.500    0.000    3.375    1.750    3.000 
#    0.000    4.375    0.000    3.000    0.000    0.000 
#    0.000    0.000    0.000    0.000    0.000    0.000 
#
# Total GULP energy -178589.801901 kJ/mol
# GULP energy per Si atom -5580.931309 kJ/mol
# Density = 1.952297 g / cm^3
# Si number density = 19.567504 Si / 1000 Ang^3
#
#
#
# Elastic Constant Matrix: (Units=GPa)
#
#
# Indices 1 2 3 4 5 6 
#
# 1 90.2929 32.5245 4.8657 0.0000 5.4070 0.0000
# 2 32.5245 34.9444 9.1550 0.0000 6.9594 0.0000
# 3 4.8657 9.1550 32.6383 0.0000 2.7555 0.0000
# 4 0.0000 0.0000 0.0000 23.1947 0.0000 0.1965
# 5 5.4070 6.9594 2.7555 0.0000 16.1839 0.0000
# 6 0.0000 0.0000 0.0000 0.1965 0.0000 26.9415
#
#
#
# Elastic Compliance Matrix: (Units=1/GPa)
#
#
# Indices 1 2 3 4 5 6 
#
# 1 0.016802 -0.016379 0.001997 0.000000 0.001090 0.000000
# 2 -0.016379 0.049325 -0.010212 0.000000 -0.014000 0.000000
# 3 0.001997 -0.010212 0.033371 0.000000 -0.001958 0.000000
# 4 0.000000 0.000000 0.000000 0.043116 0.000000 -0.000315
# 5 0.001090 -0.014000 -0.001958 0.000000 0.067780 0.000000
# 6 0.000000 0.000000 0.000000 -0.000315 0.000000 0.037120
#
#
# Mechanical properties :
#
#
# Convention : Reuss Voigt Hill
#
# Bulk Modulus (GPa) = 19.87628 27.88513 23.88071
# Shear Modulus (GPa) = 15.95049 20.68603 18.31826
#
# Velocity S-wave (km/s) = 2.85818 3.25493 3.06299
# Velocity P-wave (km/s) = 4.59044 5.32989 4.97393
#
# Compressibility (1/GPa) = 0.05031121
#
# Stress axis : x y z
#
# Youngs Moduli (GPa) = 59.51677 20.27370 29.96634
#
# Poissons Ratio (x) = 0.33206 -0.05985
# Poissons Ratio (y) = 0.97481 0.30601
# Poissons Ratio (z) = -0.11888 0.20703
#
# Static dielectric constant tensor:
#      x y z
#    x 1.695440 0.000000 -0.009450 
#    y 0.000000 1.655170 0.000000 
#    z -0.009450 0.000000 1.683730 
# 
# From -- ./inp_files/55743.got.cif
#   From: 2010.05.17/outbox.cif.g08.bks.cpg/sg11_28_cif.got.tgz:55743.got - 2010.06.03 12:22:45.
