data_PCOD9166324
_publ_section_title
;
Structure prediction by ZEFSAII (Michael W. Deem and Ramdas Pophale) SiO2 
 PCOD9166324
Probable space group: P 21/M
;
_chemical_formula_sum "Si O2"
_cell_formula_units_Z 32
_cell_length_a 15.529581
_cell_length_b 8.733954
_cell_length_c 11.939640
_cell_angle_alpha 90.000000
_cell_angle_beta 87.230110
_cell_angle_gamma 90.000000
_cell_volume 1617.536820
_symmetry_space_group_name_H-M "P 21/M"
_symmetry_group_IT_number 11
_symmetry_cell_setting 'monoclinic'
loop_
_space_group_symop_operation_xyz
x,y,z
-x,1/2+y,-z
-x,-y,-z
x,1/2-y,z
loop_
_atom_site_type_symbol
_atom_site_label
_atom_site_fract_x
_atom_site_fract_y
_atom_site_fract_z
Si Si1 0.743542 0.919494 0.990164
Si Si2 0.024077 0.926432 0.299884
Si Si3 0.504700 0.430776 0.871925
Si Si4 0.834126 0.066067 0.322554
Si Si5 0.915809 0.074112 0.956414
Si Si6 0.333202 0.573085 0.811967
Si Si7 0.672262 0.574557 0.749885
Si Si8 0.821125 0.934554 0.570148
O O1 0.720332 0.750000 0.034677
O O2 0.727846 0.920188 0.859847
O O3 0.841235 0.963220 0.001702
O O4 0.691079 0.049527 0.056390
O O5 0.013461 0.750000 0.337925
O O6 0.072880 0.926325 0.177856
O O7 0.088185 0.013809 0.380031
O O8 0.928888 0.997928 0.289331
O O9 0.505131 0.250000 0.886571
O O10 0.422218 0.481586 0.802791
O O11 0.588128 0.484227 0.796068
O O12 0.500000 0.500000 0.000000
O O13 0.840023 0.250000 0.315416
O O14 0.751829 0.019106 0.250763
O O15 0.814982 0.010013 0.449205
O O16 0.901584 0.250000 0.993848
O O17 0.000000 0.000000 0.000000
O O18 0.347927 0.750000 0.783476
O O19 0.646888 0.750000 0.723568
O O20 0.738045 0.517484 0.650436
O O21 0.820322 0.750000 0.563626
#
# Coordination Sequence:
#
# PCOD9166324 Si02
#       8
#     4   4   4   4   4   4   4   4
#     4  11  21  36  60  88 123 160 199 248 306 367
#     4  11  23  39  61  89 122 163 210 256 303 363
#     4  12  24  39  65  96 128 163 202 251 305 370
#     4  11  25  43  63  89 123 163 208 259 308 361
#     4  11  23  36  54  83 122 164 206 252 305 368
#     4  11  24  42  64  91 126 165 206 254 309 367
#     4  10  22  40  63  93 124 158 200 250 305 361
#     4  11  23  42  67  91 122 163 208 258 306 361
#
# _framework density 19.783165
#
# number of rings (size 3 to 8) (size 9 to 14) (size 15 to 20)
#    0.000    1.000    2.500    4.500    0.000    7.000 
#    0.000    0.625    0.000    0.000    0.000    0.000 
#    0.000    0.000    0.000    0.000    0.000    0.000 
#
# Total GULP energy -178632.759995 kJ/mol
# GULP energy per Si atom -5582.273750 kJ/mol
# Density = 1.973814 g / cm^3
# Si number density = 19.783165 Si / 1000 Ang^3
#
#
#
# Elastic Constant Matrix: (Units=GPa)
#
#
# Indices 1 2 3 4 5 6 
#
# 1 135.2148 42.4181 12.9522 0.0000 -3.2687 0.0000
# 2 42.4181 83.7389 14.3549 0.0000 2.1105 0.0000
# 3 12.9522 14.3549 46.7158 0.0000 3.5650 0.0000
# 4 0.0000 0.0000 0.0000 24.7966 0.0000 -2.2003
# 5 -3.2687 2.1105 3.5650 0.0000 23.3254 0.0000
# 6 0.0000 0.0000 0.0000 -2.2003 0.0000 26.6519
#
#
#
# Elastic Compliance Matrix: (Units=1/GPa)
#
#
# Indices 1 2 3 4 5 6 
#
# 1 0.008927 -0.004349 -0.001279 0.000000 0.001840 0.000000
# 2 -0.004349 0.014732 -0.003210 0.000000 -0.001452 0.000000
# 3 -0.001279 -0.003210 0.023007 0.000000 -0.003405 0.000000
# 4 0.000000 0.000000 0.000000 0.040626 0.000000 0.003354
# 5 0.001840 -0.001452 -0.003405 0.000000 0.043781 0.000000
# 6 0.000000 0.000000 0.000000 0.003354 0.000000 0.037798
#
#
# Mechanical properties :
#
#
# Convention : Reuss Voigt Hill
#
# Bulk Modulus (GPa) = 34.49582 45.01330 39.75456
# Shear Modulus (GPa) = 25.48286 28.01773 26.75029
#
# Velocity S-wave (km/s) = 3.59292 3.76738 3.68118
# Velocity P-wave (km/s) = 5.88956 6.45964 6.18117
#
# Compressibility (1/GPa) = 0.02898902
#
# Stress axis : x y z
#
# Youngs Moduli (GPa) = 112.01978 67.88028 43.46510
#
# Poissons Ratio (x) = 0.29522 0.05559
# Poissons Ratio (y) = 0.48718 0.13953
# Poissons Ratio (z) = 0.14328 0.21791
#
# Static dielectric constant tensor:
#      x y z
#    x 1.697750 0.000000 -0.023830 
#    y 0.000000 1.708360 0.000000 
#    z -0.023830 0.000000 1.702320 
# 
# From -- ./inp_files/38303.got.cif
#   From: 2010.05.17/outbox.cif.g08.bks.cpg/sg11_20_cif.got.tgz:38303.got - 2010.06.03 12:22:45.
