data_PCOD9166423
_publ_section_title
;
Structure prediction by ZEFSAII (Michael W. Deem and Ramdas Pophale) SiO2 
 PCOD9166423
Probable space group: P 21/M
;
_chemical_formula_sum "Si O2"
_cell_formula_units_Z 32
_cell_length_a 12.187209
_cell_length_b 8.458030
_cell_length_c 29.448148
_cell_angle_alpha 90.000000
_cell_angle_beta 30.990235
_cell_angle_gamma 90.000000
_cell_volume 1562.959030
_symmetry_space_group_name_H-M "P 21/M"
_symmetry_group_IT_number 11
_symmetry_cell_setting 'monoclinic'
loop_
_space_group_symop_operation_xyz
x,y,z
-x,1/2+y,-z
-x,-y,-z
x,1/2-y,z
loop_
_atom_site_type_symbol
_atom_site_label
_atom_site_fract_x
_atom_site_fract_y
_atom_site_fract_z
Si Si1 0.959588 0.561708 0.279790
Si Si2 0.417264 0.562106 0.821469
Si Si3 0.611094 0.939404 0.914757
Si Si4 0.819695 0.936765 0.177303
Si Si5 0.613488 0.062951 0.339542
Si Si6 0.245906 0.942286 0.975644
Si Si7 0.132003 0.059617 0.496522
Si Si8 0.882145 0.441250 0.677280
O O1 0.965492 0.750000 0.276289
O O2 0.734228 0.505953 0.340177
O O3 0.152598 0.500179 0.179587
O O4 0.007064 0.511294 0.314724
O O5 0.391257 0.750000 0.823320
O O6 0.361477 0.470534 0.795598
O O7 0.265000 0.507239 0.916755
O O8 0.655200 0.524936 0.752990
O O9 0.615887 0.750000 0.914439
O O10 0.456503 0.990753 0.928352
O O11 0.500000 0.000000 0.000000
O O12 0.838789 0.750000 0.179577
O O13 0.759987 0.023424 0.244421
O O14 0.037995 0.995265 0.076581
O O15 0.597727 0.250000 0.351125
O O16 0.376142 0.001071 0.412843
O O17 0.241701 0.750000 0.976583
O O18 0.137704 0.250000 0.491105
O O19 0.017335 0.018724 0.584554
O O20 0.000000 0.000000 0.500000
O O21 0.852718 0.250000 0.688517
#
# Coordination Sequence:
#
# PCOD9166423 Si02
#       8
#     4   4   4   4   4   4   4   4
#     4  11  23  40  62  90 123 161 205 255 311 371
#     4  11  21  37  59  87 121 158 202 252 305 366
#     4  11  21  37  59  86 121 165 212 259 306 361
#     4  11  22  38  59  86 121 161 202 251 307 366
#     4  11  24  42  63  90 122 159 203 253 306 368
#     4   9  20  36  55  81 117 157 200 247 299 357
#     4  10  23  43  66  93 124 158 201 252 309 372
#     4  10  22  41  64  90 122 161 205 255 311 372
#
# _framework density 20.473984000000002
#
# number of rings (size 3 to 8) (size 9 to 14) (size 15 to 20)
#    0.000    1.500    1.250    3.750    0.000    5.500 
#    0.000    3.750    0.000    0.000    0.000    0.000 
#    0.000    0.000    0.000    0.000    0.000    0.000 
#
# Total GULP energy -178894.165562 kJ/mol
# GULP energy per Si atom -5590.442674 kJ/mol
# Density = 2.042738 g / cm^3
# Si number density = 20.473984 Si / 1000 Ang^3
#
#
#
# Elastic Constant Matrix: (Units=GPa)
#
#
# Indices 1 2 3 4 5 6 
#
# 1 120.4108 11.6016 48.4799 0.0000 -15.9751 0.0000
# 2 11.6016 25.8936 17.9075 0.0000 -4.4529 0.0000
# 3 48.4799 17.9075 101.1506 0.0000 -3.4122 0.0000
# 4 0.0000 0.0000 0.0000 23.1012 0.0000 -4.5844
# 5 -15.9751 -4.4529 -3.4122 0.0000 34.9818 0.0000
# 6 0.0000 0.0000 0.0000 -4.5844 0.0000 27.7259
#
#
#
# Elastic Compliance Matrix: (Units=1/GPa)
#
#
# Indices 1 2 3 4 5 6 
#
# 1 0.010967 -0.000706 -0.004982 0.000000 0.004432 0.000000
# 2 -0.000706 0.044892 -0.007452 0.000000 0.004665 0.000000
# 3 -0.004982 -0.007452 0.013529 0.000000 -0.001904 0.000000
# 4 0.000000 0.000000 0.000000 0.044756 0.000000 0.007400
# 5 0.004432 0.004665 -0.001904 0.000000 0.031018 0.000000
# 6 0.000000 0.000000 0.000000 0.007400 0.000000 0.037291
#
#
# Mechanical properties :
#
#
# Convention : Reuss Voigt Hill
#
# Bulk Modulus (GPa) = 23.19748 44.82591 34.01169
# Shear Modulus (GPa) = 22.41134 28.45954 25.43544
#
# Velocity S-wave (km/s) = 3.31210 3.73236 3.52849
# Velocity P-wave (km/s) = 5.09721 6.36519 5.76616
#
# Compressibility (1/GPa) = 0.04310814
#
# Stress axis : x y z
#
# Youngs Moduli (GPa) = 91.18524 22.27588 73.91604
#
# Poissons Ratio (x) = 0.01573 0.36822
# Poissons Ratio (y) = 0.06440 0.55080
# Poissons Ratio (z) = 0.45425 0.16599
#
# Static dielectric constant tensor:
#      x y z
#    x 1.728820 0.000000 -0.008510 
#    y 0.000000 1.700700 0.000000 
#    z -0.008510 0.000000 1.731010 
# 
# From -- ./inp_files/49289.got.cif
#   From: 2010.05.17/outbox.cif.g08.bks.cpg/sg11_25_cif.got.tgz:49289.got - 2010.06.03 12:22:45.
