data_PCOD9166714
_publ_section_title
;
Structure prediction by ZEFSAII (Michael W. Deem and Ramdas Pophale) SiO2 
 PCOD9166714
Probable space group: P 21/M
;
_chemical_formula_sum "Si O2"
_cell_formula_units_Z 24
_cell_length_a 24.421160
_cell_length_b 8.826733
_cell_length_c 12.772575
_cell_angle_alpha 90.000000
_cell_angle_beta 150.830219
_cell_angle_gamma 90.000000
_cell_volume 1341.929026
_symmetry_space_group_name_H-M "P 21/M"
_symmetry_group_IT_number 11
_symmetry_cell_setting 'monoclinic'
loop_
_space_group_symop_operation_xyz
x,y,z
-x,1/2+y,-z
-x,-y,-z
x,1/2-y,z
loop_
_atom_site_type_symbol
_atom_site_label
_atom_site_fract_x
_atom_site_fract_y
_atom_site_fract_z
Si Si1 0.619589 0.069632 0.734428
Si Si2 0.229297 0.430826 0.192012
Si Si3 0.630128 0.068964 0.382083
Si Si4 0.623675 0.931003 0.967332
Si Si5 0.751819 0.931569 0.389971
Si Si6 0.017224 0.569219 0.144049
O O1 0.613694 0.250000 0.715536
O O2 0.500000 0.000000 0.500000
O O3 0.713454 0.005198 0.813010
O O4 0.642007 0.019025 0.890517
O O5 0.246849 0.250000 0.219282
O O6 0.290268 0.498357 0.396093
O O7 0.096753 0.460370 0.981770
O O8 0.645451 0.250000 0.404793
O O9 0.501713 0.037188 0.199205
O O10 0.665241 0.998823 0.330139
O O11 0.629808 0.750000 0.957124
O O12 0.710354 0.969489 0.204181
O O13 0.752939 0.750000 0.402341
O O14 0.873427 0.997388 0.620819
O O15 0.031817 0.750000 0.158968
O O16 0.000000 0.500000 0.000000
#
# Coordination Sequence:
#
# PCOD9166714 Si02
#       6
#     4   4   4   4   4   4
#     4  12  24  39  63  90 120 158 200 247 297 356
#     4  11  23  39  61  90 121 155 200 251 299 349
#     4  11  21  35  60  90 123 160 199 245 298 359
#     4  10  23  41  60  87 123 162 201 246 300 356
#     4  11  23  39  60  88 125 162 199 247 302 357
#     4  11  23  39  62  88 119 158 201 249 298 356
#
# _framework density 17.884702999999998
#
# number of rings (size 3 to 8) (size 9 to 14) (size 15 to 20)
#    0.000    1.000    3.333    4.000    0.000    4.000 
#    0.000    0.833    0.000    0.000    0.000    0.000 
#    0.000    0.000    0.000    0.000    0.000    0.000 
#
# Total GULP energy -134229.225051 kJ/mol
# GULP energy per Si atom -5592.884377 kJ/mol
# Density = 1.784400 g / cm^3
# Si number density = 17.884703 Si / 1000 Ang^3
#
#
#
# Elastic Constant Matrix: (Units=GPa)
#
#
# Indices 1 2 3 4 5 6 
#
# 1 137.9507 70.0311 43.2011 0.0000 -11.8763 0.0000
# 2 70.0311 86.6750 39.2323 0.0000 -4.6289 0.0000
# 3 43.2011 39.2323 67.4657 0.0000 -14.8591 0.0000
# 4 0.0000 0.0000 0.0000 28.8392 0.0000 -1.5046
# 5 -11.8763 -4.6289 -14.8591 0.0000 26.9409 0.0000
# 6 0.0000 0.0000 0.0000 -1.5046 0.0000 32.6452
#
#
#
# Elastic Compliance Matrix: (Units=1/GPa)
#
#
# Indices 1 2 3 4 5 6 
#
# 1 0.012893 -0.009246 -0.002251 0.000000 0.002854 0.000000
# 2 -0.009246 0.022458 -0.008181 0.000000 -0.004729 0.000000
# 3 -0.002251 -0.008181 0.023326 0.000000 0.010468 0.000000
# 4 0.000000 0.000000 0.000000 0.034759 0.000000 0.001602
# 5 0.002854 -0.004729 0.010468 0.000000 0.043337 0.000000
# 6 0.000000 0.000000 0.000000 0.001602 0.000000 0.030706
#
#
# Mechanical properties :
#
#
# Convention : Reuss Voigt Hill
#
# Bulk Modulus (GPa) = 51.75325 66.33562 59.04443
# Shear Modulus (GPa) = 23.44372 26.99353 25.21862
#
# Velocity S-wave (km/s) = 3.62446 3.88920 3.75916
# Velocity P-wave (km/s) = 6.82023 7.57225 7.20606
#
# Compressibility (1/GPa) = 0.01932246
#
# Stress axis : x y z
#
# Youngs Moduli (GPa) = 77.55865 44.52659 42.87007
#
# Poissons Ratio (x) = 0.41171 0.09649
# Poissons Ratio (y) = 0.71714 0.35071
# Poissons Ratio (z) = 0.17457 0.36426
#
# Static dielectric constant tensor:
#      x y z
#    x 1.589900 0.000000 0.006510 
#    y 0.000000 1.595040 0.000000 
#    z 0.006510 0.000000 1.588820 
# 
# From -- ./inp_files/33703.got.cif
#   From: 2010.05.17/outbox.cif.g08.bks.cpg/sg11_17_cif.got.tgz:33703.got - 2010.06.03 12:22:45.
