data_PCOD9166503
_publ_section_title
;
Structure prediction by ZEFSAII (Michael W. Deem and Ramdas Pophale) SiO2 
 PCOD9166503
Probable space group: P 21/M
;
_chemical_formula_sum "Si O2"
_cell_formula_units_Z 32
_cell_length_a 15.882430
_cell_length_b 8.329401
_cell_length_c 12.306201
_cell_angle_alpha 90.000000
_cell_angle_beta 89.376860
_cell_angle_gamma 90.000000
_cell_volume 1627.904933
_symmetry_space_group_name_H-M "P 21/M"
_symmetry_group_IT_number 11
_symmetry_cell_setting 'monoclinic'
loop_
_space_group_symop_operation_xyz
x,y,z
-x,1/2+y,-z
-x,-y,-z
x,1/2-y,z
loop_
_atom_site_type_symbol
_atom_site_label
_atom_site_fract_x
_atom_site_fract_y
_atom_site_fract_z
Si Si1 0.653290 0.944924 0.727769
Si Si2 0.999185 0.440971 0.624194
Si Si3 0.158921 0.061113 0.234546
Si Si4 0.149003 0.060178 0.782908
Si Si5 0.332764 0.939527 0.736553
Si Si6 0.595055 0.557689 0.487903
Si Si7 0.094167 0.937528 0.011933
Si Si8 0.494377 0.555640 0.875632
O O1 0.653524 0.750000 0.738538
O O2 0.746541 0.004852 0.753937
O O3 0.637160 0.981465 0.602271
O O4 0.575884 0.001032 0.804809
O O5 0.004766 0.250000 0.620601
O O6 0.913451 0.487725 0.688007
O O7 0.000000 0.500000 0.500000
O O8 0.079790 0.497249 0.695167
O O9 0.160607 0.250000 0.259611
O O10 0.134506 0.033133 0.110317
O O11 0.134064 0.250000 0.800995
O O12 0.244836 0.031155 0.747557
O O13 0.137197 0.969090 0.896328
O O14 0.318711 0.750000 0.755673
O O15 0.407348 0.994772 0.817452
O O16 0.365426 0.968851 0.614753
O O17 0.500000 0.500000 0.500000
O O18 0.599330 0.750000 0.471348
O O19 0.094710 0.750000 0.039500
O O20 0.000000 0.000000 0.000000
O O21 0.494851 0.750000 0.873313
O O22 0.500000 0.500000 0.000000
#
# Coordination Sequence:
#
# PCOD9166503 Si02
#       8
#     4   4   4   4   4   4   4   4
#     4   9  21  41  63  89 125 165 205 253 310 368
#     4  11  25  44  65  91 128 169 211 262 317 378
#     4  11  23  41  67  95 126 168 212 260 316 375
#     4  11  25  44  66  93 126 168 213 259 315 379
#     4  11  24  42  64  94 128 163 207 263 317 372
#     4  11  21  40  66  92 124 164 211 261 312 374
#     4  12  24  42  67  95 127 164 210 264 317 375
#     4  10  22  42  62  88 126 166 206 255 309 369
#
# _framework density 19.657166
#
# number of rings (size 3 to 8) (size 9 to 14) (size 15 to 20)
#    0.000    1.250    2.500    3.000    3.500    2.500 
#    0.000    2.500    0.000    0.000    0.000    0.000 
#    0.000    0.000    0.000    0.000    0.000    0.000 
#
# Total GULP energy -178809.604183 kJ/mol
# GULP energy per Si atom -5587.800131 kJ/mol
# Density = 1.961243 g / cm^3
# Si number density = 19.657166 Si / 1000 Ang^3
#
#
#
# Elastic Constant Matrix: (Units=GPa)
#
#
# Indices 1 2 3 4 5 6 
#
# 1 140.0698 -0.4741 51.5625 0.0000 11.3559 0.0000
# 2 -0.4741 24.9374 -4.3725 0.0000 2.5462 0.0000
# 3 51.5625 -4.3725 118.6958 0.0000 6.2187 0.0000
# 4 0.0000 0.0000 0.0000 36.8093 0.0000 -5.9201
# 5 11.3559 2.5462 6.2187 0.0000 37.3502 0.0000
# 6 0.0000 0.0000 0.0000 -5.9201 0.0000 20.3439
#
#
#
# Elastic Compliance Matrix: (Units=1/GPa)
#
#
# Indices 1 2 3 4 5 6 
#
# 1 0.008649 -0.000273 -0.003662 0.000000 -0.002001 0.000000
# 2 -0.000273 0.040712 0.001775 0.000000 -0.002988 0.000000
# 3 -0.003662 0.001775 0.010117 0.000000 -0.000692 0.000000
# 4 0.000000 0.000000 0.000000 0.028501 0.000000 0.008294
# 5 -0.002001 -0.002988 -0.000692 0.000000 0.027701 0.000000
# 6 0.000000 0.000000 0.000000 0.008294 0.000000 0.051568
#
#
# Mechanical properties :
#
#
# Convention : Reuss Voigt Hill
#
# Bulk Modulus (GPa) = 18.13023 41.90385 30.01704
# Shear Modulus (GPa) = 26.32202 34.69981 30.51092
#
# Velocity S-wave (km/s) = 3.66328 4.20605 3.94401
# Velocity P-wave (km/s) = 5.20923 6.70458 6.00364
#
# Compressibility (1/GPa) = 0.05515649
#
# Stress axis : x y z
#
# Youngs Moduli (GPa) = 115.62306 24.56303 98.83867
#
# Poissons Ratio (x) = 0.00672 0.36198
# Poissons Ratio (y) = 0.03161 -0.17544
# Poissons Ratio (z) = 0.42345 -0.04360
#
# Static dielectric constant tensor:
#      x y z
#    x 1.703910 0.000000 0.013230 
#    y 0.000000 1.605530 0.000000 
#    z 0.013230 0.000000 1.636260 
# 
# From -- ./inp_files/38274.got.cif
#   From: 2010.05.17/outbox.cif.g08.bks.cpg/sg11_20_cif.got.tgz:38274.got - 2010.06.03 12:22:45.
