data_PCOD9166241
_publ_section_title
;
Structure prediction by ZEFSAII (Michael W. Deem and Ramdas Pophale) SiO2 
 PCOD9166241
Probable space group: P 21/M
;
_chemical_formula_sum "Si O2"
_cell_formula_units_Z 28
_cell_length_a 5.425385
_cell_length_b 17.587966
_cell_length_c 16.755580
_cell_angle_alpha 90.000000
_cell_angle_beta 53.973585
_cell_angle_gamma 90.000000
_cell_volume 1293.057238
_symmetry_space_group_name_H-M "P 21/M"
_symmetry_group_IT_number 11
_symmetry_cell_setting 'monoclinic'
loop_
_space_group_symop_operation_xyz
x,y,z
-x,1/2+y,-z
-x,-y,-z
x,1/2-y,z
loop_
_atom_site_type_symbol
_atom_site_label
_atom_site_fract_x
_atom_site_fract_y
_atom_site_fract_z
Si Si1 0.180318 0.665134 0.655106
Si Si2 0.746038 0.066020 0.216425
Si Si3 0.398361 0.086808 0.013600
Si Si4 0.482046 0.332674 0.146062
Si Si5 0.613563 0.162298 0.816680
Si Si6 0.745842 0.448448 0.501366
Si Si7 0.296230 0.106377 0.719174
O O1 0.303852 0.750000 0.613370
O O2 0.360094 0.616211 0.687426
O O3 0.131321 0.611848 0.587479
O O4 0.867425 0.677046 0.762396
O O5 0.537177 0.089281 0.183201
O O6 0.066651 0.088669 0.115883
O O7 0.755123 0.979552 0.240077
O O8 0.569677 0.146574 0.038985
O O9 0.434174 0.113651 0.916892
O O10 0.500000 0.000000 0.000000
O O11 0.628135 0.250000 0.140610
O O12 0.600607 0.250000 0.841941
O O13 0.448983 0.150795 0.763369
O O14 0.969525 0.136826 0.751235
O O15 0.500000 0.500000 0.500000
O O16 0.547097 0.401177 0.602474
O O17 0.000000 0.500000 0.500000
#
# Coordination Sequence:
#
# PCOD9166241 Si02
#       7
#     4   4   4   4   4   4   4
#     4  10  23  42  66 103 139 173 222 291 359 415
#     4  11  22  40  70  99 135 175 235 290 352 420
#     4  11  23  41  65  96 132 182 239 288 345 411
#     4  10  22  39  63  97 137 175 223 289 356 413
#     4  12  28  48  68 101 145 191 238 292 345 414
#     4  12  25  46  76 106 137 184 233 286 348 419
#     4  12  26  46  75 101 141 188 237 287 349 424
#
# _framework density 21.654108000000001
#
# number of rings (size 3 to 8) (size 9 to 14) (size 15 to 20)
#    0.000    0.857    2.857    3.857    4.000    4.000 
#    0.000    0.000    0.000    0.000    0.000    0.000 
#    0.000    0.000    0.000    0.000    0.000    0.000 
#
# Total GULP energy -156119.081413 kJ/mol
# GULP energy per Si atom -5575.681479 kJ/mol
# Density = 2.160482 g / cm^3
# Si number density = 21.654108 Si / 1000 Ang^3
#
#
#
# Elastic Constant Matrix: (Units=GPa)
#
#
# Indices 1 2 3 4 5 6 
#
# 1 69.5522 13.5823 15.6263 0.0000 4.2407 0.0000
# 2 13.5823 104.2096 17.5188 0.0000 -3.6987 0.0000
# 3 15.6263 17.5188 120.7374 0.0000 7.5869 0.0000
# 4 0.0000 0.0000 0.0000 0.7000 0.0000 -3.5366
# 5 4.2407 -3.6987 7.5869 0.0000 25.8211 0.0000
# 6 0.0000 0.0000 0.0000 -3.5366 0.0000 20.3409
#
#
#
# Elastic Compliance Matrix: (Units=1/GPa)
#
#
# Indices 1 2 3 4 5 6 
#
# 1 0.015221 -0.001803 -0.001564 0.000000 -0.002298 0.000000
# 2 -0.001803 0.010138 -0.001373 0.000000 0.002152 0.000000
# 3 -0.001564 -0.001373 0.008844 0.000000 -0.002538 0.000000
# 4 0.000000 0.000000 0.000000 11.756861 0.000000 2.044137
# 5 -0.002298 0.002152 -0.002538 0.000000 0.040160 0.000000
# 6 0.000000 0.000000 0.000000 2.044137 0.000000 0.404571
#
#
# Mechanical properties :
#
#
# Convention : Reuss Voigt Hill
#
# Bulk Modulus (GPa) = 40.44656 43.10598 41.77627
# Shear Modulus (GPa) = 0.40805 25.89052 13.14928
#
# Velocity S-wave (km/s) = 0.43457 3.46155 2.46690
# Velocity P-wave (km/s) = 4.35555 5.99385 5.23914
#
# Compressibility (1/GPa) = 0.02472398
#
# Stress axis : x y z
#
# Youngs Moduli (GPa) = 65.69777 98.63727 113.07650
#
# Poissons Ratio (x) = 0.17780 0.17685
# Poissons Ratio (y) = 0.11842 0.15525
# Poissons Ratio (z) = 0.10275 0.13542
#
# Static dielectric constant tensor:
#      x y z
#    x 1.776180 0.000000 0.005720 
#    y 0.000000 1.817030 0.000000 
#    z 0.005720 0.000000 1.758390 
# 
# From -- ./inp_files/6884.got.cif
#   From: 2010.05.17/outbox.cif.g08.bks.cpg/sg11_4_cif.got.tgz:6884.got - 2010.06.03 12:22:45.
