data_PCOD9166646
_publ_section_title
;
Structure prediction by ZEFSAII (Michael W. Deem and Ramdas Pophale) SiO2 
 PCOD9166646
Probable space group: P 21/M
;
_chemical_formula_sum "Si O2"
_cell_formula_units_Z 20
_cell_length_a 11.957128
_cell_length_b 12.981607
_cell_length_c 5.428107
_cell_angle_alpha 90.000000
_cell_angle_beta 89.459925
_cell_angle_gamma 90.000000
_cell_volume 842.528192
_symmetry_space_group_name_H-M "P 21/M"
_symmetry_group_IT_number 11
_symmetry_cell_setting 'monoclinic'
loop_
_space_group_symop_operation_xyz
x,y,z
-x,1/2+y,-z
-x,-y,-z
x,1/2-y,z
loop_
_atom_site_type_symbol
_atom_site_label
_atom_site_fract_x
_atom_site_fract_y
_atom_site_fract_z
Si Si1 0.547047 0.250000 0.357852
Si Si2 0.401361 0.250000 0.869271
Si Si3 0.235747 0.868921 0.042816
Si Si4 0.231809 0.422398 0.739174
Si Si5 0.992026 0.066878 0.748893
Si Si6 0.620035 0.048520 0.557157
O O1 0.469390 0.250000 0.608063
O O2 0.619950 0.146958 0.376719
O O3 0.475213 0.250000 0.112218
O O4 0.321348 0.349870 0.868087
O O5 0.236573 0.750000 0.963067
O O6 0.348939 0.899253 0.186175
O O7 0.126898 0.876582 0.228846
O O8 0.218322 0.965623 0.863816
O O9 0.109785 0.372444 0.735188
O O10 0.289855 0.457598 0.483312
O O11 0.000000 0.000000 0.500000
O O12 0.000000 0.000000 0.000000
O O13 0.500000 0.000000 0.500000
#
# Coordination Sequence:
#
# PCOD9166646 Si02
#       6
#     2   2   4   4   4   4
#     4  12  28  44  67 105 142 190 242 293 358 426
#     4  12  28  48  71 101 148 194 244 295 358 430
#     4  11  25  44  72 108 146 190 241 302 362 429
#     4  11  26  45  73 102 147 191 242 298 364 433
#     4  10  22  45  71 101 140 181 236 292 354 424
#     4  12  24  42  70 101 146 187 241 298 356 427
#
# _framework density 23.738078999999999
#
# number of rings (size 3 to 8) (size 9 to 14) (size 15 to 20)
#    0.000    0.800    5.000    1.200    5.600    1.600 
#    0.000    0.000    2.200    0.000    0.000    0.000 
#    0.000    0.000    0.000    0.000    0.000    0.000 
#
# Total GULP energy -111611.716697 kJ/mol
# GULP energy per Si atom -5580.585835 kJ/mol
# Density = 2.368405 g / cm^3
# Si number density = 23.738079 Si / 1000 Ang^3
#
#
#
# Elastic Constant Matrix: (Units=GPa)
#
#
# Indices 1 2 3 4 5 6 
#
# 1 107.1768 13.9022 13.2139 0.0000 -9.0726 0.0000
# 2 13.9022 123.5804 16.7189 0.0000 -8.9266 0.0000
# 3 13.2139 16.7189 102.7504 0.0000 5.5993 0.0000
# 4 0.0000 0.0000 0.0000 24.7393 0.0000 -5.2476
# 5 -9.0726 -8.9266 5.5993 0.0000 38.2756 0.0000
# 6 0.0000 0.0000 0.0000 -5.2476 0.0000 30.5738
#
#
#
# Elastic Compliance Matrix: (Units=1/GPa)
#
#
# Indices 1 2 3 4 5 6 
#
# 1 0.009781 -0.000762 -0.001261 0.000000 0.002325 0.000000
# 2 -0.000762 0.008512 -0.001396 0.000000 0.002009 0.000000
# 3 -0.001261 -0.001396 0.010237 0.000000 -0.002122 0.000000
# 4 0.000000 0.000000 0.000000 0.041949 0.000000 0.007200
# 5 0.002325 0.002009 -0.002122 0.000000 0.027456 0.000000
# 6 0.000000 0.000000 0.000000 0.007200 0.000000 0.033944
#
#
# Mechanical properties :
#
#
# Convention : Reuss Voigt Hill
#
# Bulk Modulus (GPa) = 46.09895 46.79750 46.44823
# Shear Modulus (GPa) = 34.25880 38.02924 36.14402
#
# Velocity S-wave (km/s) = 3.80307 4.00689 3.90631
# Velocity P-wave (km/s) = 6.22466 6.41590 6.32100
#
# Compressibility (1/GPa) = 0.02169247
#
# Stress axis : x y z
#
# Youngs Moduli (GPa) = 102.23415 117.48635 97.68187
#
# Poissons Ratio (x) = 0.08951 0.12314
# Poissons Ratio (y) = 0.07789 0.13641
# Poissons Ratio (z) = 0.12888 0.16406
#
# Static dielectric constant tensor:
#      x y z
#    x 2.002160 0.000000 -0.111060 
#    y 0.000000 1.864440 0.000000 
#    z -0.111060 0.000000 1.966460 
# 
# From -- ./inp_files/4209.got.cif
#   From: 2010.05.17/outbox.cif.g08.bks.cpg/sg11_3_cif.got.tgz:4209.got - 2010.06.03 12:22:45.
