data_PCOD9166286
_publ_section_title
;
Structure prediction by ZEFSAII (Michael W. Deem and Ramdas Pophale) SiO2 
 PCOD9166286
Probable space group: P 21/M
;
_chemical_formula_sum "Si O2"
_cell_formula_units_Z 32
_cell_length_a 22.758009
_cell_length_b 8.529375
_cell_length_c 14.231192
_cell_angle_alpha 90.000000
_cell_angle_beta 36.839583
_cell_angle_gamma 90.000000
_cell_volume 1656.294114
_symmetry_space_group_name_H-M "P 21/M"
_symmetry_group_IT_number 11
_symmetry_cell_setting 'monoclinic'
loop_
_space_group_symop_operation_xyz
x,y,z
-x,1/2+y,-z
-x,-y,-z
x,1/2-y,z
loop_
_atom_site_type_symbol
_atom_site_label
_atom_site_fract_x
_atom_site_fract_y
_atom_site_fract_z
Si Si1 0.314417 0.561946 0.831561
Si Si2 0.213116 0.061899 0.297427
Si Si3 0.913423 0.938263 0.176916
Si Si4 0.066100 0.562005 0.638511
Si Si5 0.140646 0.439448 0.185935
Si Si6 0.292882 0.060404 0.648313
Si Si7 0.495184 0.059069 0.296950
Si Si8 0.433900 0.938505 0.999859
O O1 0.314224 0.750000 0.828609
O O2 0.299555 0.496446 0.746573
O O3 0.417903 0.509397 0.744093
O O4 0.227389 0.505748 0.010665
O O5 0.214045 0.250000 0.300581
O O6 0.158610 0.012869 0.270744
O O7 0.155328 0.996458 0.460514
O O8 0.323744 0.000694 0.150896
O O9 0.915224 0.750000 0.174028
O O10 0.808292 0.990958 0.270431
O O11 0.927343 0.997413 0.264814
O O12 0.000000 0.000000 0.000000
O O13 0.066452 0.750000 0.641231
O O14 0.964376 0.510167 0.719788
O O15 0.144879 0.250000 0.176561
O O16 0.293281 0.250000 0.648051
O O17 0.389157 0.006233 0.468516
O O18 0.494414 0.250000 0.297973
O O19 0.522110 0.009443 0.157003
O O20 0.432481 0.750000 0.002773
O O21 0.500000 0.000000 0.000000
#
# Coordination Sequence:
#
# PCOD9166286 Si02
#       8
#     4   4   4   4   4   4   4   4
#     4  11  21  36  61  92 122 156 200 253 308 363
#     4  11  23  41  64  92 124 162 207 252 307 372
#     4  11  24  42  64  89 122 163 206 252 307 371
#     4  11  24  41  63  91 124 160 205 260 311 363
#     4  10  22  40  62  89 123 163 204 250 306 370
#     4  10  22  40  61  85 118 161 202 248 305 364
#     4   9  20  39  61  87 121 158 198 248 303 359
#     4  11  23  41  64  92 127 166 205 251 307 365
#
# _framework density 19.320240999999999
#
# number of rings (size 3 to 8) (size 9 to 14) (size 15 to 20)
#    0.000    1.500    1.250    3.375    1.750    5.500 
#    0.000    1.875    0.000    0.000    0.000    0.000 
#    0.000    0.000    0.000    0.000    0.000    0.000 
#
# Total GULP energy -178935.410047 kJ/mol
# GULP energy per Si atom -5591.731564 kJ/mol
# Density = 1.927627 g / cm^3
# Si number density = 19.320241 Si / 1000 Ang^3
#
#
#
# Elastic Constant Matrix: (Units=GPa)
#
#
# Indices 1 2 3 4 5 6 
#
# 1 176.1307 32.5014 79.6851 0.0000 22.8725 0.0000
# 2 32.5014 30.6332 27.4898 0.0000 5.6788 0.0000
# 3 79.6851 27.4898 159.5608 0.0000 29.0754 0.0000
# 4 0.0000 0.0000 0.0000 25.7716 0.0000 -3.2264
# 5 22.8725 5.6788 29.0754 0.0000 21.5290 0.0000
# 6 0.0000 0.0000 0.0000 -3.2264 0.0000 25.8044
#
#
#
# Elastic Compliance Matrix: (Units=1/GPa)
#
#
# Indices 1 2 3 4 5 6 
#
# 1 0.008410 -0.005991 -0.002424 0.000000 -0.004080 0.000000
# 2 -0.005991 0.042923 -0.004642 0.000000 0.001312 0.000000
# 3 -0.002424 -0.004642 0.010061 0.000000 -0.009788 0.000000
# 4 0.000000 0.000000 0.000000 0.039419 0.000000 0.004929
# 5 -0.004080 0.001312 -0.009788 0.000000 0.063656 0.000000
# 6 0.000000 0.000000 0.000000 0.004929 0.000000 0.039369
#
#
# Mechanical properties :
#
#
# Convention : Reuss Voigt Hill
#
# Bulk Modulus (GPa) = 28.34500 71.74192 50.04346
# Shear Modulus (GPa) = 20.68565 29.73091 25.20828
#
# Velocity S-wave (km/s) = 3.27566 3.92707 3.61606
# Velocity P-wave (km/s) = 5.38606 7.60106 6.58733
#
# Compressibility (1/GPa) = 0.03527959
#
# Stress axis : x y z
#
# Youngs Moduli (GPa) = 118.91019 23.29748 99.39177
#
# Poissons Ratio (x) = 0.13957 0.24094
# Poissons Ratio (y) = 0.71236 0.46140
# Poissons Ratio (z) = 0.28826 0.10815
#
# Static dielectric constant tensor:
#      x y z
#    x 1.649800 0.000000 -0.011230 
#    y 0.000000 1.662590 0.000000 
#    z -0.011230 0.000000 1.635400 
# 
# From -- ./inp_files/55605.got.cif
#   From: 2010.05.17/outbox.cif.g08.bks.cpg/sg11_28_cif.got.tgz:55605.got - 2010.06.03 12:22:45.
