data_PCOD9166248
_publ_section_title
;
Structure prediction by ZEFSAII (Michael W. Deem and Ramdas Pophale) SiO2 
 PCOD9166248
Probable space group: P 21/M
;
_chemical_formula_sum "Si O2"
_cell_formula_units_Z 28
_cell_length_a 7.103039
_cell_length_b 18.101753
_cell_length_c 14.594061
_cell_angle_alpha 90.000000
_cell_angle_beta 135.270175
_cell_angle_gamma 90.000000
_cell_volume 1320.591249
_symmetry_space_group_name_H-M "P 21/M"
_symmetry_group_IT_number 11
_symmetry_cell_setting 'monoclinic'
loop_
_space_group_symop_operation_xyz
x,y,z
-x,1/2+y,-z
-x,-y,-z
x,1/2-y,z
loop_
_atom_site_type_symbol
_atom_site_label
_atom_site_fract_x
_atom_site_fract_y
_atom_site_fract_z
Si Si1 0.989046 0.833057 0.057261
Si Si2 0.750389 0.945029 0.087959
Si Si3 0.414636 0.837482 0.573540
Si Si4 0.038372 0.419182 0.470927
Si Si5 0.624171 0.164322 0.980636
Si Si6 0.970745 0.917869 0.751565
Si Si7 0.570810 0.165741 0.634446
O O1 0.872243 0.750000 0.008726
O O2 0.182595 0.845348 0.038976
O O3 0.176221 0.835681 0.211800
O O4 0.792341 0.900984 0.007632
O O5 0.648557 0.881882 0.122059
O O6 0.991983 0.998591 0.198416
O O7 0.500000 0.000000 0.000000
O O8 0.459035 0.750000 0.602980
O O9 0.178468 0.866854 0.555514
O O10 0.351864 0.849726 0.443919
O O11 0.689182 0.882438 0.683545
O O12 0.003487 0.419792 0.348986
O O13 0.000000 0.500000 0.500000
O O14 0.338205 0.388228 0.588016
O O15 0.562752 0.250000 0.970057
O O16 0.797127 0.133227 0.125012
O O17 0.461787 0.250000 0.598605
#
# Coordination Sequence:
#
# PCOD9166248 Si02
#       7
#     4   4   4   4   4   4   4
#     4  10  22  39  65  91 119 160 205 253 306 366
#     4  10  23  39  60  89 126 161 199 251 307 362
#     4  10  22  41  64  87 120 165 205 251 306 362
#     4  11  25  38  62  93 124 164 202 251 307 368
#     4  10  22  41  64  90 121 160 207 256 305 361
#     4  10  24  40  60  92 126 161 204 253 302 365
#     4   9  21  40  61  90 122 156 206 256 298 364
#
# _framework density 21.202625999999999
#
# number of rings (size 3 to 8) (size 9 to 14) (size 15 to 20)
#    0.000    2.000    0.000    1.286    6.000    7.429 
#    0.000    4.286    0.000    0.000    0.000    0.000 
#    0.000    0.000    0.000    0.000    0.000    0.000 
#
# Total GULP energy -156398.875226 kJ/mol
# GULP energy per Si atom -5585.674115 kJ/mol
# Density = 2.115437 g / cm^3
# Si number density = 21.202626 Si / 1000 Ang^3
#
#
#
# Elastic Constant Matrix: (Units=GPa)
#
#
# Indices 1 2 3 4 5 6 
#
# 1 112.0142 55.6902 2.2209 0.0000 -0.5183 0.0000
# 2 55.6902 132.3206 9.5840 0.0000 -0.0326 0.0000
# 3 2.2209 9.5840 35.4772 0.0000 2.7913 0.0000
# 4 0.0000 0.0000 0.0000 15.1726 0.0000 7.4245
# 5 -0.5183 -0.0326 2.7913 0.0000 15.9119 0.0000
# 6 0.0000 0.0000 0.0000 7.4245 0.0000 50.6367
#
#
#
# Elastic Compliance Matrix: (Units=1/GPa)
#
#
# Indices 1 2 3 4 5 6 
#
# 1 0.011303 -0.004798 0.000568 0.000000 0.000259 0.000000
# 2 -0.004798 0.009747 -0.002355 0.000000 0.000277 0.000000
# 3 0.000568 -0.002355 0.029189 0.000000 -0.005107 0.000000
# 4 0.000000 0.000000 0.000000 0.071002 0.000000 -0.010411
# 5 0.000259 0.000277 -0.005107 0.000000 0.063751 0.000000
# 6 0.000000 0.000000 0.000000 -0.010411 0.000000 0.021275
#
#
# Mechanical properties :
#
#
# Convention : Reuss Voigt Hill
#
# Bulk Modulus (GPa) = 26.97546 46.08913 36.53229
# Shear Modulus (GPa) = 21.57086 30.49870 26.03478
#
# Velocity S-wave (km/s) = 3.19308 3.79679 3.50795
# Velocity P-wave (km/s) = 5.13271 6.40355 5.80302
#
# Compressibility (1/GPa) = 0.03707073
#
# Stress axis : x y z
#
# Youngs Moduli (GPa) = 88.47291 102.59096 34.25894
#
# Poissons Ratio (x) = 0.49225 -0.01947
# Poissons Ratio (y) = 0.42451 0.08067
# Poissons Ratio (z) = -0.05028 0.24156
#
# Static dielectric constant tensor:
#      x y z
#    x 1.760510 0.000000 0.024720 
#    y 0.000000 1.791320 0.000000 
#    z 0.024720 0.000000 1.775320 
# 
# From -- ./inp_files/46076.got.cif
#   From: 2010.05.17/outbox.cif.g08.bks.cpg/sg11_24_cif.got.tgz:46076.got - 2010.06.03 12:22:45.
