data_PCOD9166662
_publ_section_title
;
Structure prediction by ZEFSAII (Michael W. Deem and Ramdas Pophale) SiO2 
 PCOD9166662
Probable space group: P 21/M
;
_chemical_formula_sum "Si O2"
_cell_formula_units_Z 32
_cell_length_a 15.644654
_cell_length_b 22.254537
_cell_length_c 10.261971
_cell_angle_alpha 90.000000
_cell_angle_beta 153.644856
_cell_angle_gamma 90.000000
_cell_volume 1586.110810
_symmetry_space_group_name_H-M "P 21/M"
_symmetry_group_IT_number 11
_symmetry_cell_setting 'monoclinic'
loop_
_space_group_symop_operation_xyz
x,y,z
-x,1/2+y,-z
-x,-y,-z
x,1/2-y,z
loop_
_atom_site_type_symbol
_atom_site_label
_atom_site_fract_x
_atom_site_fract_y
_atom_site_fract_z
Si Si1 0.859553 0.450769 0.561456
Si Si2 0.294609 0.099501 0.114808
Si Si3 0.903052 0.059691 0.120954
Si Si4 0.625464 0.875074 0.489621
Si Si5 0.086719 0.180669 0.314492
Si Si6 0.242704 0.612921 0.830557
Si Si7 0.652030 0.481135 0.536416
Si Si8 0.158809 0.180551 0.703744
O O1 0.738140 0.418836 0.282623
O O2 0.756023 0.447578 0.558693
O O3 0.901022 0.521767 0.597167
O O4 0.075203 0.422169 0.846107
O O5 0.370914 0.132174 0.349644
O O6 0.444909 0.047012 0.285162
O O7 0.281618 0.141108 0.970246
O O8 0.812678 0.061627 0.140177
O O9 0.928007 0.128958 0.113895
O O10 0.781127 0.030030 0.840117
O O11 0.792703 0.838880 0.646250
O O12 0.647152 0.947567 0.502589
O O13 0.431124 0.857692 0.149001
O O14 0.022731 0.250000 0.220039
O O15 0.203760 0.174223 0.611189
O O16 0.061665 0.657861 0.580637
O O17 0.173677 0.250000 0.758448
#
# Coordination Sequence:
#
# PCOD9166662 Si02
#       8
#     4   4   4   4   4   4   4   4
#     4  11  22  38  61  93 129 170 206 247 322 385
#     4  11  23  40  65  95 130 163 209 259 315 384
#     4  11  19  41  61  88 129 170 204 259 322 379
#     4  12  22  39  61  98 130 162 205 261 323 377
#     4  10  23  40  63  88 120 165 217 263 310 374
#     4  10  23  36  62  95 126 162 209 266 312 376
#     4  12  23  38  63  97 136 163 205 262 323 384
#     4   9  22  46  65  84 123 173 214 260 317 370
#
# _framework density 20.175135999999998
#
# number of rings (size 3 to 8) (size 9 to 14) (size 15 to 20)
#    0.000    1.250    3.750    2.625    1.750    3.500 
#    0.000    0.625    0.000    0.000    0.000    0.000 
#    0.000    0.000    0.000    0.000    0.000    0.000 
#
# Total GULP energy -178600.502818 kJ/mol
# GULP energy per Si atom -5581.265713 kJ/mol
# Density = 2.012922 g / cm^3
# Si number density = 20.175136 Si / 1000 Ang^3
#
#
#
# Elastic Constant Matrix: (Units=GPa)
#
#
# Indices 1 2 3 4 5 6 
#
# 1 76.9995 5.0996 -11.2823 0.0000 -11.8504 0.0000
# 2 5.0996 79.1513 9.2746 0.0000 -10.3231 0.0000
# 3 -11.2823 9.2746 36.6946 0.0000 -8.2172 0.0000
# 4 0.0000 0.0000 0.0000 9.1268 0.0000 1.4055
# 5 -11.8504 -10.3231 -8.2172 0.0000 20.0109 0.0000
# 6 0.0000 0.0000 0.0000 1.4055 0.0000 21.7681
#
#
#
# Elastic Compliance Matrix: (Units=1/GPa)
#
#
# Indices 1 2 3 4 5 6 
#
# 1 0.016096 -0.000314 0.007848 0.000000 0.012593 0.000000
# 2 -0.000314 0.013693 -0.002222 0.000000 0.005965 0.000000
# 3 0.007848 -0.002222 0.034151 0.000000 0.017525 0.000000
# 4 0.000000 0.000000 0.000000 0.110667 0.000000 -0.007145
# 5 0.012593 0.005965 0.017525 0.000000 0.067704 0.000000
# 6 0.000000 0.000000 0.000000 -0.007145 0.000000 0.046400
#
#
# Mechanical properties :
#
#
# Convention : Reuss Voigt Hill
#
# Bulk Modulus (GPa) = 13.41124 22.11435 17.76279
# Shear Modulus (GPa) = 16.50487 22.83140 19.66813
#
# Velocity S-wave (km/s) = 2.86331 3.36767 3.12568
# Velocity P-wave (km/s) = 4.19443 5.10946 4.67439
#
# Compressibility (1/GPa) = 0.07456433
#
# Stress axis : x y z
#
# Youngs Moduli (GPa) = 62.12754 73.03208 29.28166
#
# Poissons Ratio (x) = 0.02295 -0.22981
# Poissons Ratio (y) = 0.01953 0.06505
# Poissons Ratio (z) = -0.48759 0.16225
#
# Static dielectric constant tensor:
#      x y z
#    x 1.734340 0.000000 0.021440 
#    y 0.000000 1.717430 0.000000 
#    z 0.021440 0.000000 1.745520 
# 
# From -- ./inp_files/23355.got.cif
#   From: 2010.05.17/outbox.cif.g08.bks.cpg/sg11_12_cif.got.tgz:23355.got - 2010.06.03 12:22:45.
