data_PCOD9166780
_publ_section_title
;
Structure prediction by ZEFSAII (Michael W. Deem and Ramdas Pophale) SiO2 
 PCOD9166780
Probable space group: P 21/M
;
_chemical_formula_sum "Si O2"
_cell_formula_units_Z 28
_cell_length_a 13.015655
_cell_length_b 21.249484
_cell_length_c 8.644886
_cell_angle_alpha 90.000000
_cell_angle_beta 32.258832
_cell_angle_gamma 90.000000
_cell_volume 1276.166696
_symmetry_space_group_name_H-M "P 21/M"
_symmetry_group_IT_number 11
_symmetry_cell_setting 'monoclinic'
loop_
_space_group_symop_operation_xyz
x,y,z
-x,1/2+y,-z
-x,-y,-z
x,1/2-y,z
loop_
_atom_site_type_symbol
_atom_site_label
_atom_site_fract_x
_atom_site_fract_y
_atom_site_fract_z
Si Si1 0.917195 0.066315 0.039611
Si Si2 0.659133 0.505087 0.165647
Si Si3 0.232695 0.885556 0.477061
Si Si4 0.205124 0.318109 0.675046
Si Si5 0.199074 0.350411 0.021084
Si Si6 0.353868 0.351453 0.157390
Si Si7 0.212643 0.007874 0.304254
O O1 0.758748 0.098486 0.352465
O O2 0.817679 0.046310 0.009799
O O3 0.076781 0.119440 0.827409
O O4 0.000000 0.000000 0.000000
O O5 0.500000 0.500000 0.500000
O O6 0.742395 0.575714 0.059695
O O7 0.621225 0.492175 0.034848
O O8 0.217038 0.954856 0.425630
O O9 0.033438 0.849104 0.698110
O O10 0.421175 0.854434 0.169458
O O11 0.102040 0.250000 0.801480
O O12 0.326716 0.320685 0.360850
O O13 0.284984 0.322402 0.750999
O O14 0.260284 0.326406 0.113705
O O15 0.259675 0.421248 0.291914
O O16 0.000000 0.000000 0.500000
#
# Coordination Sequence:
#
# PCOD9166780 Si02
#       7
#     4   4   4   4   4   4   4
#     4  11  19  38  65  94 131 166 219 275 334 398
#     4  11  21  33  60  98 130 170 215 268 338 391
#     4  11  21  36  59  94 128 171 211 269 332 382
#     4  11  25  43  68  96 130 178 224 273 342 407
#     4  10  23  43  62  92 136 166 218 274 328 392
#     4  11  23  39  63  92 127 171 222 263 329 388
#     4  11  19  34  56  93 133 165 206 264 330 389
#
# _framework density 21.940708000000001
#
# number of rings (size 3 to 8) (size 9 to 14) (size 15 to 20)
#    0.000    1.143    5.714    3.857    2.000    0.571 
#    0.000    2.857    0.000    9.429    0.000    0.000 
#    0.000    0.000    0.000    0.000    0.000    0.000 
#
# Total GULP energy -156084.240050 kJ/mol
# GULP energy per Si atom -5574.437145 kJ/mol
# Density = 2.189077 g / cm^3
# Si number density = 21.940708 Si / 1000 Ang^3
#
#
#
# Elastic Constant Matrix: (Units=GPa)
#
#
# Indices 1 2 3 4 5 6 
#
# 1 89.8224 10.7757 42.3133 0.0000 23.2110 0.0000
# 2 10.7757 77.3361 21.9883 0.0000 7.4025 0.0000
# 3 42.3133 21.9883 137.7238 0.0000 28.7135 0.0000
# 4 0.0000 0.0000 0.0000 1.5376 0.0000 -5.3861
# 5 23.2110 7.4025 28.7135 0.0000 51.9197 0.0000
# 6 0.0000 0.0000 0.0000 -5.3861 0.0000 -3.6359
#
#
#
# Elastic Compliance Matrix: (Units=1/GPa)
#
#
# Indices 1 2 3 4 5 6 
#
# 1 0.013854 -0.000590 -0.003265 0.000000 -0.004304 0.000000
# 2 -0.000590 0.013602 -0.001855 0.000000 -0.000650 0.000000
# 3 -0.003265 -0.001855 0.009269 0.000000 -0.003402 0.000000
# 4 0.000000 0.000000 0.000000 0.105083 0.000000 -0.155664
# 5 -0.004304 -0.000650 -0.003402 0.000000 0.023159 0.000000
# 6 0.000000 0.000000 0.000000 -0.155664 0.000000 -0.044440
#
#
# Mechanical properties :
#
#
# Convention : Reuss Voigt Hill
#
# Bulk Modulus (GPa) = 39.51638 50.55965 45.03802
# Shear Modulus (GPa) = 35.61676 25.28460 30.45068
#
# Velocity S-wave (km/s) = 4.03341 3.39839 3.72944
# Velocity P-wave (km/s) = 6.30404 6.20424 6.25434
#
# Compressibility (1/GPa) = 0.02530596
#
# Stress axis : x y z
#
# Youngs Moduli (GPa) = 72.18106 73.51651 107.88084
#
# Poissons Ratio (x) = 0.04338 0.35222
# Poissons Ratio (y) = 0.04260 0.20011
# Poissons Ratio (z) = 0.23567 0.13637
#
# Static dielectric constant tensor:
#      x y z
#    x 1.866100 0.000000 0.005760 
#    y 0.000000 1.773700 0.000000 
#    z 0.005760 0.000000 1.885490 
# 
# From -- ./inp_files/23174.got.cif
#   From: 2010.05.17/outbox.cif.g08.bks.cpg/sg11_12_cif.got.tgz:23174.got - 2010.06.03 12:22:45.
