data_PCOD9166079
_publ_section_title
;
Structure prediction by ZEFSAII (Michael W. Deem and Ramdas Pophale) SiO2 
 PCOD9166079
Probable space group: P 21/M
;
_chemical_formula_sum "Si O2"
_cell_formula_units_Z 26
_cell_length_a 16.263997
_cell_length_b 12.268668
_cell_length_c 7.572671
_cell_angle_alpha 90.000000
_cell_angle_beta 46.402874
_cell_angle_gamma 90.000000
_cell_volume 1094.299444
_symmetry_space_group_name_H-M "P 21/M"
_symmetry_group_IT_number 11
_symmetry_cell_setting 'monoclinic'
loop_
_space_group_symop_operation_xyz
x,y,z
-x,1/2+y,-z
-x,-y,-z
x,1/2-y,z
loop_
_atom_site_type_symbol
_atom_site_label
_atom_site_fract_x
_atom_site_fract_y
_atom_site_fract_z
Si Si1 0.119769 0.472007 0.742308
Si Si2 0.651467 0.750000 0.442343
Si Si3 0.556631 0.380485 0.859200
Si Si4 0.647962 0.509068 0.398702
Si Si5 0.935571 0.094090 0.497672
Si Si6 0.185413 0.250000 0.481815
Si Si7 0.299625 0.866901 0.999245
Si Si8 0.859585 0.750000 0.859680
O O1 0.223335 0.474722 0.722659
O O2 0.136019 0.559741 0.565679
O O3 0.119622 0.356492 0.643489
O O4 0.000000 0.500000 0.000000
O O5 0.594557 0.631362 0.496312
O O6 0.699755 0.750000 0.571663
O O7 0.760344 0.750000 0.148791
O O8 0.514191 0.250000 0.908470
O O9 0.597276 0.417704 0.604110
O O10 0.645238 0.371602 0.889206
O O11 0.500000 0.500000 0.000000
O O12 0.657622 0.465436 0.186050
O O13 0.837428 0.133768 0.775228
O O14 0.046781 0.156340 0.264690
O O15 0.000000 0.000000 0.500000
O O16 0.194201 0.250000 0.257698
O O17 0.331784 0.750000 0.870266
#
# Coordination Sequence:
#
# PCOD9166079 Si02
#       8
#     4   2   4   4   4   2   4   2
#     4  11  22  38  59  91 139 186 236 285 340 411
#     4  10  24  40  62 101 144 191 248 293 337 420
#     4  11  27  53  82 111 140 181 238 308 381 448
#     4  11  24  44  70 104 143 184 238 292 361 431
#     4  12  21  35  59  94 138 191 239 281 337 414
#     4  10  22  38  54  82 129 194 245 278 332 394
#     4  11  24  46  70 105 143 185 236 297 358 431
#     4  12  22  36  56  87 139 195 247 285 341 400
#
# _framework density 23.759495000000001
#
# number of rings (size 3 to 8) (size 9 to 14) (size 15 to 20)
#    0.000    0.923    3.846    4.154    1.077    0.615 
#    4.154    0.000    0.000    0.000    0.000    0.000 
#    0.000    0.000    0.000    0.000    0.000    0.000 
#
# Total GULP energy -144905.741572 kJ/mol
# GULP energy per Si atom -5573.297753 kJ/mol
# Density = 2.370542 g / cm^3
# Si number density = 23.759495 Si / 1000 Ang^3
#
#
#
# Elastic Constant Matrix: (Units=GPa)
#
#
# Indices 1 2 3 4 5 6 
#
# 1 73.1906 37.0006 28.5963 0.0000 10.3389 0.0000
# 2 37.0006 152.7692 57.7803 0.0000 0.9038 0.0000
# 3 28.5963 57.7803 108.9471 0.0000 7.9106 0.0000
# 4 0.0000 0.0000 0.0000 29.6003 0.0000 10.0867
# 5 10.3389 0.9038 7.9106 0.0000 31.0569 0.0000
# 6 0.0000 0.0000 0.0000 10.0867 0.0000 28.6193
#
#
#
# Elastic Compliance Matrix: (Units=1/GPa)
#
#
# Indices 1 2 3 4 5 6 
#
# 1 0.016891 -0.003152 -0.002404 0.000000 -0.004919 0.000000
# 2 -0.003152 0.008801 -0.003971 0.000000 0.001805 0.000000
# 3 -0.002404 -0.003971 0.012073 0.000000 -0.002159 0.000000
# 4 0.000000 0.000000 0.000000 0.038395 0.000000 -0.013532
# 5 -0.004919 0.001805 -0.002159 0.000000 0.034334 0.000000
# 6 0.000000 0.000000 0.000000 -0.013532 0.000000 0.039711
#
#
# Mechanical properties :
#
#
# Convention : Reuss Voigt Hill
#
# Bulk Modulus (GPa) = 53.45200 64.62904 59.04052
# Shear Modulus (GPa) = 28.49078 31.95728 30.22403
#
# Velocity S-wave (km/s) = 3.46661 3.67145 3.57050
# Velocity P-wave (km/s) = 6.21040 6.72556 6.47311
#
# Compressibility (1/GPa) = 0.01870837
#
# Stress axis : x y z
#
# Youngs Moduli (GPa) = 59.20344 113.62893 82.83165
#
# Poissons Ratio (x) = 0.35821 0.19916
# Poissons Ratio (y) = 0.18664 0.32892
# Poissons Ratio (z) = 0.14235 0.45122
#
# Static dielectric constant tensor:
#      x y z
#    x 1.866120 0.000000 -0.010610 
#    y 0.000000 1.960520 0.000000 
#    z -0.010610 0.000000 1.901690 
# 
# From -- ./inp_files/21126.got.cif
#   From: 2010.05.17/outbox.cif.g08.bks.cpg/sg11_11_cif.got.tgz:21126.got - 2010.06.03 12:22:45.
