data_PCOD9166821
_publ_section_title
;
Structure prediction by ZEFSAII (Michael W. Deem and Ramdas Pophale) SiO2 
 PCOD9166821
Probable space group: P 21/M
;
_chemical_formula_sum "Si O2"
_cell_formula_units_Z 26
_cell_length_a 9.222844
_cell_length_b 24.474038
_cell_length_c 5.126643
_cell_angle_alpha 90.000000
_cell_angle_beta 65.335468
_cell_angle_gamma 90.000000
_cell_volume 1051.613040
_symmetry_space_group_name_H-M "P 21/M"
_symmetry_group_IT_number 11
_symmetry_cell_setting 'monoclinic'
loop_
_space_group_symop_operation_xyz
x,y,z
-x,1/2+y,-z
-x,-y,-z
x,1/2-y,z
loop_
_atom_site_type_symbol
_atom_site_label
_atom_site_fract_x
_atom_site_fract_y
_atom_site_fract_z
Si Si1 0.598187 0.841703 0.753407
Si Si2 0.212970 0.250000 0.616478
Si Si3 0.989998 0.250000 0.270297
Si Si4 0.587590 0.079730 0.485635
Si Si5 0.742942 0.524692 0.160530
Si Si6 0.873901 0.919586 0.582939
Si Si7 0.181531 0.846271 0.367446
Si Si8 0.367963 0.750000 0.055565
O O1 0.677039 0.803277 0.472978
O O2 0.485289 0.884295 0.691761
O O3 0.743709 0.874171 0.770443
O O4 0.504851 0.797694 0.993001
O O5 0.105681 0.250000 0.435956
O O6 0.099994 0.250000 0.942420
O O7 0.881007 0.303735 0.366448
O O8 0.439002 0.047929 0.731275
O O9 0.677126 0.117335 0.624167
O O10 0.712865 0.037505 0.266410
O O11 0.817743 0.555804 0.351110
O O12 0.852470 0.535084 0.825536
O O13 0.961408 0.112138 0.582449
O O14 0.237046 0.800082 0.119757
#
# Coordination Sequence:
#
# PCOD9166821 Si02
#       8
#     4   2   2   4   4   4   4   2
#     4  10  23  43  73 100 142 188 237 285 355 428
#     4  11  24  44  70 102 134 187 239 275 339 439
#     4  11  26  42  66 102 140 183 225 285 345 427
#     4  10  24  45  68 105 141 189 235 307 348 417
#     4  10  25  47  73 100 142 186 250 285 356 425
#     4  11  24  44  73 103 135 195 231 294 354 427
#     4  11  25  42  68 105 150 181 234 297 357 416
#     4  10  24  40  64 104 142 180 234 286 354 420
#
# _framework density 24.723922000000002
#
# number of rings (size 3 to 8) (size 9 to 14) (size 15 to 20)
#    0.000    1.538    1.538    0.923    4.308   16.615 
#    0.000    0.000    0.000    0.000    0.000    0.000 
#    0.000    0.000    0.000    0.000    0.000    0.000 
#
# Total GULP energy -145013.729003 kJ/mol
# GULP energy per Si atom -5577.451115 kJ/mol
# Density = 2.466765 g / cm^3
# Si number density = 24.723922 Si / 1000 Ang^3
#
#
#
# Elastic Constant Matrix: (Units=GPa)
#
#
# Indices 1 2 3 4 5 6 
#
# 1 104.9910 39.9237 19.4955 0.0000 3.6103 0.0000
# 2 39.9237 104.6128 -12.7899 0.0000 -1.8203 0.0000
# 3 19.4955 -12.7899 52.4742 0.0000 10.5455 0.0000
# 4 0.0000 0.0000 0.0000 429.2744 0.0000 421.8244
# 5 3.6103 -1.8203 10.5455 0.0000 21.5128 0.0000
# 6 0.0000 0.0000 0.0000 421.8244 0.0000 515.5886
#
#
#
# Elastic Compliance Matrix: (Units=1/GPa)
#
#
# Indices 1 2 3 4 5 6 
#
# 1 0.012810 -0.005642 -0.006219 0.000000 0.000421 0.000000
# 2 -0.005642 0.012340 0.005218 0.000000 -0.000567 0.000000
# 3 -0.006219 0.005218 0.024782 0.000000 -0.010663 0.000000
# 4 0.000000 0.000000 0.000000 0.011882 0.000000 -0.009721
# 5 0.000421 -0.000567 -0.010663 0.000000 0.051592 0.000000
# 6 0.000000 0.000000 0.000000 -0.009721 0.000000 0.009893
#
#
# Mechanical properties :
#
#
# Convention : Reuss Voigt Hill
#
# Bulk Modulus (GPa) = 27.28797 39.48183 33.38490
# Shear Modulus (GPa) = 33.60190 207.63843 120.62016
#
# Velocity S-wave (km/s) = 3.69058 9.17416 6.99233
# Velocity P-wave (km/s) = 5.40569 11.32360 8.87258
#
# Compressibility (1/GPa) = 0.03664618
#
# Stress axis : x y z
#
# Youngs Moduli (GPa) = 78.06214 81.03576 40.35161
#
# Poissons Ratio (x) = 0.45719 0.25095
# Poissons Ratio (y) = 0.44041 -0.21054
# Poissons Ratio (z) = 0.48548 -0.42282
#
# Static dielectric constant tensor:
#      x y z
#    x 1.677420 0.000000 0.193200 
#    y 0.000000 1.945230 0.000000 
#    z 0.193200 0.000000 1.798730 
# 
# From -- ./inp_files/5012.got.cif
#   From: 2010.05.17/outbox.cif.g08.bks.cpg/sg11_3_cif.got.tgz:5012.got - 2010.06.03 12:22:45.
