data_PCOD9166931
_publ_section_title
;
Structure prediction by ZEFSAII (Michael W. Deem and Ramdas Pophale) SiO2 
 PCOD9166931
Probable space group: P 21/M
;
_chemical_formula_sum "Si O2"
_cell_formula_units_Z 20
_cell_length_a 4.890853
_cell_length_b 31.689836
_cell_length_c 5.902280
_cell_angle_alpha 90.000000
_cell_angle_beta 52.985303
_cell_angle_gamma 90.000000
_cell_volume 730.447584
_symmetry_space_group_name_H-M "P 21/M"
_symmetry_group_IT_number 11
_symmetry_cell_setting 'monoclinic'
loop_
_space_group_symop_operation_xyz
x,y,z
-x,1/2+y,-z
-x,-y,-z
x,1/2-y,z
loop_
_atom_site_type_symbol
_atom_site_label
_atom_site_fract_x
_atom_site_fract_y
_atom_site_fract_z
Si Si1 0.818010 0.750000 0.919858
Si Si2 0.772118 0.968749 0.969830
Si Si3 0.188669 0.345876 0.575114
Si Si4 0.762121 0.750000 0.448871
Si Si5 0.249969 0.591418 0.451925
Si Si6 0.921041 0.841511 0.865677
O O1 0.614960 0.750000 0.782690
O O2 0.038967 0.792964 0.808418
O O3 0.617220 0.750000 0.259691
O O4 0.582795 0.934358 0.219704
O O5 0.983331 0.943636 0.675451
O O6 0.500000 0.000000 0.000000
O O7 0.000000 0.000000 0.000000
O O8 0.060849 0.296351 0.639024
O O9 0.911431 0.383507 0.678047
O O10 0.306090 0.346793 0.247427
O O11 0.267129 0.349128 0.806434
O O12 0.236077 0.626077 0.666080
#
# Coordination Sequence:
#
# PCOD9166931 Si02
#       6
#     2   4   4   2   4   4
#     4   8  12  24  50  90 140 186 232 286 352 422
#     4  12  28  52  76 109 148 195 250 322 398 466
#     4   8  16  31  59  98 142 188 240 294 358 437
#     4   8  12  24  50  90 140 186 232 286 352 422
#     4  10  24  43  74 104 144 190 248 309 376 454
#     4   8  16  31  59  98 142 188 240 294 358 437
#
# _framework density 27.380474
#
# number of rings (size 3 to 8) (size 9 to 14) (size 15 to 20)
#    1.200    1.600    0.000    1.200    2.800    0.000 
#    0.000    0.000    0.000    4.800    0.000    8.400 
#    0.000    0.000    0.000    0.000    0.000    0.000 
#
# Total GULP energy -111396.883492 kJ/mol
# GULP energy per Si atom -5569.844175 kJ/mol
# Density = 2.731816 g / cm^3
# Si number density = 27.380474 Si / 1000 Ang^3
#
#
#
# Elastic Constant Matrix: (Units=GPa)
#
#
# Indices 1 2 3 4 5 6 
#
# 1 150.2912 111.5534 -28.4605 0.0000 37.4854 0.0000
# 2 111.5534 253.4268 -39.7498 0.0000 5.5524 0.0000
# 3 -28.4605 -39.7498 396.8356 0.0000 37.2995 0.0000
# 4 0.0000 0.0000 0.0000 56.6639 0.0000 0.3623
# 5 37.4854 5.5524 37.2995 0.0000 71.6916 0.0000
# 6 0.0000 0.0000 0.0000 0.3623 0.0000 107.6109
#
#
#
# Elastic Compliance Matrix: (Units=1/GPa)
#
#
# Indices 1 2 3 4 5 6 
#
# 1 0.012246 -0.005094 0.000981 0.000000 -0.006519 0.000000
# 2 -0.005094 0.006148 0.000047 0.000000 0.002163 0.000000
# 3 0.000981 0.000047 0.002779 0.000000 -0.001963 0.000000
# 4 0.000000 0.000000 0.000000 0.017648 0.000000 -0.000059
# 5 -0.006519 0.002163 -0.001963 0.000000 0.018211 0.000000
# 6 0.000000 0.000000 0.000000 -0.000059 0.000000 0.009293
#
#
# Mechanical properties :
#
#
# Convention : Reuss Voigt Hill
#
# Bulk Modulus (GPa) = 76.67406 98.58221 87.62813
# Shear Modulus (GPa) = 63.44736 97.67398 80.56067
#
# Velocity S-wave (km/s) = 4.81900 5.97916 5.43015
# Velocity P-wave (km/s) = 7.68295 9.15149 8.44919
#
# Compressibility (1/GPa) = 0.01304222
#
# Stress axis : x y z
#
# Youngs Moduli (GPa) = 81.65637 162.64925 359.78020
#
# Poissons Ratio (x) = 0.82853 -0.35287
# Poissons Ratio (y) = 0.41596 -0.01699
# Poissons Ratio (z) = -0.08009 -0.00768
#
# Static dielectric constant tensor:
#      x y z
#    x 2.062600 0.000000 -0.048370 
#    y 0.000000 2.159090 0.000000 
#    z -0.048370 0.000000 2.051140 
# 
# From -- ./inp_files/968.got.cif
#   From: 2010.05.17/outbox.cif.g08.bks.cpg/sg11_1_cif.got.tgz:968.got - 2010.06.03 12:22:45.
