data_PCOD9166613
_publ_section_title
;
Structure prediction by ZEFSAII (Michael W. Deem and Ramdas Pophale) SiO2 
 PCOD9166613
Probable space group: P 21/M
;
_chemical_formula_sum "Si O2"
_cell_formula_units_Z 22
_cell_length_a 6.916663
_cell_length_b 17.380013
_cell_length_c 12.212681
_cell_angle_alpha 90.000000
_cell_angle_beta 34.789904
_cell_angle_gamma 90.000000
_cell_volume 837.656178
_symmetry_space_group_name_H-M "P 21/M"
_symmetry_group_IT_number 11
_symmetry_cell_setting 'monoclinic'
loop_
_space_group_symop_operation_xyz
x,y,z
-x,1/2+y,-z
-x,-y,-z
x,1/2-y,z
loop_
_atom_site_type_symbol
_atom_site_label
_atom_site_fract_x
_atom_site_fract_y
_atom_site_fract_z
Si Si1 0.105078 0.666648 0.570578
Si Si2 0.876674 0.871393 0.441469
Si Si3 0.767483 0.443678 0.204471
Si Si4 0.105481 0.750000 0.152045
Si Si5 0.848121 0.616612 0.151313
Si Si6 0.689358 0.978147 0.800472
O O1 0.064292 0.750000 0.644454
O O2 0.496570 0.654758 0.353083
O O3 0.921144 0.666341 0.538541
O O4 0.931039 0.594951 0.711015
O O5 0.483930 0.893180 0.606738
O O6 0.027298 0.816779 0.280348
O O7 0.081008 0.951241 0.346196
O O8 0.836315 0.530997 0.210918
O O9 0.551546 0.457657 0.190909
O O10 0.096767 0.400743 0.003518
O O11 0.126943 0.680254 0.051300
O O12 0.500000 0.000000 0.000000
#
# Coordination Sequence:
#
# PCOD9166613 Si02
#       6
#     4   4   4   2   4   4
#     4  11  21  45  72  95 132 179 225 278 336 403
#     4  11  22  44  67  94 132 181 221 270 341 407
#     4  10  22  43  71  92 130 188 218 270 344 418
#     4  12  26  38  62 104 136 166 220 294 330 386
#     4  11  22  42  66  99 135 170 225 280 340 395
#     4  11  22  43  70 102 131 178 234 275 330 408
#
# _framework density 26.263760999999999
#
# number of rings (size 3 to 8) (size 9 to 14) (size 15 to 20)
#    0.000    1.091    5.455    2.182    0.000    1.455 
#   16.364    0.000    0.000    0.000    0.000    0.000 
#    0.000    0.000    0.000    0.000    0.000    0.000 
#
# Total GULP energy -122704.256937 kJ/mol
# GULP energy per Si atom -5577.466224 kJ/mol
# Density = 2.620398 g / cm^3
# Si number density = 26.263761 Si / 1000 Ang^3
#
#
#
# Elastic Constant Matrix: (Units=GPa)
#
#
# Indices 1 2 3 4 5 6 
#
# 1 69.2740 -10.8147 0.1291 0.0000 -4.1465 0.0000
# 2 -10.8147 195.9173 40.3638 0.0000 10.2997 0.0000
# 3 0.1291 40.3638 86.0065 0.0000 4.7087 0.0000
# 4 0.0000 0.0000 0.0000 13.3533 0.0000 26.3965
# 5 -4.1465 10.2997 4.7087 0.0000 35.3408 0.0000
# 6 0.0000 0.0000 0.0000 26.3965 0.0000 26.8434
#
#
#
# Elastic Compliance Matrix: (Units=1/GPa)
#
#
# Indices 1 2 3 4 5 6 
#
# 1 0.014658 0.000830 -0.000496 0.000000 0.001544 0.000000
# 2 0.000830 0.005758 -0.002636 0.000000 -0.001229 0.000000
# 3 -0.000496 -0.002636 0.012920 0.000000 -0.001011 0.000000
# 4 0.000000 0.000000 0.000000 -0.079342 0.000000 0.078021
# 5 0.001544 -0.001229 -0.001011 0.000000 0.028970 0.000000
# 6 0.000000 0.000000 0.000000 0.078021 0.000000 -0.039469
#
#
# Mechanical properties :
#
#
# Convention : Reuss Voigt Hill
#
# Bulk Modulus (GPa) = 34.80405 45.61713 40.21059
# Shear Modulus (GPa) = -118.14148 36.54214 -40.79967
#
# Velocity S-wave (km/s) = -6.71419 3.73413 -3.94567
# Velocity P-wave (km/s) = 6.84300 5.99985 2.32685
#
# Compressibility (1/GPa) = 0.02873229
#
# Stress axis : x y z
#
# Youngs Moduli (GPa) = 68.22034 173.67880 77.39762
#
# Poissons Ratio (x) = -0.14419 0.03840
# Poissons Ratio (y) = -0.05664 0.20403
# Poissons Ratio (z) = 0.03385 0.45784
#
# Static dielectric constant tensor:
#      x y z
#    x 2.201420 0.000000 -0.078190 
#    y 0.000000 1.978790 0.000000 
#    z -0.078190 0.000000 2.123210 
# 
# From -- ./inp_files/47960.got.cif
#   From: 2010.05.17/outbox.cif.g08.bks.cpg/sg11_24_cif.got.tgz:47960.got - 2010.06.03 12:22:45.
