data_PCOD9166593
_publ_section_title
;
Structure prediction by ZEFSAII (Michael W. Deem and Ramdas Pophale) SiO2 
 PCOD9166593
Probable space group: P 21/M
;
_chemical_formula_sum "Si O2"
_cell_formula_units_Z 22
_cell_length_a 8.836374
_cell_length_b 14.603695
_cell_length_c 9.124426
_cell_angle_alpha 90.000000
_cell_angle_beta 77.614298
_cell_angle_gamma 90.000000
_cell_volume 1150.045629
_symmetry_space_group_name_H-M "P 21/M"
_symmetry_group_IT_number 11
_symmetry_cell_setting 'monoclinic'
loop_
_space_group_symop_operation_xyz
x,y,z
-x,1/2+y,-z
-x,-y,-z
x,1/2-y,z
loop_
_atom_site_type_symbol
_atom_site_label
_atom_site_fract_x
_atom_site_fract_y
_atom_site_fract_z
Si Si1 0.217119 0.750000 0.425995
Si Si2 0.743690 0.750000 0.649398
Si Si3 0.809016 0.388432 0.051840
Si Si4 0.369982 0.750000 0.707310
Si Si5 0.346974 0.750000 0.111112
Si Si6 0.310919 0.250000 0.003854
Si Si7 0.853850 0.904735 0.120556
Si Si8 0.953268 0.599766 0.443452
O O1 0.295265 0.750000 0.564752
O O2 0.354936 0.750000 0.281264
O O3 0.105588 0.663143 0.423622
O O4 0.557050 0.750000 0.663686
O O5 0.824562 0.659550 0.560605
O O6 0.771158 0.750000 0.820072
O O7 0.709360 0.336641 0.194828
O O8 0.800975 0.495935 0.077399
O O9 0.743418 0.340844 0.919982
O O10 0.993055 0.372504 0.000975
O O11 0.508843 0.750000 0.997709
O O12 0.274078 0.335068 0.907480
O O13 0.896515 0.906694 0.284822
O O14 0.000000 0.500000 0.500000
#
# Coordination Sequence:
#
# PCOD9166593 Si02
#       8
#     2   2   4   2   2   2   4   4
#     4  11  23  39  69  89 129 175 211 262 324 387
#     4  11  27  42  68  95 134 168 217 265 330 384
#     4  10  22  43  67  92 130 166 220 262 315 386
#     4  11  23  45  63  97 134 174 207 268 329 381
#     4  11  22  43  63  94 129 168 210 272 326 380
#     4  12  25  41  67  97 134 165 213 271 325 378
#     4  11  24  41  69  97 124 174 218 264 315 389
#     4  11  25  45  64  97 129 171 221 266 315 388
#
# _framework density 19.129674999999999
#
# number of rings (size 3 to 8) (size 9 to 14) (size 15 to 20)
#    0.000    1.091    3.636    3.273   12.727    0.727 
#    3.273    1.818    0.000    0.000    0.000    0.000 
#    0.000    0.000    0.000    0.000    0.000    0.000 
#
# Total GULP energy -122612.762296 kJ/mol
# GULP energy per Si atom -5573.307377 kJ/mol
# Density = 1.908614 g / cm^3
# Si number density = 19.129675 Si / 1000 Ang^3
#
#
#
# Elastic Constant Matrix: (Units=GPa)
#
#
# Indices 1 2 3 4 5 6 
#
# 1 90.6985 63.0732 43.0612 0.0000 -4.7716 0.0000
# 2 63.0732 123.7922 42.1257 0.0000 0.8955 0.0000
# 3 43.0612 42.1257 121.0446 0.0000 3.8569 0.0000
# 4 0.0000 0.0000 0.0000 207.8893 0.0000 80.0992
# 5 -4.7716 0.8955 3.8569 0.0000 39.3928 0.0000
# 6 0.0000 0.0000 0.0000 80.0992 0.0000 40.6902
#
#
#
# Elastic Compliance Matrix: (Units=1/GPa)
#
#
# Indices 1 2 3 4 5 6 
#
# 1 0.018765 -0.008257 -0.003893 0.000000 0.002842 0.000000
# 2 -0.008257 0.012797 -0.001480 0.000000 -0.001146 0.000000
# 3 -0.003893 -0.001480 0.010207 0.000000 -0.001437 0.000000
# 4 0.000000 0.000000 0.000000 0.019915 0.000000 -0.039204
# 5 0.002842 -0.001146 -0.001437 0.000000 0.025896 0.000000
# 6 0.000000 0.000000 0.000000 -0.039204 0.000000 0.101749
#
#
# Mechanical properties :
#
#
# Convention : Reuss Voigt Hill
#
# Bulk Modulus (GPa) = 68.91537 70.22838 69.57188
# Shear Modulus (GPa) = 22.58105 70.07946 46.33025
#
# Velocity S-wave (km/s) = 3.43945 6.05916 4.92662
# Velocity P-wave (km/s) = 7.20255 9.25973 8.29516
#
# Compressibility (1/GPa) = 0.01451055
#
# Stress axis : x y z
#
# Youngs Moduli (GPa) = 53.29018 78.14431 97.97254
#
# Poissons Ratio (x) = 0.64523 0.38137
# Poissons Ratio (y) = 0.44001 0.14496
# Poissons Ratio (z) = 0.20744 0.11562
#
# Static dielectric constant tensor:
#      x y z
#    x 1.634490 0.000000 -0.016590 
#    y 0.000000 1.659640 0.000000 
#    z -0.016590 0.000000 1.680390 
# 
# From -- ./inp_files/12426.got.cif
#   From: 2010.05.17/outbox.cif.g08.bks.cpg/sg11_7_cif.got.tgz:12426.got - 2010.06.03 12:22:45.
