data_PCOD9166137
_publ_section_title
;
Structure prediction by ZEFSAII (Michael W. Deem and Ramdas Pophale) SiO2 
 PCOD9166137
Probable space group: P 21/M
;
_chemical_formula_sum "Si O2"
_cell_formula_units_Z 26
_cell_length_a 14.641773
_cell_length_b 14.659855
_cell_length_c 5.081546
_cell_angle_alpha 90.000000
_cell_angle_beta 69.821245
_cell_angle_gamma 90.000000
_cell_volume 1023.786666
_symmetry_space_group_name_H-M "P 21/M"
_symmetry_group_IT_number 11
_symmetry_cell_setting 'monoclinic'
loop_
_space_group_symop_operation_xyz
x,y,z
-x,1/2+y,-z
-x,-y,-z
x,1/2-y,z
loop_
_atom_site_type_symbol
_atom_site_label
_atom_site_fract_x
_atom_site_fract_y
_atom_site_fract_z
Si Si1 0.808368 0.750000 0.138781
Si Si2 0.110364 0.895431 0.237807
Si Si3 0.226815 0.894204 0.622034
Si Si4 0.437421 0.856679 0.639150
Si Si5 0.269395 0.102911 0.478224
Si Si6 0.091944 0.384909 0.298514
Si Si7 0.459226 0.138787 0.963870
O O1 0.725979 0.670563 0.282745
O O2 0.888743 0.829880 0.984423
O O3 0.193244 0.866567 0.364494
O O4 0.007969 0.863438 0.455321
O O5 0.101251 0.006476 0.248916
O O6 0.143346 0.868865 0.914482
O O7 0.329674 0.862508 0.630236
O O8 0.238138 0.003415 0.596749
O O9 0.461266 0.750000 0.627873
O O10 0.454320 0.889136 0.918637
O O11 0.511682 0.897676 0.351080
O O12 0.181789 0.146302 0.392723
O O13 0.362831 0.102971 0.200725
O O14 0.452435 0.250000 0.960282
#
# Coordination Sequence:
#
# PCOD9166137 Si02
#       7
#     2   4   4   4   4   4   4
#     4  12  22  40  62  96 128 168 200 266 304 390
#     4  10  23  43  66  88 124 172 203 254 316 364
#     4  11  23  43  66  92 124 167 215 259 306 366
#     4  10  23  42  62  87 125 167 214 261 308 369
#     4  11  24  37  66  95 129 161 206 259 318 376
#     4  10  24  40  63  91 131 161 207 251 315 380
#     4  10  22  38  63  91 125 166 203 258 323 368
#
# _framework density 25.395914000000001
#
# number of rings (size 3 to 8) (size 9 to 14) (size 15 to 20)
#    0.000    1.538    2.308    1.385    4.308    3.077 
#    2.769    0.000    0.000    0.000    0.000    0.000 
#    0.000    0.000    0.000    0.000    0.000    0.000 
#
# Total GULP energy -145104.123499 kJ/mol
# GULP energy per Si atom -5580.927827 kJ/mol
# Density = 2.533811 g / cm^3
# Si number density = 25.395914 Si / 1000 Ang^3
#
#
#
# Elastic Constant Matrix: (Units=GPa)
#
#
# Indices 1 2 3 4 5 6 
#
# 1 75.5069 -6.6010 0.0164 0.0000 -7.7393 0.0000
# 2 -6.6010 72.2500 10.4582 0.0000 7.2471 0.0000
# 3 0.0164 10.4582 118.4384 0.0000 -10.9051 0.0000
# 4 0.0000 0.0000 0.0000 49.3566 0.0000 -2.4049
# 5 -7.7393 7.2471 -10.9051 0.0000 44.0041 0.0000
# 6 0.0000 0.0000 0.0000 -2.4049 0.0000 43.6856
#
#
#
# Elastic Compliance Matrix: (Units=1/GPa)
#
#
# Indices 1 2 3 4 5 6 
#
# 1 0.013562 0.000996 0.000117 0.000000 0.002250 0.000000
# 2 0.000996 0.014408 -0.001509 0.000000 -0.002572 0.000000
# 3 0.000117 -0.001509 0.008802 0.000000 0.002451 0.000000
# 4 0.000000 0.000000 0.000000 0.020315 0.000000 0.001118
# 5 0.002250 -0.002572 0.002451 0.000000 0.024152 0.000000
# 6 0.000000 0.000000 0.000000 0.001118 0.000000 0.022952
#
#
# Mechanical properties :
#
#
# Convention : Reuss Voigt Hill
#
# Bulk Modulus (GPa) = 27.79257 30.43807 29.11532
# Shear Modulus (GPa) = 42.74385 44.89737 43.82061
#
# Velocity S-wave (km/s) = 4.10701 4.20920 4.15842
# Velocity P-wave (km/s) = 5.78425 5.96947 5.87759
#
# Compressibility (1/GPa) = 0.03598084
#
# Stress axis : x y z
#
# Youngs Moduli (GPa) = 73.73794 69.40457 113.60951
#
# Poissons Ratio (x) = -0.06915 -0.01333
# Poissons Ratio (y) = -0.07347 0.17146
# Poissons Ratio (z) = -0.00865 0.10474
#
# Static dielectric constant tensor:
#      x y z
#    x 2.098970 0.000000 0.140860 
#    y 0.000000 1.981160 0.000000 
#    z 0.140860 0.000000 2.106220 
# 
# From -- ./inp_files/6635.got.cif
#   From: 2010.05.17/outbox.cif.g08.bks.cpg/sg11_4_cif.got.tgz:6635.got - 2010.06.03 12:22:45.
