data_PCOD9166863
_publ_section_title
;
Structure prediction by ZEFSAII (Michael W. Deem and Ramdas Pophale) SiO2 
 PCOD9166863
Probable space group: P 21/M
;
_chemical_formula_sum "Si O2"
_cell_formula_units_Z 20
_cell_length_a 11.666230
_cell_length_b 14.203523
_cell_length_c 10.498512
_cell_angle_alpha 90.000000
_cell_angle_beta 24.260986
_cell_angle_gamma 90.000000
_cell_volume 714.798794
_symmetry_space_group_name_H-M "P 21/M"
_symmetry_group_IT_number 11
_symmetry_cell_setting 'monoclinic'
loop_
_space_group_symop_operation_xyz
x,y,z
-x,1/2+y,-z
-x,-y,-z
x,1/2-y,z
loop_
_atom_site_type_symbol
_atom_site_label
_atom_site_fract_x
_atom_site_fract_y
_atom_site_fract_z
Si Si1 0.617482 0.004322 0.556417
Si Si2 0.645307 0.100835 0.836699
Si Si3 0.034418 0.352760 0.679298
Si Si4 0.182641 0.354780 0.125519
Si Si5 0.302235 0.643407 0.717948
O O1 0.545530 0.922966 0.526267
O O2 0.759243 0.940145 0.520098
O O3 0.350052 0.064640 0.876288
O O4 0.889086 0.113927 0.483501
O O5 0.800346 0.131675 0.808903
O O6 0.385490 0.156101 0.042445
O O7 0.500000 0.000000 0.000000
O O8 0.168256 0.250000 0.526184
O O9 0.894693 0.351826 0.960322
O O10 0.157990 0.250000 0.090413
O O11 0.801844 0.416304 0.297689
O O12 0.380185 0.750000 0.604570
#
# Coordination Sequence:
#
# PCOD9166863 Si02
#       5
#     4   4   4   4   4
#     4  11  25  44  79 115 157 216 265 335 409 478
#     4  12  29  51  79 115 158 216 266 329 401 483
#     4  11  25  47  77 114 160 210 273 337 401 481
#     4  12  28  50  78 119 166 211 267 330 403 482
#     4  10  23  46  73 112 157 207 274 336 401 479
#
# _framework density 27.979903
#
# number of rings (size 3 to 8) (size 9 to 14) (size 15 to 20)
#    0.000    0.800    0.000    5.400   11.200    0.000 
#    0.000    0.000    0.000    3.600    0.000    0.000 
#    0.000    0.000    0.000    0.000    0.000    0.000 
#
# Total GULP energy -112012.123267 kJ/mol
# GULP energy per Si atom -5600.606163 kJ/mol
# Density = 2.791622 g / cm^3
# Si number density = 27.979903 Si / 1000 Ang^3
#
#
#
# Elastic Constant Matrix: (Units=GPa)
#
#
# Indices 1 2 3 4 5 6 
#
# 1 108.6114 53.8318 30.4132 0.0000 10.5015 0.0000
# 2 53.8318 295.7589 64.6144 0.0000 -0.5384 0.0000
# 3 30.4132 64.6144 136.5018 0.0000 15.8923 0.0000
# 4 0.0000 0.0000 0.0000 -246.6823 0.0000 -32.4265
# 5 10.5015 -0.5384 15.8923 0.0000 53.7692 0.0000
# 6 0.0000 0.0000 0.0000 -32.4265 0.0000 36.7069
#
#
#
# Elastic Compliance Matrix: (Units=1/GPa)
#
#
# Indices 1 2 3 4 5 6 
#
# 1 0.010562 -0.001621 -0.001392 0.000000 -0.001668 0.000000
# 2 -0.001621 0.004038 -0.001648 0.000000 0.000844 0.000000
# 3 -0.001392 -0.001648 0.008685 0.000000 -0.002312 0.000000
# 4 0.000000 0.000000 0.000000 -0.003632 0.000000 -0.003209
# 5 -0.001668 0.000844 -0.002312 0.000000 0.019615 0.000000
# 6 0.000000 0.000000 0.000000 -0.003209 0.000000 0.024408
#
#
# Mechanical properties :
#
#
# Convention : Reuss Voigt Hill
#
# Bulk Modulus (GPa) = 71.62146 93.17677 82.39912
# Shear Modulus (GPa) = 64.38846 -5.10707 29.64070
#
# Velocity S-wave (km/s) = 4.80233 -1.35249 3.25831
# Velocity P-wave (km/s) = 7.51018 5.56189 6.60823
#
# Compressibility (1/GPa) = 0.01396229
#
# Stress axis : x y z
#
# Youngs Moduli (GPa) = 94.68213 247.65259 115.13562
#
# Poissons Ratio (x) = 0.40154 0.16021
# Poissons Ratio (y) = 0.15352 0.18979
# Poissons Ratio (z) = 0.13175 0.40824
#
# Static dielectric constant tensor:
#      x y z
#    x 2.272600 0.000000 0.016450 
#    y 0.000000 2.002790 0.000000 
#    z 0.016450 0.000000 2.178350 
# 
# From -- ./inp_files/35374.got.cif
#   From: 2010.05.17/outbox.cif.g08.bks.cpg/sg11_18_cif.got.tgz:35374.got - 2010.06.03 12:22:45.
