data_PCOD9166712
_publ_section_title
;
Structure prediction by ZEFSAII (Michael W. Deem and Ramdas Pophale) SiO2 
 PCOD9166712
Probable space group: P 21/M
;
_chemical_formula_sum "Si O2"
_cell_formula_units_Z 24
_cell_length_a 8.423539
_cell_length_b 7.709265
_cell_length_c 14.723079
_cell_angle_alpha 90.000000
_cell_angle_beta 90.000000
_cell_angle_gamma 90.000000
_cell_volume 956.106361
_symmetry_space_group_name_H-M "P 21/M"
_symmetry_group_IT_number 11
_symmetry_cell_setting 'monoclinic'
loop_
_space_group_symop_operation_xyz
x,y,z
-x,1/2+y,-z
-x,-y,-z
x,1/2-y,z
loop_
_atom_site_type_symbol
_atom_site_label
_atom_site_fract_x
_atom_site_fract_y
_atom_site_fract_z
Si Si1 0.665678 0.457859 0.047420
Si Si2 0.867220 0.049097 0.884853
Si Si3 0.331406 0.048875 0.279339
Si Si4 0.831405 0.548875 0.220661
Si Si5 0.165678 0.957859 0.452580
Si Si6 0.367220 0.950903 0.615147
O O1 0.677547 0.250000 0.055285
O O2 0.691042 0.535726 0.146575
O O3 0.500000 0.500000 0.000000
O O4 0.804048 0.524920 0.979406
O O5 0.906394 0.250000 0.901740
O O6 0.017791 0.970552 0.832705
O O7 0.723769 0.039686 0.812684
O O8 0.364938 0.250000 0.257216
O O9 0.482209 0.970551 0.332704
O O10 0.191042 0.035727 0.353425
O O11 0.864937 0.750000 0.242785
O O12 0.776232 0.460313 0.312684
O O13 0.177548 0.750000 0.444715
O O14 0.304048 0.024921 0.520594
O O15 0.000000 0.000000 0.500000
O O16 0.406394 0.750000 0.598260
#
# Coordination Sequence:
#
# PCOD9166712 Si02
#       6
#     4   4   4   4   4   4
#     4  11  23  40  62  88 120 156 197 244 294 349
#     4  10  23  41  60  86 119 156 197 242 293 349
#     4  11  23  39  61  88 118 154 196 242 294 350
#     4  11  23  39  61  88 118 154 196 242 294 350
#     4  11  23  40  62  88 120 156 197 244 294 349
#     4  10  23  41  60  86 119 156 197 242 293 349
#
# _framework density 25.10181
#
# number of rings (size 3 to 8) (size 9 to 14) (size 15 to 20)
#    0.000    1.333    0.000    5.000    0.000   10.667 
#    0.000    0.000    0.000    0.000    0.000    0.000 
#    0.000    0.000    0.000    0.000    0.000    0.000 
#
# Total GULP energy -134406.751281 kJ/mol
# GULP energy per Si atom -5600.281303 kJ/mol
# Density = 2.504468 g / cm^3
# Si number density = 25.101810 Si / 1000 Ang^3
#
#
#
# Elastic Constant Matrix: (Units=GPa)
#
#
# Indices 1 2 3 4 5 6 
#
# 1 71.6451 -3.7011 -4.8099 0.0000 1.2840 0.0000
# 2 -3.7011 70.5314 -7.7437 0.0000 -0.3481 0.0000
# 3 -4.8099 -7.7437 117.5096 0.0000 2.6615 0.0000
# 4 0.0000 0.0000 0.0000 21.4318 0.0000 -0.0612
# 5 1.2840 -0.3481 2.6615 0.0000 45.8069 0.0000
# 6 0.0000 0.0000 0.0000 -0.0612 0.0000 22.1431
#
#
#
# Elastic Compliance Matrix: (Units=1/GPa)
#
#
# Indices 1 2 3 4 5 6 
#
# 1 0.014050 0.000805 0.000638 0.000000 -0.000425 0.000000
# 2 0.000805 0.014328 0.000976 0.000000 0.000030 0.000000
# 3 0.000638 0.000976 0.008612 0.000000 -0.000511 0.000000
# 4 0.000000 0.000000 0.000000 0.046660 0.000000 0.000129
# 5 -0.000425 0.000030 -0.000511 0.000000 0.021873 0.000000
# 6 0.000000 0.000000 0.000000 0.000129 0.000000 0.045161
#
#
# Mechanical properties :
#
#
# Convention : Reuss Voigt Hill
#
# Bulk Modulus (GPa) = 23.90733 25.24184 24.57458
# Shear Modulus (GPa) = 31.29167 36.27242 33.78205
#
# Velocity S-wave (km/s) = 3.53454 3.80546 3.67250
# Velocity P-wave (km/s) = 5.11880 5.42091 5.27202
#
# Compressibility (1/GPa) = 0.04182818
#
# Stress axis : x y z
#
# Youngs Moduli (GPa) = 71.17586 69.79497 116.11750
#
# Poissons Ratio (x) = -0.05620 -0.07406
# Poissons Ratio (y) = -0.05731 -0.11338
# Poissons Ratio (z) = -0.04539 -0.06815
#
# Static dielectric constant tensor:
#      x y z
#    x 2.077630 0.000000 -0.013470 
#    y 0.000000 1.930300 0.000000 
#    z -0.013470 0.000000 1.921070 
# 
# From -- ./inp_files/46484.got.cif
#   From: 2010.05.17/outbox.cif.g08.bks.cpg/sg11_24_cif.got.tgz:46484.got - 2010.06.03 12:22:45.
