data_PCOD9166170
_publ_section_title
;
Structure prediction by ZEFSAII (Michael W. Deem and Ramdas Pophale) SiO2 
 PCOD9166170
Probable space group: P 21/M
;
_chemical_formula_sum "Si O2"
_cell_formula_units_Z 28
_cell_length_a 12.294904
_cell_length_b 9.062847
_cell_length_c 15.416503
_cell_angle_alpha 90.000000
_cell_angle_beta 63.396103
_cell_angle_gamma 90.000000
_cell_volume 1535.936665
_symmetry_space_group_name_H-M "P 21/M"
_symmetry_group_IT_number 11
_symmetry_cell_setting 'monoclinic'
loop_
_space_group_symop_operation_xyz
x,y,z
-x,1/2+y,-z
-x,-y,-z
x,1/2-y,z
loop_
_atom_site_type_symbol
_atom_site_label
_atom_site_fract_x
_atom_site_fract_y
_atom_site_fract_z
Si Si1 0.334510 0.575747 0.987919
Si Si2 0.367806 0.078537 0.690483
Si Si3 0.128748 0.576215 0.748144
Si Si4 0.920839 0.574269 0.953338
Si Si5 0.417561 0.923782 0.154829
Si Si6 0.246584 0.421653 0.558433
Si Si7 0.384850 0.072921 0.338488
O O1 0.335394 0.750000 0.967509
O O2 0.449618 0.497074 0.902816
O O3 0.209809 0.500462 0.005284
O O4 0.352884 0.557953 0.085081
O O5 0.373976 0.250000 0.713682
O O6 0.357790 0.071242 0.588662
O O7 0.482449 0.990259 0.683982
O O8 0.237225 0.007499 0.761505
O O9 0.153867 0.750000 0.741736
O O10 0.999239 0.548848 0.837678
O O11 0.144862 0.515852 0.644647
O O12 0.910522 0.750000 0.970337
O O13 0.000000 0.500000 0.000000
O O14 0.429241 0.750000 0.168147
O O15 0.352127 0.004454 0.257560
O O16 0.209740 0.250000 0.567701
O O17 0.292957 0.470499 0.448571
O O18 0.389204 0.250000 0.333342
#
# Coordination Sequence:
#
# PCOD9166170 Si02
#       7
#     4   4   4   4   4   4   4
#     4  10  22  41  62  82 110 146 185 229 278 330
#     4   9  18  31  47  71 107 146 181 221 272 324
#     4   9  19  34  51  74 106 143 179 220 272 324
#     4  11  24  39  59  86 114 146 186 229 277 331
#     4  10  22  39  59  84 111 145 185 228 279 330
#     4   8  18  32  48  73 107 146 182 222 275 327
#     4  11  20  31  51  79 109 142 184 228 272 328
#
# _framework density 18.229917
#
# number of rings (size 3 to 8) (size 9 to 14) (size 15 to 20)
#    0.857    1.429    0.000    2.571    2.000    5.143 
#    0.000    0.000    0.000    0.857    0.000    0.000 
#    0.000    0.000    0.000    0.000    0.000    0.000 
#
# Total GULP energy -156107.486788 kJ/mol
# GULP energy per Si atom -5575.267385 kJ/mol
# Density = 1.818842 g / cm^3
# Si number density = 18.229917 Si / 1000 Ang^3
#
#
#
# Elastic Constant Matrix: (Units=GPa)
#
#
# Indices 1 2 3 4 5 6 
#
# 1 65.9840 38.3129 23.2549 0.0000 -7.5572 0.0000
# 2 38.3129 88.3790 43.1286 0.0000 0.7546 0.0000
# 3 23.2549 43.1286 76.7224 0.0000 11.6164 0.0000
# 4 0.0000 0.0000 0.0000 30.3165 0.0000 1.0495
# 5 -7.5572 0.7546 11.6164 0.0000 10.4510 0.0000
# 6 0.0000 0.0000 0.0000 1.0495 0.0000 24.1594
#
#
#
# Elastic Compliance Matrix: (Units=1/GPa)
#
#
# Indices 1 2 3 4 5 6 
#
# 1 0.025307 -0.007504 -0.007581 0.000000 0.027268 0.000000
# 2 -0.007504 0.018810 -0.008743 0.000000 0.002934 0.000000
# 3 -0.007581 -0.008743 0.025227 0.000000 -0.032890 0.000000
# 4 0.000000 0.000000 0.000000 0.033035 0.000000 -0.001435
# 5 0.027268 0.002934 -0.032890 0.000000 0.151748 0.000000
# 6 0.000000 0.000000 0.000000 -0.001435 0.000000 0.041454
#
#
# Mechanical properties :
#
#
# Convention : Reuss Voigt Hill
#
# Bulk Modulus (GPa) = 46.11128 48.94201 47.52665
# Shear Modulus (GPa) = 14.26670 21.41134 17.83902
#
# Velocity S-wave (km/s) = 2.80053 3.43084 3.13158
# Velocity P-wave (km/s) = 5.98385 6.52684 6.26123
#
# Compressibility (1/GPa) = 0.02168667
#
# Stress axis : x y z
#
# Youngs Moduli (GPa) = 39.51439 53.16424 39.64080
#
# Poissons Ratio (x) = 0.39896 0.30051
# Poissons Ratio (y) = 0.29652 0.34659
# Poissons Ratio (z) = 0.29956 0.46483
#
# Static dielectric constant tensor:
#      x y z
#    x 1.598710 0.000000 0.021150 
#    y 0.000000 1.609740 0.000000 
#    z 0.021150 0.000000 1.664210 
# 
# From -- ./inp_files/48904.got.cif
#   From: 2010.05.17/outbox.cif.g08.bks.cpg/sg11_25_cif.got.tgz:48904.got - 2010.06.03 12:22:45.
