data_PCOD9166168
_publ_section_title
;
Structure prediction by ZEFSAII (Michael W. Deem and Ramdas Pophale) SiO2 
 PCOD9166168
Probable space group: P 21/M
;
_chemical_formula_sum "Si O2"
_cell_formula_units_Z 28
_cell_length_a 15.696611
_cell_length_b 9.351173
_cell_length_c 13.047701
_cell_angle_alpha 90.000000
_cell_angle_beta 125.600602
_cell_angle_gamma 90.000000
_cell_volume 1557.209641
_symmetry_space_group_name_H-M "P 21/M"
_symmetry_group_IT_number 11
_symmetry_cell_setting 'monoclinic'
loop_
_space_group_symop_operation_xyz
x,y,z
-x,1/2+y,-z
-x,-y,-z
x,1/2-y,z
loop_
_atom_site_type_symbol
_atom_site_label
_atom_site_fract_x
_atom_site_fract_y
_atom_site_fract_z
Si Si1 0.648473 0.082235 0.603597
Si Si2 0.886812 0.411776 0.704679
Si Si3 0.952565 0.417849 0.062995
Si Si4 0.197376 0.420756 0.903379
Si Si5 0.556200 0.921641 0.944042
Si Si6 0.473845 0.078213 0.313477
Si Si7 0.022884 0.410751 0.614479
O O1 0.628789 0.250000 0.611327
O O2 0.768336 0.066665 0.654321
O O3 0.575643 0.043055 0.454725
O O4 0.617941 0.993638 0.683241
O O5 0.919029 0.250000 0.765285
O O6 0.957652 0.541159 0.793235
O O7 0.916488 0.407634 0.606733
O O8 0.939340 0.250000 0.038363
O O9 0.846896 0.491078 0.031184
O O10 0.000000 0.500000 0.000000
O O11 0.185072 0.250000 0.914000
O O12 0.119527 0.458212 0.754742
O O13 0.318514 0.448491 0.965148
O O14 0.539517 0.750000 0.941652
O O15 0.521217 0.964779 0.803051
O O16 0.500000 0.000000 0.000000
O O17 0.460029 0.250000 0.303836
O O18 0.049750 0.250000 0.602904
O O19 0.000000 0.500000 0.500000
#
# Coordination Sequence:
#
# PCOD9166168 Si02
#       7
#     4   4   4   4   4   4   4
#     4   9  18  34  56  80 109 143 182 229 282 335
#     4   9  19  35  52  76 108 141 177 223 274 326
#     4  11  22  35  54  81 110 142 177 219 270 333
#     4   9  20  39  56  77 111 147 181 228 277 323
#     4  10  22  39  59  82 112 149 191 234 280 334
#     4   9  19  35  54  80 111 144 183 231 283 332
#     4   9  18  33  53  75 106 142 179 224 275 325
#
# _framework density 17.980882000000001
#
# number of rings (size 3 to 8) (size 9 to 14) (size 15 to 20)
#    0.000    2.571    0.000    2.143    2.000    5.143 
#    0.000    1.429    0.000    0.000    0.000    0.000 
#    0.000    0.000    0.000    0.000    0.000    0.000 
#
# Total GULP energy -155902.035144 kJ/mol
# GULP energy per Si atom -5567.929827 kJ/mol
# Density = 1.793996 g / cm^3
# Si number density = 17.980882 Si / 1000 Ang^3
#
#
#
# Elastic Constant Matrix: (Units=GPa)
#
#
# Indices 1 2 3 4 5 6 
#
# 1 142.3786 60.4313 58.3103 0.0000 -13.6146 0.0000
# 2 60.4313 63.7265 42.5680 0.0000 -16.8847 0.0000
# 3 58.3103 42.5680 78.7949 0.0000 -29.8398 0.0000
# 4 0.0000 0.0000 0.0000 27.2526 0.0000 -7.5590
# 5 -13.6146 -16.8847 -29.8398 0.0000 27.6894 0.0000
# 6 0.0000 0.0000 0.0000 -7.5590 0.0000 34.0370
#
#
#
# Elastic Compliance Matrix: (Units=1/GPa)
#
#
# Indices 1 2 3 4 5 6 
#
# 1 0.013565 -0.009775 -0.007584 0.000000 -0.007464 0.000000
# 2 -0.009775 0.031618 -0.007377 0.000000 0.006524 0.000000
# 3 -0.007584 -0.007377 0.032393 0.000000 0.026682 0.000000
# 4 0.000000 0.000000 0.000000 0.039102 0.000000 0.008684
# 5 -0.007464 0.006524 0.026682 0.000000 0.065177 0.000000
# 6 0.000000 0.000000 0.000000 0.008684 0.000000 0.031308
#
#
# Mechanical properties :
#
#
# Convention : Reuss Voigt Hill
#
# Bulk Modulus (GPa) = 35.58187 67.50214 51.54201
# Shear Modulus (GPa) = 18.38220 26.03516 22.20868
#
# Velocity S-wave (km/s) = 3.20084 3.80930 3.51825
# Velocity P-wave (km/s) = 5.78724 7.54787 6.72542
#
# Compressibility (1/GPa) = 0.02810420
#
# Stress axis : x y z
#
# Youngs Moduli (GPa) = 73.72089 31.62803 30.87077
#
# Poissons Ratio (x) = 0.30916 0.23413
# Poissons Ratio (y) = 0.72061 0.22772
# Poissons Ratio (z) = 0.55911 0.23331
#
# Static dielectric constant tensor:
#      x y z
#    x 4.419810 0.000000 -4.816500 
#    y 0.000000 1.643330 0.000000 
#    z -4.816500 0.000000 9.935750 
# 
# From -- ./inp_files/37702.got.cif
#   From: 2010.05.17/outbox.cif.g08.bks.cpg/sg11_19_cif.got.tgz:37702.got - 2010.06.03 12:22:45.
