data_PCOD9166473
_publ_section_title
;
Structure prediction by ZEFSAII (Michael W. Deem and Ramdas Pophale) SiO2 
 PCOD9166473
Probable space group: P 21/M
;
_chemical_formula_sum "Si O2"
_cell_formula_units_Z 28
_cell_length_a 15.667884
_cell_length_b 8.751547
_cell_length_c 12.026776
_cell_angle_alpha 90.000000
_cell_angle_beta 119.297931
_cell_angle_gamma 90.000000
_cell_volume 1438.149994
_symmetry_space_group_name_H-M "P 21/M"
_symmetry_group_IT_number 11
_symmetry_cell_setting 'monoclinic'
loop_
_space_group_symop_operation_xyz
x,y,z
-x,1/2+y,-z
-x,-y,-z
x,1/2-y,z
loop_
_atom_site_type_symbol
_atom_site_label
_atom_site_fract_x
_atom_site_fract_y
_atom_site_fract_z
Si Si1 0.703096 0.934123 0.856631
Si Si2 0.476226 0.433157 0.105951
Si Si3 0.390377 0.932650 0.426388
Si Si4 0.072078 0.066525 0.953500
Si Si5 0.996257 0.069910 0.322352
Si Si6 0.157797 0.928524 0.577275
Si Si7 0.647934 0.569216 0.364736
O O1 0.698253 0.750000 0.839455
O O2 0.630577 0.973673 0.912566
O O3 0.662793 0.010383 0.718762
O O4 0.815120 0.977158 0.951145
O O5 0.483226 0.250000 0.105403
O O6 0.554899 0.496534 0.244054
O O7 0.500000 0.500000 0.000000
O O8 0.394243 0.750000 0.431031
O O9 0.500000 0.000000 0.500000
O O10 0.340039 0.995744 0.505866
O O11 0.066788 0.250000 0.949683
O O12 0.037564 0.001045 0.814100
O O13 0.000000 0.000000 0.000000
O O14 0.017795 0.250000 0.324808
O O15 0.908963 0.052668 0.356222
O O16 0.090133 0.984938 0.432794
O O17 0.182725 0.750000 0.580916
O O18 0.255503 0.027455 0.642887
O O19 0.634870 0.750000 0.366239
#
# Coordination Sequence:
#
# PCOD9166473 Si02
#       7
#     4   4   4   4   4   4   4
#     4  10  24  45  67  92 127 172 216 265 323 383
#     4  11  24  43  66  96 133 171 217 266 318 386
#     4  12  24  41  66  94 127 165 211 262 317 378
#     4  11  25  44  66  93 128 170 217 267 322 385
#     4  10  22  42  66  94 127 165 212 265 321 382
#     4  10  22  41  66  96 127 166 212 263 320 380
#     4  12  25  41  65  96 130 169 213 263 320 379
#
# _framework density 19.469456999999998
#
# number of rings (size 3 to 8) (size 9 to 14) (size 15 to 20)
#    0.000    1.143    1.429    4.286    4.000    3.429 
#    0.000    0.000    0.000    0.000    0.000    0.000 
#    0.000    0.000    0.000    0.000    0.000    0.000 
#
# Total GULP energy -156640.022493 kJ/mol
# GULP energy per Si atom -5594.286518 kJ/mol
# Density = 1.942514 g / cm^3
# Si number density = 19.469457 Si / 1000 Ang^3
#
#
#
# Elastic Constant Matrix: (Units=GPa)
#
#
# Indices 1 2 3 4 5 6 
#
# 1 106.0707 52.3579 62.4045 0.0000 6.5117 0.0000
# 2 52.3579 85.6185 50.6059 0.0000 -10.8582 0.0000
# 3 62.4045 50.6059 134.8558 0.0000 -14.1694 0.0000
# 4 0.0000 0.0000 0.0000 38.3904 0.0000 -2.5350
# 5 6.5117 -10.8582 -14.1694 0.0000 25.1461 0.0000
# 6 0.0000 0.0000 0.0000 -2.5350 0.0000 33.1563
#
#
#
# Elastic Compliance Matrix: (Units=1/GPa)
#
#
# Indices 1 2 3 4 5 6 
#
# 1 0.018417 -0.009021 -0.006428 0.000000 -0.012287 0.000000
# 2 -0.009021 0.019726 -0.002219 0.000000 0.009603 0.000000
# 3 -0.006428 -0.002219 0.012008 0.000000 0.007473 0.000000
# 4 0.000000 0.000000 0.000000 0.026180 0.000000 0.002002
# 5 -0.012287 0.009603 0.007473 0.000000 0.051307 0.000000
# 6 0.000000 0.000000 0.000000 0.002002 0.000000 0.030313
#
#
# Mechanical properties :
#
#
# Convention : Reuss Voigt Hill
#
# Bulk Modulus (GPa) = 67.50205 73.03131 70.26668
# Shear Modulus (GPa) = 25.22400 30.08367 27.65383
#
# Velocity S-wave (km/s) = 3.60330 3.93513 3.77287
# Velocity P-wave (km/s) = 7.21511 7.63146 7.42620
#
# Compressibility (1/GPa) = 0.01481436
#
# Stress axis : x y z
#
# Youngs Moduli (GPa) = 54.29866 50.69549 83.28035
#
# Poissons Ratio (x) = 0.45733 0.53533
# Poissons Ratio (y) = 0.48983 0.18477
# Poissons Ratio (z) = 0.34903 0.11248
#
# Static dielectric constant tensor:
#      x y z
#    x 1.683860 0.000000 0.006270 
#    y 0.000000 1.649470 0.000000 
#    z 0.006270 0.000000 1.608600 
# 
# From -- ./inp_files/38474.got.cif
#   From: 2010.05.17/outbox.cif.g08.bks.cpg/sg11_20_cif.got.tgz:38474.got - 2010.06.03 12:22:45.
