data_PCOD9166255
_publ_section_title
;
Structure prediction by ZEFSAII (Michael W. Deem and Ramdas Pophale) SiO2 
 PCOD9166255
Probable space group: P 21/M
;
_chemical_formula_sum "Si O2"
_cell_formula_units_Z 28
_cell_length_a 5.158694
_cell_length_b 31.833680
_cell_length_c 7.851645
_cell_angle_alpha 90.000000
_cell_angle_beta 115.813706
_cell_angle_gamma 90.000000
_cell_volume 1160.735686
_symmetry_space_group_name_H-M "P 21/M"
_symmetry_group_IT_number 11
_symmetry_cell_setting 'monoclinic'
loop_
_space_group_symop_operation_xyz
x,y,z
-x,1/2+y,-z
-x,-y,-z
x,1/2-y,z
loop_
_atom_site_type_symbol
_atom_site_label
_atom_site_fract_x
_atom_site_fract_y
_atom_site_fract_z
Si Si1 0.556753 0.933270 0.758246
Si Si2 0.788626 0.855155 0.476197
Si Si3 0.222563 0.868948 0.188332
Si Si4 0.347610 0.648258 0.856417
Si Si5 0.120538 0.519920 0.856075
Si Si6 0.202918 0.298838 0.860053
Si Si7 0.025825 0.563209 0.362449
O O1 0.529733 0.883964 0.792931
O O2 0.866198 0.945394 0.770492
O O3 0.324051 0.943547 0.545887
O O4 0.424281 0.958314 0.886938
O O5 0.446024 0.858056 0.404228
O O6 0.033005 0.846412 0.684390
O O7 0.797911 0.820043 0.328424
O O8 0.855330 0.901611 0.420070
O O9 0.029559 0.827921 0.114117
O O10 0.072151 0.911667 0.199462
O O11 0.351790 0.874738 0.040502
O O12 0.507850 0.691303 0.950405
O O13 0.100421 0.481735 0.716253
O O14 0.000000 0.500000 0.000000
O O15 0.139720 0.250000 0.834562
#
# Coordination Sequence:
#
# PCOD9166255 Si02
#       7
#     4   4   4   4   4   4   4
#     4  11  26  41  65  94 135 185 232 285 342 406
#     4   9  22  41  66  93 130 173 221 272 340 408
#     4  10  22  39  69  95 132 172 224 278 339 412
#     4  10  23  42  68  95 133 177 223 274 343 405
#     4  12  26  40  63  97 134 180 238 289 339 400
#     4  10  23  43  65  96 132 170 216 276 343 414
#     4  10  23  40  62  90 132 176 224 279 341 399
#
# _framework density 24.122633
#
# number of rings (size 3 to 8) (size 9 to 14) (size 15 to 20)
#    0.000    1.714    0.000    2.143   14.000    5.143 
#    0.000    0.000    0.000    0.000    0.000    0.000 
#    0.000    0.000    0.000    0.000    0.000    0.000 
#
# Total GULP energy -156332.076100 kJ/mol
# GULP energy per Si atom -5583.288432 kJ/mol
# Density = 2.406773 g / cm^3
# Si number density = 24.122633 Si / 1000 Ang^3
#
#
#
# Elastic Constant Matrix: (Units=GPa)
#
#
# Indices 1 2 3 4 5 6 
#
# 1 74.8425 24.4552 17.2929 0.0000 17.4349 0.0000
# 2 24.4552 113.9786 34.3354 0.0000 -5.5393 0.0000
# 3 17.2929 34.3354 132.3859 0.0000 20.0854 0.0000
# 4 0.0000 0.0000 0.0000 31.5207 0.0000 4.8029
# 5 17.4349 -5.5393 20.0854 0.0000 36.2253 0.0000
# 6 0.0000 0.0000 0.0000 4.8029 0.0000 8.5611
#
#
#
# Elastic Compliance Matrix: (Units=1/GPa)
#
#
# Indices 1 2 3 4 5 6 
#
# 1 0.016685 -0.004068 0.000206 0.000000 -0.008766 0.000000
# 2 -0.004068 0.010835 -0.003087 0.000000 0.005326 0.000000
# 3 0.000206 -0.003087 0.009187 0.000000 -0.005665 0.000000
# 4 0.000000 0.000000 0.000000 0.034691 0.000000 -0.019462
# 5 -0.008766 0.005326 -0.005665 0.000000 0.035780 0.000000
# 6 0.000000 0.000000 0.000000 -0.019462 0.000000 0.127726
#
#
# Mechanical properties :
#
#
# Convention : Reuss Voigt Hill
#
# Bulk Modulus (GPa) = 43.84277 52.59711 48.21994
# Shear Modulus (GPa) = 19.50037 31.60298 25.55168
#
# Velocity S-wave (km/s) = 2.84630 3.62345 3.25813
# Velocity P-wave (km/s) = 5.38668 6.27354 5.84695
#
# Compressibility (1/GPa) = 0.02280878
#
# Stress axis : x y z
#
# Youngs Moduli (GPa) = 59.93290 92.29207 108.85093
#
# Poissons Ratio (x) = 0.37544 -0.02238
# Poissons Ratio (y) = 0.24381 0.33601
# Poissons Ratio (z) = -0.01232 0.28490
#
# Static dielectric constant tensor:
#      x y z
#    x 2.025390 0.000000 0.004310 
#    y 0.000000 1.890630 0.000000 
#    z 0.004310 0.000000 2.006170 
# 
# From -- ./inp_files/10886.got.cif
#   From: 2010.05.17/outbox.cif.g08.bks.cpg/sg11_6_cif.got.tgz:10886.got - 2010.06.03 12:22:45.
