data_PCOD9166703
_publ_section_title
;
Structure prediction by ZEFSAII (Michael W. Deem and Ramdas Pophale) SiO2 
 PCOD9166703
Probable space group: P 21/M
;
_chemical_formula_sum "Si O2"
_cell_formula_units_Z 20
_cell_length_a 9.294907
_cell_length_b 21.345158
_cell_length_c 11.180474
_cell_angle_alpha 90.000000
_cell_angle_beta 25.874372
_cell_angle_gamma 90.000000
_cell_volume 968.029879
_symmetry_space_group_name_H-M "P 21/M"
_symmetry_group_IT_number 11
_symmetry_cell_setting 'monoclinic'
loop_
_space_group_symop_operation_xyz
x,y,z
-x,1/2+y,-z
-x,-y,-z
x,1/2-y,z
loop_
_atom_site_type_symbol
_atom_site_label
_atom_site_fract_x
_atom_site_fract_y
_atom_site_fract_z
Si Si1 0.996879 0.084655 0.718434
Si Si2 0.538207 0.322221 0.931386
Si Si3 0.169007 0.880950 0.505183
Si Si4 0.502834 0.997897 0.796173
Si Si5 0.362686 0.440090 0.673689
O O1 0.830106 0.145599 0.788524
O O2 0.302963 0.058736 0.412888
O O3 0.114593 0.092431 0.768135
O O4 0.722776 0.029525 0.932208
O O5 0.488054 0.250000 0.000047
O O6 0.641902 0.330018 0.715489
O O7 0.206168 0.361612 0.201117
O O8 0.342985 0.894603 0.501883
O O9 0.235789 0.945955 0.382003
O O10 0.260397 0.031343 0.879390
O O11 0.500000 0.500000 0.500000
#
# Coordination Sequence:
#
# PCOD9166703 Si02
#       5
#     4   4   4   4   4
#     4  11  20  37  62  89 128 144 193 245 305 351
#     4  12  26  42  56  83 122 169 208 242 272 343
#     4  10  23  40  64  86 122 155 196 243 308 354
#     4   9  20  34  63  95 114 146 184 246 315 356
#     4   8  19  38  61  95 122 146 179 249 313 368
#
# _framework density 20.660520000000002
#
# number of rings (size 3 to 8) (size 9 to 14) (size 15 to 20)
#    1.200    0.800    0.000    3.600    0.000    6.400 
#    0.000    2.000    0.000    0.000    0.000    0.000 
#    0.000    0.000    0.000    0.000    0.000    0.000 
#
# Total GULP energy -111548.232996 kJ/mol
# GULP energy per Si atom -5577.411650 kJ/mol
# Density = 2.061350 g / cm^3
# Si number density = 20.660520 Si / 1000 Ang^3
#
#
#
# Elastic Constant Matrix: (Units=GPa)
#
#
# Indices 1 2 3 4 5 6 
#
# 1 114.3953 43.8761 24.0278 0.0000 -26.4127 0.0000
# 2 43.8761 82.3437 17.8250 0.0000 -21.8212 0.0000
# 3 24.0278 17.8250 102.3761 0.0000 -4.4309 0.0000
# 4 0.0000 0.0000 0.0000 18.9555 0.0000 4.5810
# 5 -26.4127 -21.8212 -4.4309 0.0000 31.7560 0.0000
# 6 0.0000 0.0000 0.0000 4.5810 0.0000 16.3885
#
#
#
# Elastic Compliance Matrix: (Units=1/GPa)
#
#
# Indices 1 2 3 4 5 6 
#
# 1 0.012437 -0.004344 -0.001855 0.000000 0.007101 0.000000
# 2 -0.004344 0.016854 -0.001580 0.000000 0.007748 0.000000
# 3 -0.001855 -0.001580 0.010428 0.000000 -0.001174 0.000000
# 4 0.000000 0.000000 0.000000 0.056577 0.000000 -0.015815
# 5 0.007101 0.007748 -0.001174 0.000000 0.042556 0.000000
# 6 0.000000 0.000000 0.000000 -0.015815 0.000000 0.065439
#
#
# Mechanical properties :
#
#
# Convention : Reuss Voigt Hill
#
# Bulk Modulus (GPa) = 41.38891 52.28589 46.83740
# Shear Modulus (GPa) = 21.93935 27.64575 24.79255
#
# Velocity S-wave (km/s) = 3.26221 3.66197 3.46785
# Velocity P-wave (km/s) = 5.85369 6.57587 6.22526
#
# Compressibility (1/GPa) = 0.02416106
#
# Stress axis : x y z
#
# Youngs Moduli (GPa) = 80.40717 59.33372 95.89938
#
# Poissons Ratio (x) = 0.25772 0.17792
# Poissons Ratio (y) = 0.34925 0.15149
# Poissons Ratio (z) = 0.14918 0.09373
#
# Static dielectric constant tensor:
#      x y z
#    x 1.840590 0.000000 -0.032700 
#    y 0.000000 1.733230 0.000000 
#    z -0.032700 0.000000 1.774290 
# 
# From -- ./inp_files/50574.got.cif
#   From: 2010.05.17/outbox.cif.g08.bks.cpg/sg11_26_cif.got.tgz:50574.got - 2010.06.03 12:22:45.
