data_PCOD9166366
_publ_section_title
;
Structure prediction by ZEFSAII (Michael W. Deem and Ramdas Pophale) SiO2 
 PCOD9166366
Probable space group: P 21/M
;
_chemical_formula_sum "Si O2"
_cell_formula_units_Z 24
_cell_length_a 16.176244
_cell_length_b 16.297700
_cell_length_c 7.670060
_cell_angle_alpha 90.000000
_cell_angle_beta 35.477498
_cell_angle_gamma 90.000000
_cell_volume 1173.593208
_symmetry_space_group_name_H-M "P 21/M"
_symmetry_group_IT_number 11
_symmetry_cell_setting 'monoclinic'
loop_
_space_group_symop_operation_xyz
x,y,z
-x,1/2+y,-z
-x,-y,-z
x,1/2-y,z
loop_
_atom_site_type_symbol
_atom_site_label
_atom_site_fract_x
_atom_site_fract_y
_atom_site_fract_z
Si Si1 0.344846 0.151760 0.523139
Si Si2 0.925324 0.422506 0.722552
Si Si3 0.396094 0.950179 0.058660
Si Si4 0.662226 0.974675 0.184178
Si Si5 0.063328 0.090645 0.847249
Si Si6 0.142789 0.658619 0.522725
O O1 0.335498 0.250000 0.533224
O O2 0.503302 0.118890 0.204467
O O3 0.310696 0.111928 0.771454
O O4 0.230124 0.107416 0.593408
O O5 0.896038 0.361656 0.611842
O O6 0.000000 0.500000 0.500000
O O7 0.776696 0.458669 0.053992
O O8 0.015837 0.391281 0.730710
O O9 0.328563 0.014260 0.037862
O O10 0.264768 0.904516 0.370810
O O11 0.500000 0.000000 0.000000
O O12 0.500000 0.000000 0.500000
O O13 0.987982 0.147158 0.122238
O O14 0.000000 0.000000 0.000000
O O15 0.198600 0.750000 0.437528
#
# Coordination Sequence:
#
# PCOD9166366 Si02
#       6
#     4   4   4   4   4   4
#     4  11  22  39  61  92 126 157 204 265 313 357
#     4  11  22  39  65  92 120 166 212 249 304 381
#     4  10  22  40  67  85 120 163 210 248 307 381
#     4   9  20  37  62  88 114 160 205 245 309 366
#     4  12  22  39  67  91 126 169 212 248 307 380
#     4  11  24  41  62  93 128 159 205 267 311 355
#
# _framework density 20.450016000000002
#
# number of rings (size 3 to 8) (size 9 to 14) (size 15 to 20)
#    0.000    1.333    3.333    2.000    4.667    1.333 
#    0.000    1.667    0.000    0.000    0.000    0.000 
#    0.000    0.000    0.000    0.000    0.000    0.000 
#
# Total GULP energy -133915.519014 kJ/mol
# GULP energy per Si atom -5579.813292 kJ/mol
# Density = 2.040347 g / cm^3
# Si number density = 20.450016 Si / 1000 Ang^3
#
#
#
# Elastic Constant Matrix: (Units=GPa)
#
#
# Indices 1 2 3 4 5 6 
#
# 1 108.0951 34.3541 10.3721 0.0000 -11.2675 0.0000
# 2 34.3541 89.3756 3.7488 0.0000 9.3581 0.0000
# 3 10.3721 3.7488 81.5622 0.0000 -11.3121 0.0000
# 4 0.0000 0.0000 0.0000 21.6835 0.0000 -6.8817
# 5 -11.2675 9.3581 -11.3121 0.0000 28.0655 0.0000
# 6 0.0000 0.0000 0.0000 -6.8817 0.0000 19.6991
#
#
#
# Elastic Compliance Matrix: (Units=1/GPa)
#
#
# Indices 1 2 3 4 5 6 
#
# 1 0.011541 -0.005066 -0.000379 0.000000 0.006170 0.000000
# 2 -0.005066 0.013917 -0.000976 0.000000 -0.007068 0.000000
# 3 -0.000379 -0.000976 0.013111 0.000000 0.005457 0.000000
# 4 0.000000 0.000000 0.000000 0.051869 0.000000 0.018120
# 5 0.006170 -0.007068 0.005457 0.000000 0.042664 0.000000
# 6 0.000000 0.000000 0.000000 0.018120 0.000000 0.057094
#
#
# Mechanical properties :
#
#
# Convention : Reuss Voigt Hill
#
# Bulk Modulus (GPa) = 38.87026 41.77587 40.32307
# Shear Modulus (GPa) = 23.62812 29.26013 26.44413
#
# Velocity S-wave (km/s) = 3.40282 3.78671 3.59989
# Velocity P-wave (km/s) = 5.87261 6.29218 6.08601
#
# Compressibility (1/GPa) = 0.02572661
#
# Stress axis : x y z
#
# Youngs Moduli (GPa) = 86.65000 71.85462 76.27450
#
# Poissons Ratio (x) = 0.36402 0.02891
# Poissons Ratio (y) = 0.43898 0.07442
# Poissons Ratio (z) = 0.03285 0.07010
#
# Static dielectric constant tensor:
#      x y z
#    x 1.772090 0.000000 0.011130 
#    y 0.000000 1.572360 0.000000 
#    z 0.011130 0.000000 1.839060 
# 
# From -- ./inp_files/25092.got.cif
#   From: 2010.05.17/outbox.cif.g08.bks.cpg/sg11_13_cif.got.tgz:25092.got - 2010.06.03 12:22:45.
