data_PCOD9166844
_publ_section_title
;
Structure prediction by ZEFSAII (Michael W. Deem and Ramdas Pophale) SiO2 
 PCOD9166844
Probable space group: P 21/M
;
_chemical_formula_sum "Si O2"
_cell_formula_units_Z 18
_cell_length_a 11.248724
_cell_length_b 8.932582
_cell_length_c 7.155032
_cell_angle_alpha 90.000000
_cell_angle_beta 87.000015
_cell_angle_gamma 90.000000
_cell_volume 717.953415
_symmetry_space_group_name_H-M "P 21/M"
_symmetry_group_IT_number 11
_symmetry_cell_setting 'monoclinic'
loop_
_space_group_symop_operation_xyz
x,y,z
-x,1/2+y,-z
-x,-y,-z
x,1/2-y,z
loop_
_atom_site_type_symbol
_atom_site_label
_atom_site_fract_x
_atom_site_fract_y
_atom_site_fract_z
Si Si1 0.929322 0.750000 0.243034
Si Si2 0.544222 0.923515 0.306165
Si Si3 0.070939 0.750000 0.592642
Si Si4 0.288187 0.919122 0.227151
Si Si5 0.801607 0.750000 0.631338
Si Si6 0.195744 0.975853 0.843202
O O1 0.822825 0.750000 0.407143
O O2 0.899732 0.607436 0.125128
O O3 0.040667 0.750000 0.374181
O O4 0.562467 0.750000 0.344761
O O5 0.429776 0.935913 0.181110
O O6 0.500000 0.000000 0.500000
O O7 0.668479 0.985273 0.222113
O O8 0.141782 0.888033 0.671531
O O9 0.938317 0.750000 0.690931
O O10 0.282125 0.750000 0.323459
O O11 0.253017 0.085972 0.311672
O O12 0.212327 0.905488 0.044729
#
# Coordination Sequence:
#
# PCOD9166844 Si02
#       6
#     2   4   2   4   2   4
#     4  10  23  45  65 101 132 196 240 286 366 400
#     4  11  26  44  71 108 142 185 237 298 368 440
#     4  10  26  43  70 102 140 193 243 296 349 433
#     4  11  25  46  73 111 144 191 237 295 369 434
#     4  10  25  48  69 101 152 185 245 298 349 427
#     4  12  22  47  70 100 146 182 242 298 359 429
#
# _framework density 25.071263999999999
#
# number of rings (size 3 to 8) (size 9 to 14) (size 15 to 20)
#    0.667    0.444    2.222    3.333    3.111    0.889 
#    4.000    0.000    0.000    0.000    0.000    0.000 
#    0.000    0.000    0.000    0.000    0.000    0.000 
#
# Total GULP energy -100402.907738 kJ/mol
# GULP energy per Si atom -5577.939319 kJ/mol
# Density = 2.501420 g / cm^3
# Si number density = 25.071264 Si / 1000 Ang^3
#
#
#
# Elastic Constant Matrix: (Units=GPa)
#
#
# Indices 1 2 3 4 5 6 
#
# 1 149.3032 53.4965 10.4239 0.0000 31.8703 0.0000
# 2 53.4965 164.5874 23.7745 0.0000 -0.7115 0.0000
# 3 10.4239 23.7745 74.0834 0.0000 24.1929 0.0000
# 4 0.0000 0.0000 0.0000 16.8087 0.0000 7.5508
# 5 31.8703 -0.7115 24.1929 0.0000 55.4598 0.0000
# 6 0.0000 0.0000 0.0000 7.5508 0.0000 33.9299
#
#
#
# Elastic Compliance Matrix: (Units=1/GPa)
#
#
# Indices 1 2 3 4 5 6 
#
# 1 0.008994 -0.003195 0.001704 0.000000 -0.005953 0.000000
# 2 -0.003195 0.007568 -0.003044 0.000000 0.003261 0.000000
# 3 0.001704 -0.003044 0.016988 0.000000 -0.008429 0.000000
# 4 0.000000 0.000000 0.000000 0.066101 0.000000 -0.014710
# 5 -0.005953 0.003261 -0.008429 0.000000 0.025171 0.000000
# 6 0.000000 0.000000 0.000000 -0.014710 0.000000 0.032746
#
#
# Mechanical properties :
#
#
# Convention : Reuss Voigt Hill
#
# Bulk Modulus (GPa) = 40.85063 62.59598 51.72330
# Shear Modulus (GPa) = 28.60422 41.25830 34.93126
#
# Velocity S-wave (km/s) = 3.38141 4.06105 3.73671
# Velocity P-wave (km/s) = 5.61911 6.85645 6.26839
#
# Compressibility (1/GPa) = 0.02447943
#
# Stress axis : x y z
#
# Youngs Moduli (GPa) = 111.17942 132.13129 58.86510
#
# Poissons Ratio (x) = 0.42221 -0.10030
# Poissons Ratio (y) = 0.35526 0.17920
# Poissons Ratio (z) = -0.18944 0.40223
#
# Static dielectric constant tensor:
#      x y z
#    x 1.988610 0.000000 0.021770 
#    y 0.000000 2.483210 0.000000 
#    z 0.021770 0.000000 2.118820 
# 
# From -- ./inp_files/16087.got.cif
#   From: 2010.05.17/outbox.cif.g08.bks.cpg/sg11_9_cif.got.tgz:16087.got - 2010.06.03 12:22:45.
