data_PCOD9166147
_publ_section_title
;
Structure prediction by ZEFSAII (Michael W. Deem and Ramdas Pophale) SiO2 
 PCOD9166147
Probable space group: P 21/M
;
_chemical_formula_sum "Si O2"
_cell_formula_units_Z 32
_cell_length_a 11.659273
_cell_length_b 14.558030
_cell_length_c 17.265633
_cell_angle_alpha 90.000000
_cell_angle_beta 32.593840
_cell_angle_gamma 90.000000
_cell_volume 1578.656368
_symmetry_space_group_name_H-M "P 21/M"
_symmetry_group_IT_number 11
_symmetry_cell_setting 'monoclinic'
loop_
_space_group_symop_operation_xyz
x,y,z
-x,1/2+y,-z
-x,-y,-z
x,1/2-y,z
loop_
_atom_site_type_symbol
_atom_site_label
_atom_site_fract_x
_atom_site_fract_y
_atom_site_fract_z
Si Si1 0.228341 0.350953 0.076215
Si Si2 0.473497 0.855791 0.235902
Si Si3 0.017495 0.649393 0.471234
Si Si4 0.264436 0.097990 0.228528
Si Si5 0.891752 0.956422 0.399079
Si Si6 0.036535 0.033617 0.813582
Si Si7 0.421932 0.996951 0.707089
Si Si8 0.659035 0.137997 0.109161
O O1 0.127007 0.250000 0.121419
O O2 0.297596 0.357034 0.126106
O O3 0.080243 0.436746 0.139140
O O4 0.428102 0.356506 0.905248
O O5 0.471261 0.750000 0.265720
O O6 0.238132 0.900535 0.365626
O O7 0.607809 0.918970 0.216220
O O8 0.092459 0.750000 0.406620
O O9 0.877702 0.650463 0.627311
O O10 0.889646 0.613353 0.471491
O O11 0.488261 0.092655 0.145941
O O12 0.106793 0.013720 0.296894
O O13 0.917624 0.922390 0.296735
O O14 0.661061 0.004373 0.536538
O O15 0.248731 0.008015 0.739051
O O16 0.885255 0.099470 0.950356
O O17 0.387903 0.905998 0.779553
O O18 0.644062 0.250000 0.116529
#
# Coordination Sequence:
#
# PCOD9166147 Si02
#       8
#     4   4   4   4   4   4   4   4
#     4  10  22  40  63  95 128 166 212 265 320 380
#     4  10  22  38  65  95 127 169 210 263 319 380
#     4  11  21  37  61  95 129 164 209 262 322 384
#     4  11  22  40  65  96 128 163 205 266 328 381
#     4  11  24  41  69  92 129 171 213 266 320 376
#     4  11  27  43  64  92 130 176 215 262 310 378
#     4  12  23  47  64  92 128 172 224 260 308 375
#     4  12  26  42  66  96 130 167 210 265 328 384
#
# _framework density 20.270403999999999
#
# number of rings (size 3 to 8) (size 9 to 14) (size 15 to 20)
#    0.000    1.000    3.750    3.000    1.750    2.500 
#    0.000    0.000    0.000    3.000    0.000    0.000 
#    0.000    0.000    0.000    0.000    0.000    0.000 
#
# Total GULP energy -178453.581254 kJ/mol
# GULP energy per Si atom -5576.674414 kJ/mol
# Density = 2.022427 g / cm^3
# Si number density = 20.270404 Si / 1000 Ang^3
#
#
#
# Elastic Constant Matrix: (Units=GPa)
#
#
# Indices 1 2 3 4 5 6 
#
# 1 105.0444 15.0612 12.2397 0.0000 -12.1011 0.0000
# 2 15.0612 53.3165 -4.9702 0.0000 -3.4072 0.0000
# 3 12.2397 -4.9702 43.5931 0.0000 2.9003 0.0000
# 4 0.0000 0.0000 0.0000 -29.7469 0.0000 -48.1114
# 5 -12.1011 -3.4072 2.9003 0.0000 36.2126 0.0000
# 6 0.0000 0.0000 0.0000 -48.1114 0.0000 -43.9757
#
#
#
# Elastic Compliance Matrix: (Units=1/GPa)
#
#
# Indices 1 2 3 4 5 6 
#
# 1 0.010812 -0.003163 -0.003636 0.000000 0.003607 0.000000
# 2 -0.003163 0.019978 0.003128 0.000000 0.000572 0.000000
# 3 -0.003636 0.003128 0.024509 0.000000 -0.002884 0.000000
# 4 0.000000 0.000000 0.000000 0.043689 0.000000 -0.047797
# 5 0.003607 0.000572 -0.002884 0.000000 0.029105 0.000000
# 6 0.000000 0.000000 0.000000 -0.047797 0.000000 0.029553
#
#
# Mechanical properties :
#
#
# Convention : Reuss Voigt Hill
#
# Bulk Modulus (GPa) = 20.85259 27.40171 24.12715
# Shear Modulus (GPa) = 27.62838 4.47290 16.05064
#
# Velocity S-wave (km/s) = 3.69588 1.48708 2.81699
# Velocity P-wave (km/s) = 5.34062 4.06152 4.74437
#
# Compressibility (1/GPa) = 0.04795567
#
# Stress axis : x y z
#
# Youngs Moduli (GPa) = 92.48564 50.05623 40.80157
#
# Poissons Ratio (x) = 0.15832 0.14837
# Poissons Ratio (y) = 0.29252 -0.12761
# Poissons Ratio (z) = 0.33632 -0.15656
#
# Static dielectric constant tensor:
#      x y z
#    x 1.712980 0.000000 -0.023290 
#    y 0.000000 1.768140 0.000000 
#    z -0.023290 0.000000 1.762340 
# 
# From -- ./inp_files/59429.got.cif
#   From: 2010.05.17/outbox.cif.g08.bks.cpg/sg11_30_cif.got.tgz:59429.got - 2010.06.03 12:22:45.
