data_PCOD9166681
_publ_section_title
;
Structure prediction by ZEFSAII (Michael W. Deem and Ramdas Pophale) SiO2 
 PCOD9166681
Probable space group: P 21/M
;
_chemical_formula_sum "Si O2"
_cell_formula_units_Z 20
_cell_length_a 7.764230
_cell_length_b 19.435122
_cell_length_c 7.560698
_cell_angle_alpha 90.000000
_cell_angle_beta 128.421906
_cell_angle_gamma 90.000000
_cell_volume 893.844801
_symmetry_space_group_name_H-M "P 21/M"
_symmetry_group_IT_number 11
_symmetry_cell_setting 'monoclinic'
loop_
_space_group_symop_operation_xyz
x,y,z
-x,1/2+y,-z
-x,-y,-z
x,1/2-y,z
loop_
_atom_site_type_symbol
_atom_site_label
_atom_site_fract_x
_atom_site_fract_y
_atom_site_fract_z
Si Si1 0.043681 0.966876 0.808688
Si Si2 0.576737 0.922096 0.597488
Si Si3 0.040145 0.097075 0.623547
Si Si4 0.454692 0.613264 0.146883
Si Si5 0.345103 0.674461 0.718288
O O1 0.841148 0.927332 0.767529
O O2 0.046906 0.939840 0.609769
O O3 0.989886 0.047421 0.755414
O O4 0.284192 0.950440 0.033457
O O5 0.496977 0.874315 0.381408
O O6 0.479356 0.887389 0.710272
O O7 0.500000 0.000000 0.500000
O O8 0.300578 0.100538 0.769873
O O9 0.898912 0.166066 0.521659
O O10 0.351429 0.664878 0.935830
O O11 0.434903 0.750000 0.734533
#
# Coordination Sequence:
#
# PCOD9166681 Si02
#       5
#     4   4   4   4   4
#     4   9  18  35  61  96 125 156 202 262 317 375
#     4  11  23  39  63 100 130 163 209 270 321 374
#     4   9  18  36  62  89 124 160 204 259 315 374
#     4  10  23  39  65  94 124 165 205 259 325 379
#     4  11  25  43  61  88 127 171 218 260 314 389
#
# _framework density 22.375247000000002
#
# number of rings (size 3 to 8) (size 9 to 14) (size 15 to 20)
#    0.000    2.000    2.000    0.600    5.600    4.000 
#    0.000    8.000    0.000    0.000    0.000    0.000 
#    0.000    0.000    0.000    0.000    0.000    0.000 
#
# Total GULP energy -111466.823969 kJ/mol
# GULP energy per Si atom -5573.341198 kJ/mol
# Density = 2.232432 g / cm^3
# Si number density = 22.375247 Si / 1000 Ang^3
#
#
#
# Elastic Constant Matrix: (Units=GPa)
#
#
# Indices 1 2 3 4 5 6 
#
# 1 87.1359 14.9317 34.2199 0.0000 2.2413 0.0000
# 2 14.9317 70.1672 14.5181 0.0000 -16.3444 0.0000
# 3 34.2199 14.5181 134.2704 0.0000 7.0410 0.0000
# 4 0.0000 0.0000 0.0000 9.9658 0.0000 -2.1263
# 5 2.2413 -16.3444 7.0410 0.0000 36.6526 0.0000
# 6 0.0000 0.0000 0.0000 -2.1263 0.0000 16.6589
#
#
#
# Elastic Compliance Matrix: (Units=1/GPa)
#
#
# Indices 1 2 3 4 5 6 
#
# 1 0.013115 -0.002479 -0.003005 0.000000 -0.001330 0.000000
# 2 -0.002479 0.016989 -0.001627 0.000000 0.008040 0.000000
# 3 -0.003005 -0.001627 0.008503 0.000000 -0.002175 0.000000
# 4 0.000000 0.000000 0.000000 0.103152 0.000000 0.013166
# 5 -0.001330 0.008040 -0.002175 0.000000 0.031367 0.000000
# 6 0.000000 0.000000 0.000000 0.013166 0.000000 0.061709
#
#
# Mechanical properties :
#
#
# Convention : Reuss Voigt Hill
#
# Bulk Modulus (GPa) = 41.00678 46.54585 43.77632
# Shear Modulus (GPa) = 19.44124 27.84906 23.64515
#
# Velocity S-wave (km/s) = 2.95086 3.53177 3.25430
# Velocity P-wave (km/s) = 5.47510 6.12199 5.80756
#
# Compressibility (1/GPa) = 0.02438621
#
# Stress axis : x y z
#
# Youngs Moduli (GPa) = 76.24627 58.86319 117.60017
#
# Poissons Ratio (x) = 0.14593 0.35336
# Poissons Ratio (y) = 0.18903 0.19130
# Poissons Ratio (z) = 0.22910 0.09575
#
# Static dielectric constant tensor:
#      x y z
#    x 1.829210 0.000000 0.010690 
#    y 0.000000 1.863200 0.000000 
#    z 0.010690 0.000000 1.891380 
# 
# From -- ./inp_files/10375.got.cif
#   From: 2010.05.17/outbox.cif.g08.bks.cpg/sg11_6_cif.got.tgz:10375.got - 2010.06.03 12:22:45.
