data_PCOD9166823
_publ_section_title
;
Structure prediction by ZEFSAII (Michael W. Deem and Ramdas Pophale) SiO2 
 PCOD9166823
Probable space group: P 21/M
;
_chemical_formula_sum "Si O2"
_cell_formula_units_Z 22
_cell_length_a 7.671732
_cell_length_b 22.655284
_cell_length_c 7.233605
_cell_angle_alpha 90.000000
_cell_angle_beta 138.847998
_cell_angle_gamma 90.000000
_cell_volume 827.337100
_symmetry_space_group_name_H-M "P 21/M"
_symmetry_group_IT_number 11
_symmetry_cell_setting 'monoclinic'
loop_
_space_group_symop_operation_xyz
x,y,z
-x,1/2+y,-z
-x,-y,-z
x,1/2-y,z
loop_
_atom_site_type_symbol
_atom_site_label
_atom_site_fract_x
_atom_site_fract_y
_atom_site_fract_z
Si Si1 0.705352 0.487140 0.326755
Si Si2 0.829905 0.250000 0.539288
Si Si3 0.090471 0.250000 0.147228
Si Si4 0.659923 0.750000 0.302624
Si Si5 0.290486 0.852641 0.059678
Si Si6 0.105264 0.056118 0.197968
Si Si7 0.460968 0.629867 0.616151
O O1 0.000000 0.500000 0.500000
O O2 0.867757 0.411658 0.120285
O O3 0.500000 0.500000 0.000000
O O4 0.679920 0.421208 0.382359
O O5 0.638050 0.192764 0.385246
O O6 0.049204 0.250000 0.553113
O O7 0.021025 0.250000 0.875464
O O8 0.356349 0.250000 0.482953
O O9 0.943857 0.305966 0.111710
O O10 0.517767 0.813031 0.142397
O O11 0.380959 0.866589 0.339018
O O12 0.239709 0.103471 0.163959
O O13 0.318420 0.030865 0.514648
O O14 0.000000 0.000000 0.000000
#
# Coordination Sequence:
#
# PCOD9166823 Si02
#       7
#     4   2   2   2   4   4   4
#     4  12  29  51  80 131 179 220 289 369 439 515
#     4  10  26  53  83 124 166 215 291 354 440 525
#     4   9  21  47  73 114 161 215 267 343 430 503
#     4  11  23  50  80 122 163 220 276 363 432 524
#     4  10  23  43  82 114 157 211 291 336 426 520
#     4  12  25  49  83 115 163 230 287 343 438 529
#     4  11  25  51  83 116 167 223 283 355 433 527
#
# _framework density 26.591339000000001
#
# number of rings (size 3 to 8) (size 9 to 14) (size 15 to 20)
#    0.000    1.091    1.818    3.273    2.545    4.364 
#    3.273   14.545    0.000    1.091    0.000    0.000 
#    0.000    0.000    0.000    0.000    0.000    0.000 
#
# Total GULP energy -122999.290971 kJ/mol
# GULP energy per Si atom -5590.876862 kJ/mol
# Density = 2.653082 g / cm^3
# Si number density = 26.591339 Si / 1000 Ang^3
#
#
#
# Elastic Constant Matrix: (Units=GPa)
#
#
# Indices 1 2 3 4 5 6 
#
# 1 159.9228 102.7914 47.5159 0.0000 16.3307 0.0000
# 2 102.7914 258.4651 77.4931 0.0000 24.7606 0.0000
# 3 47.5159 77.4931 153.7259 0.0000 -17.8656 0.0000
# 4 0.0000 0.0000 0.0000 49.8391 0.0000 21.3205
# 5 16.3307 24.7606 -17.8656 0.0000 50.4936 0.0000
# 6 0.0000 0.0000 0.0000 21.3205 0.0000 38.2969
#
#
#
# Elastic Compliance Matrix: (Units=1/GPa)
#
#
# Indices 1 2 3 4 5 6 
#
# 1 0.008717 -0.002831 -0.001495 0.000000 -0.001960 0.000000
# 2 -0.002831 0.006025 -0.002502 0.000000 -0.002924 0.000000
# 3 -0.001495 -0.002502 0.008789 0.000000 0.004820 0.000000
# 4 0.000000 0.000000 0.000000 0.026337 0.000000 -0.014662
# 5 -0.001960 -0.002924 0.004820 0.000000 0.023578 0.000000
# 6 0.000000 0.000000 0.000000 -0.014662 0.000000 0.034274
#
#
# Mechanical properties :
#
#
# Convention : Reuss Voigt Hill
#
# Bulk Modulus (GPa) = 101.26903 114.19049 107.72976
# Shear Modulus (GPa) = 40.10667 50.68015 45.39341
#
# Velocity S-wave (km/s) = 3.88785 4.37039 4.13616
# Velocity P-wave (km/s) = 7.63675 8.27665 7.96313
#
# Compressibility (1/GPa) = 0.00987469
#
# Stress axis : x y z
#
# Youngs Moduli (GPa) = 114.72071 165.97315 113.78120
#
# Poissons Ratio (x) = 0.46980 0.17013
# Poissons Ratio (y) = 0.32473 0.28470
# Poissons Ratio (z) = 0.17153 0.41529
#
# Static dielectric constant tensor:
#      x y z
#    x 1.796050 0.000000 -0.110200 
#    y 0.000000 2.186830 0.000000 
#    z -0.110200 0.000000 2.095010 
# 
# From -- ./inp_files/14455.got.cif
#   From: 2010.05.17/outbox.cif.g08.bks.cpg/sg11_8_cif.got.tgz:14455.got - 2010.06.03 12:22:45.
