data_PCOD9166563
_publ_section_title
;
Structure prediction by ZEFSAII (Michael W. Deem and Ramdas Pophale) SiO2 
 PCOD9166563
Probable space group: P 21/M
;
_chemical_formula_sum "Si O2"
_cell_formula_units_Z 14
_cell_length_a 5.107674
_cell_length_b 22.096629
_cell_length_c 4.787337
_cell_angle_alpha 90.000000
_cell_angle_beta 86.994295
_cell_angle_gamma 90.000000
_cell_volume 539.566941
_symmetry_space_group_name_H-M "P 21/M"
_symmetry_group_IT_number 11
_symmetry_cell_setting 'monoclinic'
loop_
_space_group_symop_operation_xyz
x,y,z
-x,1/2+y,-z
-x,-y,-z
x,1/2-y,z
loop_
_atom_site_type_symbol
_atom_site_label
_atom_site_fract_x
_atom_site_fract_y
_atom_site_fract_z
Si Si1 0.902296 0.657378 0.128340
Si Si2 0.261204 0.923000 0.391112
Si Si3 0.267078 0.055062 0.223476
Si Si4 0.837431 0.750000 0.619510
O O1 0.786540 0.697320 0.383314
O O2 0.190797 0.636338 0.216153
O O3 0.755448 0.595396 0.051836
O O4 0.904514 0.697683 0.851425
O O5 0.494917 0.923004 0.597973
O O6 0.001774 0.932985 0.594417
O O7 0.284772 0.982582 0.195642
#
# Coordination Sequence:
#
# PCOD9166563 Si02
#       4
#     4   4   4   2
#     4  11  21  46  68 102 137 185 226 294 324 419
#     4  10  22  42  72 105 137 176 223 283 352 411
#     4  10  22  42  72 105 137 176 223 283 352 411
#     4  10  24  42  72  96 138 186 244 266 348 388
#
# _framework density 25.946736000000001
#
# number of rings (size 3 to 8) (size 9 to 14) (size 15 to 20)
#    0.000    1.714    2.857    0.857    0.000    2.286 
#    0.000   17.143    0.000    0.000    0.000    0.000 
#    0.000    0.000    0.000    0.000    0.000    0.000 
#
# Total GULP energy -77982.759463 kJ/mol
# GULP energy per Si atom -5570.197104 kJ/mol
# Density = 2.588768 g / cm^3
# Si number density = 25.946736 Si / 1000 Ang^3
#
#
#
# Elastic Constant Matrix: (Units=GPa)
#
#
# Indices 1 2 3 4 5 6 
#
# 1 116.1670 17.1016 36.9864 0.0000 27.6351 0.0000
# 2 17.1016 155.0972 73.0322 0.0000 14.5849 0.0000
# 3 36.9864 73.0322 209.6477 0.0000 19.5119 0.0000
# 4 0.0000 0.0000 0.0000 79.8877 0.0000 -0.8133
# 5 27.6351 14.5849 19.5119 0.0000 37.9263 0.0000
# 6 0.0000 0.0000 0.0000 -0.8133 0.0000 -33.8253
#
#
#
# Elastic Compliance Matrix: (Units=1/GPa)
#
#
# Indices 1 2 3 4 5 6 
#
# 1 0.010704 0.000084 -0.001248 0.000000 -0.007189 0.000000
# 2 0.000084 0.007815 -0.002575 0.000000 -0.001741 0.000000
# 3 -0.001248 -0.002575 0.005998 0.000000 -0.001186 0.000000
# 4 0.000000 0.000000 0.000000 0.012515 0.000000 -0.000301
# 5 -0.007189 -0.001741 -0.001186 0.000000 0.032885 0.000000
# 6 0.000000 0.000000 0.000000 -0.000301 0.000000 -0.029556
#
#
# Mechanical properties :
#
#
# Convention : Reuss Voigt Hill
#
# Bulk Modulus (GPa) = 58.69781 81.68358 70.19070
# Shear Modulus (GPa) = 93.42816 40.38387 66.90601
#
# Velocity S-wave (km/s) = 6.00715 3.94942 5.08349
# Velocity P-wave (km/s) = 8.41344 7.23511 7.84643
#
# Compressibility (1/GPa) = 0.01703641
#
# Stress axis : x y z
#
# Youngs Moduli (GPa) = 93.42562 127.96570 166.73601
#
# Poissons Ratio (x) = -0.01071 0.20816
# Poissons Ratio (y) = -0.00782 0.42934
# Poissons Ratio (z) = 0.11663 0.32951
#
# Static dielectric constant tensor:
#      x y z
#    x 2.166880 0.000000 -0.091280 
#    y 0.000000 2.066610 0.000000 
#    z -0.091280 0.000000 1.992350 
# 
# From -- ./inp_files/535.got.cif
#   From: 2010.05.17/outbox.cif.g08.bks.cpg/sg11_1_cif.got.tgz:535.got - 2010.06.03 12:22:45.
