data_PCOD9166332
_publ_section_title
;
Structure prediction by ZEFSAII (Michael W. Deem and Ramdas Pophale) SiO2 
 PCOD9166332
Probable space group: P 21/M
;
_chemical_formula_sum "Si O2"
_cell_formula_units_Z 28
_cell_length_a 8.886830
_cell_length_b 28.703901
_cell_length_c 8.465259
_cell_angle_alpha 90.000000
_cell_angle_beta 140.270412
_cell_angle_gamma 90.000000
_cell_volume 1380.196971
_symmetry_space_group_name_H-M "P 21/M"
_symmetry_group_IT_number 11
_symmetry_cell_setting 'monoclinic'
loop_
_space_group_symop_operation_xyz
x,y,z
-x,1/2+y,-z
-x,-y,-z
x,1/2-y,z
loop_
_atom_site_type_symbol
_atom_site_label
_atom_site_fract_x
_atom_site_fract_y
_atom_site_fract_z
Si Si1 0.067364 0.076750 0.010894
Si Si2 0.946508 0.750000 0.599353
Si Si3 0.626769 0.250000 0.791710
Si Si4 0.504633 0.625294 0.822506
Si Si5 0.809897 0.698958 0.204150
Si Si6 0.788771 0.334240 0.702729
Si Si7 0.692851 0.031247 0.237672
Si Si8 0.104056 0.013085 0.320911
O O1 0.280783 0.097397 0.083477
O O2 0.144377 0.057396 0.243223
O O3 0.873468 0.117909 0.855140
O O4 0.979870 0.030949 0.849056
O O5 0.662476 0.750000 0.417113
O O6 0.954091 0.705835 0.483707
O O7 0.166259 0.750000 0.900598
O O8 0.681615 0.296396 0.734154
O O9 0.380996 0.652480 0.579744
O O10 0.344767 0.585932 0.770319
O O11 0.612374 0.659933 0.039219
O O12 0.699874 0.750000 0.089123
O O13 0.984638 0.688162 0.201348
O O14 0.917301 0.025858 0.305693
O O15 0.689463 0.008681 0.409588
O O16 0.500000 0.000000 0.000000
#
# Coordination Sequence:
#
# PCOD9166332 Si02
#       8
#     4   2   2   4   4   4   4   4
#     4  10  22  42  61  96 127 175 216 277 326 407
#     4  10  27  47  68 100 138 173 226 285 351 399
#     4  12  27  45  70 102 140 175 226 293 345 403
#     4  11  23  39  69  95 128 168 234 261 336 405
#     4   9  23  44  69  93 128 178 217 271 339 417
#     4  11  24  42  69  94 132 177 228 271 339 412
#     4  11  22  40  60  94 126 174 213 275 325 399
#     4  10  22  40  64  87 135 167 220 270 339 388
#
# _framework density 20.286959
#
# number of rings (size 3 to 8) (size 9 to 14) (size 15 to 20)
#    0.429    1.143    3.571    0.000    7.000    2.857 
#    2.571    0.000    0.000    0.000    0.000    0.000 
#    0.000    0.000    0.000    0.000    0.000    0.000 
#
# Total GULP energy -155939.463599 kJ/mol
# GULP energy per Si atom -5569.266557 kJ/mol
# Density = 2.024079 g / cm^3
# Si number density = 20.286959 Si / 1000 Ang^3
#
#
#
# Elastic Constant Matrix: (Units=GPa)
#
#
# Indices 1 2 3 4 5 6 
#
# 1 35.8623 21.1111 -6.2211 0.0000 -7.6909 0.0000
# 2 21.1111 100.8230 35.9988 0.0000 -18.4777 0.0000
# 3 -6.2211 35.9988 77.8985 0.0000 -21.6783 0.0000
# 4 0.0000 0.0000 0.0000 37.4968 0.0000 -2.1144
# 5 -7.6909 -18.4777 -21.6783 0.0000 24.5843 0.0000
# 6 0.0000 0.0000 0.0000 -2.1144 0.0000 -28.0709
#
#
#
# Elastic Compliance Matrix: (Units=1/GPa)
#
#
# Indices 1 2 3 4 5 6 
#
# 1 0.038829 -0.009517 0.011779 0.000000 0.015381 0.000000
# 2 -0.009517 0.014782 -0.007060 0.000000 0.001907 0.000000
# 3 0.011779 -0.007060 0.021984 0.000000 0.017764 0.000000
# 4 0.000000 0.000000 0.000000 0.026556 0.000000 -0.002000
# 5 0.015381 0.001907 0.017764 0.000000 0.062585 0.000000
# 6 0.000000 0.000000 0.000000 -0.002000 0.000000 -0.035473
#
#
# Mechanical properties :
#
#
# Convention : Reuss Voigt Hill
#
# Bulk Modulus (GPa) = 15.15190 35.15127 25.15158
# Shear Modulus (GPa) = 31.08321 17.71507 24.39914
#
# Velocity S-wave (km/s) = 3.91855 2.95824 3.47176
# Velocity P-wave (km/s) = 5.28757 5.38822 5.33813
#
# Compressibility (1/GPa) = 0.06599832
#
# Stress axis : x y z
#
# Youngs Moduli (GPa) = 25.75397 67.65209 45.48715
#
# Poissons Ratio (x) = 0.64387 -0.53582
# Poissons Ratio (y) = 0.24511 0.32116
# Poissons Ratio (z) = -0.30337 0.47765
#
# Static dielectric constant tensor:
#      x y z
#    x 1.726130 0.000000 0.021980 
#    y 0.000000 1.741580 0.000000 
#    z 0.021980 0.000000 1.777410 
# 
# From -- ./inp_files/3366.got.cif
#   From: 2010.05.17/outbox.cif.g08.bks.cpg/sg11_2_cif.got.tgz:3366.got - 2010.06.03 12:22:45.
