data_PCOD9166120
_publ_section_title
;
Structure prediction by ZEFSAII (Michael W. Deem and Ramdas Pophale) SiO2 
 PCOD9166120
Probable space group: P 21/M
;
_chemical_formula_sum "Si O2"
_cell_formula_units_Z 32
_cell_length_a 11.888911
_cell_length_b 8.303755
_cell_length_c 27.746411
_cell_angle_alpha 90.000000
_cell_angle_beta 33.719575
_cell_angle_gamma 90.000000
_cell_volume 1520.607207
_symmetry_space_group_name_H-M "P 21/M"
_symmetry_group_IT_number 11
_symmetry_cell_setting 'monoclinic'
loop_
_space_group_symop_operation_xyz
x,y,z
-x,1/2+y,-z
-x,-y,-z
x,1/2-y,z
loop_
_atom_site_type_symbol
_atom_site_label
_atom_site_fract_x
_atom_site_fract_y
_atom_site_fract_z
Si Si1 0.018560 0.444217 0.187970
Si Si2 0.639745 0.433510 0.093986
Si Si3 0.017425 0.939529 0.909093
Si Si4 0.324143 0.556562 0.621513
Si Si5 0.907081 0.445252 0.584048
Si Si6 0.459423 0.437016 0.771564
Si Si7 0.218205 0.444370 0.556106
Si Si8 0.577843 0.437495 0.920895
O O1 0.046043 0.250000 0.181774
O O2 0.043626 0.488605 0.123337
O O3 0.798429 0.485755 0.286956
O O4 0.183368 0.532137 0.161677
O O5 0.619932 0.250000 0.117150
O O6 0.546905 0.545140 0.168343
O O7 0.521343 0.464763 0.086877
O O8 0.873864 0.470245 0.998000
O O9 0.979170 0.750000 0.928407
O O10 0.255402 0.972799 0.828693
O O11 0.331654 0.750000 0.615697
O O12 0.205708 0.496865 0.616228
O O13 0.555681 0.497744 0.539329
O O14 0.905803 0.250000 0.585353
O O15 0.673891 0.498658 0.674787
O O16 0.000000 0.500000 0.500000
O O17 0.048307 0.500028 0.578711
O O18 0.438896 0.250000 0.765452
O O19 0.215816 0.250000 0.555744
O O20 0.527475 0.250000 0.933272
O O21 0.500000 0.500000 0.000000
#
# Coordination Sequence:
#
# PCOD9166120 Si02
#       8
#     4   4   4   4   4   4   4   4
#     4  10  22  38  60  91 124 162 209 256 308 368
#     4  12  25  43  67  94 126 166 210 262 319 378
#     4  11  23  41  66  93 126 169 214 264 317 374
#     4   9  19  36  60  90 121 156 201 252 301 365
#     4  10  24  43  65  91 124 164 208 259 314 373
#     4  11  25  44  64  93 128 165 214 266 317 377
#     4   9  19  38  61  87 120 158 199 250 310 364
#     4  12  24  40  62  90 126 166 205 250 307 368
#
# _framework density 21.044225000000001
#
# number of rings (size 3 to 8) (size 9 to 14) (size 15 to 20)
#    0.000    1.500    1.250    3.375    3.500    2.500 
#    0.000    0.000    0.000    0.000    0.000    0.000 
#    0.000    0.000    0.000    0.000    0.000    0.000 
#
# Total GULP energy -178834.494820 kJ/mol
# GULP energy per Si atom -5588.577963 kJ/mol
# Density = 2.099633 g / cm^3
# Si number density = 21.044225 Si / 1000 Ang^3
#
#
#
# Elastic Constant Matrix: (Units=GPa)
#
#
# Indices 1 2 3 4 5 6 
#
# 1 70.7072 -7.9464 7.6798 0.0000 -14.0452 0.0000
# 2 -7.9464 24.6535 2.2639 0.0000 -2.6376 0.0000
# 3 7.6798 2.2639 99.2344 0.0000 2.4306 0.0000
# 4 0.0000 0.0000 0.0000 18.4708 0.0000 5.3912
# 5 -14.0452 -2.6376 2.4306 0.0000 28.3328 0.0000
# 6 0.0000 0.0000 0.0000 5.3912 0.0000 26.1709
#
#
#
# Elastic Compliance Matrix: (Units=1/GPa)
#
#
# Indices 1 2 3 4 5 6 
#
# 1 0.016875 0.006569 -0.001679 0.000000 0.009121 0.000000
# 2 0.006569 0.043633 -0.001687 0.000000 0.007463 0.000000
# 3 -0.001679 -0.001687 0.010291 0.000000 -0.001872 0.000000
# 4 0.000000 0.000000 0.000000 0.057603 0.000000 -0.011866
# 5 0.009121 0.007463 -0.001872 0.000000 0.040672 0.000000
# 6 0.000000 0.000000 0.000000 -0.011866 0.000000 0.040655
#
#
# Mechanical properties :
#
#
# Convention : Reuss Voigt Hill
#
# Bulk Modulus (GPa) = 12.95228 22.06555 17.50892
# Shear Modulus (GPa) = 21.82854 27.43475 24.63165
#
# Velocity S-wave (km/s) = 3.22416 3.61456 3.42493
# Velocity P-wave (km/s) = 4.47531 5.28471 4.89676
#
# Compressibility (1/GPa) = 0.07720649
#
# Stress axis : x y z
#
# Youngs Moduli (GPa) = 59.25820 22.91847 97.16806
#
# Poissons Ratio (x) = -0.15056 0.16317
# Poissons Ratio (y) = -0.38929 0.16389
# Poissons Ratio (z) = 0.09951 0.03866
#
# Static dielectric constant tensor:
#      x y z
#    x 1.755900 0.000000 -0.024330 
#    y 0.000000 1.649330 0.000000 
#    z -0.024330 0.000000 1.772170 
# 
# From -- ./inp_files/73074.got.cif
#   From: 2010.05.17/outbox.cif.g08.bks.cpg/sg11_37_cif.got.tgz:73074.got - 2010.06.03 12:22:45.
