data_PCOD9166197
_publ_section_title
;
Structure prediction by ZEFSAII (Michael W. Deem and Ramdas Pophale) SiO2 
 PCOD9166197
Probable space group: P 21/M
;
_chemical_formula_sum "Si O2"
_cell_formula_units_Z 20
_cell_length_a 12.849022
_cell_length_b 12.897179
_cell_length_c 13.247163
_cell_angle_alpha 90.000000
_cell_angle_beta 157.054372
_cell_angle_gamma 90.000000
_cell_volume 855.841784
_symmetry_space_group_name_H-M "P 21/M"
_symmetry_group_IT_number 11
_symmetry_cell_setting 'monoclinic'
loop_
_space_group_symop_operation_xyz
x,y,z
-x,1/2+y,-z
-x,-y,-z
x,1/2-y,z
loop_
_atom_site_type_symbol
_atom_site_label
_atom_site_fract_x
_atom_site_fract_y
_atom_site_fract_z
Si Si1 0.493548 0.370127 0.429556
Si Si2 0.101654 0.870456 0.026274
Si Si3 0.345990 0.135246 0.959201
Si Si4 0.248838 0.051993 0.666322
Si Si5 0.908762 0.004660 0.674628
O O1 0.528733 0.250000 0.430587
O O2 0.650617 0.382957 0.676409
O O3 0.178126 0.386999 0.162989
O O4 0.649129 0.443958 0.492335
O O5 0.100669 0.750000 0.992415
O O6 0.918671 0.053680 0.086710
O O7 0.421693 0.250000 0.061598
O O8 0.540825 0.040680 0.157571
O O9 0.072695 0.097588 0.767504
O O10 0.338946 0.133960 0.830175
O O11 0.000000 0.000000 0.500000
O O12 0.165159 0.078377 0.478475
#
# Coordination Sequence:
#
# PCOD9166197 Si02
#       5
#     4   4   4   4   4
#     4  10  22  39  60  93 131 175 215 261 316 374
#     4  10  23  40  60  91 135 175 215 260 315 375
#     4  10  22  41  64  92 124 158 205 264 320 382
#     4   9  22  41  60  90 123 157 204 255 323 382
#     4  11  22  37  65  93 121 164 214 261 316 376
#
# _framework density 23.368805999999999
#
# number of rings (size 3 to 8) (size 9 to 14) (size 15 to 20)
#    0.000    2.000    0.000    1.800    5.600    4.800 
#    0.000    8.000    0.000    0.000    0.000    0.000 
#    0.000    0.000    0.000    0.000    0.000    0.000 
#
# Total GULP energy -111820.290898 kJ/mol
# GULP energy per Si atom -5591.014545 kJ/mol
# Density = 2.331562 g / cm^3
# Si number density = 23.368806 Si / 1000 Ang^3
#
#
#
# Elastic Constant Matrix: (Units=GPa)
#
#
# Indices 1 2 3 4 5 6 
#
# 1 100.3092 41.1891 37.4168 0.0000 -12.9665 0.0000
# 2 41.1891 93.9618 5.1109 0.0000 -0.6878 0.0000
# 3 37.4168 5.1109 90.1760 0.0000 -5.1721 0.0000
# 4 0.0000 0.0000 0.0000 14.2381 0.0000 2.8555
# 5 -12.9665 -0.6878 -5.1721 0.0000 49.8079 0.0000
# 6 0.0000 0.0000 0.0000 2.8555 0.0000 17.4515
#
#
#
# Elastic Compliance Matrix: (Units=1/GPa)
#
#
# Indices 1 2 3 4 5 6 
#
# 1 0.015107 -0.006287 -0.005725 0.000000 0.003251 0.000000
# 2 -0.006287 0.013292 0.001783 0.000000 -0.001268 0.000000
# 3 -0.005725 0.001783 0.013360 0.000000 -0.000079 0.000000
# 4 0.000000 0.000000 0.000000 0.072617 0.000000 -0.011882
# 5 0.003251 -0.001268 -0.000079 0.000000 0.020898 0.000000
# 6 0.000000 0.000000 0.000000 -0.011882 0.000000 0.059246
#
#
# Mechanical properties :
#
#
# Convention : Reuss Voigt Hill
#
# Bulk Modulus (GPa) = 46.95070 50.20894 48.57982
# Shear Modulus (GPa) = 22.51455 29.68151 26.09803
#
# Velocity S-wave (km/s) = 3.10731 3.56776 3.34546
# Velocity P-wave (km/s) = 5.74531 6.20516 5.97966
#
# Compressibility (1/GPa) = 0.02129894
#
# Stress axis : x y z
#
# Youngs Moduli (GPa) = 66.19578 75.23131 74.85281
#
# Poissons Ratio (x) = 0.47298 0.42856
# Poissons Ratio (y) = 0.41617 -0.13343
# Poissons Ratio (z) = 0.37900 -0.13410
#
# Static dielectric constant tensor:
#      x y z
#    x 2.295320 0.000000 0.186480 
#    y 0.000000 1.883530 0.000000 
#    z 0.186480 0.000000 2.068270 
# 
# From -- ./inp_files/34521.got.cif
#   From: 2010.05.17/outbox.cif.g08.bks.cpg/sg11_18_cif.got.tgz:34521.got - 2010.06.03 12:22:45.
