data_PCOD9166871
_publ_section_title
;
Structure prediction by ZEFSAII (Michael W. Deem and Ramdas Pophale) SiO2 
 PCOD9166871
Probable space group: P 21/M
;
_chemical_formula_sum "Si O2"
_cell_formula_units_Z 26
_cell_length_a 14.642566
_cell_length_b 9.378145
_cell_length_c 15.207164
_cell_angle_alpha 90.000000
_cell_angle_beta 36.432570
_cell_angle_gamma 90.000000
_cell_volume 1240.161895
_symmetry_space_group_name_H-M "P 21/M"
_symmetry_group_IT_number 11
_symmetry_cell_setting 'monoclinic'
loop_
_space_group_symop_operation_xyz
x,y,z
-x,1/2+y,-z
-x,-y,-z
x,1/2-y,z
loop_
_atom_site_type_symbol
_atom_site_label
_atom_site_fract_x
_atom_site_fract_y
_atom_site_fract_z
Si Si1 0.468929 0.580578 0.114516
Si Si2 0.131020 0.578053 0.454922
Si Si3 0.184277 0.914620 0.613998
Si Si4 0.414164 0.250000 0.592123
Si Si5 0.473214 0.508997 0.632550
Si Si6 0.321119 0.592824 0.925253
Si Si7 0.985448 0.918819 0.104076
O O1 0.472276 0.750000 0.100522
O O2 0.301575 0.543122 0.285642
O O3 0.604549 0.527921 0.072922
O O4 0.500000 0.500000 0.000000
O O5 0.112974 0.750000 0.463122
O O6 0.123760 0.540164 0.564605
O O7 0.000000 0.500000 0.500000
O O8 0.141230 0.750000 0.663261
O O9 0.368688 0.925637 0.467922
O O10 0.132148 0.010932 0.735623
O O11 0.356982 0.380782 0.700292
O O12 0.491448 0.373786 0.468476
O O13 0.416761 0.589982 0.761546
O O14 0.334687 0.750000 0.957248
O O15 0.146951 0.569641 0.030949
O O16 0.953310 0.750000 0.118226
O O17 0.000000 0.000000 0.000000
#
# Coordination Sequence:
#
# PCOD9166871 Si02
#       7
#     4   4   4   2   4   4   4
#     4  11  25  46  73 103 136 173 219 275 340 407
#     4  10  24  45  70 100 134 172 217 271 334 400
#     4  11  24  45  66  95 134 176 223 275 330 398
#     4  10  24  34  64 100 126 168 218 274 336 384
#     4  11  22  40  65  96 129 171 220 275 325 396
#     4  11  25  45  66  98 135 175 224 278 332 398
#     4  11  28  45  66  96 140 184 230 280 336 395
#
# _framework density 20.965005000000001
#
# number of rings (size 3 to 8) (size 9 to 14) (size 15 to 20)
#    0.000    1.231    3.077    0.923    8.615    3.077 
#    0.000    0.000    0.000    0.000    0.000    0.000 
#    0.000    0.000    0.000    0.000    0.000    0.000 
#
# Total GULP energy -144804.331446 kJ/mol
# GULP energy per Si atom -5569.397363 kJ/mol
# Density = 2.091729 g / cm^3
# Si number density = 20.965005 Si / 1000 Ang^3
#
#
#
# Elastic Constant Matrix: (Units=GPa)
#
#
# Indices 1 2 3 4 5 6 
#
# 1 119.6532 51.3445 35.7939 0.0000 -2.9822 0.0000
# 2 51.3445 130.4284 37.0762 0.0000 4.5395 0.0000
# 3 35.7939 37.0762 92.2230 0.0000 2.8622 0.0000
# 4 0.0000 0.0000 0.0000 39.3441 0.0000 -6.2876
# 5 -2.9822 4.5395 2.8622 0.0000 22.7122 0.0000
# 6 0.0000 0.0000 0.0000 -6.2876 0.0000 50.1401
#
#
#
# Elastic Compliance Matrix: (Units=1/GPa)
#
#
# Indices 1 2 3 4 5 6 
#
# 1 0.010782 -0.003522 -0.002846 0.000000 0.002478 0.000000
# 2 -0.003522 0.009845 -0.002526 0.000000 -0.002112 0.000000
# 3 -0.002846 -0.002526 0.013010 0.000000 -0.001508 0.000000
# 4 0.000000 0.000000 0.000000 0.025937 0.000000 0.003252
# 5 0.002478 -0.002112 -0.001508 0.000000 0.044967 0.000000
# 6 0.000000 0.000000 0.000000 0.003252 0.000000 0.020352
#
#
# Mechanical properties :
#
#
# Convention : Reuss Voigt Hill
#
# Bulk Modulus (GPa) = 63.08897 65.63710 64.36303
# Shear Modulus (GPa) = 33.79266 36.97860 35.38563
#
# Velocity S-wave (km/s) = 4.01915 4.20435 4.11279
# Velocity P-wave (km/s) = 7.18999 7.41246 7.30207
#
# Compressibility (1/GPa) = 0.01585063
#
# Stress axis : x y z
#
# Youngs Moduli (GPa) = 92.74955 101.57660 76.86441
#
# Poissons Ratio (x) = 0.35772 0.21874
# Poissons Ratio (y) = 0.32663 0.19412
# Poissons Ratio (z) = 0.26394 0.25653
#
# Static dielectric constant tensor:
#      x y z
#    x 1.902570 0.000000 -0.092740 
#    y 0.000000 1.739270 0.000000 
#    z -0.092740 0.000000 1.821670 
# 
# From -- ./inp_files/51898.got.cif
#   From: 2010.05.17/outbox.cif.g08.bks.cpg/sg11_26_cif.got.tgz:51898.got - 2010.06.03 12:22:45.
