data_PCOD9166911
_publ_section_title
;
Structure prediction by ZEFSAII (Michael W. Deem and Ramdas Pophale) SiO2 
 PCOD9166911
Probable space group: P 21/M
;
_chemical_formula_sum "Si O2"
_cell_formula_units_Z 22
_cell_length_a 6.993828
_cell_length_b 18.026316
_cell_length_c 9.680535
_cell_angle_alpha 90.000000
_cell_angle_beta 124.630554
_cell_angle_gamma 90.000000
_cell_volume 1004.230065
_symmetry_space_group_name_H-M "P 21/M"
_symmetry_group_IT_number 11
_symmetry_cell_setting 'monoclinic'
loop_
_space_group_symop_operation_xyz
x,y,z
-x,1/2+y,-z
-x,-y,-z
x,1/2-y,z
loop_
_atom_site_type_symbol
_atom_site_label
_atom_site_fract_x
_atom_site_fract_y
_atom_site_fract_z
Si Si1 0.060740 0.663034 0.321688
Si Si2 0.715713 0.668429 0.938765
Si Si3 0.500932 0.927578 0.406568
Si Si4 0.994064 0.376120 0.378851
Si Si5 0.025867 0.750000 0.846498
Si Si6 0.584282 0.024643 0.183245
O O1 0.113965 0.750000 0.331834
O O2 0.270799 0.617880 0.341655
O O3 0.832345 0.650417 0.134516
O O4 0.034755 0.643984 0.471759
O O5 0.597390 0.750000 0.900531
O O6 0.919714 0.685861 0.912024
O O7 0.551175 0.600607 0.829910
O O8 0.731056 0.881351 0.534447
O O9 0.500000 0.000000 0.500000
O O10 0.525923 0.958879 0.263238
O O11 0.903214 0.315000 0.235688
O O12 0.855174 0.452666 0.297846
O O13 0.500000 0.000000 0.000000
#
# Coordination Sequence:
#
# PCOD9166911 Si02
#       6
#     4   4   4   4   2   4
#     4  11  25  47  73 101 140 185 233 286 340 418
#     4   9  24  47  69 102 138 180 234 284 346 407
#     4  12  27  45  70 100 142 185 226 287 346 417
#     4  12  26  45  69 106 137 180 241 276 353 406
#     4  10  24  42  74 100 134 182 230 304 328 416
#     4  12  27  44  72 104 144 185 228 293 346 418
#
# _framework density 21.907330000000002
#
# number of rings (size 3 to 8) (size 9 to 14) (size 15 to 20)
#    0.545    0.364    2.727    2.727    7.636    0.727 
#    0.000    0.909    0.000    0.000    0.000    0.000 
#    0.000    0.000    0.000    0.000    0.000    0.000 
#
# Total GULP energy -122507.822559 kJ/mol
# GULP energy per Si atom -5568.537389 kJ/mol
# Density = 2.185747 g / cm^3
# Si number density = 21.907330 Si / 1000 Ang^3
#
#
#
# Elastic Constant Matrix: (Units=GPa)
#
#
# Indices 1 2 3 4 5 6 
#
# 1 42.9148 7.1329 0.5357 0.0000 -12.7540 0.0000
# 2 7.1329 51.6004 -7.6997 0.0000 11.0237 0.0000
# 3 0.5357 -7.6997 64.3414 0.0000 -29.0942 0.0000
# 4 0.0000 0.0000 0.0000 48.5420 0.0000 6.0443
# 5 -12.7540 11.0237 -29.0942 0.0000 31.4521 0.0000
# 6 0.0000 0.0000 0.0000 6.0443 0.0000 48.2623
#
#
#
# Elastic Compliance Matrix: (Units=1/GPa)
#
#
# Indices 1 2 3 4 5 6 
#
# 1 0.032107 -0.008339 0.010218 0.000000 0.025394 0.000000
# 2 -0.008339 0.023187 -0.004056 0.000000 -0.015261 0.000000
# 3 0.010218 -0.004056 0.030063 0.000000 0.033374 0.000000
# 4 0.000000 0.000000 0.000000 0.020927 0.000000 -0.002621
# 5 0.025394 -0.015261 0.033374 0.000000 0.078313 0.000000
# 6 0.000000 0.000000 0.000000 -0.002621 0.000000 0.021048
#
#
# Mechanical properties :
#
#
# Convention : Reuss Voigt Hill
#
# Bulk Modulus (GPa) = 12.34533 17.64384 14.99458
# Shear Modulus (GPa) = 21.09692 36.24380 28.67036
#
# Velocity S-wave (km/s) = 3.10660 4.07186 3.62154
# Velocity P-wave (km/s) = 4.30296 5.49346 4.93424
#
# Compressibility (1/GPa) = 0.08100230
#
# Stress axis : x y z
#
# Youngs Moduli (GPa) = 31.14551 43.12706 33.26367
#
# Poissons Ratio (x) = 0.35962 -0.33987
# Poissons Ratio (y) = 0.25971 0.13493
# Poissons Ratio (z) = -0.31823 0.17494
#
# Static dielectric constant tensor:
#      x y z
#    x 1.802910 0.000000 -0.008370 
#    y 0.000000 1.803800 0.000000 
#    z -0.008370 0.000000 1.833890 
# 
# From -- ./inp_files/2375.got.cif
#   From: 2010.05.17/outbox.cif.g08.bks.cpg/sg11_2_cif.got.tgz:2375.got - 2010.06.03 12:22:45.
