data_PCOD9166043
_publ_section_title
;
Structure prediction by ZEFSAII (Michael W. Deem and Ramdas Pophale) SiO2 
 PCOD9166043
Probable space group: P 21/M
;
_chemical_formula_sum "Si O2"
_cell_formula_units_Z 32
_cell_length_a 11.371893
_cell_length_b 14.604705
_cell_length_c 8.159817
_cell_angle_alpha 90.000000
_cell_angle_beta 95.310851
_cell_angle_gamma 90.000000
_cell_volume 1349.390395
_symmetry_space_group_name_H-M "P 21/M"
_symmetry_group_IT_number 11
_symmetry_cell_setting 'monoclinic'
loop_
_space_group_symop_operation_xyz
x,y,z
-x,1/2+y,-z
-x,-y,-z
x,1/2-y,z
loop_
_atom_site_type_symbol
_atom_site_label
_atom_site_fract_x
_atom_site_fract_y
_atom_site_fract_z
Si Si1 0.703823 0.854722 0.621985
Si Si2 0.687225 0.007675 0.097955
Si Si3 0.924195 0.638541 0.481538
Si Si4 0.152235 0.145277 0.025282
Si Si5 0.934557 0.139918 0.828738
Si Si6 0.292322 0.643867 0.376946
Si Si7 0.849420 0.143439 0.298375
Si Si8 0.543754 0.007809 0.742537
O O1 0.668357 0.750000 0.581015
O O2 0.596779 0.915736 0.670731
O O3 0.790981 0.894582 0.493715
O O4 0.795451 0.853347 0.786688
O O5 0.762250 0.917722 0.069055
O O6 0.778821 0.087121 0.154839
O O7 0.593120 0.996126 0.232124
O O8 0.609426 0.025685 0.925273
O O9 0.919694 0.750000 0.494446
O O10 0.979345 0.618401 0.312802
O O11 0.023060 0.607566 0.625101
O O12 0.156311 0.250000 0.964544
O O13 0.015679 0.114565 0.993167
O O14 0.916627 0.250000 0.830140
O O15 0.806940 0.102794 0.761513
O O16 0.314925 0.750000 0.341522
O O17 0.230529 0.641078 0.546123
O O18 0.410825 0.587341 0.370253
O O19 0.862197 0.250000 0.251097
#
# Coordination Sequence:
#
# PCOD9166043 Si02
#       8
#     4   4   4   4   4   4   4   4
#     4   9  18  33  52  74 102 134 168 210 257 304
#     4  10  22  37  52  74 103 137 178 217 253 298
#     4   8  15  30  52  77 103 130 163 204 254 312
#     4   9  18  33  52  74 102 134 168 210 257 304
#     4   8  15  30  52  77 103 130 163 204 254 312
#     4   9  19  36  56  78 105 135 167 208 257 306
#     4   9  19  36  56  78 105 135 167 208 257 306
#     4  10  22  37  52  74 103 137 178 217 253 298
#
# _framework density 23.714411999999999
#
# number of rings (size 3 to 8) (size 9 to 14) (size 15 to 20)
#    0.000    3.000    0.000    1.500    0.000    5.000 
#    0.000   10.000    0.000    3.000    0.000    0.000 
#    0.000    0.000    0.000    0.000    0.000    0.000 
#
# Total GULP energy -178929.631920 kJ/mol
# GULP energy per Si atom -5591.550997 kJ/mol
# Density = 2.366044 g / cm^3
# Si number density = 23.714412 Si / 1000 Ang^3
#
#
#
# Elastic Constant Matrix: (Units=GPa)
#
#
# Indices 1 2 3 4 5 6 
#
# 1 96.3960 25.5852 29.5944 0.0000 -12.6463 0.0000
# 2 25.5852 68.4962 6.9561 0.0000 -3.8889 0.0000
# 3 29.5944 6.9561 60.2408 0.0000 7.6612 0.0000
# 4 0.0000 0.0000 0.0000 49.6866 0.0000 17.4562
# 5 -12.6463 -3.8889 7.6612 0.0000 52.7765 0.0000
# 6 0.0000 0.0000 0.0000 17.4562 0.0000 44.3720
#
#
#
# Elastic Compliance Matrix: (Units=1/GPa)
#
#
# Indices 1 2 3 4 5 6 
#
# 1 0.014222 -0.004368 -0.007004 0.000000 0.004103 0.000000
# 2 -0.004368 0.016211 0.000260 0.000000 0.000110 0.000000
# 3 -0.007004 0.000260 0.020602 0.000000 -0.004650 0.000000
# 4 0.000000 0.000000 0.000000 0.023354 0.000000 -0.009188
# 5 0.004103 0.000110 -0.004650 0.000000 0.020614 0.000000
# 6 0.000000 0.000000 0.000000 -0.009188 0.000000 0.026151
#
#
# Mechanical properties :
#
#
# Convention : Reuss Voigt Hill
#
# Bulk Modulus (GPa) = 34.70950 38.82272 36.76611
# Shear Modulus (GPa) = 32.68363 40.23349 36.45856
#
# Velocity S-wave (km/s) = 3.71646 4.12343 3.92522
# Velocity P-wave (km/s) = 5.75190 6.25114 6.00671
#
# Compressibility (1/GPa) = 0.02881056
#
# Stress axis : x y z
#
# Youngs Moduli (GPa) = 70.31468 61.68743 48.53834
#
# Poissons Ratio (x) = 0.26945 0.33997
# Poissons Ratio (y) = 0.30713 -0.01262
# Poissons Ratio (z) = 0.49249 -0.01604
#
# Static dielectric constant tensor:
#      x y z
#    x 1.855290 0.000000 0.011850 
#    y 0.000000 1.882690 0.000000 
#    z 0.011850 0.000000 1.991320 
# 
# From -- ./inp_files/18029.got.cif
#   From: 2010.05.17/outbox.cif.g08.bks.cpg/sg11_10_cif.got.tgz:18029.got - 2010.06.03 12:22:45.
