data_PCOD9166635
_publ_section_title
;
Structure prediction by ZEFSAII (Michael W. Deem and Ramdas Pophale) SiO2 
 PCOD9166635
Probable space group: P 21/M
;
_chemical_formula_sum "Si O2"
_cell_formula_units_Z 30
_cell_length_a 7.712188
_cell_length_b 24.984694
_cell_length_c 8.488851
_cell_angle_alpha 90.000000
_cell_angle_beta 117.606819
_cell_angle_gamma 90.000000
_cell_volume 1449.462646
_symmetry_space_group_name_H-M "P 21/M"
_symmetry_group_IT_number 11
_symmetry_cell_setting 'monoclinic'
loop_
_space_group_symop_operation_xyz
x,y,z
-x,1/2+y,-z
-x,-y,-z
x,1/2-y,z
loop_
_atom_site_type_symbol
_atom_site_label
_atom_site_fract_x
_atom_site_fract_y
_atom_site_fract_z
Si Si1 0.842740 0.844567 0.074835
Si Si2 0.425818 0.422596 0.222615
Si Si3 0.465987 0.587821 0.388663
Si Si4 0.720493 0.307669 0.786053
Si Si5 0.439332 0.250000 0.905041
Si Si6 0.169301 0.431418 0.659935
Si Si7 0.209191 0.973877 0.074670
Si Si8 0.840716 0.441264 0.276105
O O1 0.711075 0.797111 0.092426
O O2 0.880117 0.889727 0.224119
O O3 0.053704 0.824997 0.099701
O O4 0.713908 0.874962 0.889138
O O5 0.425719 0.430593 0.409550
O O6 0.357033 0.477037 0.108956
O O7 0.651549 0.415363 0.275802
O O8 0.394701 0.648481 0.363392
O O9 0.610322 0.579311 0.303273
O O10 0.277054 0.553087 0.264757
O O11 0.723062 0.250000 0.702769
O O12 0.591347 0.295839 0.888460
O O13 0.155355 0.493830 0.701695
O O14 0.029475 0.421849 0.450175
O O15 0.187550 0.932870 0.921858
O O16 0.000000 0.000000 0.000000
#
# Coordination Sequence:
#
# PCOD9166635 Si02
#       8
#     4   4   4   4   2   4   4   4
#     4  12  22  46  72  99 133 177 219 283 344 399
#     4  12  25  40  63  99 137 177 224 273 330 403
#     4  12  24  42  64  95 140 178 226 280 332 399
#     4  10  23  42  71  97 124 168 229 283 340 398
#     4  10  22  44  74  98 120 176 222 286 348 398
#     4  11  22  40  66  94 138 178 219 276 332 398
#     4  12  24  39  62  94 133 182 223 270 332 406
#     4  11  24  38  60  99 133 179 227 265 329 403
#
# _framework density 20.697327000000001
#
# number of rings (size 3 to 8) (size 9 to 14) (size 15 to 20)
#    0.400    0.267    4.667    4.000    3.733    0.000 
#    1.200    0.000    0.000    1.600    0.000    0.000 
#    0.000    0.000    0.000    0.000    0.000    0.000 
#
# Total GULP energy -167021.346241 kJ/mol
# GULP energy per Si atom -5567.378208 kJ/mol
# Density = 2.065022 g / cm^3
# Si number density = 20.697327 Si / 1000 Ang^3
#
#
#
# Elastic Constant Matrix: (Units=GPa)
#
#
# Indices 1 2 3 4 5 6 
#
# 1 100.5646 14.5711 15.4630 0.0000 13.1890 0.0000
# 2 14.5711 91.6139 30.6567 0.0000 9.5664 0.0000
# 3 15.4630 30.6567 108.8333 0.0000 11.2236 0.0000
# 4 0.0000 0.0000 0.0000 14.0696 0.0000 8.2722
# 5 13.1890 9.5664 11.2236 0.0000 26.6479 0.0000
# 6 0.0000 0.0000 0.0000 8.2722 0.0000 38.9207
#
#
#
# Elastic Compliance Matrix: (Units=1/GPa)
#
#
# Indices 1 2 3 4 5 6 
#
# 1 0.010818 -0.000971 -0.000781 0.000000 -0.004677 0.000000
# 2 -0.000971 0.012377 -0.003073 0.000000 -0.002668 0.000000
# 3 -0.000781 -0.003073 0.010466 0.000000 -0.002918 0.000000
# 4 0.000000 0.000000 0.000000 0.081226 0.000000 -0.017264
# 5 -0.004677 -0.002668 -0.002918 0.000000 0.042028 0.000000
# 6 0.000000 0.000000 0.000000 -0.017264 0.000000 0.029363
#
#
# Mechanical properties :
#
#
# Convention : Reuss Voigt Hill
#
# Bulk Modulus (GPa) = 41.64915 46.93261 44.29088
# Shear Modulus (GPa) = 24.51811 31.94904 28.23358
#
# Velocity S-wave (km/s) = 3.44554 3.93317 3.69740
# Velocity P-wave (km/s) = 5.99964 6.58417 6.29869
#
# Compressibility (1/GPa) = 0.02401009
#
# Stress axis : x y z
#
# Youngs Moduli (GPa) = 92.43867 80.79631 95.54755
#
# Poissons Ratio (x) = 0.07844 0.07465
# Poissons Ratio (y) = 0.08974 0.29364
# Poissons Ratio (z) = 0.07222 0.24831
#
# Static dielectric constant tensor:
#      x y z
#    x 1.779440 0.000000 -0.033540 
#    y 0.000000 1.771480 0.000000 
#    z -0.033540 0.000000 1.828930 
# 
# From -- ./inp_files/15204.got.cif
#   From: 2010.05.17/outbox.cif.g08.bks.cpg/sg11_8_cif.got.tgz:15204.got - 2010.06.03 12:22:45.
