data_PCOD9166001
_publ_section_title
;
Structure prediction by ZEFSAII (Michael W. Deem and Ramdas Pophale) SiO2 
 PCOD9166001
Probable space group: P 21/M
;
_chemical_formula_sum "Si O2"
_cell_formula_units_Z 18
_cell_length_a 7.194842
_cell_length_b 8.908616
_cell_length_c 12.016626
_cell_angle_alpha 90.000000
_cell_angle_beta 74.491795
_cell_angle_gamma 90.000000
_cell_volume 742.176688
_symmetry_space_group_name_H-M "P 21/M"
_symmetry_group_IT_number 11
_symmetry_cell_setting 'monoclinic'
loop_
_space_group_symop_operation_xyz
x,y,z
-x,1/2+y,-z
-x,-y,-z
x,1/2-y,z
loop_
_atom_site_type_symbol
_atom_site_label
_atom_site_fract_x
_atom_site_fract_y
_atom_site_fract_z
Si Si1 0.198277 0.924698 0.758847
Si Si2 0.359398 0.023178 0.253281
Si Si3 0.068133 0.250000 0.886887
Si Si4 0.297689 0.926598 0.499446
Si Si5 0.380263 0.750000 0.088306
Si Si6 0.239486 0.250000 0.105212
O O1 0.131716 0.750000 0.797458
O O2 0.429785 0.915136 0.746662
O O3 0.172856 0.946825 0.630112
O O4 0.131588 0.085558 0.824838
O O5 0.221952 0.112177 0.191343
O O6 0.249866 0.992339 0.386365
O O7 0.412294 0.885449 0.166767
O O8 0.836863 0.250000 0.920969
O O9 0.146235 0.250000 0.999739
O O10 0.323816 0.750000 0.477976
O O11 0.500000 0.000000 0.500000
O O12 0.531340 0.750000 0.964840
#
# Coordination Sequence:
#
# PCOD9166001 Si02
#       6
#     4   4   2   4   2   2
#     4  10  21  43  74 108 145 185 236 292 363 434
#     4  11  21  43  71  99 140 184 234 297 357 420
#     4  12  28  47  71 105 147 194 235 304 354 418
#     4   9  19  34  67 106 136 175 231 293 353 433
#     4  12  26  46  69 100 145 190 244 297 358 418
#     4  12  26  45  70 101 140 192 243 295 354 420
#
# _framework density 24.252984999999999
#
# number of rings (size 3 to 8) (size 9 to 14) (size 15 to 20)
#    0.000    1.333    4.444    0.667    6.222    0.889 
#    2.000    1.111    0.000    0.000    5.778    0.000 
#    0.000    0.000    0.000    0.000    0.000    0.000 
#
# Total GULP energy -100430.466957 kJ/mol
# GULP energy per Si atom -5579.470386 kJ/mol
# Density = 2.419778 g / cm^3
# Si number density = 24.252985 Si / 1000 Ang^3
#
#
#
# Elastic Constant Matrix: (Units=GPa)
#
#
# Indices 1 2 3 4 5 6 
#
# 1 111.2402 37.6917 46.3616 0.0000 11.6849 0.0000
# 2 37.6917 164.0018 101.9933 0.0000 10.2575 0.0000
# 3 46.3616 101.9933 234.1054 0.0000 20.4624 0.0000
# 4 0.0000 0.0000 0.0000 30.3958 0.0000 9.9952
# 5 11.6849 10.2575 20.4624 0.0000 36.8231 0.0000
# 6 0.0000 0.0000 0.0000 9.9952 0.0000 50.7889
#
#
#
# Elastic Compliance Matrix: (Units=1/GPa)
#
#
# Indices 1 2 3 4 5 6 
#
# 1 0.010212 -0.001470 -0.001193 0.000000 -0.002169 0.000000
# 2 -0.001470 0.008579 -0.003446 0.000000 -0.000009 0.000000
# 3 -0.001193 -0.003446 0.006193 0.000000 -0.002103 0.000000
# 4 0.000000 0.000000 0.000000 0.035176 0.000000 -0.006922
# 5 -0.002169 -0.000009 -0.002103 0.000000 0.029016 0.000000
# 6 0.000000 0.000000 0.000000 -0.006922 0.000000 0.021052
#
#
# Mechanical properties :
#
#
# Convention : Reuss Voigt Hill
#
# Bulk Modulus (GPa) = 78.32199 97.93784 88.12991
# Shear Modulus (GPa) = 39.46358 45.15496 42.30927
#
# Velocity S-wave (km/s) = 4.03819 4.31958 4.18125
# Velocity P-wave (km/s) = 7.35571 8.08379 7.72833
#
# Compressibility (1/GPa) = 0.01276781
#
# Stress axis : x y z
#
# Youngs Moduli (GPa) = 97.92055 116.56774 161.47896
#
# Poissons Ratio (x) = 0.17133 0.19257
# Poissons Ratio (y) = 0.14392 0.55641
# Poissons Ratio (z) = 0.11677 0.40166
#
# Static dielectric constant tensor:
#      x y z
#    x 1.989120 0.000000 -0.063680 
#    y 0.000000 2.168310 0.000000 
#    z -0.063680 0.000000 1.888520 
# 
# From -- ./inp_files/30508.got.cif
#   From: 2010.05.17/outbox.cif.g08.bks.cpg/sg11_16_cif.got.tgz:30508.got - 2010.06.03 12:22:45.
