data_PCOD9166740
_publ_section_title
;
Structure prediction by ZEFSAII (Michael W. Deem and Ramdas Pophale) SiO2 
 PCOD9166740
Probable space group: P 21/M
;
_chemical_formula_sum "Si O2"
_cell_formula_units_Z 16
_cell_length_a 25.681933
_cell_length_b 5.374251
_cell_length_c 10.570932
_cell_angle_alpha 90.000000
_cell_angle_beta 29.395435
_cell_angle_gamma 90.000000
_cell_volume 716.133305
_symmetry_space_group_name_H-M "P 21/M"
_symmetry_group_IT_number 11
_symmetry_cell_setting 'monoclinic'
loop_
_space_group_symop_operation_xyz
x,y,z
-x,1/2+y,-z
-x,-y,-z
x,1/2-y,z
loop_
_atom_site_type_symbol
_atom_site_label
_atom_site_fract_x
_atom_site_fract_y
_atom_site_fract_z
Si Si1 0.438341 0.750000 0.610275
Si Si2 0.603842 0.750000 0.651008
Si Si3 0.632311 0.250000 0.973615
Si Si4 0.863447 0.250000 0.778220
Si Si5 0.084311 0.250000 0.465265
Si Si6 0.314790 0.750000 0.629836
Si Si7 0.698345 0.750000 0.702561
Si Si8 0.058676 0.250000 0.824910
O O1 0.500000 0.500000 0.500000
O O2 0.356828 0.750000 0.898143
O O3 0.411497 0.750000 0.521695
O O4 0.491254 0.750000 0.815786
O O5 0.671702 0.503451 0.474882
O O6 0.600991 0.750000 0.808445
O O7 0.685144 0.499018 0.809381
O O8 0.858356 0.499054 0.704209
O O9 0.974957 0.250000 0.617573
O O10 0.780765 0.250000 0.068596
O O11 0.063383 0.250000 0.660457
O O12 0.817658 0.750000 0.394095
O O13 0.000000 0.500000 0.000000
#
# Coordination Sequence:
#
# PCOD9166740 Si02
#       8
#     2   2   2   2   2   2   2   2
#     4  12  23  42  64  97 135 171 212 263 334 380
#     4  12  25  44  66  99 138 175 229 266 326 386
#     4  12  24  46  68  97 136 172 224 275 320 399
#     4  10  23  41  68  95 127 168 212 272 326 397
#     4  10  23  44  65  95 128 164 217 272 336 380
#     4  12  24  40  69  98 134 176 216 273 328 395
#     4  12  28  44  72  96 128 184 222 272 334 385
#     4  12  28  47  70  97 134 172 222 279 332 398
#
# _framework density 22.342206999999998
#
# number of rings (size 3 to 8) (size 9 to 14) (size 15 to 20)
#    0.000    0.500    2.500    5.250    7.000    0.000 
#    0.000    0.000    0.000    0.000    0.000    0.000 
#    0.000    0.000    0.000    0.000    0.000    0.000 
#
# Total GULP energy -89445.068241 kJ/mol
# GULP energy per Si atom -5590.316765 kJ/mol
# Density = 2.229136 g / cm^3
# Si number density = 22.342207 Si / 1000 Ang^3
#
#
#
# Elastic Constant Matrix: (Units=GPa)
#
#
# Indices 1 2 3 4 5 6 
#
# 1 68.3204 23.1748 -1.9736 0.0000 17.1919 0.0000
# 2 23.1748 226.8416 70.7677 0.0000 -7.0257 0.0000
# 3 -1.9736 70.7677 86.1519 0.0000 -5.9078 0.0000
# 4 0.0000 0.0000 0.0000 60.1643 0.0000 18.8153
# 5 17.1919 -7.0257 -5.9078 0.0000 27.5932 0.0000
# 6 0.0000 0.0000 0.0000 18.8153 0.0000 1.2344
#
#
#
# Elastic Compliance Matrix: (Units=1/GPa)
#
#
# Indices 1 2 3 4 5 6 
#
# 1 0.018687 -0.002900 0.001991 0.000000 -0.011955 0.000000
# 2 -0.002900 0.006384 -0.005150 0.000000 0.002330 0.000000
# 3 0.001991 -0.005150 0.015943 0.000000 0.000862 0.000000
# 4 0.000000 0.000000 0.000000 -0.004412 0.000000 0.067258
# 5 -0.011955 0.002330 0.000862 0.000000 0.044467 0.000000
# 6 0.000000 0.000000 0.000000 0.067258 0.000000 -0.215066
#
#
# Mechanical properties :
#
#
# Convention : Reuss Voigt Hill
#
# Bulk Modulus (GPa) = 34.61058 62.80576 48.70817
# Shear Modulus (GPa) = -44.54435 37.08803 -3.72816
#
# Velocity S-wave (km/s) = -4.46997 4.07873 -1.29317
# Velocity P-wave (km/s) = 3.33407 7.09600 4.42929
#
# Compressibility (1/GPa) = 0.02889290
#
# Stress axis : x y z
#
# Youngs Moduli (GPa) = 53.51445 156.65175 62.72439
#
# Poissons Ratio (x) = 0.45435 -0.12487
# Poissons Ratio (y) = 0.15521 0.32305
# Poissons Ratio (z) = -0.10653 0.80681
#
# Static dielectric constant tensor:
#      x y z
#    x 1.906050 0.000000 -0.071790 
#    y 0.000000 1.985280 0.000000 
#    z -0.071790 0.000000 1.845850 
# 
# From -- ./inp_files/23532.got.cif
#   From: 2010.05.17/outbox.cif.g08.bks.cpg/sg11_12_cif.got.tgz:23532.got - 2010.06.03 12:22:45.
