data_PCOD9166374
_publ_section_title
;
Structure prediction by ZEFSAII (Michael W. Deem and Ramdas Pophale) SiO2 
 PCOD9166374
Probable space group: P 21/M
;
_chemical_formula_sum "Si O2"
_cell_formula_units_Z 26
_cell_length_a 6.957513
_cell_length_b 21.081904
_cell_length_c 8.075785
_cell_angle_alpha 90.000000
_cell_angle_beta 60.192039
_cell_angle_gamma 90.000000
_cell_volume 1027.818423
_symmetry_space_group_name_H-M "P 21/M"
_symmetry_group_IT_number 11
_symmetry_cell_setting 'monoclinic'
loop_
_space_group_symop_operation_xyz
x,y,z
-x,1/2+y,-z
-x,-y,-z
x,1/2-y,z
loop_
_atom_site_type_symbol
_atom_site_label
_atom_site_fract_x
_atom_site_fract_y
_atom_site_fract_z
Si Si1 0.352574 0.844990 0.466943
Si Si2 0.428997 0.971289 0.250260
Si Si3 0.305097 0.250000 0.845325
Si Si4 0.062103 0.679756 0.134938
Si Si5 0.138834 0.320539 0.425367
Si Si6 0.719320 0.093449 0.193181
Si Si7 0.807712 0.567331 0.839375
O O1 0.520723 0.804580 0.288846
O O2 0.387185 0.850668 0.648612
O O3 0.111103 0.818314 0.537042
O O4 0.358996 0.918067 0.407644
O O5 0.565969 0.031923 0.256867
O O6 0.215838 0.001537 0.252025
O O7 0.604468 0.938516 0.052506
O O8 0.106192 0.195696 0.942906
O O9 0.166160 0.750000 0.127206
O O10 0.908027 0.665337 0.360108
O O11 0.223335 0.625027 0.008546
O O12 0.239156 0.250000 0.366666
O O13 0.236890 0.375387 0.269565
O O14 0.957238 0.073994 0.170751
#
# Coordination Sequence:
#
# PCOD9166374 Si02
#       7
#     4   4   2   4   4   4   4
#     4  11  24  43  70  99 135 174 228 282 330 405
#     4  11  25  46  66 104 136 179 227 277 335 398
#     4  10  22  40  68  98 130 172 228 278 332 398
#     4   9  23  42  66  96 137 171 222 280 340 393
#     4  10  22  45  68  98 135 178 223 280 341 396
#     4  11  24  44  70 100 136 182 220 277 340 406
#     4  10  25  44  69  98 137 177 228 274 330 410
#
# _framework density 25.296296999999999
#
# number of rings (size 3 to 8) (size 9 to 14) (size 15 to 20)
#    0.462    1.231    0.769    1.846    7.538    3.077 
#    4.154    0.769    0.000    0.000    0.000    0.000 
#    0.000    0.000    0.000    0.000    0.000    0.000 
#
# Total GULP energy -144861.706396 kJ/mol
# GULP energy per Si atom -5571.604092 kJ/mol
# Density = 2.523872 g / cm^3
# Si number density = 25.296297 Si / 1000 Ang^3
#
#
#
# Elastic Constant Matrix: (Units=GPa)
#
#
# Indices 1 2 3 4 5 6 
#
# 1 63.0598 29.1333 -2.4249 0.0000 0.1061 0.0000
# 2 29.1333 144.0889 45.6000 0.0000 -4.9658 0.0000
# 3 -2.4249 45.6000 52.9968 0.0000 3.2057 0.0000
# 4 0.0000 0.0000 0.0000 -27.5364 0.0000 -29.1999
# 5 0.1061 -4.9658 3.2057 0.0000 23.5782 0.0000
# 6 0.0000 0.0000 0.0000 -29.1999 0.0000 37.9334
#
#
#
# Elastic Compliance Matrix: (Units=1/GPa)
#
#
# Indices 1 2 3 4 5 6 
#
# 1 0.018738 -0.005734 0.005918 0.000000 -0.002096 0.000000
# 2 -0.005734 0.011529 -0.010417 0.000000 0.003870 0.000000
# 3 0.005918 -0.010417 0.028471 0.000000 -0.006091 0.000000
# 4 0.000000 0.000000 0.000000 -0.019995 0.000000 -0.015391
# 5 -0.002096 0.003870 -0.006091 0.000000 0.044065 0.000000
# 6 0.000000 0.000000 0.000000 -0.015391 0.000000 0.014514
#
#
# Mechanical properties :
#
#
# Convention : Reuss Voigt Hill
#
# Bulk Modulus (GPa) = 26.12807 44.97357 35.55082
# Shear Modulus (GPa) = 38.30059 19.31751 28.80905
#
# Velocity S-wave (km/s) = 3.89534 2.76642 3.37837
# Velocity P-wave (km/s) = 5.53017 5.29353 5.41314
#
# Compressibility (1/GPa) = 0.03827301
#
# Stress axis : x y z
#
# Youngs Moduli (GPa) = 53.36762 86.73466 35.12325
#
# Poissons Ratio (x) = 0.49730 -0.20784
# Poissons Ratio (y) = 0.30599 0.36587
# Poissons Ratio (z) = -0.31581 0.90349
#
# Static dielectric constant tensor:
#      x y z
#    x 2.069790 0.000000 0.106380 
#    y 0.000000 1.947510 0.000000 
#    z 0.106380 0.000000 2.025590 
# 
# From -- ./inp_files/13943.got.cif
#   From: 2010.05.17/outbox.cif.g08.bks.cpg/sg11_7_cif.got.tgz:13943.got - 2010.06.03 12:22:45.
