data_PCOD9166930
_publ_section_title
;
Structure prediction by ZEFSAII (Michael W. Deem and Ramdas Pophale) SiO2 
 PCOD9166930
Probable space group: P 21/M
;
_chemical_formula_sum "Si O2"
_cell_formula_units_Z 20
_cell_length_a 10.900961
_cell_length_b 14.400748
_cell_length_c 11.467599
_cell_angle_alpha 90.000000
_cell_angle_beta 154.298413
_cell_angle_gamma 90.000000
_cell_volume 780.720849
_symmetry_space_group_name_H-M "P 21/M"
_symmetry_group_IT_number 11
_symmetry_cell_setting 'monoclinic'
loop_
_space_group_symop_operation_xyz
x,y,z
-x,1/2+y,-z
-x,-y,-z
x,1/2-y,z
loop_
_atom_site_type_symbol
_atom_site_label
_atom_site_fract_x
_atom_site_fract_y
_atom_site_fract_z
Si Si1 0.406749 0.250000 0.935194
Si Si2 0.030875 0.548856 0.756022
Si Si3 0.845605 0.250000 0.884418
Si Si4 0.573527 0.750000 0.766544
Si Si5 0.952804 0.250000 0.240949
Si Si6 0.673505 0.417092 0.589220
Si Si7 0.348686 0.439919 0.770025
O O1 0.391571 0.250000 0.062917
O O2 0.726771 0.250000 0.153892
O O3 0.270302 0.342390 0.763472
O O4 0.887977 0.651658 0.627167
O O5 0.944952 0.472569 0.775451
O O6 0.894594 0.514221 0.516974
O O7 0.360361 0.570148 0.055047
O O8 0.711750 0.343331 0.723074
O O9 0.148534 0.250000 0.077346
O O10 0.824903 0.250000 0.003138
O O11 0.425945 0.847329 0.600659
O O12 0.500000 0.500000 0.500000
O O13 0.500000 0.500000 0.000000
#
# Coordination Sequence:
#
# PCOD9166930 Si02
#       7
#     2   4   2   2   2   4   4
#     4  10  24  43  72  99 156 192 247 313 381 445
#     4  11  25  44  72 107 146 193 259 307 374 442
#     4  11  27  49  76 106 149 198 258 310 396 451
#     4  11  25  49  70 115 148 194 250 320 386 447
#     4  10  24  47  72 106 147 208 255 311 381 465
#     4  11  27  45  77 107 150 200 256 320 377 458
#     4  11  24  44  69 106 146 201 244 308 376 457
#
# _framework density 25.617349000000001
#
# number of rings (size 3 to 8) (size 9 to 14) (size 15 to 20)
#    0.000    1.200    0.000    3.600   11.200    4.000 
#    7.200    0.000    0.000    0.000    0.000    0.000 
#    0.000    0.000    0.000    0.000    0.000    0.000 
#
# Total GULP energy -111633.570020 kJ/mol
# GULP energy per Si atom -5581.678501 kJ/mol
# Density = 2.555904 g / cm^3
# Si number density = 25.617349 Si / 1000 Ang^3
#
#
#
# Elastic Constant Matrix: (Units=GPa)
#
#
# Indices 1 2 3 4 5 6 
#
# 1 76.7423 26.1422 12.5036 0.0000 -13.6872 0.0000
# 2 26.1422 159.4971 -4.9284 0.0000 1.2557 0.0000
# 3 12.5036 -4.9284 72.0594 0.0000 -6.4579 0.0000
# 4 0.0000 0.0000 0.0000 -62.1441 0.0000 71.9702
# 5 -13.6872 1.2557 -6.4579 0.0000 31.5931 0.0000
# 6 0.0000 0.0000 0.0000 71.9702 0.0000 -0.3399
#
#
#
# Elastic Compliance Matrix: (Units=1/GPa)
#
#
# Indices 1 2 3 4 5 6 
#
# 1 0.015435 -0.002650 -0.002293 0.000000 0.006324 0.000000
# 2 -0.002650 0.006739 0.000809 0.000000 -0.001251 0.000000
# 3 -0.002293 0.000809 0.014504 0.000000 0.001939 0.000000
# 4 0.000000 0.000000 0.000000 0.000066 0.000000 0.013952
# 5 0.006324 -0.001251 0.001939 0.000000 0.034838 0.000000
# 6 0.000000 0.000000 0.000000 0.013952 0.000000 0.012047
#
#
# Mechanical properties :
#
#
# Convention : Reuss Voigt Hill
#
# Bulk Modulus (GPa) = 35.19992 41.74817 38.47404
# Shear Modulus (GPa) = 49.32526 12.12725 30.72626
#
# Velocity S-wave (km/s) = 4.39277 2.17814 3.46704
# Velocity P-wave (km/s) = 6.28483 4.76003 5.57481
#
# Compressibility (1/GPa) = 0.02840916
#
# Stress axis : x y z
#
# Youngs Moduli (GPa) = 64.78823 148.39073 68.94463
#
# Poissons Ratio (x) = 0.39331 0.15808
# Poissons Ratio (y) = 0.17172 -0.05576
# Poissons Ratio (z) = 0.14855 -0.12000
#
# Static dielectric constant tensor:
#      x y z
#    x 2.204350 0.000000 0.019110 
#    y 0.000000 2.101730 0.000000 
#    z 0.019110 0.000000 2.194580 
# 
# From -- ./inp_files/35773.got.cif
#   From: 2010.05.17/outbox.cif.g08.bks.cpg/sg11_18_cif.got.tgz:35773.got - 2010.06.03 12:22:45.
