data_PCOD9166373
_publ_section_title
;
Structure prediction by ZEFSAII (Michael W. Deem and Ramdas Pophale) SiO2 
 PCOD9166373
Probable space group: P 21/M
;
_chemical_formula_sum "Si O2"
_cell_formula_units_Z 24
_cell_length_a 14.860414
_cell_length_b 9.676481
_cell_length_c 17.877641
_cell_angle_alpha 90.000000
_cell_angle_beta 150.511886
_cell_angle_gamma 90.000000
_cell_volume 1265.429961
_symmetry_space_group_name_H-M "P 21/M"
_symmetry_group_IT_number 11
_symmetry_cell_setting 'monoclinic'
loop_
_space_group_symop_operation_xyz
x,y,z
-x,1/2+y,-z
-x,-y,-z
x,1/2-y,z
loop_
_atom_site_type_symbol
_atom_site_label
_atom_site_fract_x
_atom_site_fract_y
_atom_site_fract_z
Si Si1 0.207140 0.750000 0.217648
Si Si2 0.333080 0.905540 0.855988
Si Si3 0.802823 0.478274 0.396912
Si Si4 0.386307 0.250000 0.676443
Si Si5 0.822143 0.250000 0.981099
Si Si6 0.018387 0.401720 0.688444
Si Si7 0.641728 0.750000 0.523694
Si Si8 0.090602 0.011724 0.230353
O O1 0.426923 0.750000 0.384796
O O2 0.132452 0.609279 0.201459
O O3 0.161168 0.750000 0.096627
O O4 0.351225 0.750000 0.896783
O O5 0.313049 0.906203 0.751607
O O6 0.154789 0.978083 0.761488
O O7 0.500000 0.000000 0.000000
O O8 0.703920 0.618708 0.348848
O O9 0.850687 0.403536 0.508793
O O10 0.000000 0.500000 0.500000
O O11 0.337501 0.250000 0.552158
O O12 0.606078 0.250000 0.842980
O O13 0.925512 0.114063 0.087068
O O14 0.107325 0.250000 0.748027
O O15 0.955817 0.434710 0.726152
O O16 0.740777 0.615492 0.630200
#
# Coordination Sequence:
#
# PCOD9166373 Si02
#       8
#     2   4   4   2   2   4   2   4
#     4  11  22  44  65  95 132 165 207 258 332 384
#     4  11  26  41  63  91 129 173 213 259 309 382
#     4  10  24  37  65  88 128 164 216 262 318 361
#     4  11  22  42  63  95 123 170 219 266 309 389
#     4  10  26  40  68  90 129 174 209 258 324 396
#     4  11  23  40  64  93 125 164 212 265 324 364
#     4  10  22  40  68  98 122 165 213 262 317 387
#     4  11  22  40  66  97 127 162 211 266 316 387
#
# _framework density 18.965886000000001
#
# number of rings (size 3 to 8) (size 9 to 14) (size 15 to 20)
#    0.000    1.333    2.500    2.000   15.167    0.000 
#    0.000    0.000    1.833    0.000    0.000    0.000 
#    0.000    0.000    0.000    0.000    0.000    0.000 
#
# Total GULP energy -134001.382853 kJ/mol
# GULP energy per Si atom -5583.390952 kJ/mol
# Density = 1.892272 g / cm^3
# Si number density = 18.965886 Si / 1000 Ang^3
#
#
#
# Elastic Constant Matrix: (Units=GPa)
#
#
# Indices 1 2 3 4 5 6 
#
# 1 97.7122 44.4827 34.7404 0.0000 -8.2044 0.0000
# 2 44.4827 161.9784 45.0633 0.0000 6.0212 0.0000
# 3 34.7404 45.0633 109.3092 0.0000 -7.5635 0.0000
# 4 0.0000 0.0000 0.0000 17.1827 0.0000 2.3949
# 5 -8.2044 6.0212 -7.5635 0.0000 25.2625 0.0000
# 6 0.0000 0.0000 0.0000 2.3949 0.0000 33.6170
#
#
#
# Elastic Compliance Matrix: (Units=1/GPa)
#
#
# Indices 1 2 3 4 5 6 
#
# 1 0.012844 -0.002963 -0.002576 0.000000 0.004106 0.000000
# 2 -0.002963 0.007825 -0.002532 0.000000 -0.003586 0.000000
# 3 -0.002576 -0.002532 0.011228 0.000000 0.003128 0.000000
# 4 0.000000 0.000000 0.000000 0.058782 0.000000 -0.004188
# 5 0.004106 -0.003586 0.003128 0.000000 0.042709 0.000000
# 6 0.000000 0.000000 0.000000 -0.004188 0.000000 0.030045
#
#
# Mechanical properties :
#
#
# Convention : Reuss Voigt Hill
#
# Bulk Modulus (GPa) = 63.47966 68.61920 66.04943
# Shear Modulus (GPa) = 27.05229 31.52667 29.28948
#
# Velocity S-wave (km/s) = 3.78082 4.08153 3.93405
# Velocity P-wave (km/s) = 7.25277 7.64662 7.45229
#
# Compressibility (1/GPa) = 0.01575308
#
# Stress axis : x y z
#
# Youngs Moduli (GPa) = 77.85857 127.79255 89.06618
#
# Poissons Ratio (x) = 0.37866 0.22946
# Poissons Ratio (y) = 0.23070 0.22555
# Poissons Ratio (z) = 0.20059 0.32362
#
# Static dielectric constant tensor:
#      x y z
#    x 1.580270 0.000000 -0.041940 
#    y 0.000000 1.692550 0.000000 
#    z -0.041940 0.000000 1.661540 
# 
# From -- ./inp_files/25792.got.cif
#   From: 2010.05.17/outbox.cif.g08.bks.cpg/sg11_13_cif.got.tgz:25792.got - 2010.06.03 12:22:45.
