data_PCOD9166442
_publ_section_title
;
Structure prediction by ZEFSAII (Michael W. Deem and Ramdas Pophale) SiO2 
 PCOD9166442
Probable space group: P 21/M
;
_chemical_formula_sum "Si O2"
_cell_formula_units_Z 20
_cell_length_a 4.939959
_cell_length_b 30.936467
_cell_length_c 5.133925
_cell_angle_alpha 90.000000
_cell_angle_beta 88.201948
_cell_angle_gamma 90.000000
_cell_volume 784.205154
_symmetry_space_group_name_H-M "P 21/M"
_symmetry_group_IT_number 11
_symmetry_cell_setting 'monoclinic'
loop_
_space_group_symop_operation_xyz
x,y,z
-x,1/2+y,-z
-x,-y,-z
x,1/2-y,z
loop_
_atom_site_type_symbol
_atom_site_label
_atom_site_fract_x
_atom_site_fract_y
_atom_site_fract_z
Si Si1 0.329099 0.345634 0.157511
Si Si2 0.157611 0.700837 0.654416
Si Si3 0.955522 0.630340 0.338265
Si Si4 0.160522 0.502203 0.781675
Si Si5 0.326596 0.548787 0.317565
O O1 0.628422 0.329751 0.205569
O O2 0.131930 0.303971 0.197049
O O3 0.212579 0.376444 0.389551
O O4 0.255754 0.365645 0.886350
O O5 0.245320 0.750000 0.628058
O O6 0.102553 0.676486 0.383181
O O7 0.179554 0.594201 0.293496
O O8 0.345441 0.540216 0.631504
O O9 0.370732 0.461898 0.783820
O O10 0.000000 0.500000 0.500000
O O11 0.150635 0.521148 0.091560
#
# Coordination Sequence:
#
# PCOD9166442 Si02
#       5
#     4   4   4   4   4
#     4  10  25  42  66  97 133 174 224 271 340 399
#     4  10  24  44  68  99 134 174 223 279 342 408
#     4  10  26  45  68 103 133 181 225 285 336 408
#     4  10  22  41  64  95 130 180 222 280 341 407
#     4  10  23  40  64  95 134 172 233 275 341 406
#
# _framework density 25.503532
#
# number of rings (size 3 to 8) (size 9 to 14) (size 15 to 20)
#    1.200    0.800    0.000    1.200    8.400    1.600 
#    0.000    0.000    0.000    0.000    0.000    0.000 
#    0.000    0.000    0.000    0.000    0.000    0.000 
#
# Total GULP energy -111561.056004 kJ/mol
# GULP energy per Si atom -5578.052800 kJ/mol
# Density = 2.544549 g / cm^3
# Si number density = 25.503532 Si / 1000 Ang^3
#
#
#
# Elastic Constant Matrix: (Units=GPa)
#
#
# Indices 1 2 3 4 5 6 
#
# 1 126.5737 6.4365 56.8734 0.0000 1.7585 0.0000
# 2 6.4365 99.9588 40.6584 0.0000 2.7498 0.0000
# 3 56.8734 40.6584 211.7336 0.0000 7.1538 0.0000
# 4 0.0000 0.0000 0.0000 16.5579 0.0000 -1.0582
# 5 1.7585 2.7498 7.1538 0.0000 34.5466 0.0000
# 6 0.0000 0.0000 0.0000 -1.0582 0.0000 37.8664
#
#
#
# Elastic Compliance Matrix: (Units=1/GPa)
#
#
# Indices 1 2 3 4 5 6 
#
# 1 0.009003 0.000438 -0.002503 0.000000 0.000025 0.000000
# 2 0.000438 0.010880 -0.002192 0.000000 -0.000434 0.000000
# 3 -0.002503 -0.002192 0.005847 0.000000 -0.000909 0.000000
# 4 0.000000 0.000000 0.000000 0.060502 0.000000 0.001691
# 5 0.000025 -0.000434 -0.000909 0.000000 0.029168 0.000000
# 6 0.000000 0.000000 0.000000 0.001691 0.000000 0.026456
#
#
# Mechanical properties :
#
#
# Convention : Reuss Voigt Hill
#
# Bulk Modulus (GPa) = 58.09141 71.80032 64.94586
# Shear Modulus (GPa) = 32.02910 40.08069 36.05490
#
# Velocity S-wave (km/s) = 3.54767 3.96861 3.76403
# Velocity P-wave (km/s) = 6.29353 7.01527 6.66418
#
# Compressibility (1/GPa) = 0.01721425
#
# Stress axis : x y z
#
# Youngs Moduli (GPa) = 111.07853 91.91588 171.03050
#
# Poissons Ratio (x) = -0.04024 0.42811
# Poissons Ratio (y) = -0.04863 0.37491
# Poissons Ratio (z) = 0.27804 0.20149
#
# Static dielectric constant tensor:
#      x y z
#    x 1.664240 0.000000 0.133080 
#    y 0.000000 1.892440 0.000000 
#    z 0.133080 0.000000 1.911410 
# 
# From -- ./inp_files/994.got.cif
#   From: 2010.05.17/outbox.cif.g08.bks.cpg/sg11_1_cif.got.tgz:994.got - 2010.06.03 12:22:45.
