data_PCOD9166932
_publ_section_title
;
Structure prediction by ZEFSAII (Michael W. Deem and Ramdas Pophale) SiO2 
 PCOD9166932
Probable space group: P 21/M
;
_chemical_formula_sum "Si O2"
_cell_formula_units_Z 22
_cell_length_a 11.326500
_cell_length_b 17.515719
_cell_length_c 4.996864
_cell_angle_alpha 90.000000
_cell_angle_beta 77.990951
_cell_angle_gamma 90.000000
_cell_volume 969.641148
_symmetry_space_group_name_H-M "P 21/M"
_symmetry_group_IT_number 11
_symmetry_cell_setting 'monoclinic'
loop_
_space_group_symop_operation_xyz
x,y,z
-x,1/2+y,-z
-x,-y,-z
x,1/2-y,z
loop_
_atom_site_type_symbol
_atom_site_label
_atom_site_fract_x
_atom_site_fract_y
_atom_site_fract_z
Si Si1 0.021471 0.837556 0.406875
Si Si2 0.928125 0.923261 0.955609
Si Si3 0.292973 0.605062 0.300306
Si Si4 0.451258 0.146223 0.724847
Si Si5 0.389891 0.250000 0.255062
Si Si6 0.682823 0.000324 0.210787
O O1 0.994697 0.750000 0.488028
O O2 0.164795 0.853021 0.344895
O O3 0.959415 0.894661 0.645940
O O4 0.971501 0.858254 0.139107
O O5 0.790443 0.945260 0.063040
O O6 0.000000 0.000000 0.000000
O O7 0.404023 0.657626 0.337741
O O8 0.283363 0.537480 0.522255
O O9 0.325211 0.568551 0.998691
O O10 0.395249 0.184129 0.489335
O O11 0.430783 0.055345 0.728296
O O12 0.398224 0.184238 0.014990
#
# Coordination Sequence:
#
# PCOD9166932 Si02
#       6
#     4   4   4   4   2   4
#     4  12  26  44  67 101 133 174 223 276 334 391
#     4  12  23  47  68  96 135 178 227 264 333 394
#     4  12  23  42  71 100 130 167 219 280 328 392
#     4  11  24  44  65 102 130 175 220 263 335 391
#     4  10  24  44  62  90 142 180 206 262 326 404
#     4  12  24  42  72  95 131 173 220 282 315 391
#
# _framework density 22.688808000000002
#
# number of rings (size 3 to 8) (size 9 to 14) (size 15 to 20)
#    0.000    0.364    3.636    5.455    2.545    0.000 
#    9.818    0.000    0.000    0.000    0.000    0.000 
#    0.000    0.000    0.000    0.000    0.000    0.000 
#
# Total GULP energy -122711.283563 kJ/mol
# GULP energy per Si atom -5577.785617 kJ/mol
# Density = 2.263717 g / cm^3
# Si number density = 22.688808 Si / 1000 Ang^3
#
#
#
# Elastic Constant Matrix: (Units=GPa)
#
#
# Indices 1 2 3 4 5 6 
#
# 1 34.3823 -4.3243 -7.9754 0.0000 -7.4625 0.0000
# 2 -4.3243 78.0542 7.5432 0.0000 -6.2292 0.0000
# 3 -7.9754 7.5432 118.6416 0.0000 31.7678 0.0000
# 4 0.0000 0.0000 0.0000 46.0060 0.0000 7.2475
# 5 -7.4625 -6.2292 31.7678 0.0000 19.9166 0.0000
# 6 0.0000 0.0000 0.0000 7.2475 0.0000 -10.7516
#
#
#
# Elastic Compliance Matrix: (Units=1/GPa)
#
#
# Indices 1 2 3 4 5 6 
#
# 1 0.032746 0.003507 -0.002794 0.000000 0.017823 0.000000
# 2 0.003507 0.014340 -0.003890 0.000000 0.012004 0.000000
# 3 -0.002794 -0.003890 0.015874 0.000000 -0.027583 0.000000
# 4 0.000000 0.000000 0.000000 0.019650 0.000000 0.013246
# 5 0.017823 0.012004 -0.027583 0.000000 0.104638 0.000000
# 6 0.000000 0.000000 0.000000 0.013246 0.000000 -0.084081
#
#
# Mechanical properties :
#
#
# Convention : Reuss Voigt Hill
#
# Bulk Modulus (GPa) = 17.66637 24.61833 21.14235
# Shear Modulus (GPa) = 38.94379 26.75651 32.85015
#
# Velocity S-wave (km/s) = 4.14748 3.43779 3.80920
# Velocity P-wave (km/s) = 5.54425 5.16061 5.35587
#
# Compressibility (1/GPa) = 0.05660474
#
# Stress axis : x y z
#
# Youngs Moduli (GPa) = 30.53814 69.73604 62.99586
#
# Poissons Ratio (x) = -0.24453 0.17600
# Poissons Ratio (y) = -0.10708 0.24506
# Poissons Ratio (z) = 0.08532 0.27128
#
# Static dielectric constant tensor:
#      x y z
#    x 1.893580 0.000000 -0.048690 
#    y 0.000000 1.842540 0.000000 
#    z -0.048690 0.000000 1.794480 
# 
# From -- ./inp_files/4573.got.cif
#   From: 2010.05.17/outbox.cif.g08.bks.cpg/sg11_3_cif.got.tgz:4573.got - 2010.06.03 12:22:45.
