data_PCOD9166902
_publ_section_title
;
Structure prediction by ZEFSAII (Michael W. Deem and Ramdas Pophale) SiO2 
 PCOD9166902
Probable space group: P 21/M
;
_chemical_formula_sum "Si O2"
_cell_formula_units_Z 28
_cell_length_a 5.117589
_cell_length_b 21.494935
_cell_length_c 11.934793
_cell_angle_alpha 90.000000
_cell_angle_beta 99.410023
_cell_angle_gamma 90.000000
_cell_volume 1295.187678
_symmetry_space_group_name_H-M "P 21/M"
_symmetry_group_IT_number 11
_symmetry_cell_setting 'monoclinic'
loop_
_space_group_symop_operation_xyz
x,y,z
-x,1/2+y,-z
-x,-y,-z
x,1/2-y,z
loop_
_atom_site_type_symbol
_atom_site_label
_atom_site_fract_x
_atom_site_fract_y
_atom_site_fract_z
Si Si1 0.332313 0.846037 0.091520
Si Si2 0.217986 0.515877 0.110358
Si Si3 0.331342 0.951306 0.556677
Si Si4 0.959463 0.179839 0.156757
Si Si5 0.969952 0.557211 0.331743
Si Si6 0.514771 0.894597 0.780162
Si Si7 0.865695 0.681783 0.226390
O O1 0.358532 0.920619 0.082881
O O2 0.624278 0.818713 0.121502
O O3 0.147983 0.829256 0.185470
O O4 0.168948 0.821735 0.975019
O O5 0.408453 0.457673 0.148181
O O6 0.094019 0.534366 0.222801
O O7 0.000000 0.500000 0.000000
O O8 0.509434 0.908582 0.647371
O O9 0.158588 0.920884 0.446993
O O10 0.500000 0.000000 0.500000
O O11 0.167379 0.995567 0.629398
O O12 0.949369 0.250000 0.200424
O O13 0.772239 0.132358 0.210888
O O14 0.256770 0.154348 0.174808
O O15 0.805921 0.619635 0.293714
O O16 0.868133 0.750000 0.281535
#
# Coordination Sequence:
#
# PCOD9166902 Si02
#       7
#     4   4   4   4   4   4   4
#     4  11  24  41  66  96 139 179 219 268 341 409
#     4  11  22  42  67 108 138 164 214 290 348 396
#     4  11  23  44  71  95 130 177 229 282 342 398
#     4  12  26  44  64  95 139 188 227 265 326 413
#     4  10  24  42  68 101 137 174 224 280 342 403
#     4  12  25  43  69  99 133 175 228 282 336 392
#     4  11  23  42  65  97 135 178 224 270 332 408
#
# _framework density 21.618487999999999
#
# number of rings (size 3 to 8) (size 9 to 14) (size 15 to 20)
#    0.000    0.857    2.857    4.286    6.000    1.714 
#    0.000    1.429    0.000    0.000    0.000    0.000 
#    0.000    0.000    0.000    0.000    0.000    0.000 
#
# Total GULP energy -156482.985776 kJ/mol
# GULP energy per Si atom -5588.678063 kJ/mol
# Density = 2.156928 g / cm^3
# Si number density = 21.618488 Si / 1000 Ang^3
#
#
#
# Elastic Constant Matrix: (Units=GPa)
#
#
# Indices 1 2 3 4 5 6 
#
# 1 40.2295 2.0694 0.0824 0.0000 1.7096 0.0000
# 2 2.0694 123.3642 20.5446 0.0000 8.8830 0.0000
# 3 0.0824 20.5446 108.0136 0.0000 12.2934 0.0000
# 4 0.0000 0.0000 0.0000 3.3346 0.0000 -8.6495
# 5 1.7096 8.8830 12.2934 0.0000 36.0986 0.0000
# 6 0.0000 0.0000 0.0000 -8.6495 0.0000 13.3853
#
#
#
# Elastic Compliance Matrix: (Units=1/GPa)
#
#
# Indices 1 2 3 4 5 6 
#
# 1 0.024925 -0.000365 0.000182 0.000000 -0.001152 0.000000
# 2 -0.000365 0.008464 -0.001430 0.000000 -0.001579 0.000000
# 3 0.000182 -0.001430 0.009874 0.000000 -0.003019 0.000000
# 4 0.000000 0.000000 0.000000 -0.443527 0.000000 -0.286604
# 5 -0.001152 -0.001579 -0.003019 0.000000 0.029173 0.000000
# 6 0.000000 0.000000 0.000000 -0.286604 0.000000 -0.110492
#
#
# Mechanical properties :
#
#
# Convention : Reuss Voigt Hill
#
# Bulk Modulus (GPa) = 24.97817 35.22223 30.10020
# Shear Modulus (GPa) = -10.75242 27.15776 8.20267
#
# Velocity S-wave (km/s) = -2.23260 3.54818 1.95001
# Velocity P-wave (km/s) = 2.22107 5.75448 4.36161
#
# Compressibility (1/GPa) = 0.04003495
#
# Stress axis : x y z
#
# Youngs Moduli (GPa) = 40.12073 118.14730 101.28059
#
# Poissons Ratio (x) = 0.04317 -0.01840
# Poissons Ratio (y) = 0.01466 0.14483
# Poissons Ratio (z) = -0.00729 0.16894
#
# Static dielectric constant tensor:
#      x y z
#    x 2.048180 0.000000 -1.051770 
#    y 0.000000 1.359220 0.000000 
#    z -1.051770 0.000000 6.647340 
# 
# From -- ./inp_files/30023.got.cif
#   From: 2010.05.17/outbox.cif.g08.bks.cpg/sg11_16_cif.got.tgz:30023.got - 2010.06.03 12:22:45.
