data_PCOD9166647
_publ_section_title
;
Structure prediction by ZEFSAII (Michael W. Deem and Ramdas Pophale) SiO2 
 PCOD9166647
Probable space group: P 21/M
;
_chemical_formula_sum "Si O2"
_cell_formula_units_Z 18
_cell_length_a 4.672196
_cell_length_b 21.015014
_cell_length_c 7.330144
_cell_angle_alpha 90.000000
_cell_angle_beta 112.169980
_cell_angle_gamma 90.000000
_cell_volume 666.509465
_symmetry_space_group_name_H-M "P 21/M"
_symmetry_group_IT_number 11
_symmetry_cell_setting 'monoclinic'
loop_
_space_group_symop_operation_xyz
x,y,z
-x,1/2+y,-z
-x,-y,-z
x,1/2-y,z
loop_
_atom_site_type_symbol
_atom_site_label
_atom_site_fract_x
_atom_site_fract_y
_atom_site_fract_z
Si Si1 0.238651 0.434660 0.895790
Si Si2 0.292258 0.847389 0.137915
Si Si3 0.245352 0.464942 0.318117
Si Si4 0.792623 0.250000 0.220802
Si Si5 0.205590 0.178328 0.451309
O O1 0.553996 0.414181 0.879464
O O2 0.300020 0.455017 0.116398
O O3 0.032137 0.369480 0.854648
O O4 0.051867 0.488758 0.745068
O O5 0.259425 0.805723 0.949541
O O6 0.536982 0.817452 0.335342
O O7 0.500000 0.500000 0.500000
O O8 0.215726 0.392302 0.378788
O O9 0.842544 0.192697 0.396555
O O10 0.209828 0.250000 0.337773
#
# Coordination Sequence:
#
# PCOD9166647 Si02
#       5
#     4   4   4   2   4
#     4  11  27  45  73 105 145 182 240 294 358 415
#     4  12  24  49  71 105 141 189 234 298 351 427
#     4  11  23  46  73 110 142 194 237 297 355 430
#     4  10  22  46  70 100 144 190 238 288 370 414
#     4  10  22  45  71 103 141 190 239 292 357 428
#
# _framework density 27.00637
#
# number of rings (size 3 to 8) (size 9 to 14) (size 15 to 20)
#    0.667    0.444    5.556    0.000    0.000    7.111 
#    2.000    0.000    0.000    0.000    0.000    0.000 
#    0.000    0.000    0.000    0.000    0.000    0.000 
#
# Total GULP energy -100282.311033 kJ/mol
# GULP energy per Si atom -5571.239502 kJ/mol
# Density = 2.694490 g / cm^3
# Si number density = 27.006370 Si / 1000 Ang^3
#
#
#
# Elastic Constant Matrix: (Units=GPa)
#
#
# Indices 1 2 3 4 5 6 
#
# 1 64.2550 26.6763 27.9462 0.0000 7.0444 0.0000
# 2 26.6763 228.6949 80.2120 0.0000 12.5834 0.0000
# 3 27.9462 80.2120 217.8470 0.0000 31.9223 0.0000
# 4 0.0000 0.0000 0.0000 46.3068 0.0000 20.4829
# 5 7.0444 12.5834 31.9223 0.0000 26.4453 0.0000
# 6 0.0000 0.0000 0.0000 20.4829 0.0000 28.2043
#
#
#
# Elastic Compliance Matrix: (Units=1/GPa)
#
#
# Indices 1 2 3 4 5 6 
#
# 1 0.016966 -0.001387 -0.001337 0.000000 -0.002246 0.000000
# 2 -0.001387 0.005135 -0.001712 0.000000 -0.000008 0.000000
# 3 -0.001337 -0.001712 0.006343 0.000000 -0.006485 0.000000
# 4 0.000000 0.000000 0.000000 0.031815 0.000000 -0.023105
# 5 -0.002246 -0.000008 -0.006485 0.000000 0.046245 0.000000
# 6 0.000000 0.000000 0.000000 -0.023105 0.000000 0.052235
#
#
# Mechanical properties :
#
#
# Convention : Reuss Voigt Hill
#
# Bulk Modulus (GPa) = 51.08920 86.71843 68.90382
# Shear Modulus (GPa) = 28.71352 45.25544 36.98448
#
# Velocity S-wave (km/s) = 3.26423 4.09801 3.70465
# Velocity P-wave (km/s) = 5.75895 7.38726 6.62334
#
# Compressibility (1/GPa) = 0.01957361
#
# Stress axis : x y z
#
# Youngs Moduli (GPa) = 58.94031 194.73469 157.66633
#
# Poissons Ratio (x) = 0.27002 0.21077
# Poissons Ratio (y) = 0.08173 0.26989
# Poissons Ratio (z) = 0.07879 0.33334
#
# Static dielectric constant tensor:
#      x y z
#    x 2.111610 0.000000 -0.033510 
#    y 0.000000 2.165410 0.000000 
#    z -0.033510 0.000000 2.068720 
# 
# From -- ./inp_files/2469.got.cif
#   From: 2010.05.17/outbox.cif.g08.bks.cpg/sg11_2_cif.got.tgz:2469.got - 2010.06.03 12:22:45.
