data_PCOD9166184
_publ_section_title
;
Structure prediction by ZEFSAII (Michael W. Deem and Ramdas Pophale) SiO2 
 PCOD9166184
Probable space group: P 21/M
;
_chemical_formula_sum "Si O2"
_cell_formula_units_Z 28
_cell_length_a 15.024995
_cell_length_b 8.696410
_cell_length_c 11.759643
_cell_angle_alpha 90.000000
_cell_angle_beta 111.446399
_cell_angle_gamma 90.000000
_cell_volume 1430.165194
_symmetry_space_group_name_H-M "P 21/M"
_symmetry_group_IT_number 11
_symmetry_cell_setting 'monoclinic'
loop_
_space_group_symop_operation_xyz
x,y,z
-x,1/2+y,-z
-x,-y,-z
x,1/2-y,z
loop_
_atom_site_type_symbol
_atom_site_label
_atom_site_fract_x
_atom_site_fract_y
_atom_site_fract_z
Si Si1 0.473951 0.932529 0.110125
Si Si2 0.954668 0.564356 0.651439
Si Si3 0.300822 0.434683 0.163161
Si Si4 0.350636 0.934168 0.668599
Si Si5 0.911793 0.936104 0.887844
Si Si6 0.607235 0.565655 0.548817
Si Si7 0.856211 0.064947 0.381083
O O1 0.475423 0.750000 0.106641
O O2 0.371142 0.989048 0.105787
O O3 0.554854 0.991812 0.234839
O O4 0.500000 0.000000 0.000000
O O5 0.948472 0.750000 0.644127
O O6 0.064626 0.518818 0.674954
O O7 0.921265 0.514763 0.760349
O O8 0.892673 0.498574 0.518971
O O9 0.305367 0.250000 0.151083
O O10 0.190514 0.484073 0.109055
O O11 0.341542 0.469197 0.308254
O O12 0.360808 0.750000 0.677052
O O13 0.253599 0.981214 0.688524
O O14 0.341229 0.989592 0.534536
O O15 0.914436 0.750000 0.890122
O O16 0.000000 0.000000 0.000000
O O17 0.500000 0.500000 0.500000
O O18 0.605029 0.750000 0.533990
O O19 0.857362 0.250000 0.387644
#
# Coordination Sequence:
#
# PCOD9166184 Si02
#       7
#     4   4   4   4   4   4   4
#     4  12  26  43  63  85 115 155 199 244 298 360
#     4   9  18  36  58  83 116 152 193 241 296 348
#     4  10  22  41  62  87 122 158 198 251 307 358
#     4  11  22  37  57  87 125 159 197 243 292 355
#     4  10  22  39  60  86 117 157 202 250 297 348
#     4  11  21  35  60  90 121 156 197 247 300 354
#     4   9  19  34  57  87 118 152 190 238 293 348
#
# _framework density 19.578157000000001
#
# number of rings (size 3 to 8) (size 9 to 14) (size 15 to 20)
#    0.000    1.714    1.429    3.000    0.000    5.143 
#    0.000    1.429    0.000    0.000    0.000    0.000 
#    0.000    0.000    0.000    0.000    0.000    0.000 
#
# Total GULP energy -156455.336780 kJ/mol
# GULP energy per Si atom -5587.690599 kJ/mol
# Density = 1.953360 g / cm^3
# Si number density = 19.578157 Si / 1000 Ang^3
#
#
#
# Elastic Constant Matrix: (Units=GPa)
#
#
# Indices 1 2 3 4 5 6 
#
# 1 186.6666 50.0658 56.1712 0.0000 5.7970 0.0000
# 2 50.0658 44.8520 28.9134 0.0000 -0.8981 0.0000
# 3 56.1712 28.9134 60.2625 0.0000 -4.4941 0.0000
# 4 0.0000 0.0000 0.0000 30.7457 0.0000 -2.2195
# 5 5.7970 -0.8981 -4.4941 0.0000 35.3503 0.0000
# 6 0.0000 0.0000 0.0000 -2.2195 0.0000 26.2531
#
#
#
# Elastic Compliance Matrix: (Units=1/GPa)
#
#
# Indices 1 2 3 4 5 6 
#
# 1 0.008717 -0.006412 -0.005217 0.000000 -0.002256 0.000000
# 2 -0.006412 0.037044 -0.011759 0.000000 0.000498 0.000000
# 3 -0.005217 -0.011759 0.027400 0.000000 0.004040 0.000000
# 4 0.000000 0.000000 0.000000 0.032725 0.000000 0.002767
# 5 -0.002256 0.000498 0.004040 0.000000 0.029184 0.000000
# 6 0.000000 0.000000 0.000000 0.002767 0.000000 0.038325
#
#
# Mechanical properties :
#
#
# Convention : Reuss Voigt Hill
#
# Bulk Modulus (GPa) = 37.90165 62.45353 50.17759
# Shear Modulus (GPa) = 21.83741 28.91186 25.37464
#
# Velocity S-wave (km/s) = 3.34338 3.84701 3.60400
# Velocity P-wave (km/s) = 5.85708 7.19037 6.55770
#
# Compressibility (1/GPa) = 0.02638408
#
# Stress axis : x y z
#
# Youngs Moduli (GPa) = 114.72041 26.99510 36.49673
#
# Poissons Ratio (x) = 0.17310 0.19039
# Poissons Ratio (y) = 0.73564 0.42917
# Poissons Ratio (z) = 0.59845 0.31744
#
# Static dielectric constant tensor:
#      x y z
#    x 1.704260 0.000000 0.002900 
#    y 0.000000 1.658080 0.000000 
#    z 0.002900 0.000000 1.655830 
# 
# From -- ./inp_files/38423.got.cif
#   From: 2010.05.17/outbox.cif.g08.bks.cpg/sg11_20_cif.got.tgz:38423.got - 2010.06.03 12:22:45.
