data_PCOD9166766
_publ_section_title
;
Structure prediction by ZEFSAII (Michael W. Deem and Ramdas Pophale) SiO2 
 PCOD9166766
Probable space group: P 21/M
;
_chemical_formula_sum "Si O2"
_cell_formula_units_Z 18
_cell_length_a 5.041769
_cell_length_b 13.426885
_cell_length_c 10.089381
_cell_angle_alpha 90.000000
_cell_angle_beta 109.373138
_cell_angle_gamma 90.000000
_cell_volume 644.330380
_symmetry_space_group_name_H-M "P 21/M"
_symmetry_group_IT_number 11
_symmetry_cell_setting 'monoclinic'
loop_
_space_group_symop_operation_xyz
x,y,z
-x,1/2+y,-z
-x,-y,-z
x,1/2-y,z
loop_
_atom_site_type_symbol
_atom_site_label
_atom_site_fract_x
_atom_site_fract_y
_atom_site_fract_z
Si Si1 0.703701 0.129794 0.548794
Si Si2 0.500000 0.500000 0.000000
Si Si3 0.091316 0.129179 0.375594
Si Si4 0.100303 0.870516 0.131329
Si Si5 0.381113 0.133074 0.147932
O O1 0.703269 0.250000 0.544927
O O2 0.377941 0.102410 0.504151
O O3 0.872576 0.104826 0.709861
O O4 0.845080 0.097895 0.434978
O O5 0.338179 0.575781 0.087064
O O6 0.642036 0.431774 0.149623
O O7 0.059169 0.250000 0.364228
O O8 0.207022 0.108072 0.246822
O O9 0.115774 0.750000 0.116463
O O10 0.796693 0.901507 0.016150
O O11 0.433140 0.250000 0.152666
#
# Coordination Sequence:
#
# PCOD9166766 Si02
#       5
#     4   2   4   4   4
#     4   9  19  37  64  95 127 167 217 270 327 389
#     4  12  24  40  64  98 132 168 218 280 316 396
#     4   9  19  37  64  95 127 167 217 270 327 389
#     4  10  23  42  67  94 128 174 219 268 328 392
#     4  10  23  42  67  94 128 174 219 268 328 392
#
# _framework density 27.935977000000001
#
# number of rings (size 3 to 8) (size 9 to 14) (size 15 to 20)
#    0.000    2.222    0.000    1.333    6.222    0.000 
#    0.000    2.222    0.000    0.000    0.000    0.000 
#    0.000    0.000    0.000    0.000    0.000    0.000 
#
# Total GULP energy -100438.762806 kJ/mol
# GULP energy per Si atom -5579.931267 kJ/mol
# Density = 2.787239 g / cm^3
# Si number density = 27.935977 Si / 1000 Ang^3
#
#
#
# Elastic Constant Matrix: (Units=GPa)
#
#
# Indices 1 2 3 4 5 6 
#
# 1 137.0466 19.8906 53.8216 0.0000 -33.3207 0.0000
# 2 19.8906 181.2133 25.9086 0.0000 -57.7526 0.0000
# 3 53.8216 25.9086 195.7855 0.0000 -42.5448 0.0000
# 4 0.0000 0.0000 0.0000 2.1494 0.0000 -37.1122
# 5 -33.3207 -57.7526 -42.5448 0.0000 33.0129 0.0000
# 6 0.0000 0.0000 0.0000 -37.1122 0.0000 35.6748
#
#
#
# Elastic Compliance Matrix: (Units=1/GPa)
#
#
# Indices 1 2 3 4 5 6 
#
# 1 0.011954 0.006526 0.001324 0.000000 0.025187 0.000000
# 2 0.006526 0.019315 0.006145 0.000000 0.048296 0.000000
# 3 0.001324 0.006145 0.009107 0.000000 0.023823 0.000000
# 4 0.000000 0.000000 0.000000 -0.027429 0.000000 -0.028534
# 5 0.025187 0.048296 0.023823 0.000000 0.170903 0.000000
# 6 0.000000 0.000000 0.000000 -0.028534 0.000000 -0.001653
#
#
# Mechanical properties :
#
#
# Convention : Reuss Voigt Hill
#
# Bulk Modulus (GPa) = 14.62736 79.25412 46.94074
# Shear Modulus (GPa) = 28.24887 41.79574 35.02231
#
# Velocity S-wave (km/s) = 3.18339 3.87218 3.54455
# Velocity P-wave (km/s) = 4.33121 6.95867 5.79580
#
# Compressibility (1/GPa) = 0.06836504
#
# Stress axis : x y z
#
# Youngs Moduli (GPa) = 83.65627 51.77197 109.80124
#
# Poissons Ratio (x) = -0.33785 -0.14533
# Poissons Ratio (y) = -0.54592 -0.67472
# Poissons Ratio (z) = -0.11073 -0.31813
#
# Static dielectric constant tensor:
#      x y z
#    x 2.478940 0.000000 0.220290 
#    y 0.000000 2.445260 0.000000 
#    z 0.220290 0.000000 2.277110 
# 
# From -- ./inp_files/10008.got.cif
#   From: 2010.05.17/outbox.cif.g08.bks.cpg/sg11_6_cif.got.tgz:10008.got - 2010.06.03 12:22:45.
