data_PCOD9166382
_publ_section_title
;
Structure prediction by ZEFSAII (Michael W. Deem and Ramdas Pophale) SiO2 
 PCOD9166382
Probable space group: P 21/M
;
_chemical_formula_sum "Si O2"
_cell_formula_units_Z 18
_cell_length_a 5.254510
_cell_length_b 14.996206
_cell_length_c 9.955765
_cell_angle_alpha 90.000000
_cell_angle_beta 72.274086
_cell_angle_gamma 90.000000
_cell_volume 747.246909
_symmetry_space_group_name_H-M "P 21/M"
_symmetry_group_IT_number 11
_symmetry_cell_setting 'monoclinic'
loop_
_space_group_symop_operation_xyz
x,y,z
-x,1/2+y,-z
-x,-y,-z
x,1/2-y,z
loop_
_atom_site_type_symbol
_atom_site_label
_atom_site_fract_x
_atom_site_fract_y
_atom_site_fract_z
Si Si1 0.976669 0.607010 0.020436
Si Si2 0.310936 0.914288 0.502764
Si Si3 0.811693 0.600724 0.765965
Si Si4 0.377405 0.594293 0.182677
Si Si5 0.511380 0.750000 0.649965
O O1 0.680636 0.625586 0.122455
O O2 0.194486 0.635207 0.094572
O O3 0.977177 0.639295 0.866647
O O4 0.000000 0.500000 0.000000
O O5 0.280393 0.892841 0.350232
O O6 0.431637 0.828320 0.555024
O O7 0.026984 0.928728 0.620505
O O8 0.500000 0.000000 0.500000
O O9 0.643690 0.513348 0.833313
O O10 0.619843 0.673184 0.736763
#
# Coordination Sequence:
#
# PCOD9166382 Si02
#       5
#     4   4   4   4   2
#     4  10  22  40  72 104 137 179 235 296 362 433
#     4  12  25  46  74 104 147 194 247 302 368 435
#     4  11  24  44  70 106 142 187 248 298 364 441
#     4  11  23  42  75 104 138 187 239 295 364 429
#     4  12  28  42  72 106 152 182 256 302 364 432
#
# _framework density 24.088424
#
# number of rings (size 3 to 8) (size 9 to 14) (size 15 to 20)
#    0.000    0.889    2.222    6.667    6.222    0.000 
#    0.000    2.222    0.000    0.000    0.000    0.000 
#    0.000    0.000    0.000    0.000    0.000    0.000 
#
# Total GULP energy -100308.436252 kJ/mol
# GULP energy per Si atom -5572.690903 kJ/mol
# Density = 2.403360 g / cm^3
# Si number density = 24.088424 Si / 1000 Ang^3
#
#
#
# Elastic Constant Matrix: (Units=GPa)
#
#
# Indices 1 2 3 4 5 6 
#
# 1 120.9019 15.0780 57.8461 0.0000 16.4199 0.0000
# 2 15.0780 102.0835 -3.4423 0.0000 20.1788 0.0000
# 3 57.8461 -3.4423 176.5206 0.0000 24.0081 0.0000
# 4 0.0000 0.0000 0.0000 9.6349 0.0000 33.0647
# 5 16.4199 20.1788 24.0081 0.0000 70.1202 0.0000
# 6 0.0000 0.0000 0.0000 33.0647 0.0000 5.2770
#
#
#
# Elastic Compliance Matrix: (Units=1/GPa)
#
#
# Indices 1 2 3 4 5 6 
#
# 1 0.010108 -0.001434 -0.003225 0.000000 -0.000850 0.000000
# 2 -0.001434 0.010659 0.001100 0.000000 -0.003109 0.000000
# 3 -0.003225 0.001100 0.007010 0.000000 -0.001962 0.000000
# 4 0.000000 0.000000 0.000000 -0.005062 0.000000 0.031719
# 5 -0.000850 -0.003109 -0.001962 0.000000 0.016027 0.000000
# 6 0.000000 0.000000 0.000000 0.031719 0.000000 -0.009243
#
#
# Mechanical properties :
#
#
# Convention : Reuss Voigt Hill
#
# Bulk Modulus (GPa) = 48.39898 59.82996 54.11447
# Shear Modulus (GPa) = 114.93515 39.00802 76.97158
#
# Velocity S-wave (km/s) = 6.91502 4.02850 5.65890
# Velocity P-wave (km/s) = 9.15928 6.82129 8.07535
#
# Compressibility (1/GPa) = 0.02066159
#
# Stress axis : x y z
#
# Youngs Moduli (GPa) = 98.92761 93.81543 142.65106
#
# Poissons Ratio (x) = 0.13450 0.46003
# Poissons Ratio (y) = 0.14183 -0.15698
# Poissons Ratio (z) = 0.31903 -0.10324
#
# Static dielectric constant tensor:
#      x y z
#    x 1.954030 0.000000 -0.011910 
#    y 0.000000 1.845080 0.000000 
#    z -0.011910 0.000000 1.955520 
# 
# From -- ./inp_files/9978.got.cif
#   From: 2010.05.17/outbox.cif.g08.bks.cpg/sg11_5_cif.got.tgz:9978.got - 2010.06.03 12:22:45.
