data_PCOD9166983
_publ_section_title
;
Structure prediction by ZEFSAII (Michael W. Deem and Ramdas Pophale) SiO2 
 PCOD9166983
Probable space group: P 21/M
;
_chemical_formula_sum "Si O2"
_cell_formula_units_Z 22
_cell_length_a 5.153780
_cell_length_b 15.702711
_cell_length_c 13.616480
_cell_angle_alpha 90.000000
_cell_angle_beta 67.950372
_cell_angle_gamma 90.000000
_cell_volume 1021.360488
_symmetry_space_group_name_H-M "P 21/M"
_symmetry_group_IT_number 11
_symmetry_cell_setting 'monoclinic'
loop_
_space_group_symop_operation_xyz
x,y,z
-x,1/2+y,-z
-x,-y,-z
x,1/2-y,z
loop_
_atom_site_type_symbol
_atom_site_label
_atom_site_fract_x
_atom_site_fract_y
_atom_site_fract_z
Si Si1 0.418448 0.250000 0.323398
Si Si2 0.318287 0.250000 0.077528
Si Si3 0.283940 0.653258 0.336498
Si Si4 0.166537 0.614636 0.813326
Si Si5 0.312067 0.584153 0.012588
Si Si6 0.877450 0.934688 0.249756
Si Si7 0.780969 0.250000 0.463584
O O1 0.556592 0.169732 0.248720
O O2 0.542587 0.250000 0.415712
O O3 0.086510 0.250000 0.372589
O O4 0.095471 0.176802 0.148361
O O5 0.523363 0.173459 0.007729
O O6 0.303878 0.750000 0.292586
O O7 0.569907 0.603310 0.277674
O O8 0.245418 0.670211 0.458261
O O9 0.025259 0.606375 0.323124
O O10 0.138368 0.536666 0.743384
O O11 0.190602 0.579199 0.920030
O O12 0.075403 0.586312 0.129251
O O13 0.500000 0.500000 0.000000
#
# Coordination Sequence:
#
# PCOD9166983 Si02
#       7
#     2   2   4   4   4   4   2
#     4  11  25  47  78  97 137 195 230 302 371 423
#     4  11  25  42  66  94 146 189 248 276 337 416
#     4  10  25  45  71 101 141 179 246 292 363 441
#     4  11  27  44  68 107 146 183 254 279 350 441
#     4  12  26  44  69 103 156 194 238 288 353 425
#     4  12  24  43  72 104 146 192 225 304 349 415
#     4  10  24  49  74 101 139 182 236 310 372 427
#
# _framework density 21.539898000000001
#
# number of rings (size 3 to 8) (size 9 to 14) (size 15 to 20)
#    0.545    0.364    1.818    4.364   10.182    0.000 
#    0.000    5.455    0.000    0.000    0.000    0.000 
#    0.000    0.000    0.000    0.000    0.000    0.000 
#
# Total GULP energy -122586.551668 kJ/mol
# GULP energy per Si atom -5572.115985 kJ/mol
# Density = 2.149087 g / cm^3
# Si number density = 21.539898 Si / 1000 Ang^3
#
#
#
# Elastic Constant Matrix: (Units=GPa)
#
#
# Indices 1 2 3 4 5 6 
#
# 1 52.2728 44.3804 -10.8879 0.0000 1.1095 0.0000
# 2 44.3804 153.2280 5.8786 0.0000 -12.3140 0.0000
# 3 -10.8879 5.8786 62.6189 0.0000 1.6294 0.0000
# 4 0.0000 0.0000 0.0000 3.9568 0.0000 21.9946
# 5 1.1095 -12.3140 1.6294 0.0000 56.7309 0.0000
# 6 0.0000 0.0000 0.0000 21.9946 0.0000 -38.4112
#
#
#
# Elastic Compliance Matrix: (Units=1/GPa)
#
#
# Indices 1 2 3 4 5 6 
#
# 1 0.027464 -0.008373 0.005627 0.000000 -0.002516 0.000000
# 2 -0.008373 0.009222 -0.002380 0.000000 0.002234 0.000000
# 3 0.005627 -0.002380 0.017201 0.000000 -0.001121 0.000000
# 4 0.000000 0.000000 0.000000 0.060419 0.000000 0.034596
# 5 -0.002516 0.002234 -0.001121 0.000000 0.018193 0.000000
# 6 0.000000 0.000000 0.000000 0.034596 0.000000 -0.006224
#
#
# Mechanical properties :
#
#
# Convention : Reuss Voigt Hill
#
# Bulk Modulus (GPa) = 22.91690 38.54023 30.72857
# Shear Modulus (GPa) = 33.09681 19.70521 26.40101
#
# Velocity S-wave (km/s) = 3.92412 3.02789 3.50477
# Velocity P-wave (km/s) = 5.58516 5.49140 5.53848
#
# Compressibility (1/GPa) = 0.04363591
#
# Stress axis : x y z
#
# Youngs Moduli (GPa) = 36.41070 108.43509 58.13762
#
# Poissons Ratio (x) = 0.90790 -0.32713
# Poissons Ratio (y) = 0.30486 0.13835
# Poissons Ratio (z) = -0.20488 0.25804
#
# Static dielectric constant tensor:
#      x y z
#    x 1.802840 0.000000 0.045180 
#    y 0.000000 1.740940 0.000000 
#    z 0.045180 0.000000 1.791170 
# 
# From -- ./inp_files/6525.got.cif
#   From: 2010.05.17/outbox.cif.g08.bks.cpg/sg11_4_cif.got.tgz:6525.got - 2010.06.03 12:22:45.
