data_PCOD9166644
_publ_section_title
;
Structure prediction by ZEFSAII (Michael W. Deem and Ramdas Pophale) SiO2 
 PCOD9166644
Probable space group: P 21/M
;
_chemical_formula_sum "Si O2"
_cell_formula_units_Z 22
_cell_length_a 5.374800
_cell_length_b 14.332399
_cell_length_c 14.200657
_cell_angle_alpha 90.000000
_cell_angle_beta 56.034233
_cell_angle_gamma 90.000000
_cell_volume 907.274615
_symmetry_space_group_name_H-M "P 21/M"
_symmetry_group_IT_number 11
_symmetry_cell_setting 'monoclinic'
loop_
_space_group_symop_operation_xyz
x,y,z
-x,1/2+y,-z
-x,-y,-z
x,1/2-y,z
loop_
_atom_site_type_symbol
_atom_site_label
_atom_site_fract_x
_atom_site_fract_y
_atom_site_fract_z
Si Si1 0.995060 0.610976 0.487628
Si Si2 0.658837 0.404214 0.312521
Si Si3 0.009441 0.644197 0.071995
Si Si4 0.582352 0.475769 0.121580
Si Si5 0.835905 0.250000 0.399655
Si Si6 0.969824 0.920985 0.284051
O O1 0.662205 0.640506 0.592511
O O2 0.000000 0.500000 0.500000
O O3 0.211309 0.668505 0.508861
O O4 0.028505 0.628915 0.369943
O O5 0.675477 0.422310 0.198059
O O6 0.886883 0.332120 0.309510
O O7 0.691475 0.507667 0.349379
O O8 0.995874 0.750000 0.040639
O O9 0.771477 0.572102 0.077474
O O10 0.946598 0.641433 0.196868
O O11 0.324520 0.593350 0.981482
O O12 0.243216 0.508021 0.204683
#
# Coordination Sequence:
#
# PCOD9166644 Si02
#       6
#     4   4   4   4   2   4
#     4  12  24  45  66  98 140 179 218 275 329 400
#     4  11  23  43  68  97 132 179 226 267 332 394
#     4  10  24  43  68  99 131 176 224 276 338 398
#     4  10  22  45  69  95 139 171 222 282 330 394
#     4  12  26  38  64 100 134 178 228 266 324 394
#     4  11  23  43  69  95 134 179 218 276 337 390
#
# _framework density 24.248448
#
# number of rings (size 3 to 8) (size 9 to 14) (size 15 to 20)
#    0.000    1.091    3.636    1.636    2.545    0.727 
#    4.909    0.000    0.000    0.000    0.000    0.000 
#    0.000    0.000    0.000    0.000    0.000    0.000 
#
# Total GULP energy -122564.836147 kJ/mol
# GULP energy per Si atom -5571.128916 kJ/mol
# Density = 2.419326 g / cm^3
# Si number density = 24.248448 Si / 1000 Ang^3
#
#
#
# Elastic Constant Matrix: (Units=GPa)
#
#
# Indices 1 2 3 4 5 6 
#
# 1 29.1703 13.4414 13.9184 0.0000 10.5231 0.0000
# 2 13.4414 180.2082 39.1633 0.0000 8.1313 0.0000
# 3 13.9184 39.1633 90.4074 0.0000 10.6532 0.0000
# 4 0.0000 0.0000 0.0000 28.6009 0.0000 4.2471
# 5 10.5231 8.1313 10.6532 0.0000 43.5413 0.0000
# 6 0.0000 0.0000 0.0000 4.2471 0.0000 -44.1636
#
#
#
# Elastic Compliance Matrix: (Units=1/GPa)
#
#
# Indices 1 2 3 4 5 6 
#
# 1 0.040180 -0.001646 -0.004494 0.000000 -0.008304 0.000000
# 2 -0.001646 0.006204 -0.002414 0.000000 -0.000170 0.000000
# 3 -0.004494 -0.002414 0.012992 0.000000 -0.001642 0.000000
# 4 0.000000 0.000000 0.000000 0.034472 0.000000 0.003315
# 5 -0.008304 -0.000170 -0.001642 0.000000 0.025407 0.000000
# 6 0.000000 0.000000 0.000000 0.003315 0.000000 -0.022324
#
#
# Mechanical properties :
#
#
# Convention : Reuss Voigt Hill
#
# Bulk Modulus (GPa) = 23.65864 48.09245 35.87555
# Shear Modulus (GPa) = 39.02343 21.14659 30.08501
#
# Velocity S-wave (km/s) = 4.01598 2.95630 3.52618
# Velocity P-wave (km/s) = 5.59304 5.61509 5.60408
#
# Compressibility (1/GPa) = 0.04226785
#
# Stress axis : x y z
#
# Youngs Moduli (GPa) = 24.88817 161.18076 76.96915
#
# Poissons Ratio (x) = 0.26522 0.34593
# Poissons Ratio (y) = 0.04095 0.18582
# Poissons Ratio (z) = 0.11186 0.38912
#
# Static dielectric constant tensor:
#      x y z
#    x 2.141970 0.000000 -0.045160 
#    y 0.000000 1.890140 0.000000 
#    z -0.045160 0.000000 1.944360 
# 
# From -- ./inp_files/45696.got.cif
#   From: 2010.05.17/outbox.cif.g08.bks.cpg/sg11_23_cif.got.tgz:45696.got - 2010.06.03 12:22:45.
