data_PCOD9166519
_publ_section_title
;
Structure prediction by ZEFSAII (Michael W. Deem and Ramdas Pophale) SiO2 
 PCOD9166519
Probable space group: P 21/M
;
_chemical_formula_sum "Si O2"
_cell_formula_units_Z 32
_cell_length_a 15.576178
_cell_length_b 17.614244
_cell_length_c 12.461287
_cell_angle_alpha 90.000000
_cell_angle_beta 26.941184
_cell_angle_gamma 90.000000
_cell_volume 1549.025243
_symmetry_space_group_name_H-M "P 21/M"
_symmetry_group_IT_number 11
_symmetry_cell_setting 'monoclinic'
loop_
_space_group_symop_operation_xyz
x,y,z
-x,1/2+y,-z
-x,-y,-z
x,1/2-y,z
loop_
_atom_site_type_symbol
_atom_site_label
_atom_site_fract_x
_atom_site_fract_y
_atom_site_fract_z
Si Si1 0.655052 0.439236 0.940175
Si Si2 0.870756 0.417844 0.472693
Si Si3 0.697148 0.611932 0.967999
Si Si4 0.649429 0.160471 0.524521
Si Si5 0.947664 0.953697 0.220310
Si Si6 0.293776 0.980594 0.685997
Si Si7 0.337052 0.167357 0.223606
Si Si8 0.925510 0.164522 0.775967
O O1 0.761972 0.431986 0.705862
O O2 0.771592 0.390237 0.895807
O O3 0.648290 0.525150 0.989007
O O4 0.452248 0.400184 0.149938
O O5 0.758363 0.366110 0.512137
O O6 0.905631 0.497430 0.373158
O O7 0.078639 0.384026 0.263403
O O8 0.570175 0.639586 0.207771
O O9 0.638350 0.660793 0.930695
O O10 0.674496 0.250000 0.477372
O O11 0.714374 0.103650 0.357548
O O12 0.001615 0.869300 0.193475
O O13 0.772068 0.963765 0.336389
O O14 0.133151 0.987689 0.955596
O O15 0.500000 0.000000 0.500000
O O16 0.406212 0.250000 0.184608
O O17 0.114224 0.162729 0.493319
O O18 0.855796 0.250000 0.861154
#
# Coordination Sequence:
#
# PCOD9166519 Si02
#       8
#     4   4   4   4   4   4   4   4
#     4  12  23  37  62  91 129 178 219 250 304 374
#     4  11  22  39  65  92 127 170 214 257 306 372
#     4  12  22  36  62  89 124 170 214 257 302 373
#     4  11  26  42  63  97 130 162 208 263 326 380
#     4  10  22  42  64  94 119 151 215 258 315 380
#     4  10  23  44  70  91 118 158 203 269 323 380
#     4  11  24  37  53  87 131 171 214 259 304 359
#     4  11  24  40  61  91 133 171 212 263 308 366
#
# _framework density 20.658152000000001
#
# number of rings (size 3 to 8) (size 9 to 14) (size 15 to 20)
#    0.000    1.000    3.750    3.000    3.500    2.000 
#    0.000    0.625    0.000    0.000    0.000    0.000 
#    0.000    0.000    0.000    0.000    0.000    0.000 
#
# Total GULP energy -178943.468900 kJ/mol
# GULP energy per Si atom -5591.983403 kJ/mol
# Density = 2.061113 g / cm^3
# Si number density = 20.658152 Si / 1000 Ang^3
#
#
#
# Elastic Constant Matrix: (Units=GPa)
#
#
# Indices 1 2 3 4 5 6 
#
# 1 80.3372 40.5603 12.1045 0.0000 -16.5834 0.0000
# 2 40.5603 120.3770 8.5286 0.0000 -1.2267 0.0000
# 3 12.1045 8.5286 29.6520 0.0000 -15.0771 0.0000
# 4 0.0000 0.0000 0.0000 15.0948 0.0000 1.6353
# 5 -16.5834 -1.2267 -15.0771 0.0000 32.9111 0.0000
# 6 0.0000 0.0000 0.0000 1.6353 0.0000 14.0470
#
#
#
# Elastic Compliance Matrix: (Units=1/GPa)
#
#
# Indices 1 2 3 4 5 6 
#
# 1 0.017075 -0.005573 -0.001432 0.000000 0.007740 0.000000
# 2 -0.005573 0.010327 -0.002513 0.000000 -0.003574 0.000000
# 3 -0.001432 -0.002513 0.045130 0.000000 0.019859 0.000000
# 4 0.000000 0.000000 0.000000 0.067094 0.000000 -0.007811
# 5 0.007740 -0.003574 0.019859 0.000000 0.043250 0.000000
# 6 0.000000 0.000000 0.000000 -0.007811 0.000000 0.072099
#
#
# Mechanical properties :
#
#
# Convention : Reuss Voigt Hill
#
# Bulk Modulus (GPa) = 18.69289 39.19479 28.94384
# Shear Modulus (GPa) = 17.13266 23.68875 20.41070
#
# Velocity S-wave (km/s) = 2.88295 3.38997 3.14669
# Velocity P-wave (km/s) = 4.48890 5.85976 5.21953
#
# Compressibility (1/GPa) = 0.05349628
#
# Stress axis : x y z
#
# Youngs Moduli (GPa) = 58.56661 96.83753 22.15844
#
# Poissons Ratio (x) = 0.53966 0.03172
# Poissons Ratio (y) = 0.32638 0.05568
# Poissons Ratio (z) = 0.08385 0.24332
#
# Static dielectric constant tensor:
#      x y z
#    x 1.741760 0.000000 0.014370 
#    y 0.000000 1.723670 0.000000 
#    z 0.014370 0.000000 1.777650 
# 
# From -- ./inp_files/39983.got.cif
#   From: 2010.05.17/outbox.cif.g08.bks.cpg/sg11_20_cif.got.tgz:39983.got - 2010.06.03 12:22:45.
