data_PCOD9166761
_publ_section_title
;
Structure prediction by ZEFSAII (Michael W. Deem and Ramdas Pophale) SiO2 
 PCOD9166761
Probable space group: P 21/M
;
_chemical_formula_sum "Si O2"
_cell_formula_units_Z 20
_cell_length_a 12.611993
_cell_length_b 8.720685
_cell_length_c 12.141075
_cell_angle_alpha 90.000000
_cell_angle_beta 47.809217
_cell_angle_gamma 90.000000
_cell_volume 989.369389
_symmetry_space_group_name_H-M "P 21/M"
_symmetry_group_IT_number 11
_symmetry_cell_setting 'monoclinic'
loop_
_space_group_symop_operation_xyz
x,y,z
-x,1/2+y,-z
-x,-y,-z
x,1/2-y,z
loop_
_atom_site_type_symbol
_atom_site_label
_atom_site_fract_x
_atom_site_fract_y
_atom_site_fract_z
Si Si1 0.739229 0.932156 0.372450
Si Si2 0.075733 0.567297 0.149441
Si Si3 0.138516 0.067901 0.341051
Si Si4 0.327557 0.932841 0.811882
Si Si5 0.614482 0.432298 0.684019
O O1 0.717543 0.750000 0.402431
O O2 0.909031 0.962793 0.243658
O O3 0.666215 0.988455 0.311487
O O4 0.681605 0.018737 0.519635
O O5 0.090351 0.750000 0.160886
O O6 0.124076 0.477146 0.223887
O O7 0.178351 0.529223 0.975990
O O8 0.139920 0.250000 0.354851
O O9 0.279591 0.996567 0.297221
O O10 0.000000 0.000000 0.500000
O O11 0.337568 0.750000 0.791562
O O12 0.458074 0.992511 0.794709
O O13 0.604545 0.250000 0.698588
#
# Coordination Sequence:
#
# PCOD9166761 Si02
#       5
#     4   4   4   4   4
#     4  11  22  40  66  94 127 167 212 261 311 373
#     4  10  23  42  66  94 127 167 211 258 311 372
#     4  12  24  41  67  95 125 162 208 259 312 373
#     4  11  24  42  63  93 131 168 209 260 315 372
#     4  12  25  42  65  93 126 168 213 260 313 371
#
# _framework density 20.214896
#
# number of rings (size 3 to 8) (size 9 to 14) (size 15 to 20)
#    0.000    0.800    2.000    6.000    0.000    3.200 
#    0.000    0.000    0.000    0.000    0.000    0.000 
#    0.000    0.000    0.000    0.000    0.000    0.000 
#
# Total GULP energy -111981.424067 kJ/mol
# GULP energy per Si atom -5599.071203 kJ/mol
# Density = 2.016889 g / cm^3
# Si number density = 20.214896 Si / 1000 Ang^3
#
#
#
# Elastic Constant Matrix: (Units=GPa)
#
#
# Indices 1 2 3 4 5 6 
#
# 1 80.5380 8.3554 -15.2881 0.0000 1.5850 0.0000
# 2 8.3554 47.2293 8.4873 0.0000 2.8450 0.0000
# 3 -15.2881 8.4873 38.0672 0.0000 -7.2890 0.0000
# 4 0.0000 0.0000 0.0000 26.2873 0.0000 2.6412
# 5 1.5850 2.8450 -7.2890 0.0000 36.0789 0.0000
# 6 0.0000 0.0000 0.0000 2.6412 0.0000 36.8521
#
#
#
# Elastic Compliance Matrix: (Units=1/GPa)
#
#
# Indices 1 2 3 4 5 6 
#
# 1 0.014052 -0.003747 0.006676 0.000000 0.001027 0.000000
# 2 -0.003747 0.023340 -0.007313 0.000000 -0.003153 0.000000
# 3 0.006676 -0.007313 0.031868 0.000000 0.006722 0.000000
# 4 0.000000 0.000000 0.000000 0.038317 0.000000 -0.002746
# 5 0.001027 -0.003153 0.006722 0.000000 0.029279 0.000000
# 6 0.000000 0.000000 0.000000 -0.002746 0.000000 0.027332
#
#
# Mechanical properties :
#
#
# Convention : Reuss Voigt Hill
#
# Bulk Modulus (GPa) = 16.53126 18.77149 17.65138
# Shear Modulus (GPa) = 25.89050 30.79566 28.34308
#
# Velocity S-wave (km/s) = 3.58266 3.90733 3.74851
# Velocity P-wave (km/s) = 5.03085 5.44632 5.24270
#
# Compressibility (1/GPa) = 0.06049146
#
# Stress axis : x y z
#
# Youngs Moduli (GPa) = 71.16279 42.84433 31.37966
#
# Poissons Ratio (x) = 0.16056 -0.20948
# Poissons Ratio (y) = 0.26668 0.22947
# Poissons Ratio (z) = -0.47506 0.31330
#
# Static dielectric constant tensor:
#      x y z
#    x 1.689240 0.000000 -0.022750 
#    y 0.000000 1.672260 0.000000 
#    z -0.022750 0.000000 1.705960 
# 
# From -- ./inp_files/15933.got.cif
#   From: 2010.05.17/outbox.cif.g08.bks.cpg/sg11_8_cif.got.tgz:15933.got - 2010.06.03 12:22:45.
