data_PCOD9166567
_publ_section_title
;
Structure prediction by ZEFSAII (Michael W. Deem and Ramdas Pophale) SiO2 
 PCOD9166567
Probable space group: P 21/M
;
_chemical_formula_sum "Si O2"
_cell_formula_units_Z 28
_cell_length_a 9.182943
_cell_length_b 13.171556
_cell_length_c 9.191854
_cell_angle_alpha 90.000000
_cell_angle_beta 80.075772
_cell_angle_gamma 90.000000
_cell_volume 1095.152070
_symmetry_space_group_name_H-M "P 21/M"
_symmetry_group_IT_number 11
_symmetry_cell_setting 'monoclinic'
loop_
_space_group_symop_operation_xyz
x,y,z
-x,1/2+y,-z
-x,-y,-z
x,1/2-y,z
loop_
_atom_site_type_symbol
_atom_site_label
_atom_site_fract_x
_atom_site_fract_y
_atom_site_fract_z
Si Si1 0.290852 0.135815 0.825587
Si Si2 0.337249 0.930017 0.000907
Si Si3 0.508332 0.367530 0.517617
Si Si4 0.013730 0.637408 0.006956
Si Si5 0.404061 0.072261 0.231511
Si Si6 0.075173 0.432484 0.281775
Si Si7 0.848693 0.135408 0.557726
O O1 0.330563 0.250000 0.873546
O O2 0.382195 0.122217 0.662491
O O3 0.318284 0.039285 0.923691
O O4 0.112516 0.134546 0.847951
O O5 0.182485 0.874725 0.023371
O O6 0.469451 0.877411 0.890454
O O7 0.380974 0.962954 0.155369
O O8 0.497933 0.250000 0.469858
O O9 0.533684 0.568713 0.617329
O O10 0.678112 0.379261 0.538831
O O11 0.998223 0.750000 0.943672
O O12 0.974374 0.565175 0.877462
O O13 0.239085 0.116857 0.260562
O O14 0.098799 0.543602 0.348568
O O15 0.952911 0.375884 0.397959
O O16 0.862628 0.250000 0.615689
#
# Coordination Sequence:
#
# PCOD9166567 Si02
#       7
#     4   4   4   4   4   4   4
#     4  10  22  42  73 103 140 188 240 298 355 428
#     4  11  24  46  71 105 147 185 241 297 364 436
#     4  10  23  46  74 107 146 193 245 293 359 437
#     4  11  24  46  74 102 141 194 246 301 367 436
#     4  11  25  42  69 105 143 186 237 302 362 428
#     4  11  23  42  71 107 146 187 246 310 361 431
#     4  10  23  44  69 105 151 197 243 299 369 438
#
# _framework density 25.567226000000002
#
# number of rings (size 3 to 8) (size 9 to 14) (size 15 to 20)
#    0.000    1.429    1.429    2.571    0.000    8.000 
#    0.000    5.000    0.000    0.000    0.000    5.000 
#    0.000    0.000    0.000    0.000    0.000    0.000 
#
# Total GULP energy -156717.448632 kJ/mol
# GULP energy per Si atom -5597.051737 kJ/mol
# Density = 2.550903 g / cm^3
# Si number density = 25.567226 Si / 1000 Ang^3
#
#
#
# Elastic Constant Matrix: (Units=GPa)
#
#
# Indices 1 2 3 4 5 6 
#
# 1 191.2701 39.5651 101.6761 0.0000 -30.0390 0.0000
# 2 39.5651 128.0126 34.7876 0.0000 -6.9317 0.0000
# 3 101.6761 34.7876 169.9066 0.0000 -25.7389 0.0000
# 4 0.0000 0.0000 0.0000 23.6870 0.0000 -0.8806
# 5 -30.0390 -6.9317 -25.7389 0.0000 61.5982 0.0000
# 6 0.0000 0.0000 0.0000 -0.8806 0.0000 30.5331
#
#
#
# Elastic Compliance Matrix: (Units=1/GPa)
#
#
# Indices 1 2 3 4 5 6 
#
# 1 0.008069 -0.001224 -0.004273 0.000000 0.002012 0.000000
# 2 -0.001224 0.008461 -0.001010 0.000000 -0.000067 0.000000
# 3 -0.004273 -0.001010 0.008879 0.000000 0.001512 0.000000
# 4 0.000000 0.000000 0.000000 0.042263 0.000000 0.001219
# 5 0.002012 -0.000067 0.001512 0.000000 0.017840 0.000000
# 6 0.000000 0.000000 0.000000 0.001219 0.000000 0.032787
#
#
# Mechanical properties :
#
#
# Convention : Reuss Voigt Hill
#
# Bulk Modulus (GPa) = 80.68299 93.47189 87.07744
# Shear Modulus (GPa) = 36.91589 44.04102 40.47845
#
# Velocity S-wave (km/s) = 3.80396 4.15487 3.98328
# Velocity P-wave (km/s) = 7.13577 7.72372 7.43556
#
# Compressibility (1/GPa) = 0.01239419
#
# Stress axis : x y z
#
# Youngs Moduli (GPa) = 123.93281 118.19179 112.62795
#
# Poissons Ratio (x) = 0.14463 0.48130
# Poissons Ratio (y) = 0.15165 0.11377
# Poissons Ratio (z) = 0.52961 0.11939
#
# Static dielectric constant tensor:
#      x y z
#    x 2.000930 0.000000 -0.012900 
#    y 0.000000 2.076330 0.000000 
#    z -0.012900 0.000000 2.005140 
# 
# From -- ./inp_files/31661.got.cif
#   From: 2010.05.17/outbox.cif.g08.bks.cpg/sg11_16_cif.got.tgz:31661.got - 2010.06.03 12:22:45.
