data_PCOD9166498
_publ_section_title
;
Structure prediction by ZEFSAII (Michael W. Deem and Ramdas Pophale) SiO2 
 PCOD9166498
Probable space group: P 21/M
;
_chemical_formula_sum "Si O2"
_cell_formula_units_Z 26
_cell_length_a 12.054195
_cell_length_b 21.275396
_cell_length_c 8.776274
_cell_angle_alpha 90.000000
_cell_angle_beta 145.002882
_cell_angle_gamma 90.000000
_cell_volume 1290.880797
_symmetry_space_group_name_H-M "P 21/M"
_symmetry_group_IT_number 11
_symmetry_cell_setting 'monoclinic'
loop_
_space_group_symop_operation_xyz
x,y,z
-x,1/2+y,-z
-x,-y,-z
x,1/2-y,z
loop_
_atom_site_type_symbol
_atom_site_label
_atom_site_fract_x
_atom_site_fract_y
_atom_site_fract_z
Si Si1 0.605223 0.147943 0.413541
Si Si2 0.485211 0.431099 0.552392
Si Si3 0.707941 0.250000 0.912711
Si Si4 0.208611 0.610417 0.889265
Si Si5 0.902239 0.955200 0.762786
Si Si6 0.673634 0.041860 0.263180
Si Si7 0.092067 0.750000 0.185096
Si Si8 0.640767 0.750000 0.724262
O O1 0.607198 0.110445 0.573584
O O2 0.580642 0.099717 0.250985
O O3 0.797386 0.189970 0.618527
O O4 0.423952 0.192317 0.242400
O O5 0.500000 0.500000 0.500000
O O6 0.261682 0.415948 0.330753
O O7 0.594735 0.422586 0.832300
O O8 0.850798 0.250000 0.928484
O O9 0.498136 0.250000 0.585289
O O10 0.749107 0.185504 0.052478
O O11 0.185163 0.576299 0.700167
O O12 0.044280 0.588455 0.823756
O O13 0.793787 0.000321 0.519395
O O14 0.000000 0.000000 0.000000
O O15 0.500000 0.000000 0.000000
O O16 0.864862 0.750000 0.944465
#
# Coordination Sequence:
#
# PCOD9166498 Si02
#       8
#     4   4   2   4   4   4   2   2
#     4  10  22  42  67 100 132 181 230 280 340 406
#     4  12  20  41  65 100 135 174 226 284 340 401
#     4  10  24  42  66  99 136 185 225 290 341 406
#     4  12  24  45  66  99 142 182 231 280 352 417
#     4  12  26  41  73 105 131 188 237 283 340 417
#     4  12  25  46  69 101 148 179 218 294 364 417
#     4  10  22  43  67 100 134 178 245 287 323 403
#     4  10  22  41  73  97 132 179 240 285 324 409
#
# _framework density 20.141287999999999
#
# number of rings (size 3 to 8) (size 9 to 14) (size 15 to 20)
#    0.000    0.923    7.692    0.462    2.154    1.231 
#    2.769    0.000    0.000    0.000    0.000    0.000 
#    0.000    0.000    0.000    0.000    0.000    0.000 
#
# Total GULP energy -144990.263911 kJ/mol
# GULP energy per Si atom -5576.548612 kJ/mol
# Density = 2.009545 g / cm^3
# Si number density = 20.141288 Si / 1000 Ang^3
#
#
#
# Elastic Constant Matrix: (Units=GPa)
#
#
# Indices 1 2 3 4 5 6 
#
# 1 102.1180 42.8414 44.8788 0.0000 16.6133 0.0000
# 2 42.8414 140.1486 51.2839 0.0000 -2.0506 0.0000
# 3 44.8788 51.2839 94.0246 0.0000 15.1705 0.0000
# 4 0.0000 0.0000 0.0000 12.0919 0.0000 -26.8179
# 5 16.6133 -2.0506 15.1705 0.0000 41.8679 0.0000
# 6 0.0000 0.0000 0.0000 -26.8179 0.0000 13.8261
#
#
#
# Elastic Compliance Matrix: (Units=1/GPa)
#
#
# Indices 1 2 3 4 5 6 
#
# 1 0.013421 -0.002552 -0.004391 0.000000 -0.003859 0.000000
# 2 -0.002552 0.009620 -0.004533 0.000000 0.003127 0.000000
# 3 -0.004391 -0.004533 0.015888 0.000000 -0.004236 0.000000
# 4 0.000000 0.000000 0.000000 -0.025047 0.000000 -0.048582
# 5 -0.003859 0.003127 -0.004236 0.000000 0.027104 0.000000
# 6 0.000000 0.000000 0.000000 -0.048582 0.000000 -0.021905
#
#
# Mechanical properties :
#
#
# Convention : Reuss Voigt Hill
#
# Bulk Modulus (GPa) = 62.59715 68.25549 65.42632
# Shear Modulus (GPa) = 105.57427 26.70965 66.14196
#
# Velocity S-wave (km/s) = 7.24780 3.64554 5.73675
# Velocity P-wave (km/s) = 10.05919 7.18901 8.74269
#
# Compressibility (1/GPa) = 0.01597517
#
# Stress axis : x y z
#
# Youngs Moduli (GPa) = 74.50982 103.94930 62.94203
#
# Poissons Ratio (x) = 0.26530 0.27639
# Poissons Ratio (y) = 0.19017 0.28534
# Poissons Ratio (z) = 0.32719 0.47124
#
# Static dielectric constant tensor:
#      x y z
#    x 1.743130 0.000000 -0.019710 
#    y 0.000000 1.635390 0.000000 
#    z -0.019710 0.000000 1.737280 
# 
# From -- ./inp_files/19484.got.cif
#   From: 2010.05.17/outbox.cif.g08.bks.cpg/sg11_10_cif.got.tgz:19484.got - 2010.06.03 12:22:45.
