data_PCOD9166560
_publ_section_title
;
Structure prediction by ZEFSAII (Michael W. Deem and Ramdas Pophale) SiO2 
 PCOD9166560
Probable space group: P 21/M
;
_chemical_formula_sum "Si O2"
_cell_formula_units_Z 20
_cell_length_a 7.439515
_cell_length_b 19.099190
_cell_length_c 8.979598
_cell_angle_alpha 90.000000
_cell_angle_beta 32.882670
_cell_angle_gamma 90.000000
_cell_volume 692.711955
_symmetry_space_group_name_H-M "P 21/M"
_symmetry_group_IT_number 11
_symmetry_cell_setting 'monoclinic'
loop_
_space_group_symop_operation_xyz
x,y,z
-x,1/2+y,-z
-x,-y,-z
x,1/2-y,z
loop_
_atom_site_type_symbol
_atom_site_label
_atom_site_fract_x
_atom_site_fract_y
_atom_site_fract_z
Si Si1 0.647441 0.456259 0.162474
Si Si2 0.925113 0.065962 0.658250
Si Si3 0.041852 0.750000 0.366992
Si Si4 0.377454 0.379388 0.825095
Si Si5 0.789539 0.750000 0.861381
Si Si6 0.522151 0.328955 0.394093
O O1 0.286430 0.443068 0.488209
O O2 0.732989 0.537948 0.116977
O O3 0.778288 0.382791 0.139844
O O4 0.669502 0.442157 0.971711
O O5 0.724223 0.112338 0.678530
O O6 0.000000 0.000000 0.500000
O O7 0.830692 0.815991 0.450412
O O8 0.415169 0.750000 0.051155
O O9 0.026174 0.750000 0.555394
O O10 0.196271 0.321557 0.054223
O O11 0.457021 0.347918 0.609143
O O12 0.658267 0.250000 0.288779
#
# Coordination Sequence:
#
# PCOD9166560 Si02
#       6
#     4   4   2   4   2   4
#     4  11  23  45  70 100 135 180 216 281 333 407
#     4  10  22  42  71 100 134 168 227 273 333 392
#     4  10  25  44  67  88 140 170 230 254 355 376
#     4  11  22  41  71  99 136 166 235 268 342 381
#     4  12  23  44  65  98 124 184 212 294 311 412
#     4  10  23  46  65  99 138 180 222 273 340 401
#
# _framework density 28.872029999999999
#
# number of rings (size 3 to 8) (size 9 to 14) (size 15 to 20)
#    0.600    0.800    1.000    5.400    0.000    3.200 
#    0.000   23.000    0.000    0.000    0.000    0.000 
#    0.000    0.000    0.000    0.000    0.000    0.000 
#
# Total GULP energy -111716.931311 kJ/mol
# GULP energy per Si atom -5585.846566 kJ/mol
# Density = 2.880632 g / cm^3
# Si number density = 28.872030 Si / 1000 Ang^3
#
#
#
# Elastic Constant Matrix: (Units=GPa)
#
#
# Indices 1 2 3 4 5 6 
#
# 1 81.3938 44.0749 54.3310 0.0000 38.7765 0.0000
# 2 44.0749 190.5609 45.8150 0.0000 22.5148 0.0000
# 3 54.3310 45.8150 115.0959 0.0000 24.5796 0.0000
# 4 0.0000 0.0000 0.0000 46.6362 0.0000 8.4832
# 5 38.7765 22.5148 24.5796 0.0000 60.8583 0.0000
# 6 0.0000 0.0000 0.0000 8.4832 0.0000 58.3793
#
#
#
# Elastic Compliance Matrix: (Units=1/GPa)
#
#
# Indices 1 2 3 4 5 6 
#
# 1 0.024442 -0.002341 -0.008170 0.000000 -0.011408 0.000000
# 2 -0.002341 0.006127 -0.001279 0.000000 -0.000259 0.000000
# 3 -0.008170 -0.001279 0.012959 0.000000 0.000444 0.000000
# 4 0.000000 0.000000 0.000000 0.022025 0.000000 -0.003200
# 5 -0.011408 -0.000259 0.000444 0.000000 0.023616 0.000000
# 6 0.000000 0.000000 0.000000 -0.003200 0.000000 0.017594
#
#
# Mechanical properties :
#
#
# Convention : Reuss Voigt Hill
#
# Bulk Modulus (GPa) = 50.12789 75.05470 62.59130
# Shear Modulus (GPa) = 36.49873 49.36343 42.93108
#
# Velocity S-wave (km/s) = 3.55935 4.13938 3.86027
# Velocity P-wave (km/s) = 5.85592 6.99271 6.44941
#
# Compressibility (1/GPa) = 0.01994897
#
# Stress axis : x y z
#
# Youngs Moduli (GPa) = 40.91397 163.20913 77.16719
#
# Poissons Ratio (x) = 0.38210 0.63042
# Poissons Ratio (y) = 0.09579 0.09866
# Poissons Ratio (z) = 0.33425 0.20867
#
# Static dielectric constant tensor:
#      x y z
#    x 2.581200 0.000000 -0.255620 
#    y 0.000000 2.882370 0.000000 
#    z -0.255620 0.000000 2.014180 
# 
# From -- ./inp_files/14185.got.cif
#   From: 2010.05.17/outbox.cif.g08.bks.cpg/sg11_8_cif.got.tgz:14185.got - 2010.06.03 12:22:45.
