data_PCOD9166351
_publ_section_title
;
Structure prediction by ZEFSAII (Michael W. Deem and Ramdas Pophale) SiO2 
 PCOD9166351
Probable space group: P 21/M
;
_chemical_formula_sum "Si O2"
_cell_formula_units_Z 24
_cell_length_a 7.215028
_cell_length_b 9.612577
_cell_length_c 16.174473
_cell_angle_alpha 90.000000
_cell_angle_beta 75.587465
_cell_angle_gamma 90.000000
_cell_volume 1086.476907
_symmetry_space_group_name_H-M "P 21/M"
_symmetry_group_IT_number 11
_symmetry_cell_setting 'monoclinic'
loop_
_space_group_symop_operation_xyz
x,y,z
-x,1/2+y,-z
-x,-y,-z
x,1/2-y,z
loop_
_atom_site_type_symbol
_atom_site_label
_atom_site_fract_x
_atom_site_fract_y
_atom_site_fract_z
Si Si1 0.604518 0.410972 0.104466
Si Si2 0.398805 0.250000 0.359225
Si Si3 0.930913 0.750000 0.711168
Si Si4 0.730383 0.250000 0.433141
Si Si5 0.217039 0.034389 0.501729
Si Si6 0.209110 0.415523 0.062576
Si Si7 0.120495 0.996274 0.793074
Si Si8 0.188976 0.250000 0.659073
O O1 0.654989 0.250000 0.079874
O O2 0.379680 0.426299 0.111165
O O3 0.682268 0.445037 0.186937
O O4 0.704969 0.516886 0.029465
O O5 0.294398 0.250000 0.282970
O O6 0.621279 0.250000 0.357611
O O7 0.319345 0.115052 0.416449
O O8 0.010039 0.882741 0.750031
O O9 0.044941 0.750000 0.611685
O O10 0.683125 0.387672 0.489027
O O11 0.212272 0.129168 0.583705
O O12 0.000000 0.000000 0.500000
O O13 0.163165 0.250000 0.058570
O O14 0.029040 0.503985 0.114030
O O15 0.156793 0.129018 0.733550
#
# Coordination Sequence:
#
# PCOD9166351 Si02
#       8
#     4   2   2   2   4   4   4   2
#     4  10  22  40  65  92 124 166 213 267 307 372
#     4  11  24  39  67  95 122 163 215 255 309 383
#     4  12  23  41  62  90 124 165 208 254 321 376
#     4  12  22  40  68  91 124 164 207 256 317 370
#     4  11  21  44  69  92 126 165 210 266 315 378
#     4  10  22  40  65  94 122 164 220 256 313 377
#     4  12  23  41  61  89 129 166 204 258 323 377
#     4  11  25  38  63  96 126 162 210 259 323 385
#
# _framework density 22.089748
#
# number of rings (size 3 to 8) (size 9 to 14) (size 15 to 20)
#    0.000    1.000    5.000    1.500    2.333    1.333 
#    0.000    0.000    7.333    0.000    0.000    0.000 
#    0.000    0.000    0.000    0.000    0.000    0.000 
#
# Total GULP energy -133657.048602 kJ/mol
# GULP energy per Si atom -5569.043692 kJ/mol
# Density = 2.203947 g / cm^3
# Si number density = 22.089748 Si / 1000 Ang^3
#
#
#
# Elastic Constant Matrix: (Units=GPa)
#
#
# Indices 1 2 3 4 5 6 
#
# 1 103.3484 29.3583 26.5173 0.0000 32.3305 0.0000
# 2 29.3583 145.7621 50.2307 0.0000 25.1643 0.0000
# 3 26.5173 50.2307 73.9289 0.0000 22.6078 0.0000
# 4 0.0000 0.0000 0.0000 46.3358 0.0000 2.4520
# 5 32.3305 25.1643 22.6078 0.0000 40.9186 0.0000
# 6 0.0000 0.0000 0.0000 2.4520 0.0000 64.8379
#
#
#
# Elastic Compliance Matrix: (Units=1/GPa)
#
#
# Indices 1 2 3 4 5 6 
#
# 1 0.013087 -0.000524 -0.001534 0.000000 -0.009171 0.000000
# 2 -0.000524 0.009212 -0.005373 0.000000 -0.002282 0.000000
# 3 -0.001534 -0.005373 0.019669 0.000000 -0.006352 0.000000
# 4 0.000000 0.000000 0.000000 0.021625 0.000000 -0.000818
# 5 -0.009171 -0.002282 -0.006352 0.000000 0.036598 0.000000
# 6 0.000000 0.000000 0.000000 -0.000818 0.000000 0.015454
#
#
# Mechanical properties :
#
#
# Convention : Reuss Voigt Hill
#
# Bulk Modulus (GPa) = 36.89065 59.47245 48.18155
# Shear Modulus (GPa) = 35.83153 44.88066 40.35610
#
# Velocity S-wave (km/s) = 4.03189 4.51237 4.27888
# Velocity P-wave (km/s) = 6.19769 7.35733 6.80227
#
# Compressibility (1/GPa) = 0.02710714
#
# Stress axis : x y z
#
# Youngs Moduli (GPa) = 76.40980 108.55868 50.84020
#
# Poissons Ratio (x) = 0.05691 0.07797
# Poissons Ratio (y) = 0.04006 0.27316
# Poissons Ratio (z) = 0.11718 0.58327
#
# Static dielectric constant tensor:
#      x y z
#    x 1.861080 0.000000 0.000170 
#    y 0.000000 1.717440 0.000000 
#    z 0.000170 0.000000 1.845960 
# 
# From -- ./inp_files/57407.got.cif
#   From: 2010.05.17/outbox.cif.g08.bks.cpg/sg11_29_cif.got.tgz:57407.got - 2010.06.03 12:22:45.
