data_PCOD9166265
_publ_section_title
;
Structure prediction by ZEFSAII (Michael W. Deem and Ramdas Pophale) SiO2 
 PCOD9166265
Probable space group: P 21/M
;
_chemical_formula_sum "Si O2"
_cell_formula_units_Z 28
_cell_length_a 10.128936
_cell_length_b 13.833174
_cell_length_c 11.086989
_cell_angle_alpha 90.000000
_cell_angle_beta 108.677639
_cell_angle_gamma 90.000000
_cell_volume 1471.644862
_symmetry_space_group_name_H-M "P 21/M"
_symmetry_group_IT_number 11
_symmetry_cell_setting 'monoclinic'
loop_
_space_group_symop_operation_xyz
x,y,z
-x,1/2+y,-z
-x,-y,-z
x,1/2-y,z
loop_
_atom_site_type_symbol
_atom_site_label
_atom_site_fract_x
_atom_site_fract_y
_atom_site_fract_z
Si Si1 0.820908 0.364288 0.872443
Si Si2 0.821014 0.363090 0.164018
Si Si3 0.862588 0.633534 0.037469
Si Si4 0.532892 0.059830 0.693038
Si Si5 0.627062 0.970811 0.124065
Si Si6 0.126903 0.134274 0.236693
Si Si7 0.426323 0.138403 0.412215
O O1 0.807612 0.250000 0.842608
O O2 0.692876 0.417141 0.772065
O O3 0.978194 0.393519 0.882266
O O4 0.811203 0.373876 0.015060
O O5 0.802832 0.250000 0.187560
O O6 0.705240 0.431231 0.185892
O O7 0.977117 0.398246 0.240533
O O8 0.853600 0.750000 0.039179
O O9 0.743246 0.588856 0.085032
O O10 0.844173 0.601600 0.892400
O O11 0.438482 0.082941 0.780964
O O12 0.486798 0.118854 0.562047
O O13 0.516073 0.946072 0.656883
O O14 0.500000 0.000000 0.000000
O O15 0.108212 0.250000 0.218195
O O16 0.259731 0.119722 0.359147
O O17 0.449589 0.250000 0.381653
#
# Coordination Sequence:
#
# PCOD9166265 Si02
#       7
#     4   4   4   4   4   4   4
#     4   9  18  36  59  84 115 154 195 234 275 338
#     4   9  19  34  55  83 117 153 188 229 286 343
#     4   9  20  35  57  87 117 151 189 233 291 344
#     4  11  23  37  59  89 113 150 195 233 288 340
#     4  12  23  34  53  92 123 147 176 234 305 345
#     4   8  16  34  58  81 105 150 200 231 271 331
#     4  10  22  40  60  80 110 153 200 241 274 331
#
# _framework density 19.026330000000002
#
# number of rings (size 3 to 8) (size 9 to 14) (size 15 to 20)
#    0.000    2.286    1.429    3.000    2.000    3.429 
#    0.000    0.714    0.000    0.000    0.000    0.000 
#    0.000    0.000    0.000    0.000    0.000    0.000 
#
# Total GULP energy -156253.859695 kJ/mol
# GULP energy per Si atom -5580.494989 kJ/mol
# Density = 1.898302 g / cm^3
# Si number density = 19.026330 Si / 1000 Ang^3
#
#
#
# Elastic Constant Matrix: (Units=GPa)
#
#
# Indices 1 2 3 4 5 6 
#
# 1 124.9701 28.6522 46.4687 0.0000 15.9033 0.0000
# 2 28.6522 73.5214 8.4810 0.0000 10.9602 0.0000
# 3 46.4687 8.4810 63.5822 0.0000 24.7955 0.0000
# 4 0.0000 0.0000 0.0000 11.6606 0.0000 10.1654
# 5 15.9033 10.9602 24.7955 0.0000 22.9994 0.0000
# 6 0.0000 0.0000 0.0000 10.1654 0.0000 29.1364
#
#
#
# Elastic Compliance Matrix: (Units=1/GPa)
#
#
# Indices 1 2 3 4 5 6 
#
# 1 0.012142 -0.004237 -0.010045 0.000000 0.004453 0.000000
# 2 -0.004237 0.016185 0.004836 0.000000 -0.009997 0.000000
# 3 -0.010045 0.004836 0.035568 0.000000 -0.033704 0.000000
# 4 0.000000 0.000000 0.000000 0.123244 0.000000 -0.042998
# 5 0.004453 -0.009997 -0.033704 0.000000 0.081500 0.000000
# 6 0.000000 0.000000 0.000000 -0.042998 0.000000 0.049323
#
#
# Mechanical properties :
#
#
# Convention : Reuss Voigt Hill
#
# Bulk Modulus (GPa) = 22.22071 47.69751 34.95911
# Shear Modulus (GPa) = 14.21040 24.65739 19.43390
#
# Velocity S-wave (km/s) = 2.73588 3.60385 3.19944
# Velocity P-wave (km/s) = 4.65664 6.51465 5.66237
#
# Compressibility (1/GPa) = 0.04500306
#
# Stress axis : x y z
#
# Youngs Moduli (GPa) = 82.35986 61.78531 28.11529
#
# Poissons Ratio (x) = 0.26178 0.28242
# Poissons Ratio (y) = 0.34895 -0.13597
# Poissons Ratio (z) = 0.82732 -0.29881
#
# Static dielectric constant tensor:
#      x y z
#    x 1.645880 0.000000 0.016980 
#    y 0.000000 1.727000 0.000000 
#    z 0.016980 0.000000 1.634270 
# 
# From -- ./inp_files/17673.got.cif
#   From: 2010.05.17/outbox.cif.g08.bks.cpg/sg11_9_cif.got.tgz:17673.got - 2010.06.03 12:22:45.
