data_PCOD9166927
_publ_section_title
;
Structure prediction by ZEFSAII (Michael W. Deem and Ramdas Pophale) SiO2 
 PCOD9166927
Probable space group: P 21/M
;
_chemical_formula_sum "Si O2"
_cell_formula_units_Z 20
_cell_length_a 13.869171
_cell_length_b 11.562714
_cell_length_c 11.775973
_cell_angle_alpha 90.000000
_cell_angle_beta 29.980545
_cell_angle_gamma 90.000000
_cell_volume 943.673094
_symmetry_space_group_name_H-M "P 21/M"
_symmetry_group_IT_number 11
_symmetry_cell_setting 'monoclinic'
loop_
_space_group_symop_operation_xyz
x,y,z
-x,1/2+y,-z
-x,-y,-z
x,1/2-y,z
loop_
_atom_site_type_symbol
_atom_site_label
_atom_site_fract_x
_atom_site_fract_y
_atom_site_fract_z
Si Si1 0.110727 0.118687 0.667736
Si Si2 0.398247 0.513022 0.225737
Si Si3 0.629114 0.617934 0.375546
Si Si4 0.229499 0.062360 0.009637
Si Si5 0.033488 0.626661 0.524123
O O1 0.052641 0.250000 0.722493
O O2 0.261003 0.088685 0.413301
O O3 0.226133 0.099241 0.667168
O O4 0.919243 0.042679 0.856024
O O5 0.244300 0.615485 0.366008
O O6 0.500000 0.500000 0.000000
O O7 0.563196 0.529619 0.150549
O O8 0.500000 0.500000 0.500000
O O9 0.542122 0.750000 0.479617
O O10 0.739136 0.620278 0.143288
O O11 0.124997 0.131348 0.216138
O O12 0.026836 0.750000 0.466212
O O13 0.000000 0.500000 0.500000
#
# Coordination Sequence:
#
# PCOD9166927 Si02
#       5
#     4   4   4   4   4
#     4  10  24  43  69 102 137 177 231 286 344 409
#     4  11  23  44  63  99 139 180 230 280 335 404
#     4  11  23  44  71 102 136 177 229 285 345 411
#     4  11  23  45  68  96 136 182 229 278 344 407
#     4  11  25  44  67 100 137 181 229 279 334 402
#
# _framework density 21.193781000000001
#
# number of rings (size 3 to 8) (size 9 to 14) (size 15 to 20)
#    0.000    1.200    4.000    1.200    0.000    7.200 
#    0.000    1.000    0.000    0.000    0.000    0.000 
#    0.000    0.000    0.000    0.000    0.000    0.000 
#
# Total GULP energy -111482.374572 kJ/mol
# GULP energy per Si atom -5574.118729 kJ/mol
# Density = 2.114554 g / cm^3
# Si number density = 21.193781 Si / 1000 Ang^3
#
#
#
# Elastic Constant Matrix: (Units=GPa)
#
#
# Indices 1 2 3 4 5 6 
#
# 1 124.4231 65.0631 26.3940 0.0000 -3.2882 0.0000
# 2 65.0631 199.8644 34.4332 0.0000 -21.2027 0.0000
# 3 26.3940 34.4332 84.5961 0.0000 -2.3396 0.0000
# 4 0.0000 0.0000 0.0000 -5.3174 0.0000 8.8111
# 5 -3.2882 -21.2027 -2.3396 0.0000 47.9348 0.0000
# 6 0.0000 0.0000 0.0000 8.8111 0.0000 15.3878
#
#
#
# Elastic Compliance Matrix: (Units=1/GPa)
#
#
# Indices 1 2 3 4 5 6 
#
# 1 0.009994 -0.003001 -0.001917 0.000000 -0.000735 0.000000
# 2 -0.003001 0.006542 -0.001654 0.000000 0.002607 0.000000
# 3 -0.001917 -0.001654 0.013086 0.000000 -0.000225 0.000000
# 4 0.000000 0.000000 0.000000 -0.096501 0.000000 0.055256
# 5 -0.000735 0.002607 -0.000225 0.000000 0.021953 0.000000
# 6 0.000000 0.000000 0.000000 0.055256 0.000000 0.033347
#
#
# Mechanical properties :
#
#
# Convention : Reuss Voigt Hill
#
# Bulk Modulus (GPa) = 60.69005 73.40714 67.04860
# Shear Modulus (GPa) = 708.42483 30.46726 369.44604
#
# Velocity S-wave (km/s) = 18.30263 3.79563 13.21728
# Velocity P-wave (km/s) = 21.80244 7.34305 16.26756
#
# Compressibility (1/GPa) = 0.01647717
#
# Stress axis : x y z
#
# Youngs Moduli (GPa) = 100.06417 152.86014 76.41712
#
# Poissons Ratio (x) = 0.45874 0.14648
# Poissons Ratio (y) = 0.30030 0.12642
# Poissons Ratio (z) = 0.19180 0.25288
#
# Static dielectric constant tensor:
#      x y z
#    x 1.794800 0.000000 0.008960 
#    y 0.000000 2.241460 0.000000 
#    z 0.008960 0.000000 1.772990 
# 
# From -- ./inp_files/39132.got.cif
#   From: 2010.05.17/outbox.cif.g08.bks.cpg/sg11_20_cif.got.tgz:39132.got - 2010.06.03 12:22:45.
