data_PCOD9166172
_publ_section_title
;
Structure prediction by ZEFSAII (Michael W. Deem and Ramdas Pophale) SiO2 
 PCOD9166172
Probable space group: P 21/M
;
_chemical_formula_sum "Si O2"
_cell_formula_units_Z 32
_cell_length_a 14.637570
_cell_length_b 8.099793
_cell_length_c 23.660656
_cell_angle_alpha 90.000000
_cell_angle_beta 149.303940
_cell_angle_gamma 90.000000
_cell_volume 1432.028433
_symmetry_space_group_name_H-M "P 21/M"
_symmetry_group_IT_number 11
_symmetry_cell_setting 'monoclinic'
loop_
_space_group_symop_operation_xyz
x,y,z
-x,1/2+y,-z
-x,-y,-z
x,1/2-y,z
loop_
_atom_site_type_symbol
_atom_site_label
_atom_site_fract_x
_atom_site_fract_y
_atom_site_fract_z
Si Si1 0.541791 0.450576 0.844392
Si Si2 0.582867 0.050122 0.656079
Si Si3 0.797748 0.050870 0.878091
Si Si4 0.818776 0.947936 0.559888
Si Si5 0.813531 0.939900 0.086659
Si Si6 0.678661 0.064035 0.123340
Si Si7 0.832271 0.935509 0.315500
Si Si8 0.832349 0.552913 0.697609
O O1 0.534566 0.250000 0.843126
O O2 0.655965 0.501643 0.850787
O O3 0.333982 0.509246 0.736535
O O4 0.663935 0.509797 0.962028
O O5 0.584742 0.250000 0.656205
O O6 0.719075 0.990569 0.776876
O O7 0.380214 0.999283 0.563130
O O8 0.645609 0.987995 0.628573
O O9 0.795812 0.250000 0.876426
O O10 0.000000 0.000000 0.000000
O O11 0.823028 0.750000 0.566214
O O12 0.843958 0.008188 0.638460
O O13 0.974110 0.991202 0.597440
O O14 0.781695 0.750000 0.085494
O O15 0.805108 0.056848 0.136728
O O16 0.021234 0.964481 0.183445
O O17 0.668074 0.250000 0.140138
O O18 0.740459 0.943131 0.204784
O O19 0.500000 0.000000 0.000000
O O20 0.861967 0.750000 0.351568
O O21 0.854266 0.750000 0.710496
#
# Coordination Sequence:
#
# PCOD9166172 Si02
#       8
#     4   4   4   4   4   4   4   4
#     4  10  22  39  59  85 120 158 199 250 303 353
#     4  10  22  41  63  87 115 153 202 251 301 359
#     4  10  22  42  66  90 117 151 194 247 304 357
#     4  10  22  39  59  84 120 160 197 244 300 357
#     4  12  23  34  54  85 120 159 199 242 292 355
#     4  12  22  34  52  79 118 160 200 242 292 348
#     4  11  22  36  57  84 118 160 202 244 292 352
#     4  11  22  36  57  86 121 159 197 244 301 360
#
# _framework density 22.345925999999999
#
# number of rings (size 3 to 8) (size 9 to 14) (size 15 to 20)
#    0.000    1.250    2.500    4.125    0.000    4.500 
#    0.000    0.625    0.000    0.000    0.000    0.000 
#    0.000    0.000    0.000    0.000    0.000    0.000 
#
# Total GULP energy -178536.391367 kJ/mol
# GULP energy per Si atom -5579.262230 kJ/mol
# Density = 2.229507 g / cm^3
# Si number density = 22.345926 Si / 1000 Ang^3
#
#
#
# Elastic Constant Matrix: (Units=GPa)
#
#
# Indices 1 2 3 4 5 6 
#
# 1 136.5051 9.9702 46.3754 0.0000 34.7792 0.0000
# 2 9.9702 45.8510 10.9574 0.0000 4.5772 0.0000
# 3 46.3754 10.9574 115.3169 0.0000 32.9495 0.0000
# 4 0.0000 0.0000 0.0000 20.2870 0.0000 7.7860
# 5 34.7792 4.5772 32.9495 0.0000 39.6382 0.0000
# 6 0.0000 0.0000 0.0000 7.7860 0.0000 17.6719
#
#
#
# Elastic Compliance Matrix: (Units=1/GPa)
#
#
# Indices 1 2 3 4 5 6 
#
# 1 0.009798 -0.000993 -0.001865 0.000000 -0.006932 0.000000
# 2 -0.000993 0.022452 -0.001629 0.000000 -0.000367 0.000000
# 3 -0.001865 -0.001629 0.011876 0.000000 -0.008047 0.000000
# 4 0.000000 0.000000 0.000000 0.059324 0.000000 -0.026137
# 5 -0.006932 -0.000367 -0.008047 0.000000 0.038042 0.000000
# 6 0.000000 0.000000 0.000000 -0.026137 0.000000 0.068103
#
#
# Mechanical properties :
#
#
# Convention : Reuss Voigt Hill
#
# Bulk Modulus (GPa) = 28.44868 48.03102 38.23985
# Shear Modulus (GPa) = 21.71210 30.87740 26.29475
#
# Velocity S-wave (km/s) = 3.12049 3.72128 3.43405
# Velocity P-wave (km/s) = 5.07365 6.32494 5.73353
#
# Compressibility (1/GPa) = 0.03515101
#
# Stress axis : x y z
#
# Youngs Moduli (GPa) = 102.06075 44.54014 84.20294
#
# Poissons Ratio (x) = 0.04422 0.15707
# Poissons Ratio (y) = 0.10133 0.13718
# Poissons Ratio (z) = 0.19039 0.07256
#
# Static dielectric constant tensor:
#      x y z
#    x 1.973110 0.000000 0.127650 
#    y 0.000000 1.806260 0.000000 
#    z 0.127650 0.000000 1.901740 
# 
# From -- ./inp_files/69169.got.cif
#   From: 2010.05.17/outbox.cif.g08.bks.cpg/sg11_35_cif.got.tgz:69169.got - 2010.06.03 12:22:45.
