data_PCOD9166045
_publ_section_title
;
Structure prediction by ZEFSAII (Michael W. Deem and Ramdas Pophale) SiO2 
 PCOD9166045
Probable space group: P 21/M
;
_chemical_formula_sum "Si O2"
_cell_formula_units_Z 32
_cell_length_a 29.015506
_cell_length_b 8.887058
_cell_length_c 22.725546
_cell_angle_alpha 90.000000
_cell_angle_beta 161.536424
_cell_angle_gamma 90.000000
_cell_volume 1855.892936
_symmetry_space_group_name_H-M "P 21/M"
_symmetry_group_IT_number 11
_symmetry_cell_setting 'monoclinic'
loop_
_space_group_symop_operation_xyz
x,y,z
-x,1/2+y,-z
-x,-y,-z
x,1/2-y,z
loop_
_atom_site_type_symbol
_atom_site_label
_atom_site_fract_x
_atom_site_fract_y
_atom_site_fract_z
Si Si1 0.562341 0.568828 0.635714
Si Si2 0.880573 0.431519 0.028032
Si Si3 0.274540 0.075868 0.706291
Si Si4 0.138086 0.433189 0.425000
Si Si5 0.952410 0.430800 0.880442
Si Si6 0.561810 0.932040 0.274925
Si Si7 0.410410 0.924115 0.977684
Si Si8 0.389764 0.929522 0.544323
O O1 0.500000 0.500000 0.500000
O O2 0.565656 0.750000 0.634837
O O3 0.461629 0.527151 0.569421
O O4 0.722619 0.504360 0.841321
O O5 0.870135 0.250000 0.013312
O O6 0.989152 0.475242 0.212779
O O7 0.955586 0.492362 0.059664
O O8 0.239502 0.250000 0.673623
O O9 0.164369 0.012488 0.523650
O O10 0.297230 0.000440 0.796699
O O11 0.431719 0.069322 0.863619
O O12 0.143118 0.250000 0.433227
O O13 0.277872 0.479107 0.554914
O O14 0.972454 0.250000 0.904280
O O15 0.781833 0.463892 0.664542
O O16 0.000000 0.500000 0.000000
O O17 0.559700 0.750000 0.272248
O O18 0.541189 0.991891 0.315283
O O19 0.444383 0.985011 0.084041
O O20 0.370625 0.750000 0.934974
O O21 0.405912 0.750000 0.570224
#
# Coordination Sequence:
#
# PCOD9166045 Si02
#       8
#     4   4   4   4   4   4   4   4
#     4  11  24  42  59  78 105 137 175 220 266 317
#     4  11  21  36  57  80 106 139 175 215 264 315
#     4   8  13  23  39  61  94 135 171 201 243 298
#     4   8  15  28  47  72 102 135 171 211 253 304
#     4  11  22  36  55  80 105 133 171 215 264 320
#     4   9  16  29  49  72 101 137 172 209 255 308
#     4   8  14  23  37  63  98 132 167 205 247 296
#     4  10  22  37  53  76 105 133 169 217 263 307
#
# _framework density 17.242374999999999
#
# number of rings (size 3 to 8) (size 9 to 14) (size 15 to 20)
#    0.000    2.500    1.250    3.375    0.000    3.000 
#    0.000    3.125    0.000    0.000    0.000    0.875 
#    0.000    0.000    0.000    0.000    0.000    0.000 
#
# Total GULP energy -178350.536919 kJ/mol
# GULP energy per Si atom -5573.454279 kJ/mol
# Density = 1.720313 g / cm^3
# Si number density = 17.242375 Si / 1000 Ang^3
#
#
#
# Elastic Constant Matrix: (Units=GPa)
#
#
# Indices 1 2 3 4 5 6 
#
# 1 71.6499 21.9415 20.7766 0.0000 -25.0024 0.0000
# 2 21.9415 27.6937 13.8574 0.0000 -9.5636 0.0000
# 3 20.7766 13.8574 50.0802 0.0000 -25.9516 0.0000
# 4 0.0000 0.0000 0.0000 24.2826 0.0000 -6.4733
# 5 -25.0024 -9.5636 -25.9516 0.0000 41.3723 0.0000
# 6 0.0000 0.0000 0.0000 -6.4733 0.0000 26.1662
#
#
#
# Elastic Compliance Matrix: (Units=1/GPa)
#
#
# Indices 1 2 3 4 5 6 
#
# 1 0.021603 -0.013678 -0.000075 0.000000 0.009846 0.000000
# 2 -0.013678 0.050933 -0.009780 0.000000 -0.002627 0.000000
# 3 -0.000075 -0.009780 0.031870 0.000000 0.017684 0.000000
# 4 0.000000 0.000000 0.000000 0.044089 0.000000 0.010907
# 5 0.009846 -0.002627 0.017684 0.000000 0.040607 0.000000
# 6 0.000000 0.000000 0.000000 0.010907 0.000000 0.040916
#
#
# Mechanical properties :
#
#
# Convention : Reuss Voigt Hill
#
# Bulk Modulus (GPa) = 17.44031 29.17497 23.30764
# Shear Modulus (GPa) = 16.88064 24.55412 20.71738
#
# Velocity S-wave (km/s) = 3.13233 3.77776 3.47008
# Velocity P-wave (km/s) = 4.81858 5.99882 5.44080
#
# Compressibility (1/GPa) = 0.05733844
#
# Stress axis : x y z
#
# Youngs Moduli (GPa) = 46.28957 19.63365 31.37794
#
# Poissons Ratio (x) = 0.26855 0.00236
# Poissons Ratio (y) = 0.63315 0.30688
# Poissons Ratio (z) = 0.00348 0.19202
#
# Static dielectric constant tensor:
#      x y z
#    x 1.584610 0.000000 -0.022150 
#    y 0.000000 1.583460 0.000000 
#    z -0.022150 0.000000 1.596300 
# 
# From -- ./inp_files/67165.got.cif
#   From: 2010.05.17/outbox.cif.g08.bks.cpg/sg11_34_cif.got.tgz:67165.got - 2010.06.03 12:22:45.
