data_PCOD9166748
_publ_section_title
;
Structure prediction by ZEFSAII (Michael W. Deem and Ramdas Pophale) SiO2 
 PCOD9166748
Probable space group: P 21/M
;
_chemical_formula_sum "Si O2"
_cell_formula_units_Z 28
_cell_length_a 20.927809
_cell_length_b 8.888527
_cell_length_c 9.485605
_cell_angle_alpha 90.000000
_cell_angle_beta 126.976384
_cell_angle_gamma 90.000000
_cell_volume 1409.619972
_symmetry_space_group_name_H-M "P 21/M"
_symmetry_group_IT_number 11
_symmetry_cell_setting 'monoclinic'
loop_
_space_group_symop_operation_xyz
x,y,z
-x,1/2+y,-z
-x,-y,-z
x,1/2-y,z
loop_
_atom_site_type_symbol
_atom_site_label
_atom_site_fract_x
_atom_site_fract_y
_atom_site_fract_z
Si Si1 0.930872 0.070854 0.312629
Si Si2 0.203765 0.929377 0.457518
Si Si3 0.618271 0.571977 0.811296
Si Si4 0.016472 0.569924 0.172149
Si Si5 0.482778 0.429737 0.823372
Si Si6 0.770424 0.572864 0.216440
Si Si7 0.329640 0.431168 0.435309
O O1 0.933947 0.250000 0.323934
O O2 0.845901 0.012362 0.251586
O O3 0.000000 0.000000 0.500000
O O4 0.953366 0.008609 0.190394
O O5 0.212905 0.750000 0.476078
O O6 0.108830 0.963356 0.335575
O O7 0.243051 0.006084 0.646381
O O8 0.247703 0.992798 0.377583
O O9 0.597629 0.750000 0.778745
O O10 0.547534 0.483635 0.794259
O O11 0.640237 0.524182 0.680963
O O12 0.695268 0.554943 0.013920
O O13 0.006873 0.750000 0.162504
O O14 0.000000 0.500000 0.000000
O O15 0.485666 0.250000 0.841757
O O16 0.397124 0.470018 0.641074
O O17 0.500000 0.500000 0.000000
O O18 0.788243 0.750000 0.252409
O O19 0.319620 0.250000 0.420507
#
# Coordination Sequence:
#
# PCOD9166748 Si02
#       7
#     4   4   4   4   4   4   4
#     4  12  24  41  65  93 125 165 212 263 316 375
#     4  11  24  41  62  91 124 163 209 257 311 371
#     4  10  23  42  64  93 125 160 204 253 308 368
#     4  11  25  43  63  91 126 166 212 263 320 376
#     4  11  23  40  65  94 125 164 206 250 305 366
#     4  11  23  40  64  92 123 163 209 258 314 373
#     4  10  23  42  63  90 126 165 204 253 311 369
#
# _framework density 19.863510000000002
#
# number of rings (size 3 to 8) (size 9 to 14) (size 15 to 20)
#    0.000    1.143    1.429    4.286    2.000    8.000 
#    0.000    0.000    0.000    0.000    0.000    0.000 
#    0.000    0.000    0.000    0.000    0.000    0.000 
#
# Total GULP energy -156594.934566 kJ/mol
# GULP energy per Si atom -5592.676234 kJ/mol
# Density = 1.981830 g / cm^3
# Si number density = 19.863510 Si / 1000 Ang^3
#
#
#
# Elastic Constant Matrix: (Units=GPa)
#
#
# Indices 1 2 3 4 5 6 
#
# 1 118.7224 39.4064 13.6700 0.0000 -16.4593 0.0000
# 2 39.4064 71.6396 30.6600 0.0000 7.1830 0.0000
# 3 13.6700 30.6600 64.6277 0.0000 -21.4037 0.0000
# 4 0.0000 0.0000 0.0000 24.6201 0.0000 -5.0155
# 5 -16.4593 7.1830 -21.4037 0.0000 35.5795 0.0000
# 6 0.0000 0.0000 0.0000 -5.0155 0.0000 41.4585
#
#
#
# Elastic Compliance Matrix: (Units=1/GPa)
#
#
# Indices 1 2 3 4 5 6 
#
# 1 0.013133 -0.011338 0.006707 0.000000 0.012399 0.000000
# 2 -0.011338 0.031273 -0.020313 0.000000 -0.023778 0.000000
# 3 0.006707 -0.020313 0.032565 0.000000 0.026794 0.000000
# 4 0.000000 0.000000 0.000000 0.041644 0.000000 0.005038
# 5 0.012399 -0.023778 0.026794 0.000000 0.054761 0.000000
# 6 0.000000 0.000000 0.000000 0.005038 0.000000 0.024730
#
#
# Mechanical properties :
#
#
# Convention : Reuss Voigt Hill
#
# Bulk Modulus (GPa) = 36.92227 46.94028 41.93128
# Shear Modulus (GPa) = 19.45373 31.74850 25.60111
#
# Velocity S-wave (km/s) = 3.13288 4.00225 3.59395
# Velocity P-wave (km/s) = 5.63160 6.71119 6.19496
#
# Compressibility (1/GPa) = 0.02708393
#
# Stress axis : x y z
#
# Youngs Moduli (GPa) = 76.14439 31.97664 30.70787
#
# Poissons Ratio (x) = 0.36254 -0.20597
# Poissons Ratio (y) = 0.86331 0.62377
# Poissons Ratio (z) = -0.51073 0.64954
#
# Static dielectric constant tensor:
#      x y z
#    x 2.902680 0.000000 -0.560400 
#    y 0.000000 1.660690 0.000000 
#    z -0.560400 0.000000 1.943490 
# 
# From -- ./inp_files/26202.got.cif
#   From: 2010.05.17/outbox.cif.g08.bks.cpg/sg11_14_cif.got.tgz:26202.got - 2010.06.03 12:22:45.
