data_PCOD9166573
_publ_section_title
;
Structure prediction by ZEFSAII (Michael W. Deem and Ramdas Pophale) SiO2 
 PCOD9166573
Probable space group: P 21/M
;
_chemical_formula_sum "Si O2"
_cell_formula_units_Z 16
_cell_length_a 5.230469
_cell_length_b 21.890161
_cell_length_c 7.253770
_cell_angle_alpha 90.000000
_cell_angle_beta 81.708633
_cell_angle_gamma 90.000000
_cell_volume 821.845209
_symmetry_space_group_name_H-M "P 21/M"
_symmetry_group_IT_number 11
_symmetry_cell_setting 'monoclinic'
loop_
_space_group_symop_operation_xyz
x,y,z
-x,1/2+y,-z
-x,-y,-z
x,1/2-y,z
loop_
_atom_site_type_symbol
_atom_site_label
_atom_site_fract_x
_atom_site_fract_y
_atom_site_fract_z
Si Si1 0.436566 0.885111 0.963855
Si Si2 0.922074 0.418886 0.687616
Si Si3 0.924763 0.821199 0.066116
Si Si4 0.716609 0.031223 0.351387
O O1 0.711827 0.854612 0.963900
O O2 0.410202 0.933050 0.803038
O O3 0.211605 0.834431 0.958987
O O4 0.340714 0.916565 0.164760
O O5 0.866944 0.424190 0.477658
O O6 0.083991 0.478550 0.728854
O O7 0.069991 0.358255 0.740380
O O8 0.872338 0.750000 0.091354
O O9 0.500000 0.000000 0.500000
#
# Coordination Sequence:
#
# PCOD9166573 Si02
#       4
#     4   4   4   4
#     4  10  23  40  66  89 125 162 205 257 311 363
#     4   9  23  38  63  92 129 161 202 257 311 375
#     4  10  22  43  64  87 122 170 213 252 301 369
#     4  11  22  38  64  99 127 158 204 259 319 376
#
# _framework density 19.468387
#
# number of rings (size 3 to 8) (size 9 to 14) (size 15 to 20)
#    1.500    0.500    0.000    3.000    7.000    2.000 
#    0.000    2.500    0.000    0.000    0.000    0.000 
#    0.000    0.000    0.000    0.000    0.000    0.000 
#
# Total GULP energy -89200.360775 kJ/mol
# GULP energy per Si atom -5575.022548 kJ/mol
# Density = 1.942408 g / cm^3
# Si number density = 19.468387 Si / 1000 Ang^3
#
#
#
# Elastic Constant Matrix: (Units=GPa)
#
#
# Indices 1 2 3 4 5 6 
#
# 1 61.8577 -5.5806 -6.8280 0.0000 11.7664 0.0000
# 2 -5.5806 75.1449 25.8151 0.0000 4.5086 0.0000
# 3 -6.8280 25.8151 28.4701 0.0000 -3.3699 0.0000
# 4 0.0000 0.0000 0.0000 7.9168 0.0000 2.8695
# 5 11.7664 4.5086 -3.3699 0.0000 14.5363 0.0000
# 6 0.0000 0.0000 0.0000 2.8695 0.0000 27.0936
#
#
#
# Elastic Compliance Matrix: (Units=1/GPa)
#
#
# Indices 1 2 3 4 5 6 
#
# 1 0.019551 0.002153 0.000806 0.000000 -0.016307 0.000000
# 2 0.002153 0.021206 -0.020252 0.000000 -0.013015 0.000000
# 3 0.000806 -0.020252 0.055881 0.000000 0.018584 0.000000
# 4 0.000000 0.000000 0.000000 0.131357 0.000000 -0.013912
# 5 -0.016307 -0.013015 0.018584 0.000000 0.090338 0.000000
# 6 0.000000 0.000000 0.000000 -0.013912 0.000000 0.038383
#
#
# Mechanical properties :
#
#
# Convention : Reuss Voigt Hill
#
# Bulk Modulus (GPa) = 16.11529 21.36508 18.74019
# Shear Modulus (GPa) = 12.13635 20.04709 16.09172
#
# Velocity S-wave (km/s) = 2.49948 3.21241 2.87811
# Velocity P-wave (km/s) = 4.07744 4.97570 4.54879
#
# Compressibility (1/GPa) = 0.06205286
#
# Stress axis : x y z
#
# Youngs Moduli (GPa) = 51.14768 47.15659 17.89504
#
# Poissons Ratio (x) = -0.10155 -0.01443
# Poissons Ratio (y) = -0.11014 0.36242
# Poissons Ratio (z) = -0.04124 0.95504
#
# Static dielectric constant tensor:
#      x y z
#    x 1.732380 0.000000 0.005090 
#    y 0.000000 1.662260 0.000000 
#    z 0.005090 0.000000 1.669850 
# 
# From -- ./inp_files/559.got.cif
#   From: 2010.05.17/outbox.cif.g08.bks.cpg/sg11_1_cif.got.tgz:559.got - 2010.06.03 12:22:45.
