data_PCOD9166420
_publ_section_title
;
Structure prediction by ZEFSAII (Michael W. Deem and Ramdas Pophale) SiO2 
 PCOD9166420
Probable space group: P 21/M
;
_chemical_formula_sum "Si O2"
_cell_formula_units_Z 24
_cell_length_a 12.116606
_cell_length_b 8.737874
_cell_length_c 12.256815
_cell_angle_alpha 90.000000
_cell_angle_beta 89.747197
_cell_angle_gamma 90.000000
_cell_volume 1297.657758
_symmetry_space_group_name_H-M "P 21/M"
_symmetry_group_IT_number 11
_symmetry_cell_setting 'monoclinic'
loop_
_space_group_symop_operation_xyz
x,y,z
-x,1/2+y,-z
-x,-y,-z
x,1/2-y,z
loop_
_atom_site_type_symbol
_atom_site_label
_atom_site_fract_x
_atom_site_fract_y
_atom_site_fract_z
Si Si1 0.328587 0.565600 0.030756
Si Si2 0.540646 0.565524 0.167626
Si Si3 0.588258 0.566072 0.415158
Si Si4 0.175385 0.566990 0.522460
Si Si5 0.079977 0.934100 0.091922
Si Si6 0.963867 0.566972 0.670702
O O1 0.330477 0.750000 0.024241
O O2 0.367597 0.499557 0.914832
O O3 0.421961 0.518434 0.118266
O O4 0.206133 0.518621 0.065403
O O5 0.545530 0.750000 0.164198
O O6 0.558578 0.516883 0.291791
O O7 0.500000 0.500000 0.500000
O O8 0.585843 0.750000 0.419042
O O9 0.709174 0.506740 0.445815
O O10 0.186512 0.750000 0.514444
O O11 0.128742 0.501966 0.409003
O O12 0.081411 0.531919 0.613103
O O13 0.075014 0.750000 0.091622
O O14 0.045592 0.996262 0.210021
O O15 0.000000 0.000000 0.000000
O O16 0.952452 0.750000 0.675635
#
# Coordination Sequence:
#
# PCOD9166420 Si02
#       6
#     4   4   4   4   4   4
#     4   9  20  39  61  85 115 154 197 241 296 353
#     4   9  20  39  61  86 116 152 195 244 296 352
#     4  11  24  39  60  91 123 157 202 250 301 359
#     4  10  22  41  64  88 121 160 199 249 305 361
#     4  11  24  39  60  89 123 160 200 249 301 356
#     4  10  22  41  64  91 120 156 203 249 302 364
#
# _framework density 18.494859999999999
#
# number of rings (size 3 to 8) (size 9 to 14) (size 15 to 20)
#    0.000    2.000    0.000    2.000    4.667    4.667 
#    0.000    0.000    0.000    0.000    0.000    0.000 
#    0.000    0.000    0.000    0.000    0.000    0.000 
#
# Total GULP energy -134094.593509 kJ/mol
# GULP energy per Si atom -5587.274730 kJ/mol
# Density = 1.845276 g / cm^3
# Si number density = 18.494860 Si / 1000 Ang^3
#
#
#
# Elastic Constant Matrix: (Units=GPa)
#
#
# Indices 1 2 3 4 5 6 
#
# 1 134.0264 51.1629 106.1376 0.0000 6.6310 0.0000
# 2 51.1629 46.9583 60.4981 0.0000 0.5851 0.0000
# 3 106.1376 60.4981 211.2642 0.0000 6.3439 0.0000
# 4 0.0000 0.0000 0.0000 36.4103 0.0000 -1.0161
# 5 6.6310 0.5851 6.3439 0.0000 14.4620 0.0000
# 6 0.0000 0.0000 0.0000 -1.0161 0.0000 33.4542
#
#
#
# Elastic Compliance Matrix: (Units=1/GPa)
#
#
# Indices 1 2 3 4 5 6 
#
# 1 0.015422 -0.011003 -0.004457 0.000000 -0.004671 0.000000
# 2 -0.011003 0.041716 -0.006606 0.000000 0.006255 0.000000
# 3 -0.004457 -0.006606 0.008912 0.000000 -0.001599 0.000000
# 4 0.000000 0.000000 0.000000 0.027488 0.000000 0.000835
# 5 -0.004671 0.006255 -0.001599 0.000000 0.071736 0.000000
# 6 0.000000 0.000000 0.000000 0.000835 0.000000 0.029917
#
#
# Mechanical properties :
#
#
# Convention : Reuss Voigt Hill
#
# Bulk Modulus (GPa) = 45.62213 91.98290 68.80251
# Shear Modulus (GPa) = 20.27333 28.49533 24.38433
#
# Velocity S-wave (km/s) = 3.31442 3.92945 3.63497
# Velocity P-wave (km/s) = 6.27441 8.39224 7.40938
#
# Compressibility (1/GPa) = 0.02191919
#
# Stress axis : x y z
#
# Youngs Moduli (GPa) = 64.84300 23.97143 112.20517
#
# Poissons Ratio (x) = 0.26375 0.50008
# Poissons Ratio (y) = 0.71344 0.74125
# Poissons Ratio (z) = 0.28899 0.15836
#
# Static dielectric constant tensor:
#      x y z
#    x 1.617460 0.000000 0.003370 
#    y 0.000000 1.627170 0.000000 
#    z 0.003370 0.000000 1.606140 
# 
# From -- ./inp_files/33797.got.cif
#   From: 2010.05.17/outbox.cif.g08.bks.cpg/sg11_17_cif.got.tgz:33797.got - 2010.06.03 12:22:45.
