data_PCOD9166982
_publ_section_title
;
Structure prediction by ZEFSAII (Michael W. Deem and Ramdas Pophale) SiO2 
 PCOD9166982
Probable space group: P 21/M
;
_chemical_formula_sum "Si O2"
_cell_formula_units_Z 22
_cell_length_a 6.971015
_cell_length_b 20.277903
_cell_length_c 7.392196
_cell_angle_alpha 90.000000
_cell_angle_beta 118.449661
_cell_angle_gamma 90.000000
_cell_volume 918.751353
_symmetry_space_group_name_H-M "P 21/M"
_symmetry_group_IT_number 11
_symmetry_cell_setting 'monoclinic'
loop_
_space_group_symop_operation_xyz
x,y,z
-x,1/2+y,-z
-x,-y,-z
x,1/2-y,z
loop_
_atom_site_type_symbol
_atom_site_label
_atom_site_fract_x
_atom_site_fract_y
_atom_site_fract_z
Si Si1 0.347816 0.399990 0.416778
Si Si2 0.366093 0.178187 0.056720
Si Si3 0.660818 0.062305 0.081901
Si Si4 0.967748 0.113576 0.526150
Si Si5 0.009000 0.750000 0.323201
Si Si6 0.794047 0.453874 0.757466
O O1 0.591026 0.407756 0.603985
O O2 0.280831 0.472018 0.313821
O O3 0.185533 0.380988 0.504845
O O4 0.334451 0.350261 0.243157
O O5 0.474532 0.250000 0.109196
O O6 0.508835 0.126814 0.008640
O O7 0.136610 0.193794 0.855385
O O8 0.819752 0.058115 0.981018
O O9 0.796854 0.071906 0.325759
O O10 0.500000 0.000000 0.000000
O O11 0.987562 0.068275 0.713798
O O12 0.883149 0.188286 0.517756
#
# Coordination Sequence:
#
# PCOD9166982 Si02
#       6
#     4   4   4   4   2   4
#     4  11  23  47  78 106 150 186 242 306 366 441
#     4  10  24  48  75 102 147 201 243 302 372 439
#     4  12  24  47  79 110 149 190 247 305 376 436
#     4  12  27  46  73 112 143 197 249 298 368 452
#     4  10  28  46  70 106 150 194 256 292 366 446
#     4  11  24  46  74 111 146 189 234 310 376 432
#
# _framework density 23.945546
#
# number of rings (size 3 to 8) (size 9 to 14) (size 15 to 20)
#    0.545    0.364    3.636    2.727    5.091    2.182 
#    1.636    0.000    0.000    0.000    0.000    0.000 
#    0.000    0.000    0.000    0.000    0.000    0.000 
#
# Total GULP energy -122671.289020 kJ/mol
# GULP energy per Si atom -5575.967683 kJ/mol
# Density = 2.389104 g / cm^3
# Si number density = 23.945546 Si / 1000 Ang^3
#
#
#
# Elastic Constant Matrix: (Units=GPa)
#
#
# Indices 1 2 3 4 5 6 
#
# 1 61.9388 21.4419 34.2531 0.0000 -16.2821 0.0000
# 2 21.4419 170.6683 34.5151 0.0000 -12.6742 0.0000
# 3 34.2531 34.5151 90.2334 0.0000 -16.1336 0.0000
# 4 0.0000 0.0000 0.0000 49.5527 0.0000 0.3258
# 5 -16.2821 -12.6742 -16.1336 0.0000 48.2424 0.0000
# 6 0.0000 0.0000 0.0000 0.3258 0.0000 20.8564
#
#
#
# Elastic Compliance Matrix: (Units=1/GPa)
#
#
# Indices 1 2 3 4 5 6 
#
# 1 0.021571 -0.000949 -0.006986 0.000000 0.004695 0.000000
# 2 -0.000949 0.006430 -0.001973 0.000000 0.000709 0.000000
# 3 -0.006986 -0.001973 0.014863 0.000000 0.002095 0.000000
# 4 0.000000 0.000000 0.000000 0.020183 0.000000 -0.000315
# 5 0.004695 0.000709 0.002095 0.000000 0.023200 0.000000
# 6 0.000000 0.000000 0.000000 -0.000315 0.000000 0.047952
#
#
# Mechanical properties :
#
#
# Convention : Reuss Voigt Hill
#
# Bulk Modulus (GPa) = 43.38459 55.91785 49.65122
# Shear Modulus (GPa) = 30.92202 39.23900 35.08051
#
# Velocity S-wave (km/s) = 3.59743 4.05245 3.83170
# Velocity P-wave (km/s) = 5.95086 6.73047 6.35263
#
# Compressibility (1/GPa) = 0.02304966
#
# Stress axis : x y z
#
# Youngs Moduli (GPa) = 46.35865 155.51816 67.27915
#
# Poissons Ratio (x) = 0.14752 0.47003
# Poissons Ratio (y) = 0.04397 0.13272
# Poissons Ratio (z) = 0.32387 0.30678
#
# Static dielectric constant tensor:
#      x y z
#    x 1.969900 0.000000 0.035420 
#    y 0.000000 1.884440 0.000000 
#    z 0.035420 0.000000 1.969840 
# 
# From -- ./inp_files/13334.got.cif
#   From: 2010.05.17/outbox.cif.g08.bks.cpg/sg11_7_cif.got.tgz:13334.got - 2010.06.03 12:22:45.
