data_PCOD9166924
_publ_section_title
;
Structure prediction by ZEFSAII (Michael W. Deem and Ramdas Pophale) SiO2 
 PCOD9166924
Probable space group: P 21/M
;
_chemical_formula_sum "Si O2"
_cell_formula_units_Z 22
_cell_length_a 9.271905
_cell_length_b 14.497338
_cell_length_c 8.786668
_cell_angle_alpha 90.000000
_cell_angle_beta 73.858787
_cell_angle_gamma 90.000000
_cell_volume 1134.526745
_symmetry_space_group_name_H-M "P 21/M"
_symmetry_group_IT_number 11
_symmetry_cell_setting 'monoclinic'
loop_
_space_group_symop_operation_xyz
x,y,z
-x,1/2+y,-z
-x,-y,-z
x,1/2-y,z
loop_
_atom_site_type_symbol
_atom_site_label
_atom_site_fract_x
_atom_site_fract_y
_atom_site_fract_z
Si Si1 0.753054 0.750000 0.973762
Si Si2 0.621496 0.389746 0.570156
Si Si3 0.071354 0.410027 0.900737
Si Si4 0.407590 0.750000 0.159073
Si Si5 0.153952 0.250000 0.395619
Si Si6 0.145979 0.750000 0.024884
Si Si7 0.827798 0.250000 0.344011
Si Si8 0.713783 0.585419 0.445457
O O1 0.761268 0.750000 0.790275
O O2 0.833724 0.842151 0.015504
O O3 0.583577 0.750000 0.079941
O O4 0.636255 0.337883 0.725438
O O5 0.726858 0.337159 0.419251
O O6 0.673454 0.494987 0.554139
O O7 0.447844 0.381007 0.570101
O O8 0.178994 0.436297 0.729313
O O9 0.938734 0.340633 0.888813
O O10 0.000000 0.500000 0.000000
O O11 0.315241 0.750000 0.031567
O O12 0.203414 0.161831 0.478742
O O13 0.979040 0.250000 0.399854
O O14 0.136243 0.750000 0.844841
#
# Coordination Sequence:
#
# PCOD9166924 Si02
#       8
#     2   4   4   2   2   2   2   4
#     4  11  24  45  65  96 133 170 218 270 324 388
#     4  10  24  43  66  95 131 170 220 270 324 393
#     4  11  23  45  68  93 132 177 216 270 325 385
#     4  11  23  45  65  95 131 171 219 274 322 395
#     4  12  25  41  67  99 132 171 219 273 321 392
#     4  11  25  41  65  95 130 178 219 268 333 377
#     4  11  23  42  64  93 134 170 219 279 320 386
#     4  11  24  43  68  96 129 177 219 265 332 391
#
# _framework density 19.391345000000001
#
# number of rings (size 3 to 8) (size 9 to 14) (size 15 to 20)
#    0.000    1.091    3.636    3.273    7.636    2.182 
#    0.000    1.818    0.000    0.000    0.000    0.000 
#    0.000    0.000    0.000    0.000    0.000    0.000 
#
# Total GULP energy -122928.999428 kJ/mol
# GULP energy per Si atom -5587.681792 kJ/mol
# Density = 1.934721 g / cm^3
# Si number density = 19.391345 Si / 1000 Ang^3
#
#
#
# Elastic Constant Matrix: (Units=GPa)
#
#
# Indices 1 2 3 4 5 6 
#
# 1 134.1959 68.9396 57.5709 0.0000 -4.5269 0.0000
# 2 68.9396 116.1548 39.2544 0.0000 4.3047 0.0000
# 3 57.5709 39.2544 104.6671 0.0000 -13.5677 0.0000
# 4 0.0000 0.0000 0.0000 8.4862 0.0000 -22.0562
# 5 -4.5269 4.3047 -13.5677 0.0000 34.8754 0.0000
# 6 0.0000 0.0000 0.0000 -22.0562 0.0000 12.4072
#
#
#
# Elastic Compliance Matrix: (Units=1/GPa)
#
#
# Indices 1 2 3 4 5 6 
#
# 1 0.012444 -0.005860 -0.004574 0.000000 0.000559 0.000000
# 2 -0.005860 0.012885 -0.002015 0.000000 -0.003135 0.000000
# 3 -0.004574 -0.002015 0.013460 0.000000 0.004891 0.000000
# 4 0.000000 0.000000 0.000000 -0.032549 0.000000 -0.057862
# 5 0.000559 -0.003135 0.004891 0.000000 0.031036 0.000000
# 6 0.000000 0.000000 0.000000 -0.057862 0.000000 -0.022263
#
#
# Mechanical properties :
#
#
# Convention : Reuss Voigt Hill
#
# Bulk Modulus (GPa) = 72.00089 76.28307 74.14198
# Shear Modulus (GPa) = 112.25502 23.77063 68.01282
#
# Velocity S-wave (km/s) = 7.61675 3.50499 5.92874
# Velocity P-wave (km/s) = 10.70347 7.47021 9.22953
#
# Compressibility (1/GPa) = 0.01388872
#
# Stress axis : x y z
#
# Youngs Moduli (GPa) = 80.36281 77.61184 74.29489
#
# Poissons Ratio (x) = 0.45483 0.33983
# Poissons Ratio (y) = 0.47095 0.14972
# Poissons Ratio (z) = 0.36759 0.15641
#
# Static dielectric constant tensor:
#      x y z
#    x 1.673890 0.000000 -0.001690 
#    y 0.000000 1.680030 0.000000 
#    z -0.001690 0.000000 1.641950 
# 
# From -- ./inp_files/12314.got.cif
#   From: 2010.05.17/outbox.cif.g08.bks.cpg/sg11_7_cif.got.tgz:12314.got - 2010.06.03 12:22:45.
