data_PCOD9166185
_publ_section_title
;
Structure prediction by ZEFSAII (Michael W. Deem and Ramdas Pophale) SiO2 
 PCOD9166185
Probable space group: P 21/M
;
_chemical_formula_sum "Si O2"
_cell_formula_units_Z 28
_cell_length_a 10.197424
_cell_length_b 24.485189
_cell_length_c 5.551609
_cell_angle_alpha 90.000000
_cell_angle_beta 57.301216
_cell_angle_gamma 90.000000
_cell_volume 1166.482992
_symmetry_space_group_name_H-M "P 21/M"
_symmetry_group_IT_number 11
_symmetry_cell_setting 'monoclinic'
loop_
_space_group_symop_operation_xyz
x,y,z
-x,1/2+y,-z
-x,-y,-z
x,1/2-y,z
loop_
_atom_site_type_symbol
_atom_site_label
_atom_site_fract_x
_atom_site_fract_y
_atom_site_fract_z
Si Si1 0.666996 0.337907 0.637982
Si Si2 0.885190 0.525015 0.919407
Si Si3 0.799477 0.454689 0.618164
Si Si4 0.379982 0.042963 0.510027
Si Si5 0.492039 0.161312 0.305232
Si Si6 0.021729 0.187502 0.232951
Si Si7 0.136332 0.187512 0.621389
O O1 0.704397 0.402636 0.628170
O O2 0.577681 0.327184 0.475097
O O3 0.837501 0.311903 0.455073
O O4 0.580582 0.321712 0.972070
O O5 0.800432 0.471478 0.894359
O O6 0.015844 0.551993 0.620740
O O7 0.745443 0.560693 0.162105
O O8 0.000000 0.500000 0.000000
O O9 0.723734 0.508655 0.574817
O O10 0.462446 0.095938 0.324019
O O11 0.500000 0.000000 0.500000
O O12 0.320386 0.186645 0.477642
O O13 0.083315 0.250000 0.153504
O O14 0.098156 0.162912 0.398009
O O15 0.056102 0.161815 0.936964
O O16 0.076893 0.250000 0.664519
#
# Coordination Sequence:
#
# PCOD9166185 Si02
#       7
#     4   4   4   4   4   4   4
#     4  12  26  42  65  98 136 171 218 271 326 395
#     4   9  21  37  57  85 113 166 219 266 316 366
#     4  10  22  39  60  86 125 170 221 271 314 375
#     4  11  22  39  60  85 132 172 218 260 324 384
#     4  12  27  41  66 102 132 179 216 269 337 381
#     4  10  23  45  73  98 129 173 215 270 334 395
#     4  10  23  46  72 100 131 167 218 273 328 396
#
# _framework density 24.003782000000001
#
# number of rings (size 3 to 8) (size 9 to 14) (size 15 to 20)
#    0.000    1.429    1.429    2.571    6.000    5.714 
#    0.000    0.000    0.000    0.000    0.000    0.000 
#    0.000    0.000    0.000    0.000    0.000    0.000 
#
# Total GULP energy -156430.443818 kJ/mol
# GULP energy per Si atom -5586.801565 kJ/mol
# Density = 2.394915 g / cm^3
# Si number density = 24.003782 Si / 1000 Ang^3
#
#
#
# Elastic Constant Matrix: (Units=GPa)
#
#
# Indices 1 2 3 4 5 6 
#
# 1 134.7351 -2.2991 19.5050 0.0000 17.8986 0.0000
# 2 -2.2991 53.7664 -11.8977 0.0000 11.0302 0.0000
# 3 19.5050 -11.8977 119.2624 0.0000 -0.0794 0.0000
# 4 0.0000 0.0000 0.0000 11.5353 0.0000 -10.9484
# 5 17.8986 11.0302 -0.0794 0.0000 46.8904 0.0000
# 6 0.0000 0.0000 0.0000 -10.9484 0.0000 45.5293
#
#
#
# Elastic Compliance Matrix: (Units=1/GPa)
#
#
# Indices 1 2 3 4 5 6 
#
# 1 0.008046 0.000735 -0.001245 0.000000 -0.003246 0.000000
# 2 0.000735 0.020072 0.001879 0.000000 -0.004999 0.000000
# 3 -0.001245 0.001879 0.008776 0.000000 0.000048 0.000000
# 4 0.000000 0.000000 0.000000 0.112327 0.000000 0.027011
# 5 -0.003246 -0.004999 0.000048 0.000000 0.023741 0.000000
# 6 0.000000 0.000000 0.000000 0.027011 0.000000 0.028459
#
#
# Mechanical properties :
#
#
# Convention : Reuss Voigt Hill
#
# Bulk Modulus (GPa) = 25.23288 35.37558 30.30423
# Shear Modulus (GPa) = 23.59666 40.95473 32.27570
#
# Velocity S-wave (km/s) = 3.13875 4.13507 3.67087
# Velocity P-wave (km/s) = 4.86523 6.12927 5.53346
#
# Compressibility (1/GPa) = 0.03963082
#
# Stress axis : x y z
#
# Youngs Moduli (GPa) = 124.28648 49.82158 113.94809
#
# Poissons Ratio (x) = -0.03660 0.14184
# Poissons Ratio (y) = -0.09129 -0.21410
# Poissons Ratio (z) = 0.15471 -0.09361
#
# Static dielectric constant tensor:
#      x y z
#    x 1.876130 0.000000 0.068980 
#    y 0.000000 1.975980 0.000000 
#    z 0.068980 0.000000 2.049860 
# 
# From -- ./inp_files/3348.got.cif
#   From: 2010.05.17/outbox.cif.g08.bks.cpg/sg11_2_cif.got.tgz:3348.got - 2010.06.03 12:22:45.
