data_PCOD9166003
_publ_section_title
;
Structure prediction by ZEFSAII (Michael W. Deem and Ramdas Pophale) SiO2 
 PCOD9166003
Probable space group: P 21/M
;
_chemical_formula_sum "Si O2"
_cell_formula_units_Z 18
_cell_length_a 8.054493
_cell_length_b 16.215247
_cell_length_c 8.562943
_cell_angle_alpha 90.000000
_cell_angle_beta 55.703874
_cell_angle_gamma 90.000000
_cell_volume 923.924716
_symmetry_space_group_name_H-M "P 21/M"
_symmetry_group_IT_number 11
_symmetry_cell_setting 'monoclinic'
loop_
_space_group_symop_operation_xyz
x,y,z
-x,1/2+y,-z
-x,-y,-z
x,1/2-y,z
loop_
_atom_site_type_symbol
_atom_site_label
_atom_site_fract_x
_atom_site_fract_y
_atom_site_fract_z
Si Si1 0.991544 0.414612 0.908456
Si Si2 0.372703 0.423359 0.503404
Si Si3 0.340134 0.250000 0.144785
Si Si4 0.996166 0.250000 0.099964
Si Si5 0.482014 0.750000 0.598464
Si Si6 0.473623 0.584978 0.926213
O O1 0.145216 0.425618 0.683939
O O2 0.761153 0.401517 0.982253
O O3 0.000000 0.500000 0.000000
O O4 0.050237 0.333748 0.977845
O O5 0.500000 0.500000 0.500000
O O6 0.461373 0.335446 0.512994
O O7 0.406229 0.423922 0.300219
O O8 0.113206 0.250000 0.202886
O O9 0.393230 0.250000 0.302539
O O10 0.441174 0.165518 0.032971
O O11 0.755300 0.250000 0.244914
O O12 0.500000 0.500000 0.000000
#
# Coordination Sequence:
#
# PCOD9166003 Si02
#       6
#     4   4   2   2   2   4
#     4  12  22  40  68  95 127 178 216 265 332 389
#     4  11  22  40  66  96 129 174 221 265 331 392
#     4  10  22  39  66  93 129 172 217 269 330 387
#     4  12  21  41  71  94 126 180 220 265 338 389
#     4  10  21  44  63  95 135 166 219 282 318 394
#     4  11  23  43  64  94 140 165 217 282 323 388
#
# _framework density 19.482105000000001
#
# number of rings (size 3 to 8) (size 9 to 14) (size 15 to 20)
#    0.000    0.889    6.667    2.000    0.000    0.889 
#    0.000    2.222    0.000    0.000    0.000    0.000 
#    0.000    0.000    0.000    0.000    0.000    0.000 
#
# Total GULP energy -100442.307719 kJ/mol
# GULP energy per Si atom -5580.128207 kJ/mol
# Density = 1.943776 g / cm^3
# Si number density = 19.482105 Si / 1000 Ang^3
#
#
#
# Elastic Constant Matrix: (Units=GPa)
#
#
# Indices 1 2 3 4 5 6 
#
# 1 108.5741 30.1202 39.0461 0.0000 -9.7624 0.0000
# 2 30.1202 192.7829 34.4905 0.0000 7.1479 0.0000
# 3 39.0461 34.4905 137.5320 0.0000 -32.7451 0.0000
# 4 0.0000 0.0000 0.0000 33.7676 0.0000 2.9692
# 5 -9.7624 7.1479 -32.7451 0.0000 17.6687 0.0000
# 6 0.0000 0.0000 0.0000 2.9692 0.0000 36.0287
#
#
#
# Elastic Compliance Matrix: (Units=1/GPa)
#
#
# Indices 1 2 3 4 5 6 
#
# 1 0.010560 -0.001387 -0.002017 0.000000 0.002657 0.000000
# 2 -0.001387 0.006423 -0.003612 0.000000 -0.010059 0.000000
# 3 -0.002017 -0.003612 0.015807 0.000000 0.029641 0.000000
# 4 0.000000 0.000000 0.000000 0.029830 0.000000 -0.002458
# 5 0.002657 -0.010059 0.029641 0.000000 0.117067 0.000000
# 6 0.000000 0.000000 0.000000 -0.002458 0.000000 0.027958
#
#
# Mechanical properties :
#
#
# Convention : Reuss Voigt Hill
#
# Bulk Modulus (GPa) = 53.31552 71.80028 62.55790
# Shear Modulus (GPa) = 21.93653 39.84183 30.88918
#
# Velocity S-wave (km/s) = 3.35921 4.52713 3.98617
# Velocity P-wave (km/s) = 6.51702 8.01629 7.30522
#
# Compressibility (1/GPa) = 0.01875626
#
# Stress axis : x y z
#
# Youngs Moduli (GPa) = 94.70058 155.68875 63.26409
#
# Poissons Ratio (x) = 0.21600 0.12763
# Poissons Ratio (y) = 0.13139 0.22850
# Poissons Ratio (z) = 0.19105 0.56231
#
# Static dielectric constant tensor:
#      x y z
#    x 1.675020 0.000000 0.022350 
#    y 0.000000 1.722280 0.000000 
#    z 0.022350 0.000000 1.680920 
# 
# From -- ./inp_files/13075.got.cif
#   From: 2010.05.17/outbox.cif.g08.bks.cpg/sg11_7_cif.got.tgz:13075.got - 2010.06.03 12:22:45.
