data_PCOD9166253
_publ_section_title
;
Structure prediction by ZEFSAII (Michael W. Deem and Ramdas Pophale) SiO2 
 PCOD9166253
Probable space group: P 21/M
;
_chemical_formula_sum "Si O2"
_cell_formula_units_Z 24
_cell_length_a 4.854096
_cell_length_b 21.838769
_cell_length_c 12.315509
_cell_angle_alpha 90.000000
_cell_angle_beta 129.561617
_cell_angle_gamma 90.000000
_cell_volume 1006.490106
_symmetry_space_group_name_H-M "P 21/M"
_symmetry_group_IT_number 11
_symmetry_cell_setting 'monoclinic'
loop_
_space_group_symop_operation_xyz
x,y,z
-x,1/2+y,-z
-x,-y,-z
x,1/2-y,z
loop_
_atom_site_type_symbol
_atom_site_label
_atom_site_fract_x
_atom_site_fract_y
_atom_site_fract_z
Si Si1 0.850755 0.180283 0.512247
Si Si2 0.904545 0.628049 0.752952
Si Si3 0.568436 0.911242 0.308825
Si Si4 0.332242 0.179123 0.090054
Si Si5 0.133013 0.507091 0.341204
Si Si6 0.718393 0.818794 0.175984
O O1 0.898962 0.250000 0.485003
O O2 0.466796 0.154371 0.386618
O O3 0.161467 0.132547 0.554288
O O4 0.919824 0.182232 0.660408
O O5 0.873014 0.638831 0.873800
O O6 0.946865 0.557185 0.734031
O O7 0.246836 0.664050 0.794924
O O8 0.499198 0.869871 0.185785
O O9 0.226034 0.938959 0.280158
O O10 0.811925 0.968928 0.334419
O O11 0.270713 0.250000 0.102765
O O12 0.243625 0.170350 0.941132
O O13 0.500000 0.500000 0.500000
O O14 0.562549 0.750000 0.150000
#
# Coordination Sequence:
#
# PCOD9166253 Si02
#       6
#     4   4   4   4   4   4
#     4   9  19  40  67  96 123 159 215 269 310 369
#     4  12  25  40  65  97 128 166 212 259 313 378
#     4  10  22  39  66  91 120 163 218 253 305 370
#     4  11  24  44  65  94 133 167 202 260 331 380
#     4  12  23  41  62  91 131 172 204 259 317 371
#     4   8  19  43  68  93 127 169 209 261 322 377
#
# _framework density 23.845241999999999
#
# number of rings (size 3 to 8) (size 9 to 14) (size 15 to 20)
#    1.000    0.667    1.667    3.000    2.333    1.333 
#    0.000   10.000    0.000    0.000    0.000    0.000 
#    0.000    0.000    0.000    0.000    0.000    0.000 
#
# Total GULP energy -134304.308072 kJ/mol
# GULP energy per Si atom -5596.012836 kJ/mol
# Density = 2.379097 g / cm^3
# Si number density = 23.845242 Si / 1000 Ang^3
#
#
#
# Elastic Constant Matrix: (Units=GPa)
#
#
# Indices 1 2 3 4 5 6 
#
# 1 73.4863 11.8146 12.8780 0.0000 4.1511 0.0000
# 2 11.8146 130.1431 34.2288 0.0000 -14.7831 0.0000
# 3 12.8780 34.2288 98.3804 0.0000 -1.7372 0.0000
# 4 0.0000 0.0000 0.0000 25.3641 0.0000 -25.1368
# 5 4.1511 -14.7831 -1.7372 0.0000 37.2804 0.0000
# 6 0.0000 0.0000 0.0000 -25.1368 0.0000 4.1587
#
#
#
# Elastic Compliance Matrix: (Units=1/GPa)
#
#
# Indices 1 2 3 4 5 6 
#
# 1 0.014171 -0.001130 -0.001499 0.000000 -0.002096 0.000000
# 2 -0.001130 0.008952 -0.002904 0.000000 0.003541 0.000000
# 3 -0.001499 -0.002904 0.011363 0.000000 -0.000455 0.000000
# 4 0.000000 0.000000 0.000000 -0.007901 0.000000 -0.047754
# 5 -0.002096 0.003541 -0.000455 0.000000 0.028440 0.000000
# 6 0.000000 0.000000 0.000000 -0.047754 0.000000 -0.048186
#
#
# Mechanical properties :
#
#
# Convention : Reuss Voigt Hill
#
# Bulk Modulus (GPa) = 42.69893 46.65029 44.67461
# Shear Modulus (GPa) = 194.45768 29.56654 112.01211
#
# Velocity S-wave (km/s) = 9.04029 3.52509 6.86124
# Velocity P-wave (km/s) = 11.26565 6.01453 9.03021
#
# Compressibility (1/GPa) = 0.02341979
#
# Stress axis : x y z
#
# Youngs Moduli (GPa) = 70.56798 111.70068 88.00311
#
# Poissons Ratio (x) = 0.12626 0.13189
# Poissons Ratio (y) = 0.07977 0.25559
# Poissons Ratio (z) = 0.10576 0.32441
#
# Static dielectric constant tensor:
#      x y z
#    x 1.903090 0.000000 -0.016410 
#    y 0.000000 1.890930 0.000000 
#    z -0.016410 0.000000 1.959180 
# 
# From -- ./inp_files/46165.got.cif
#   From: 2010.05.17/outbox.cif.g08.bks.cpg/sg11_24_cif.got.tgz:46165.got - 2010.06.03 12:22:45.
