data_PCOD9166427
_publ_section_title
;
Structure prediction by ZEFSAII (Michael W. Deem and Ramdas Pophale) SiO2 
 PCOD9166427
Probable space group: P 21/M
;
_chemical_formula_sum "Si O2"
_cell_formula_units_Z 32
_cell_length_a 24.580759
_cell_length_b 8.561094
_cell_length_c 14.543539
_cell_angle_alpha 90.000000
_cell_angle_beta 146.950551
_cell_angle_gamma 90.000000
_cell_volume 1669.091101
_symmetry_space_group_name_H-M "P 21/M"
_symmetry_group_IT_number 11
_symmetry_cell_setting 'monoclinic'
loop_
_space_group_symop_operation_xyz
x,y,z
-x,1/2+y,-z
-x,-y,-z
x,1/2-y,z
loop_
_atom_site_type_symbol
_atom_site_label
_atom_site_fract_x
_atom_site_fract_y
_atom_site_fract_z
Si Si1 0.525872 0.062403 0.822604
Si Si2 0.921920 0.938522 0.017201
Si Si3 0.712373 0.937394 0.198455
Si Si4 0.866886 0.561365 0.734061
Si Si5 0.888574 0.064194 0.333023
Si Si6 0.208004 0.060931 0.991452
Si Si7 0.670756 0.559601 0.347560
Si Si8 0.559154 0.562562 0.671465
O O1 0.530347 0.250000 0.830143
O O2 0.432673 0.009601 0.752920
O O3 0.514652 0.004832 0.702660
O O4 0.627478 0.995187 0.008554
O O5 0.924892 0.750000 0.021825
O O6 0.875858 0.988206 0.853499
O O7 0.855892 0.988774 0.010158
O O8 0.034583 0.001082 0.177793
O O9 0.715630 0.750000 0.201169
O O10 0.684059 0.990241 0.261100
O O11 0.818023 0.001790 0.314463
O O12 0.868344 0.750000 0.734421
O O13 0.765593 0.508413 0.542036
O O14 0.890297 0.250000 0.337568
O O15 0.000000 0.000000 0.500000
O O16 0.839235 0.007189 0.167899
O O17 0.204078 0.250000 0.979831
O O18 0.323899 0.016340 0.166029
O O19 0.670482 0.750000 0.347480
O O20 0.500000 0.500000 0.500000
O O21 0.554613 0.750000 0.666789
#
# Coordination Sequence:
#
# PCOD9166427 Si02
#       8
#     4   4   4   4   4   4   4   4
#     4  11  22  40  64  90 120 160 206 251 308 371
#     4   9  19  35  58  84 116 154 194 240 294 353
#     4  11  22  41  63  89 124 160 202 253 309 365
#     4   9  18  36  58  84 116 153 194 242 295 350
#     4  12  26  43  65  92 124 164 207 257 312 372
#     4  10  22  41  64  91 124 163 204 250 308 369
#     4   9  21  37  61  89 117 157 204 250 301 363
#     4  11  24  41  64  92 126 166 207 259 312 369
#
# _framework density 19.172111999999998
#
# number of rings (size 3 to 8) (size 9 to 14) (size 15 to 20)
#    0.000    1.750    1.250    2.625    3.500    1.000 
#    0.000    3.750    0.000    0.000    0.000    0.000 
#    0.000    0.000    0.000    0.000    0.000    0.000 
#
# Total GULP energy -178838.990208 kJ/mol
# GULP energy per Si atom -5588.718444 kJ/mol
# Density = 1.912847 g / cm^3
# Si number density = 19.172112 Si / 1000 Ang^3
#
#
#
# Elastic Constant Matrix: (Units=GPa)
#
#
# Indices 1 2 3 4 5 6 
#
# 1 170.0388 38.4358 64.5604 0.0000 20.7627 0.0000
# 2 38.4358 44.4480 34.2207 0.0000 3.9795 0.0000
# 3 64.5604 34.2207 132.0132 0.0000 12.0006 0.0000
# 4 0.0000 0.0000 0.0000 25.1635 0.0000 10.1691
# 5 20.7627 3.9795 12.0006 0.0000 18.1377 0.0000
# 6 0.0000 0.0000 0.0000 10.1691 0.0000 17.7220
#
#
#
# Elastic Compliance Matrix: (Units=1/GPa)
#
#
# Indices 1 2 3 4 5 6 
#
# 1 0.008841 -0.005210 -0.002295 0.000000 -0.007459 0.000000
# 2 -0.005210 0.031214 -0.005812 0.000000 0.002962 0.000000
# 3 -0.002295 -0.005812 0.010480 0.000000 -0.003031 0.000000
# 4 0.000000 0.000000 0.000000 0.051738 0.000000 -0.029688
# 5 -0.007459 0.002962 -0.003031 0.000000 0.065028 0.000000
# 6 0.000000 0.000000 0.000000 -0.029688 0.000000 0.073462
#
#
# Mechanical properties :
#
#
# Convention : Reuss Voigt Hill
#
# Bulk Modulus (GPa) = 41.84319 68.99265 55.41792
# Shear Modulus (GPa) = 18.15783 26.15685 22.15734
#
# Velocity S-wave (km/s) = 3.08083 3.69767 3.40326
# Velocity P-wave (km/s) = 5.87603 7.36848 6.66417
#
# Compressibility (1/GPa) = 0.02389875
#
# Stress axis : x y z
#
# Youngs Moduli (GPa) = 113.11132 32.03731 95.42375
#
# Poissons Ratio (x) = 0.16693 0.21899
# Poissons Ratio (y) = 0.58935 0.55464
# Poissons Ratio (z) = 0.25958 0.18621
#
# Static dielectric constant tensor:
#      x y z
#    x 1.650590 0.000000 0.002350 
#    y 0.000000 1.651790 0.000000 
#    z 0.002350 0.000000 1.633990 
# 
# From -- ./inp_files/55756.got.cif
#   From: 2010.05.17/outbox.cif.g08.bks.cpg/sg11_28_cif.got.tgz:55756.got - 2010.06.03 12:22:45.
