data_PCOD9166378
_publ_section_title
;
Structure prediction by ZEFSAII (Michael W. Deem and Ramdas Pophale) SiO2 
 PCOD9166378
Probable space group: P 21/M
;
_chemical_formula_sum "Si O2"
_cell_formula_units_Z 32
_cell_length_a 7.026025
_cell_length_b 18.495907
_cell_length_c 11.505654
_cell_angle_alpha 90.000000
_cell_angle_beta 65.727476
_cell_angle_gamma 90.000000
_cell_volume 1363.016754
_symmetry_space_group_name_H-M "P 21/M"
_symmetry_group_IT_number 11
_symmetry_cell_setting 'monoclinic'
loop_
_space_group_symop_operation_xyz
x,y,z
-x,1/2+y,-z
-x,-y,-z
x,1/2-y,z
loop_
_atom_site_type_symbol
_atom_site_label
_atom_site_fract_x
_atom_site_fract_y
_atom_site_fract_z
Si Si1 0.401297 0.666742 0.813658
Si Si2 0.767718 0.059225 0.485987
Si Si3 0.224672 0.415545 0.359113
Si Si4 0.500661 0.394178 0.745740
Si Si5 0.812987 0.023445 0.206618
Si Si6 0.146047 0.329085 0.943532
Si Si7 0.273832 0.460877 0.079652
Si Si8 0.275615 0.832917 0.097348
O O1 0.340888 0.750000 0.808034
O O2 0.599635 0.645865 0.683793
O O3 0.234194 0.603881 0.828855
O O4 0.430382 0.659997 0.946476
O O5 0.593309 0.105576 0.593751
O O6 0.765948 0.032981 0.354734
O O7 0.984335 0.103477 0.440790
O O8 0.753101 0.985036 0.563914
O O9 0.256020 0.442987 0.219870
O O10 0.339542 0.330575 0.806991
O O11 0.671294 0.383916 0.806376
O O12 0.358521 0.466724 0.794923
O O13 0.048739 0.997829 0.118997
O O14 0.218108 0.110438 0.017682
O O15 0.124033 0.250000 0.004757
O O16 0.945690 0.340994 0.911877
O O17 0.500000 0.500000 0.000000
O O18 0.289324 0.750000 0.134784
#
# Coordination Sequence:
#
# PCOD9166378 Si02
#       8
#     4   4   4   4   4   4   4   4
#     4  11  23  45  72 104 144 191 249 310 375 449
#     4  10  23  45  68  98 147 193 248 305 371 432
#     4  10  22  40  69 101 138 197 243 301 374 430
#     4  12  24  42  73 107 147 192 249 303 366 443
#     4  11  25  45  74 111 145 199 251 313 372 445
#     4  11  25  46  73 106 151 197 239 303 384 453
#     4  11  24  44  75 113 151 190 252 308 373 458
#     4  10  24  47  72 106 154 198 238 306 390 456
#
# _framework density 23.477333999999999
#
# number of rings (size 3 to 8) (size 9 to 14) (size 15 to 20)
#    0.000    1.250    2.500    2.250    0.000    7.500 
#    0.000    4.375    0.000    0.750    0.000    0.000 
#    0.000    0.000    0.000    0.000    0.000    0.000 
#
# Total GULP energy -178527.609426 kJ/mol
# GULP energy per Si atom -5578.987795 kJ/mol
# Density = 2.342390 g / cm^3
# Si number density = 23.477334 Si / 1000 Ang^3
#
#
#
# Elastic Constant Matrix: (Units=GPa)
#
#
# Indices 1 2 3 4 5 6 
#
# 1 155.1883 54.4462 59.1129 0.0000 -22.2685 0.0000
# 2 54.4462 139.2963 49.8977 0.0000 -10.2986 0.0000
# 3 59.1129 49.8977 127.7292 0.0000 -8.0325 0.0000
# 4 0.0000 0.0000 0.0000 27.1999 0.0000 2.3726
# 5 -22.2685 -10.2986 -8.0325 0.0000 45.2203 0.0000
# 6 0.0000 0.0000 0.0000 2.3726 0.0000 24.5765
#
#
#
# Elastic Compliance Matrix: (Units=1/GPa)
#
#
# Indices 1 2 3 4 5 6 
#
# 1 0.008823 -0.002110 -0.003050 0.000000 0.003322 0.000000
# 2 -0.002110 0.008932 -0.002478 0.000000 0.000555 0.000000
# 3 -0.003050 -0.002478 0.010192 0.000000 -0.000256 0.000000
# 4 0.000000 0.000000 0.000000 0.037077 0.000000 -0.003579
# 5 0.003322 0.000555 -0.000256 0.000000 0.023831 0.000000
# 6 0.000000 0.000000 0.000000 -0.003579 0.000000 0.041035
#
#
# Mechanical properties :
#
#
# Convention : Reuss Voigt Hill
#
# Bulk Modulus (GPa) = 78.91778 83.23638 81.07708
# Shear Modulus (GPa) = 33.46941 36.64980 35.05960
#
# Velocity S-wave (km/s) = 3.77981 3.95533 3.86857
# Velocity P-wave (km/s) = 7.26201 7.50935 7.38672
#
# Compressibility (1/GPa) = 0.01267142
#
# Stress axis : x y z
#
# Youngs Moduli (GPa) = 113.34539 111.95127 98.11238
#
# Poissons Ratio (x) = 0.23626 0.29922
# Poissons Ratio (y) = 0.23920 0.24311
# Poissons Ratio (z) = 0.34567 0.27741
#
# Static dielectric constant tensor:
#      x y z
#    x 2.020090 0.000000 -0.053870 
#    y 0.000000 1.949330 0.000000 
#    z -0.053870 0.000000 1.912820 
# 
# From -- ./inp_files/19380.got.cif
#   From: 2010.05.17/outbox.cif.g08.bks.cpg/sg11_10_cif.got.tgz:19380.got - 2010.06.03 12:22:45.
