data_PCOD9166295
_publ_section_title
;
Structure prediction by ZEFSAII (Michael W. Deem and Ramdas Pophale) SiO2 
 PCOD9166295
Probable space group: P 21/M
;
_chemical_formula_sum "Si O2"
_cell_formula_units_Z 32
_cell_length_a 23.096417
_cell_length_b 7.805058
_cell_length_c 12.227642
_cell_angle_alpha 90.000000
_cell_angle_beta 144.059467
_cell_angle_gamma 90.000000
_cell_volume 1293.781874
_symmetry_space_group_name_H-M "P 21/M"
_symmetry_group_IT_number 11
_symmetry_cell_setting 'monoclinic'
loop_
_space_group_symop_operation_xyz
x,y,z
-x,1/2+y,-z
-x,-y,-z
x,1/2-y,z
loop_
_atom_site_type_symbol
_atom_site_label
_atom_site_fract_x
_atom_site_fract_y
_atom_site_fract_z
Si Si1 0.413863 0.544338 0.953680
Si Si2 0.843090 0.453646 0.954469
Si Si3 0.356916 0.959815 0.462811
Si Si4 0.430509 0.446993 0.227913
Si Si5 0.215049 0.551816 0.905122
Si Si6 0.944380 0.055991 0.752960
Si Si7 0.923662 0.944687 0.477975
Si Si8 0.731370 0.040441 0.448344
O O1 0.410513 0.750000 0.966630
O O2 0.428793 0.456696 0.092774
O O3 0.500000 0.500000 0.000000
O O4 0.314833 0.490676 0.737822
O O5 0.829809 0.250000 0.941619
O O6 0.743441 0.520144 0.747263
O O7 0.843362 0.518779 0.079470
O O8 0.947898 0.482613 0.058565
O O9 0.360387 0.750000 0.464512
O O10 0.461803 0.018755 0.576065
O O11 0.341386 0.010073 0.565313
O O12 0.422600 0.250000 0.250659
O O13 0.330608 0.540144 0.109474
O O14 0.189587 0.750000 0.847903
O O15 0.180956 0.457965 0.743860
O O16 0.946790 0.250000 0.796204
O O17 0.842143 0.975502 0.638106
O O18 0.930386 0.050606 0.599468
O O19 0.945251 0.750000 0.543601
O O20 0.000000 0.000000 0.500000
O O21 0.735631 0.250000 0.455468
#
# Coordination Sequence:
#
# PCOD9166295 Si02
#       8
#     4   4   4   4   4   4   4   4
#     4  11  20  35  60  89 122 157 194 240 300 364
#     4  10  22  40  62  83 114 160 205 248 296 350
#     4   9  19  39  62  84 114 158 205 247 294 352
#     4  11  22  38  62  89 118 157 203 248 299 359
#     4  11  23  39  59  88 123 157 197 246 302 356
#     4  11  22  37  61  90 122 157 195 244 298 353
#     4  12  23  38  62  90 121 157 196 242 297 358
#     4   9  19  36  59  86 118 156 193 237 295 351
#
# _framework density 24.733688999999998
#
# number of rings (size 3 to 8) (size 9 to 14) (size 15 to 20)
#    0.000    1.500    2.500    3.375    0.000    2.500 
#    0.000    3.125    0.000    0.000    0.000    0.000 
#    0.000    0.000    0.000    0.000    0.000    0.000 
#
# Total GULP energy -178988.200284 kJ/mol
# GULP energy per Si atom -5593.381259 kJ/mol
# Density = 2.467739 g / cm^3
# Si number density = 24.733689 Si / 1000 Ang^3
#
#
#
# Elastic Constant Matrix: (Units=GPa)
#
#
# Indices 1 2 3 4 5 6 
#
# 1 58.0075 -5.4434 7.2049 0.0000 28.3157 0.0000
# 2 -5.4434 50.7717 -0.2182 0.0000 -1.1846 0.0000
# 3 7.2049 -0.2182 141.6697 0.0000 29.0990 0.0000
# 4 0.0000 0.0000 0.0000 25.6411 0.0000 7.4347
# 5 28.3157 -1.1846 29.0990 0.0000 43.6038 0.0000
# 6 0.0000 0.0000 0.0000 7.4347 0.0000 16.3660
#
#
#
# Elastic Compliance Matrix: (Units=1/GPa)
#
#
# Indices 1 2 3 4 5 6 
#
# 1 0.026260 0.002391 0.002500 0.000000 -0.018656 0.000000
# 2 0.002391 0.019927 0.000135 0.000000 -0.001102 0.000000
# 3 0.002500 0.000135 0.008418 0.000000 -0.007238 0.000000
# 4 0.000000 0.000000 0.000000 0.044916 0.000000 -0.020404
# 5 -0.018656 -0.001102 -0.007238 0.000000 0.039849 0.000000
# 6 0.000000 0.000000 0.000000 -0.020404 0.000000 0.070371
#
#
# Mechanical properties :
#
#
# Convention : Reuss Voigt Hill
#
# Bulk Modulus (GPa) = 15.46593 28.17061 21.81827
# Shear Modulus (GPa) = 22.59967 33.71590 28.15778
#
# Velocity S-wave (km/s) = 3.02606 3.69610 3.37774
# Velocity P-wave (km/s) = 4.29836 5.44327 4.90434
#
# Compressibility (1/GPa) = 0.06465826
#
# Stress axis : x y z
#
# Youngs Moduli (GPa) = 38.08101 50.18262 118.78735
#
# Poissons Ratio (x) = -0.11998 -0.29699
# Poissons Ratio (y) = -0.09105 -0.01608
# Poissons Ratio (z) = -0.09521 -0.00679
#
# Static dielectric constant tensor:
#      x y z
#    x 1.947960 0.000000 0.014550 
#    y 0.000000 1.952110 0.000000 
#    z 0.014550 0.000000 2.023540 
# 
# From -- ./inp_files/56209.got.cif
#   From: 2010.05.17/outbox.cif.g08.bks.cpg/sg11_29_cif.got.tgz:56209.got - 2010.06.03 12:22:45.
