data_PCOD9166336
_publ_section_title
;
Structure prediction by ZEFSAII (Michael W. Deem and Ramdas Pophale) SiO2 
 PCOD9166336
Probable space group: P 21/M
;
_chemical_formula_sum "Si O2"
_cell_formula_units_Z 32
_cell_length_a 11.896040
_cell_length_b 12.010005
_cell_length_c 11.954447
_cell_angle_alpha 90.000000
_cell_angle_beta 67.945361
_cell_angle_gamma 90.000000
_cell_volume 1582.972593
_symmetry_space_group_name_H-M "P 21/M"
_symmetry_group_IT_number 11
_symmetry_cell_setting 'monoclinic'
loop_
_space_group_symop_operation_xyz
x,y,z
-x,1/2+y,-z
-x,-y,-z
x,1/2-y,z
loop_
_atom_site_type_symbol
_atom_site_label
_atom_site_fract_x
_atom_site_fract_y
_atom_site_fract_z
Si Si1 0.166188 0.627283 0.168034
Si Si2 0.778467 0.119726 0.099177
Si Si3 0.369538 0.057926 0.556094
Si Si4 0.323611 0.368243 0.327631
Si Si5 0.941564 0.943333 0.629694
Si Si6 0.656049 0.872969 0.181630
Si Si7 0.433633 0.556600 0.129921
Si Si8 0.172375 0.869737 0.668106
O O1 0.126966 0.750000 0.218240
O O2 0.100126 0.536135 0.266013
O O3 0.311131 0.615224 0.133015
O O4 0.146225 0.614008 0.043114
O O5 0.722176 0.250000 0.116157
O O6 0.847348 0.119607 0.191468
O O7 0.708048 0.998537 0.129978
O O8 0.351063 0.124355 0.448653
O O9 0.360964 0.119775 0.678067
O O10 0.500000 0.000000 0.500000
O O11 0.263176 0.965850 0.597041
O O12 0.366559 0.250000 0.266559
O O13 0.180103 0.380397 0.360657
O O14 0.389541 0.464689 0.235387
O O15 0.047201 0.875239 0.649529
O O16 0.000000 0.000000 0.500000
O O17 0.716814 0.750000 0.135455
O O18 0.530560 0.871041 0.160528
O O19 0.500000 0.500000 0.000000
O O20 0.232302 0.750000 0.625049
#
# Coordination Sequence:
#
# PCOD9166336 Si02
#       8
#     4   4   4   4   4   4   4   4
#     4  10  22  40  64  91 125 170 219 267 324 394
#     4   9  20  41  64  91 124 166 214 264 326 391
#     4  11  22  42  61  94 129 164 213 265 326 390
#     4  11  24  41  64  91 126 168 215 270 325 385
#     4  11  23  43  61  92 127 164 219 271 328 381
#     4  11  22  37  61  93 129 169 214 266 321 384
#     4  11  22  40  59  92 130 173 212 263 324 394
#     4  10  22  41  67  89 123 172 215 265 326 391
#
# _framework density 20.215132000000001
#
# number of rings (size 3 to 8) (size 9 to 14) (size 15 to 20)
#    0.000    1.500    3.750    1.125    0.000    4.000 
#    0.000    1.250    0.000    0.000    0.000    0.000 
#    0.000    0.000    0.000    0.000    0.000    0.000 
#
# Total GULP energy -178323.711844 kJ/mol
# GULP energy per Si atom -5572.615995 kJ/mol
# Density = 2.016912 g / cm^3
# Si number density = 20.215132 Si / 1000 Ang^3
#
#
#
# Elastic Constant Matrix: (Units=GPa)
#
#
# Indices 1 2 3 4 5 6 
#
# 1 70.7552 22.2408 20.5775 0.0000 12.9122 0.0000
# 2 22.2408 130.8619 33.3110 0.0000 3.5325 0.0000
# 3 20.5775 33.3110 82.7227 0.0000 9.4745 0.0000
# 4 0.0000 0.0000 0.0000 10.4132 0.0000 3.7295
# 5 12.9122 3.5325 9.4745 0.0000 24.1544 0.0000
# 6 0.0000 0.0000 0.0000 3.7295 0.0000 8.2422
#
#
#
# Elastic Compliance Matrix: (Units=1/GPa)
#
#
# Indices 1 2 3 4 5 6 
#
# 1 0.016915 -0.002028 -0.002502 0.000000 -0.007764 0.000000
# 2 -0.002028 0.008758 -0.003141 0.000000 0.001035 0.000000
# 3 -0.002502 -0.003141 0.014418 0.000000 -0.003859 0.000000
# 4 0.000000 0.000000 0.000000 0.114606 0.000000 -0.051859
# 5 -0.007764 0.001035 -0.003859 0.000000 0.046913 0.000000
# 6 0.000000 0.000000 0.000000 -0.051859 0.000000 0.144793
#
#
# Mechanical properties :
#
#
# Convention : Reuss Voigt Hill
#
# Bulk Modulus (GPa) = 40.40532 48.51094 44.45813
# Shear Modulus (GPa) = 13.51374 22.44265 17.97819
#
# Velocity S-wave (km/s) = 2.58833 3.33557 2.98542
# Velocity P-wave (km/s) = 5.38179 6.23571 5.82442
#
# Compressibility (1/GPa) = 0.02474922
#
# Stress axis : x y z
#
# Youngs Moduli (GPa) = 59.11792 114.18257 69.36014
#
# Poissons Ratio (x) = 0.23162 0.17351
# Poissons Ratio (y) = 0.11992 0.21784
# Poissons Ratio (z) = 0.14789 0.35861
#
# Static dielectric constant tensor:
#      x y z
#    x 1.704230 0.000000 0.009950 
#    y 0.000000 1.808130 0.000000 
#    z 0.009950 0.000000 1.670030 
# 
# From -- ./inp_files/35063.got.cif
#   From: 2010.05.17/outbox.cif.g08.bks.cpg/sg11_18_cif.got.tgz:35063.got - 2010.06.03 12:22:45.
