data_PCOD9166534
_publ_section_title
;
Structure prediction by ZEFSAII (Michael W. Deem and Ramdas Pophale) SiO2 
 PCOD9166534
Probable space group: P 21/M
;
_chemical_formula_sum "Si O2"
_cell_formula_units_Z 28
_cell_length_a 21.175633
_cell_length_b 8.168915
_cell_length_c 9.737770
_cell_angle_alpha 90.000000
_cell_angle_beta 131.255780
_cell_angle_gamma 90.000000
_cell_volume 1266.330835
_symmetry_space_group_name_H-M "P 21/M"
_symmetry_group_IT_number 11
_symmetry_cell_setting 'monoclinic'
loop_
_space_group_symop_operation_xyz
x,y,z
-x,1/2+y,-z
-x,-y,-z
x,1/2-y,z
loop_
_atom_site_type_symbol
_atom_site_label
_atom_site_fract_x
_atom_site_fract_y
_atom_site_fract_z
Si Si1 0.356215 0.059018 0.838046
Si Si2 0.110220 0.054940 0.790921
Si Si3 0.447161 0.559445 0.223149
Si Si4 0.624678 0.440601 0.435927
Si Si5 0.285758 0.948327 0.167693
Si Si6 0.163982 0.052505 0.576643
Si Si7 0.025755 0.554872 0.188244
O O1 0.362100 0.250000 0.884978
O O2 0.260714 0.999354 0.724938
O O3 0.373500 0.038936 0.702208
O O4 0.420059 0.961977 0.025611
O O5 0.097214 0.250000 0.762320
O O6 0.114851 0.990091 0.641675
O O7 0.039614 0.986648 0.791572
O O8 0.200868 0.022996 0.988069
O O9 0.461732 0.750000 0.274967
O O10 0.532691 0.462634 0.370415
O O11 0.366285 0.501424 0.192622
O O12 0.638010 0.250000 0.423028
O O13 0.693423 0.493885 0.645808
O O14 0.279959 0.750000 0.152004
O O15 0.164670 0.250000 0.579640
O O16 0.117256 0.997124 0.372423
O O17 0.021535 0.750000 0.183963
O O18 0.000000 0.500000 0.000000
#
# Coordination Sequence:
#
# PCOD9166534 Si02
#       7
#     4   4   4   4   4   4   4
#     4  11  23  40  63  90 122 163 206 254 308 361
#     4  10  22  42  66  92 122 161 206 250 302 363
#     4  11  22  40  63  90 121 159 208 255 307 367
#     4  11  24  40  59  88 126 164 206 256 309 362
#     4  10  23  40  62  92 123 159 205 255 306 362
#     4  10  22  42  66  92 123 160 206 253 303 362
#     4  11  25  42  65  96 129 163 200 247 304 363
#
# _framework density 22.111125000000001
#
# number of rings (size 3 to 8) (size 9 to 14) (size 15 to 20)
#    0.000    1.429    1.429    3.000    2.000    4.571 
#    0.000    0.000    0.000    0.000    0.000    0.000 
#    0.000    0.000    0.000    0.000    0.000    0.000 
#
# Total GULP energy -156646.825269 kJ/mol
# GULP energy per Si atom -5594.529474 kJ/mol
# Density = 2.206080 g / cm^3
# Si number density = 22.111125 Si / 1000 Ang^3
#
#
#
# Elastic Constant Matrix: (Units=GPa)
#
#
# Indices 1 2 3 4 5 6 
#
# 1 49.4763 -1.5990 -0.8778 0.0000 0.1713 0.0000
# 2 -1.5990 22.0424 -0.5282 0.0000 -3.2279 0.0000
# 3 -0.8778 -0.5282 115.4731 0.0000 -1.4132 0.0000
# 4 0.0000 0.0000 0.0000 23.5094 0.0000 6.3748
# 5 0.1713 -3.2279 -1.4132 0.0000 23.1058 0.0000
# 6 0.0000 0.0000 0.0000 6.3748 0.0000 22.9908
#
#
#
# Elastic Compliance Matrix: (Units=1/GPa)
#
#
# Indices 1 2 3 4 5 6 
#
# 1 0.020262 0.001484 0.000162 0.000000 0.000067 0.000000
# 2 0.001484 0.046433 0.000303 0.000000 0.006494 0.000000
# 3 0.000162 0.000303 0.008670 0.000000 0.000571 0.000000
# 4 0.000000 0.000000 0.000000 0.045994 0.000000 -0.012753
# 5 0.000067 0.006494 0.000571 0.000000 0.044221 0.000000
# 6 0.000000 0.000000 0.000000 -0.012753 0.000000 0.047032
#
#
# Mechanical properties :
#
#
# Convention : Reuss Voigt Hill
#
# Bulk Modulus (GPa) = 12.61645 20.10909 16.36277
# Shear Modulus (GPa) = 21.26430 26.58765 23.92598
#
# Velocity S-wave (km/s) = 3.10450 3.47141 3.29307
# Velocity P-wave (km/s) = 4.30916 5.01815 4.67711
#
# Compressibility (1/GPa) = 0.07926163
#
# Stress axis : x y z
#
# Youngs Moduli (GPa) = 49.35276 21.53636 115.34516
#
# Poissons Ratio (x) = -0.03195 -0.01864
# Poissons Ratio (y) = -0.07322 -0.03497
# Poissons Ratio (z) = -0.00798 -0.00653
#
# Static dielectric constant tensor:
#      x y z
#    x 1.843740 0.000000 -0.019650 
#    y 0.000000 1.761400 0.000000 
#    z -0.019650 0.000000 1.778130 
# 
# From -- ./inp_files/26172.got.cif
#   From: 2010.05.17/outbox.cif.g08.bks.cpg/sg11_14_cif.got.tgz:26172.got - 2010.06.03 12:22:45.
