data_PCOD9166478
_publ_section_title
;
Structure prediction by ZEFSAII (Michael W. Deem and Ramdas Pophale) SiO2 
 PCOD9166478
Probable space group: P 21/M
;
_chemical_formula_sum "Si O2"
_cell_formula_units_Z 32
_cell_length_a 14.561590
_cell_length_b 18.657206
_cell_length_c 11.435176
_cell_angle_alpha 90.000000
_cell_angle_beta 149.961758
_cell_angle_gamma 90.000000
_cell_volume 1555.141621
_symmetry_space_group_name_H-M "P 21/M"
_symmetry_group_IT_number 11
_symmetry_cell_setting 'monoclinic'
loop_
_space_group_symop_operation_xyz
x,y,z
-x,1/2+y,-z
-x,-y,-z
x,1/2-y,z
loop_
_atom_site_type_symbol
_atom_site_label
_atom_site_fract_x
_atom_site_fract_y
_atom_site_fract_z
Si Si1 0.668452 0.392925 0.387928
Si Si2 0.286860 0.110548 0.874107
Si Si3 0.753584 0.667953 0.722042
Si Si4 0.943090 0.168020 0.363193
Si Si5 0.909240 0.164213 0.048962
Si Si6 0.056553 0.170568 0.820387
Si Si7 0.800825 0.468883 0.319675
Si Si8 0.586312 0.422046 0.569339
O O1 0.840036 0.339601 0.579913
O O2 0.748261 0.458528 0.396944
O O3 0.615936 0.413958 0.462460
O O4 0.486988 0.360501 0.126914
O O5 0.153701 0.147458 0.631382
O O6 0.161667 0.115658 0.852455
O O7 0.324030 0.028614 0.877823
O O8 0.708094 0.750000 0.647295
O O9 0.569450 0.628701 0.549783
O O10 0.886304 0.642542 0.766012
O O11 0.876507 0.663179 0.974164
O O12 0.911089 0.250000 0.363597
O O13 0.809831 0.111463 0.279609
O O14 0.906230 0.161165 0.185214
O O15 0.879829 0.250000 0.982676
O O16 0.769531 0.108360 0.834723
O O17 0.108843 0.250000 0.836131
O O18 0.000000 0.500000 0.500000
O O19 0.500000 0.500000 0.500000
#
# Coordination Sequence:
#
# PCOD9166478 Si02
#       8
#     4   4   4   4   4   4   4   4
#     4  12  24  42  66 100 131 172 222 265 341 382
#     4  11  23  42  66  95 133 171 217 270 331 390
#     4  10  22  44  67  93 130 174 216 267 333 392
#     4  10  22  42  65  96 132 174 224 269 323 396
#     4  10  23  45  69  91 131 182 220 266 334 399
#     4  11  22  39  67  99 132 166 215 274 328 390
#     4  10  22  41  67  89 129 179 212 270 329 392
#     4  12  27  42  66 104 134 167 225 282 328 401
#
# _framework density 20.576903999999999
#
# number of rings (size 3 to 8) (size 9 to 14) (size 15 to 20)
#    0.000    1.250    5.000    1.125    1.750    4.000 
#    2.250    0.000    0.000    0.000    0.000    0.000 
#    0.000    0.000    0.000    0.000    0.000    0.000 
#
# Total GULP energy -178425.297410 kJ/mol
# GULP energy per Si atom -5575.790544 kJ/mol
# Density = 2.053007 g / cm^3
# Si number density = 20.576904 Si / 1000 Ang^3
#
#
#
# Elastic Constant Matrix: (Units=GPa)
#
#
# Indices 1 2 3 4 5 6 
#
# 1 86.2643 28.3528 1.2494 0.0000 1.7013 0.0000
# 2 28.3528 75.9169 4.1545 0.0000 2.1719 0.0000
# 3 1.2494 4.1545 44.9728 0.0000 15.3542 0.0000
# 4 0.0000 0.0000 0.0000 16.9489 0.0000 0.0693
# 5 1.7013 2.1719 15.3542 0.0000 35.0455 0.0000
# 6 0.0000 0.0000 0.0000 0.0693 0.0000 23.3093
#
#
#
# Elastic Compliance Matrix: (Units=1/GPa)
#
#
# Indices 1 2 3 4 5 6 
#
# 1 0.013220 -0.004938 0.000239 0.000000 -0.000441 0.000000
# 2 -0.004938 0.015087 -0.001198 0.000000 -0.000170 0.000000
# 3 0.000239 -0.001198 0.026244 0.000000 -0.011435 0.000000
# 4 0.000000 0.000000 0.000000 0.059002 0.000000 -0.000175
# 5 -0.000441 -0.000170 -0.011435 0.000000 0.033576 0.000000
# 6 0.000000 0.000000 0.000000 -0.000175 0.000000 0.042902
#
#
# Mechanical properties :
#
#
# Convention : Reuss Voigt Hill
#
# Bulk Modulus (GPa) = 23.38787 30.51861 26.95324
# Shear Modulus (GPa) = 23.13983 26.62056 24.88019
#
# Velocity S-wave (km/s) = 3.35707 3.60072 3.48103
# Velocity P-wave (km/s) = 5.13978 5.67015 5.41147
#
# Compressibility (1/GPa) = 0.04275720
#
# Stress axis : x y z
#
# Youngs Moduli (GPa) = 75.64017 66.28250 38.10409
#
# Poissons Ratio (x) = 0.32730 -0.00912
# Poissons Ratio (y) = 0.37351 0.04566
# Poissons Ratio (z) = -0.01810 0.07943
#
# Static dielectric constant tensor:
#      x y z
#    x 1.734130 0.000000 0.007490 
#    y 0.000000 1.756300 0.000000 
#    z 0.007490 0.000000 1.768100 
# 
# From -- ./inp_files/40015.got.cif
#   From: 2010.05.17/outbox.cif.g08.bks.cpg/sg11_21_cif.got.tgz:40015.got - 2010.06.03 12:22:45.
