data_PCOD9166033
_publ_section_title
;
Structure prediction by ZEFSAII (Michael W. Deem and Ramdas Pophale) SiO2 
 PCOD9166033
Probable space group: P 21/M
;
_chemical_formula_sum "Si O2"
_cell_formula_units_Z 32
_cell_length_a 15.809982
_cell_length_b 9.237485
_cell_length_c 24.858712
_cell_angle_alpha 90.000000
_cell_angle_beta 25.871972
_cell_angle_gamma 90.000000
_cell_volume 1584.201278
_symmetry_space_group_name_H-M "P 21/M"
_symmetry_group_IT_number 11
_symmetry_cell_setting 'monoclinic'
loop_
_space_group_symop_operation_xyz
x,y,z
-x,1/2+y,-z
-x,-y,-z
x,1/2-y,z
loop_
_atom_site_type_symbol
_atom_site_label
_atom_site_fract_x
_atom_site_fract_y
_atom_site_fract_z
Si Si1 0.502724 0.092975 0.201313
Si Si2 0.764726 0.096157 0.825023
Si Si3 0.131145 0.577935 0.586733
Si Si4 0.047100 0.581591 0.027814
Si Si5 0.017617 0.915909 0.826707
Si Si6 0.598305 0.502765 0.030943
Si Si7 0.687238 0.924620 0.419494
Si Si8 0.838498 0.420808 0.556983
O O1 0.419862 0.250000 0.263891
O O2 0.720658 0.082302 0.098102
O O3 0.521208 0.083414 0.126404
O O4 0.367766 0.969026 0.301571
O O5 0.869618 0.250000 0.758870
O O6 0.584369 0.088829 0.887697
O O7 0.675720 0.085759 0.935434
O O8 0.914177 0.967747 0.728582
O O9 0.160220 0.750000 0.578055
O O10 0.275594 0.487179 0.541997
O O11 0.150684 0.542766 0.512506
O O12 0.982589 0.750000 0.065133
O O13 0.963647 0.492591 0.126168
O O14 0.000000 0.500000 0.000000
O O15 0.089142 0.750000 0.785430
O O16 0.131511 0.014928 0.718989
O O17 0.789541 0.914873 0.942149
O O18 0.675977 0.750000 0.424817
O O19 0.500000 0.000000 0.500000
O O20 0.866162 0.250000 0.545944
O O21 0.000000 0.500000 0.500000
#
# Coordination Sequence:
#
# PCOD9166033 Si02
#       8
#     4   4   4   4   4   4   4   4
#     4  10  22  40  62  88 123 164 208 260 313 374
#     4  11  22  36  60  93 128 166 208 253 310 378
#     4  11  25  44  64  92 130 171 219 273 327 383
#     4  10  22  40  63  93 127 165 211 264 323 381
#     4  11  22  40  65  93 129 167 208 260 318 381
#     4  10  22  36  60  94 131 164 208 250 313 372
#     4  12  26  45  69  95 125 165 214 269 328 391
#     4  11  25  43  65  92 127 172 219 271 322 382
#
# _framework density 20.199452000000001
#
# number of rings (size 3 to 8) (size 9 to 14) (size 15 to 20)
#    0.000    1.250    1.250    4.125    0.000   11.500 
#    0.000    2.500    0.000    0.000    0.000    0.000 
#    0.000    0.000    0.000    0.000    0.000    0.000 
#
# Total GULP energy -178790.592057 kJ/mol
# GULP energy per Si atom -5587.206002 kJ/mol
# Density = 2.015348 g / cm^3
# Si number density = 20.199452 Si / 1000 Ang^3
#
#
#
# Elastic Constant Matrix: (Units=GPa)
#
#
# Indices 1 2 3 4 5 6 
#
# 1 160.5879 79.8528 34.9674 0.0000 19.0152 0.0000
# 2 79.8528 147.9509 29.7213 0.0000 9.7492 0.0000
# 3 34.9674 29.7213 61.5511 0.0000 11.7321 0.0000
# 4 0.0000 0.0000 0.0000 77.7647 0.0000 21.0506
# 5 19.0152 9.7492 11.7321 0.0000 27.1292 0.0000
# 6 0.0000 0.0000 0.0000 21.0506 0.0000 27.3649
#
#
#
# Elastic Compliance Matrix: (Units=1/GPa)
#
#
# Indices 1 2 3 4 5 6 
#
# 1 0.009376 -0.004298 -0.002499 0.000000 -0.003946 0.000000
# 2 -0.004298 0.009493 -0.002252 0.000000 0.000575 0.000000
# 3 -0.002499 -0.002252 0.019906 0.000000 -0.006048 0.000000
# 4 0.000000 0.000000 0.000000 0.016241 0.000000 -0.012494
# 5 -0.003946 0.000575 -0.006048 0.000000 0.042036 0.000000
# 6 0.000000 0.000000 0.000000 -0.012494 0.000000 0.046154
#
#
# Mechanical properties :
#
#
# Convention : Reuss Voigt Hill
#
# Bulk Modulus (GPa) = 48.36088 73.24143 60.80115
# Shear Modulus (GPa) = 29.72711 41.48832 35.60772
#
# Velocity S-wave (km/s) = 3.84041 4.53695 4.20313
# Velocity P-wave (km/s) = 6.60747 7.98643 7.32945
#
# Compressibility (1/GPa) = 0.02067787
#
# Stress axis : x y z
#
# Youngs Moduli (GPa) = 106.65658 105.33624 50.23543
#
# Poissons Ratio (x) = 0.45278 0.12552
# Poissons Ratio (y) = 0.45845 0.11312
# Poissons Ratio (z) = 0.26650 0.23719
#
# Static dielectric constant tensor:
#      x y z
#    x 1.691100 0.000000 0.021130 
#    y 0.000000 1.722010 0.000000 
#    z 0.021130 0.000000 1.651910 
# 
# From -- ./inp_files/69045.got.cif
#   From: 2010.05.17/outbox.cif.g08.bks.cpg/sg11_35_cif.got.tgz:69045.got - 2010.06.03 12:22:45.
