data_PCOD9166744
_publ_section_title
;
Structure prediction by ZEFSAII (Michael W. Deem and Ramdas Pophale) SiO2 
 PCOD9166744
Probable space group: P 21/M
;
_chemical_formula_sum "Si O2"
_cell_formula_units_Z 28
_cell_length_a 12.112290
_cell_length_b 8.804469
_cell_length_c 15.155013
_cell_angle_alpha 90.000000
_cell_angle_beta 61.706881
_cell_angle_gamma 90.000000
_cell_volume 1423.088837
_symmetry_space_group_name_H-M "P 21/M"
_symmetry_group_IT_number 11
_symmetry_cell_setting 'monoclinic'
loop_
_space_group_symop_operation_xyz
x,y,z
-x,1/2+y,-z
-x,-y,-z
x,1/2-y,z
loop_
_atom_site_type_symbol
_atom_site_label
_atom_site_fract_x
_atom_site_fract_y
_atom_site_fract_z
Si Si1 0.922741 0.934134 0.113501
Si Si2 0.992042 0.070033 0.276693
Si Si3 0.752384 0.071592 0.799887
Si Si4 0.377620 0.427784 0.003330
Si Si5 0.125070 0.929923 0.498342
Si Si6 0.632194 0.572014 0.202854
Si Si7 0.627936 0.569830 0.682987
O O1 0.931779 0.750000 0.107316
O O2 0.774651 0.977048 0.167984
O O3 0.968896 0.998609 0.189820
O O4 0.000000 0.000000 0.000000
O O5 0.018554 0.250000 0.257930
O O6 0.885774 0.051433 0.391418
O O7 0.110102 0.984597 0.274762
O O8 0.735042 0.250000 0.796988
O O9 0.656843 0.986752 0.771573
O O10 0.732447 0.019024 0.907714
O O11 0.368537 0.250000 0.028752
O O12 0.377727 0.442393 0.899123
O O13 0.500000 0.500000 0.000000
O O14 0.125241 0.750000 0.478572
O O15 0.255121 0.001120 0.415397
O O16 0.000000 0.000000 0.500000
O O17 0.621070 0.750000 0.230030
O O18 0.511703 0.486925 0.288401
O O19 0.632743 0.750000 0.677271
#
# Coordination Sequence:
#
# PCOD9166744 Si02
#       7
#     4   4   4   4   4   4   4
#     4  11  24  44  70  97 129 171 218 267 318 381
#     4  11  24  42  65  94 127 166 215 267 321 383
#     4  12  23  36  58  88 126 166 207 259 318 383
#     4  11  21  34  55  85 122 160 203 254 311 380
#     4  11  23  40  65  94 130 170 213 266 323 387
#     4  10  23  42  62  87 125 169 212 262 319 380
#     4  12  24  38  61  92 127 164 208 262 322 386
#
# _framework density 19.675509999999999
#
# number of rings (size 3 to 8) (size 9 to 14) (size 15 to 20)
#    0.000    0.857    2.857    5.143    0.000    4.571 
#    0.000    0.714    0.000    0.000    0.000    0.000 
#    0.000    0.000    0.000    0.000    0.000    0.000 
#
# Total GULP energy -156392.480536 kJ/mol
# GULP energy per Si atom -5585.445733 kJ/mol
# Density = 1.963073 g / cm^3
# Si number density = 19.675510 Si / 1000 Ang^3
#
#
#
# Elastic Constant Matrix: (Units=GPa)
#
#
# Indices 1 2 3 4 5 6 
#
# 1 93.3322 34.0675 33.3166 0.0000 -17.2152 0.0000
# 2 34.0675 107.4242 55.6243 0.0000 -16.1112 0.0000
# 3 33.3166 55.6243 115.6542 0.0000 -22.1240 0.0000
# 4 0.0000 0.0000 0.0000 33.9831 0.0000 -6.2294
# 5 -17.2152 -16.1112 -22.1240 0.0000 36.6926 0.0000
# 6 0.0000 0.0000 0.0000 -6.2294 0.0000 28.3172
#
#
#
# Elastic Compliance Matrix: (Units=1/GPa)
#
#
# Indices 1 2 3 4 5 6 
#
# 1 0.013018 -0.002647 -0.001731 0.000000 0.003902 0.000000
# 2 -0.002647 0.013078 -0.005275 0.000000 0.001320 0.000000
# 3 -0.001731 -0.005275 0.012529 0.000000 0.004426 0.000000
# 4 0.000000 0.000000 0.000000 0.030663 0.000000 0.006745
# 5 0.003902 0.001320 0.004426 0.000000 0.032332 0.000000
# 6 0.000000 0.000000 0.000000 0.006745 0.000000 0.036798
#
#
# Mechanical properties :
#
#
# Convention : Reuss Voigt Hill
#
# Bulk Modulus (GPa) = 51.76116 62.49195 57.12655
# Shear Modulus (GPa) = 30.45767 32.69208 31.57487
#
# Velocity S-wave (km/s) = 3.93873 4.08065 4.01032
# Velocity P-wave (km/s) = 6.85925 7.35068 7.10921
#
# Compressibility (1/GPa) = 0.01931951
#
# Stress axis : x y z
#
# Youngs Moduli (GPa) = 76.81591 76.46697 79.81767
#
# Poissons Ratio (x) = 0.20242 0.13813
# Poissons Ratio (y) = 0.20334 0.42101
# Poissons Ratio (z) = 0.13293 0.40334
#
# Static dielectric constant tensor:
#      x y z
#    x 1.917230 0.000000 -0.058940 
#    y 0.000000 1.661330 0.000000 
#    z -0.058940 0.000000 1.731300 
# 
# From -- ./inp_files/49174.got.cif
#   From: 2010.05.17/outbox.cif.g08.bks.cpg/sg11_25_cif.got.tgz:49174.got - 2010.06.03 12:22:45.
