data_PCOD9166325
_publ_section_title
;
Structure prediction by ZEFSAII (Michael W. Deem and Ramdas Pophale) SiO2 
 PCOD9166325
Probable space group: P 21/M
;
_chemical_formula_sum "Si O2"
_cell_formula_units_Z 32
_cell_length_a 15.181765
_cell_length_b 21.614384
_cell_length_c 9.898800
_cell_angle_alpha 90.000000
_cell_angle_beta 153.391533
_cell_angle_gamma 90.000000
_cell_volume 1454.856721
_symmetry_space_group_name_H-M "P 21/M"
_symmetry_group_IT_number 11
_symmetry_cell_setting 'monoclinic'
loop_
_space_group_symop_operation_xyz
x,y,z
-x,1/2+y,-z
-x,-y,-z
x,1/2-y,z
loop_
_atom_site_type_symbol
_atom_site_label
_atom_site_fract_x
_atom_site_fract_y
_atom_site_fract_z
Si Si1 0.694832 0.577281 0.188542
Si Si2 0.974282 0.819725 0.978062
Si Si3 0.680929 0.316848 0.759611
Si Si4 0.543388 0.453702 0.906978
Si Si5 0.971178 0.179650 0.658667
Si Si6 0.650632 0.899376 0.810667
Si Si7 0.866383 0.379610 0.244678
Si Si8 0.188906 0.043467 0.227344
O O1 0.550131 0.595411 0.113512
O O2 0.916894 0.601581 0.508742
O O3 0.671342 0.503286 0.166644
O O4 0.633458 0.588504 0.947936
O O5 0.880018 0.750000 0.857056
O O6 0.123738 0.818583 0.061245
O O7 0.105140 0.826014 0.294104
O O8 0.851005 0.883028 0.797517
O O9 0.582870 0.250000 0.607438
O O10 0.545319 0.372838 0.525042
O O11 0.764527 0.324964 0.023831
O O12 0.360438 0.476618 0.565282
O O13 0.702192 0.431692 0.015797
O O14 0.958036 0.250000 0.595255
O O15 0.884496 0.136185 0.426827
O O16 0.194801 0.157371 0.982423
O O17 0.740696 0.952275 0.833916
O O18 0.000000 0.000000 0.000000
#
# Coordination Sequence:
#
# PCOD9166325 Si02
#       8
#     4   4   4   4   4   4   4   4
#     4  10  25  41  65  90 132 177 218 273 330 411
#     4   9  21  39  63  92 130 173 216 274 336 398
#     4  11  22  38  65  96 130 171 222 280 337 401
#     4  11  24  43  63  96 130 178 219 274 341 396
#     4   9  19  38  62  89 125 169 217 266 328 397
#     4  10  22  40  63  93 126 173 216 279 336 396
#     4  11  22  41  64  92 133 168 221 270 343 388
#     4  11  24  42  66 100 133 173 226 284 339 407
#
# _framework density 21.995294999999999
#
# number of rings (size 3 to 8) (size 9 to 14) (size 15 to 20)
#    0.000    1.750    1.250    1.875    3.500    8.000 
#    0.000    0.000    0.000    2.250    0.000    0.000 
#    0.000    0.000    0.000    0.000    0.000    0.000 
#
# Total GULP energy -178184.868055 kJ/mol
# GULP energy per Si atom -5568.277127 kJ/mol
# Density = 2.194523 g / cm^3
# Si number density = 21.995295 Si / 1000 Ang^3
#
#
#
# Elastic Constant Matrix: (Units=GPa)
#
#
# Indices 1 2 3 4 5 6 
#
# 1 29.2947 6.3144 8.1246 0.0000 -4.5271 0.0000
# 2 6.3144 59.8768 11.9571 0.0000 9.9442 0.0000
# 3 8.1246 11.9571 85.4506 0.0000 -2.7432 0.0000
# 4 0.0000 0.0000 0.0000 27.4794 0.0000 -2.9358
# 5 -4.5271 9.9442 -2.7432 0.0000 26.2018 0.0000
# 6 0.0000 0.0000 0.0000 -2.9358 0.0000 23.2129
#
#
#
# Elastic Compliance Matrix: (Units=1/GPa)
#
#
# Indices 1 2 3 4 5 6 
#
# 1 0.037100 -0.004706 -0.002615 0.000000 0.007922 0.000000
# 2 -0.004706 0.019075 -0.002489 0.000000 -0.008313 0.000000
# 3 -0.002615 -0.002489 0.012357 0.000000 0.001786 0.000000
# 4 0.000000 0.000000 0.000000 0.036889 0.000000 0.004666
# 5 0.007922 -0.008313 0.001786 0.000000 0.042876 0.000000
# 6 0.000000 0.000000 0.000000 0.004666 0.000000 0.043670
#
#
# Mechanical properties :
#
#
# Convention : Reuss Voigt Hill
#
# Bulk Modulus (GPa) = 20.44445 25.26826 22.85636
# Shear Modulus (GPa) = 21.94050 25.26053 23.60052
#
# Velocity S-wave (km/s) = 3.16176 3.39256 3.27919
# Velocity P-wave (km/s) = 4.75858 5.18256 4.97509
#
# Compressibility (1/GPa) = 0.04891303
#
# Stress axis : x y z
#
# Youngs Moduli (GPa) = 26.95442 52.42518 80.92684
#
# Poissons Ratio (x) = 0.24671 0.21159
# Poissons Ratio (y) = 0.12685 0.20139
# Poissons Ratio (z) = 0.07047 0.13046
#
# Static dielectric constant tensor:
#      x y z
#    x 1.920900 0.000000 -0.013440 
#    y 0.000000 1.907310 0.000000 
#    z -0.013440 0.000000 1.779780 
# 
# From -- ./inp_files/23383.got.cif
#   From: 2010.05.17/outbox.cif.g08.bks.cpg/sg11_12_cif.got.tgz:23383.got - 2010.06.03 12:22:45.
