data_PCOD9166704
_publ_section_title
;
Structure prediction by ZEFSAII (Michael W. Deem and Ramdas Pophale) SiO2 
 PCOD9166704
Probable space group: P 21/M
;
_chemical_formula_sum "Si O2"
_cell_formula_units_Z 16
_cell_length_a 4.749229
_cell_length_b 19.372900
_cell_length_c 6.976058
_cell_angle_alpha 90.000000
_cell_angle_beta 68.562540
_cell_angle_gamma 90.000000
_cell_volume 597.437068
_symmetry_space_group_name_H-M "P 21/M"
_symmetry_group_IT_number 11
_symmetry_cell_setting 'monoclinic'
loop_
_space_group_symop_operation_xyz
x,y,z
-x,1/2+y,-z
-x,-y,-z
x,1/2-y,z
loop_
_atom_site_type_symbol
_atom_site_label
_atom_site_fract_x
_atom_site_fract_y
_atom_site_fract_z
Si Si1 0.841392 0.614695 0.802463
Si Si2 0.010805 0.468833 0.713699
Si Si3 0.489289 0.622956 0.515963
Si Si4 0.993288 0.676334 0.160118
O O1 0.893678 0.535371 0.855563
O O2 0.135302 0.632860 0.598788
O O3 0.565858 0.618504 0.723695
O O4 0.864632 0.662788 0.979644
O O5 0.361668 0.443133 0.631897
O O6 0.000000 0.500000 0.500000
O O7 0.850475 0.396405 0.812142
O O8 0.701255 0.679512 0.370253
O O9 0.158242 0.750000 0.127189
#
# Coordination Sequence:
#
# PCOD9166704 Si02
#       4
#     4   4   4   4
#     4  11  20  43  65  95 120 171 209 264 306 383
#     4   8  18  41  64  93 125 166 215 263 315 371
#     4   9  23  38  67  89 131 156 218 256 316 364
#     4  10  23  40  64  95 130 169 211 263 326 380
#
# _framework density 26.781063
#
# number of rings (size 3 to 8) (size 9 to 14) (size 15 to 20)
#    1.500    1.000    0.000    1.500    0.000    4.000 
#    0.000    6.250    0.000    0.000    0.000    0.000 
#    0.000    0.000    0.000    0.000    0.000    0.000 
#
# Total GULP energy -89179.632407 kJ/mol
# GULP energy per Si atom -5573.727025 kJ/mol
# Density = 2.672011 g / cm^3
# Si number density = 26.781063 Si / 1000 Ang^3
#
#
#
# Elastic Constant Matrix: (Units=GPa)
#
#
# Indices 1 2 3 4 5 6 
#
# 1 77.1210 7.0268 9.0893 0.0000 4.4966 0.0000
# 2 7.0268 195.0728 30.9696 0.0000 0.8512 0.0000
# 3 9.0893 30.9696 120.2165 0.0000 9.6401 0.0000
# 4 0.0000 0.0000 0.0000 -10.0902 0.0000 -13.3418
# 5 4.4966 0.8512 9.6401 0.0000 24.1890 0.0000
# 6 0.0000 0.0000 0.0000 -13.3418 0.0000 9.6382
#
#
#
# Elastic Compliance Matrix: (Units=1/GPa)
#
#
# Indices 1 2 3 4 5 6 
#
# 1 0.013211 -0.000350 -0.000736 0.000000 -0.002150 0.000000
# 2 -0.000350 0.005357 -0.001388 0.000000 0.000430 0.000000
# 3 -0.000736 -0.001388 0.009004 0.000000 -0.003403 0.000000
# 4 0.000000 0.000000 0.000000 -0.035016 0.000000 -0.048471
# 5 -0.002150 0.000430 -0.003403 0.000000 0.043082 0.000000
# 6 0.000000 0.000000 0.000000 -0.048471 0.000000 0.036658
#
#
# Mechanical properties :
#
#
# Convention : Reuss Voigt Hill
#
# Bulk Modulus (GPa) = 44.20030 54.06463 49.13247
# Shear Modulus (GPa) = 58.97213 27.76905 43.37059
#
# Velocity S-wave (km/s) = 4.69765 3.22357 4.02860
# Velocity P-wave (km/s) = 6.77968 5.83838 6.32656
#
# Compressibility (1/GPa) = 0.02262428
#
# Stress axis : x y z
#
# Youngs Moduli (GPa) = 75.69663 186.65787 111.05571
#
# Poissons Ratio (x) = 0.06525 0.08178
# Poissons Ratio (y) = 0.02646 0.15416
# Poissons Ratio (z) = 0.05574 0.25911
#
# Static dielectric constant tensor:
#      x y z
#    x 2.128870 0.000000 0.021810 
#    y 0.000000 2.250810 0.000000 
#    z 0.021810 0.000000 2.156360 
# 
# From -- ./inp_files/439.got.cif
#   From: 2010.05.17/outbox.cif.g08.bks.cpg/sg11_1_cif.got.tgz:439.got - 2010.06.03 12:22:45.
