data_PCOD9166384
_publ_section_title
;
Structure prediction by ZEFSAII (Michael W. Deem and Ramdas Pophale) SiO2 
 PCOD9166384
Probable space group: P 21/M
;
_chemical_formula_sum "Si O2"
_cell_formula_units_Z 28
_cell_length_a 4.949637
_cell_length_b 31.560819
_cell_length_c 9.129149
_cell_angle_alpha 90.000000
_cell_angle_beta 124.167621
_cell_angle_gamma 90.000000
_cell_volume 1179.957654
_symmetry_space_group_name_H-M "P 21/M"
_symmetry_group_IT_number 11
_symmetry_cell_setting 'monoclinic'
loop_
_space_group_symop_operation_xyz
x,y,z
-x,1/2+y,-z
-x,-y,-z
x,1/2-y,z
loop_
_atom_site_type_symbol
_atom_site_label
_atom_site_fract_x
_atom_site_fract_y
_atom_site_fract_z
Si Si1 0.647885 0.046496 0.571201
Si Si2 0.273509 0.704048 0.644792
Si Si3 0.183205 0.036414 0.962357
Si Si4 0.408686 0.118710 0.721212
Si Si5 0.754989 0.113415 0.372354
Si Si6 0.512153 0.795393 0.397843
Si Si7 0.798786 0.081324 0.080621
O O1 0.007472 0.039406 0.750722
O O2 0.493484 0.077213 0.648393
O O3 0.614809 0.071890 0.409226
O O4 0.500000 0.000000 0.500000
O O5 0.400482 0.750000 0.739969
O O6 0.428445 0.657504 0.719921
O O7 0.296918 0.706823 0.476794
O O8 0.890050 0.701404 0.568247
O O9 0.065815 0.074612 0.035777
O O10 0.571767 0.040978 0.059360
O O11 0.000000 0.000000 0.000000
O O12 0.565973 0.162114 0.712417
O O13 0.526700 0.110229 0.919845
O O14 0.027063 0.124714 0.576830
O O15 0.917980 0.100036 0.268983
O O16 0.484744 0.750000 0.309758
#
# Coordination Sequence:
#
# PCOD9166384 Si02
#       7
#     4   4   4   4   4   4   4
#     4  11  23  38  62  87 119 161 207 247 301 364
#     4   9  18  33  58  90 117 152 198 242 294 355
#     4  11  24  44  58  86 122 156 204 261 296 353
#     4  10  22  41  57  89 123 155 201 250 297 357
#     4  11  22  39  63  87 120 164 198 249 302 358
#     4   9  17  32  60  86 115 154 194 239 296 354
#     4  11  25  39  62  87 120 158 198 248 307 350
#
# _framework density 23.729664
#
# number of rings (size 3 to 8) (size 9 to 14) (size 15 to 20)
#    0.000    1.714    2.857    1.286    4.000    1.714 
#    0.000    0.714    0.000    0.000    0.000   12.000 
#    0.000    0.000    0.000    0.000    0.000    0.000 
#
# Total GULP energy -156011.908488 kJ/mol
# GULP energy per Si atom -5571.853875 kJ/mol
# Density = 2.367565 g / cm^3
# Si number density = 23.729664 Si / 1000 Ang^3
#
#
#
# Elastic Constant Matrix: (Units=GPa)
#
#
# Indices 1 2 3 4 5 6 
#
# 1 77.6699 12.5699 10.9648 0.0000 -13.5518 0.0000
# 2 12.5699 171.0897 12.9384 0.0000 -13.6517 0.0000
# 3 10.9648 12.9384 100.0547 0.0000 -9.0793 0.0000
# 4 0.0000 0.0000 0.0000 10.9243 0.0000 -1.7938
# 5 -13.5518 -13.6517 -9.0793 0.0000 30.6966 0.0000
# 6 0.0000 0.0000 0.0000 -1.7938 0.0000 24.9624
#
#
#
# Elastic Compliance Matrix: (Units=1/GPa)
#
#
# Indices 1 2 3 4 5 6 
#
# 1 0.014089 -0.000507 -0.000960 0.000000 0.005711 0.000000
# 2 -0.000507 0.006108 -0.000522 0.000000 0.002338 0.000000
# 3 -0.000960 -0.000522 0.010387 0.000000 0.002416 0.000000
# 4 0.000000 0.000000 0.000000 0.092632 0.000000 0.006656
# 5 0.005711 0.002338 0.002416 0.000000 0.036852 0.000000
# 6 0.000000 0.000000 0.000000 0.006656 0.000000 0.040539
#
#
# Mechanical properties :
#
#
# Convention : Reuss Voigt Hill
#
# Bulk Modulus (GPa) = 37.58663 46.86229 42.22446
# Shear Modulus (GPa) = 23.42432 34.13941 28.78186
#
# Velocity S-wave (km/s) = 3.14527 3.79711 3.48646
# Velocity P-wave (km/s) = 5.39113 6.24622 5.83436
#
# Compressibility (1/GPa) = 0.02660521
#
# Stress axis : x y z
#
# Youngs Moduli (GPa) = 70.97757 163.71461 96.27863
#
# Poissons Ratio (x) = 0.08298 0.09245
# Poissons Ratio (y) = 0.03597 0.05027
# Poissons Ratio (z) = 0.06816 0.08548
#
# Static dielectric constant tensor:
#      x y z
#    x 1.987050 0.000000 0.062360 
#    y 0.000000 2.182150 0.000000 
#    z 0.062360 0.000000 1.863500 
# 
# From -- ./inp_files/3342.got.cif
#   From: 2010.05.17/outbox.cif.g08.bks.cpg/sg11_2_cif.got.tgz:3342.got - 2010.06.03 12:22:45.
