data_PCOD9166093
_publ_section_title
;
Structure prediction by ZEFSAII (Michael W. Deem and Ramdas Pophale) SiO2 
 PCOD9166093
Probable space group: P 21/M
;
_chemical_formula_sum "Si O2"
_cell_formula_units_Z 32
_cell_length_a 23.080655
_cell_length_b 8.544145
_cell_length_c 15.483216
_cell_angle_alpha 90.000000
_cell_angle_beta 31.737725
_cell_angle_gamma 90.000000
_cell_volume 1606.163882
_symmetry_space_group_name_H-M "P 21/M"
_symmetry_group_IT_number 11
_symmetry_cell_setting 'monoclinic'
loop_
_space_group_symop_operation_xyz
x,y,z
-x,1/2+y,-z
-x,-y,-z
x,1/2-y,z
loop_
_atom_site_type_symbol
_atom_site_label
_atom_site_fract_x
_atom_site_fract_y
_atom_site_fract_z
Si Si1 0.745919 0.937299 0.515766
Si Si2 0.051370 0.562280 0.346631
Si Si3 0.652919 0.938750 0.450488
Si Si4 0.624311 0.062289 0.839738
Si Si5 0.414446 0.436571 0.758494
Si Si6 0.016344 0.562619 0.750267
Si Si7 0.781267 0.940743 0.120609
Si Si8 0.697419 0.061898 0.936498
O O1 0.739040 0.750000 0.527139
O O2 0.686293 0.993202 0.503830
O O3 0.688048 0.001975 0.675026
O O4 0.872979 0.988247 0.353184
O O5 0.040969 0.750000 0.355127
O O6 0.995084 0.484907 0.335381
O O7 0.180736 0.520955 0.185145
O O8 0.000000 0.500000 0.500000
O O9 0.652532 0.750000 0.451497
O O10 0.739905 0.989722 0.267455
O O11 0.530816 0.994669 0.582183
O O12 0.623254 0.250000 0.838642
O O13 0.681374 0.013240 0.857596
O O14 0.500000 0.000000 0.000000
O O15 0.419010 0.250000 0.746922
O O16 0.311923 0.492140 0.829739
O O17 0.389696 0.487183 0.887997
O O18 0.023552 0.750000 0.747917
O O19 0.903449 0.507559 0.939392
O O20 0.782913 0.750000 0.116139
O O21 0.685372 0.250000 0.955531
#
# Coordination Sequence:
#
# PCOD9166093 Si02
#       8
#     4   4   4   4   4   4   4   4
#     4  11  24  41  61  88 121 161 209 255 302 363
#     4  11  22  37  59  87 118 155 200 246 296 356
#     4  10  22  41  62  85 120 162 202 250 307 364
#     4  11  23  40  61  87 121 162 204 249 302 360
#     4  11  21  36  61  93 123 153 198 250 302 364
#     4  11  22  40  63  87 122 161 200 252 309 363
#     4   9  20  39  62  89 121 159 199 248 310 364
#     4  10  22  38  57  83 116 155 194 236 295 357
#
# _framework density 19.923247
#
# number of rings (size 3 to 8) (size 9 to 14) (size 15 to 20)
#    0.000    1.500    1.250    3.750    0.000    7.000 
#    0.000    1.875    0.000    0.000    0.000    0.000 
#    0.000    0.000    0.000    0.000    0.000    0.000 
#
# Total GULP energy -178910.765346 kJ/mol
# GULP energy per Si atom -5590.961417 kJ/mol
# Density = 1.987790 g / cm^3
# Si number density = 19.923247 Si / 1000 Ang^3
#
#
#
# Elastic Constant Matrix: (Units=GPa)
#
#
# Indices 1 2 3 4 5 6 
#
# 1 82.1356 11.5439 24.8158 0.0000 -2.0393 0.0000
# 2 11.5439 18.0920 9.5496 0.0000 0.9964 0.0000
# 3 24.8158 9.5496 120.1449 0.0000 2.2578 0.0000
# 4 0.0000 0.0000 0.0000 29.6467 0.0000 -7.4082
# 5 -2.0393 0.9964 2.2578 0.0000 38.3362 0.0000
# 6 0.0000 0.0000 0.0000 -7.4082 0.0000 23.5771
#
#
#
# Elastic Compliance Matrix: (Units=1/GPa)
#
#
# Indices 1 2 3 4 5 6 
#
# 1 0.013987 -0.007775 -0.002291 0.000000 0.001081 0.000000
# 2 -0.007775 0.062073 -0.003294 0.000000 -0.001833 0.000000
# 3 -0.002291 -0.003294 0.009069 0.000000 -0.000570 0.000000
# 4 0.000000 0.000000 0.000000 0.036605 0.000000 0.011502
# 5 0.001081 -0.001833 -0.000570 0.000000 0.026224 0.000000
# 6 0.000000 0.000000 0.000000 0.011502 0.000000 0.046028
#
#
# Mechanical properties :
#
#
# Convention : Reuss Voigt Hill
#
# Bulk Modulus (GPa) = 17.12035 34.68790 25.90413
# Shear Modulus (GPa) = 20.81822 29.94287 25.38054
#
# Velocity S-wave (km/s) = 3.23603 3.88095 3.57307
# Velocity P-wave (km/s) = 4.75125 6.12625 5.48203
#
# Compressibility (1/GPa) = 0.05841003
#
# Stress axis : x y z
#
# Youngs Moduli (GPa) = 71.49602 16.11005 110.26504
#
# Poissons Ratio (x) = 0.12525 0.25265
# Poissons Ratio (y) = 0.55585 0.36316
# Poissons Ratio (z) = 0.16382 0.05306
#
# Static dielectric constant tensor:
#      x y z
#    x 1.726930 0.000000 0.034550 
#    y 0.000000 1.682040 0.000000 
#    z 0.034550 0.000000 1.729440 
# 
# From -- ./inp_files/55556.got.cif
#   From: 2010.05.17/outbox.cif.g08.bks.cpg/sg11_28_cif.got.tgz:55556.got - 2010.06.03 12:22:45.
