data_PCOD9166181
_publ_section_title
;
Structure prediction by ZEFSAII (Michael W. Deem and Ramdas Pophale) SiO2 
 PCOD9166181
Probable space group: P 21/M
;
_chemical_formula_sum "Si O2"
_cell_formula_units_Z 24
_cell_length_a 15.669354
_cell_length_b 14.564856
_cell_length_c 7.469413
_cell_angle_alpha 90.000000
_cell_angle_beta 42.343864
_cell_angle_gamma 90.000000
_cell_volume 1148.238259
_symmetry_space_group_name_H-M "P 21/M"
_symmetry_group_IT_number 11
_symmetry_cell_setting 'monoclinic'
loop_
_space_group_symop_operation_xyz
x,y,z
-x,1/2+y,-z
-x,-y,-z
x,1/2-y,z
loop_
_atom_site_type_symbol
_atom_site_label
_atom_site_fract_x
_atom_site_fract_y
_atom_site_fract_z
Si Si1 0.179013 0.140616 0.852126
Si Si2 0.611589 0.491887 0.573863
Si Si3 0.972046 0.145874 0.898116
Si Si4 0.704384 0.143344 0.168317
Si Si5 0.891785 0.578047 0.645783
Si Si6 0.332053 0.550068 0.126925
O O1 0.200053 0.250000 0.785640
O O2 0.299962 0.078477 0.613879
O O3 0.060372 0.105976 0.915654
O O4 0.139885 0.125020 0.117803
O O5 0.474375 0.525152 0.848978
O O6 0.603410 0.422020 0.420578
O O7 0.669371 0.438185 0.657404
O O8 0.945597 0.250000 0.995498
O O9 0.054313 0.143890 0.590181
O O10 0.835970 0.107164 0.052336
O O11 0.685129 0.250000 0.237332
O O12 0.764309 0.968462 0.770205
O O13 0.708965 0.129365 0.947723
O O14 0.000000 0.500000 0.500000
#
# Coordination Sequence:
#
# PCOD9166181 Si02
#       6
#     4   4   4   4   4   4
#     4  11  24  40  65  95 128 169 213 262 319 381
#     4  11  24  44  65  91 130 168 212 264 317 379
#     4  10  22  39  59  94 128 158 209 260 311 378
#     4  11  24  42  67  94 127 167 213 266 315 375
#     4  12  22  38  65  90 121 168 207 259 319 373
#     4  11  24  42  65  91 125 166 215 261 317 385
#
# _framework density 20.901585000000001
#
# number of rings (size 3 to 8) (size 9 to 14) (size 15 to 20)
#    0.000    1.000    5.000    1.000    2.333    2.667 
#    0.000    3.333    0.000    0.000    0.000    0.000 
#    0.000    0.000    0.000    0.000    0.000    0.000 
#
# Total GULP energy -134010.471880 kJ/mol
# GULP energy per Si atom -5583.769662 kJ/mol
# Density = 2.085401 g / cm^3
# Si number density = 20.901585 Si / 1000 Ang^3
#
#
#
# Elastic Constant Matrix: (Units=GPa)
#
#
# Indices 1 2 3 4 5 6 
#
# 1 70.6761 3.1256 11.1911 0.0000 8.8402 0.0000
# 2 3.1256 80.4322 9.1872 0.0000 -2.2076 0.0000
# 3 11.1911 9.1872 86.8557 0.0000 14.4842 0.0000
# 4 0.0000 0.0000 0.0000 19.7296 0.0000 10.5815
# 5 8.8402 -2.2076 14.4842 0.0000 41.4736 0.0000
# 6 0.0000 0.0000 0.0000 10.5815 0.0000 20.9933
#
#
#
# Elastic Compliance Matrix: (Units=1/GPa)
#
#
# Indices 1 2 3 4 5 6 
#
# 1 0.014727 -0.000486 -0.001400 0.000000 -0.002676 0.000000
# 2 -0.000486 0.012658 -0.001493 0.000000 0.001299 0.000000
# 3 -0.001400 -0.001493 0.012546 0.000000 -0.004163 0.000000
# 4 0.000000 0.000000 0.000000 0.069463 0.000000 -0.035012
# 5 -0.002676 0.001299 -0.004163 0.000000 0.026205 0.000000
# 6 0.000000 0.000000 0.000000 -0.035012 0.000000 0.065282
#
#
# Mechanical properties :
#
#
# Convention : Reuss Voigt Hill
#
# Bulk Modulus (GPa) = 30.14460 31.66352 30.90406
# Shear Modulus (GPa) = 22.86288 30.73665 26.79976
#
# Velocity S-wave (km/s) = 3.31091 3.83892 3.58465
# Velocity P-wave (km/s) = 5.39162 5.90182 5.65248
#
# Compressibility (1/GPa) = 0.03317344
#
# Stress axis : x y z
#
# Youngs Moduli (GPa) = 67.90281 79.00223 79.70809
#
# Poissons Ratio (x) = 0.03838 0.11158
# Poissons Ratio (y) = 0.03299 0.11899
# Poissons Ratio (z) = 0.09505 0.11794
#
# Static dielectric constant tensor:
#      x y z
#    x 1.800690 0.000000 0.006610 
#    y 0.000000 1.758990 0.000000 
#    z 0.006610 0.000000 1.734960 
# 
# From -- ./inp_files/6358.got.cif
#   From: 2010.05.17/outbox.cif.g08.bks.cpg/sg11_4_cif.got.tgz:6358.got - 2010.06.03 12:22:45.
