data_PCOD9166901
_publ_section_title
;
Structure prediction by ZEFSAII (Michael W. Deem and Ramdas Pophale) SiO2 
 PCOD9166901
Probable space group: P 21/M
;
_chemical_formula_sum "Si O2"
_cell_formula_units_Z 22
_cell_length_a 7.758217
_cell_length_b 14.143225
_cell_length_c 14.545353
_cell_angle_alpha 90.000000
_cell_angle_beta 36.272241
_cell_angle_gamma 90.000000
_cell_volume 944.233556
_symmetry_space_group_name_H-M "P 21/M"
_symmetry_group_IT_number 11
_symmetry_cell_setting 'monoclinic'
loop_
_space_group_symop_operation_xyz
x,y,z
-x,1/2+y,-z
-x,-y,-z
x,1/2-y,z
loop_
_atom_site_type_symbol
_atom_site_label
_atom_site_fract_x
_atom_site_fract_y
_atom_site_fract_z
Si Si1 0.333062 0.250000 0.936538
Si Si2 0.898878 0.427643 0.278348
Si Si3 0.212141 0.536717 0.989934
Si Si4 0.670892 0.075177 0.702236
Si Si5 0.789866 0.750000 0.793860
Si Si6 0.312200 0.451806 0.469989
Si Si7 0.795015 0.250000 0.040083
O O1 0.494682 0.161050 0.821235
O O2 0.998998 0.250000 0.042803
O O3 0.346280 0.250000 0.042054
O O4 0.609743 0.394032 0.347985
O O5 0.791148 0.514095 0.386276
O O6 0.017555 0.343287 0.287894
O O7 0.136853 0.470805 0.108083
O O8 0.541477 0.514551 0.815404
O O9 0.147424 0.647693 0.032341
O O10 0.000000 0.500000 0.000000
O O11 0.607294 0.043786 0.625685
O O12 0.016587 0.091586 0.557136
O O13 0.555610 0.750000 0.813212
#
# Coordination Sequence:
#
# PCOD9166901 Si02
#       7
#     2   4   4   4   2   4   2
#     4  12  24  44  70 105 139 181 243 294 347 417
#     4  11  23  45  67 101 142 182 232 297 346 421
#     4  12  22  44  73  99 143 186 240 295 347 420
#     4  11  23  44  68 101 136 187 233 285 357 424
#     4  12  26  42  72 111 137 187 247 292 349 423
#     4  10  24  42  67  97 143 187 223 291 365 411
#     4  12  26  40  70 110 134 182 232 304 352 410
#
# _framework density 23.299319000000001
#
# number of rings (size 3 to 8) (size 9 to 14) (size 15 to 20)
#    0.000    0.727    5.455    1.091    2.545    2.909 
#    0.000    7.273    0.000    0.000    0.000    0.000 
#    0.000    0.000    0.000    0.000    0.000    0.000 
#
# Total GULP energy -122836.939954 kJ/mol
# GULP energy per Si atom -5583.497271 kJ/mol
# Density = 2.324629 g / cm^3
# Si number density = 23.299319 Si / 1000 Ang^3
#
#
#
# Elastic Constant Matrix: (Units=GPa)
#
#
# Indices 1 2 3 4 5 6 
#
# 1 62.6982 5.0367 15.5306 0.0000 -24.3332 0.0000
# 2 5.0367 104.8403 17.9102 0.0000 -19.9152 0.0000
# 3 15.5306 17.9102 92.8574 0.0000 -2.6228 0.0000
# 4 0.0000 0.0000 0.0000 31.0911 0.0000 -4.8294
# 5 -24.3332 -19.9152 -2.6228 0.0000 47.5978 0.0000
# 6 0.0000 0.0000 0.0000 -4.8294 0.0000 21.8682
#
#
#
# Elastic Compliance Matrix: (Units=1/GPa)
#
#
# Indices 1 2 3 4 5 6 
#
# 1 0.021075 0.001740 -0.003541 0.000000 0.011307 0.000000
# 2 0.001740 0.010844 -0.002233 0.000000 0.005304 0.000000
# 3 -0.003541 -0.002233 0.011733 0.000000 -0.002098 0.000000
# 4 0.000000 0.000000 0.000000 0.033306 0.000000 0.007355
# 5 0.011307 0.005304 -0.002098 0.000000 0.028893 0.000000
# 6 0.000000 0.000000 0.000000 0.007355 0.000000 0.047353
#
#
# Mechanical properties :
#
#
# Convention : Reuss Voigt Hill
#
# Bulk Modulus (GPa) = 28.10225 37.48345 32.79285
# Shear Modulus (GPa) = 28.87964 34.90600 31.89282
#
# Velocity S-wave (km/s) = 3.52448 3.87480 3.70378
# Velocity P-wave (km/s) = 5.35259 6.01178 5.69173
#
# Compressibility (1/GPa) = 0.03558434
#
# Stress axis : x y z
#
# Youngs Moduli (GPa) = 47.44945 92.22026 85.23073
#
# Poissons Ratio (x) = -0.16049 0.30182
# Poissons Ratio (y) = -0.08258 0.19030
# Poissons Ratio (z) = 0.16803 0.20591
#
# Static dielectric constant tensor:
#      x y z
#    x 1.972180 0.000000 -0.074050 
#    y 0.000000 1.879760 0.000000 
#    z -0.074050 0.000000 1.886640 
# 
# From -- ./inp_files/58076.got.cif
#   From: 2010.05.17/outbox.cif.g08.bks.cpg/sg11_30_cif.got.tgz:58076.got - 2010.06.03 12:22:45.
