data_PCOD9166721
_publ_section_title
;
Structure prediction by ZEFSAII (Michael W. Deem and Ramdas Pophale) SiO2 
 PCOD9166721
Probable space group: P 21/M
;
_chemical_formula_sum "Si O2"
_cell_formula_units_Z 28
_cell_length_a 16.112715
_cell_length_b 8.555631
_cell_length_c 12.197744
_cell_angle_alpha 90.000000
_cell_angle_beta 58.002200
_cell_angle_gamma 90.000000
_cell_volume 1426.038295
_symmetry_space_group_name_H-M "P 21/M"
_symmetry_group_IT_number 11
_symmetry_cell_setting 'monoclinic'
loop_
_space_group_symop_operation_xyz
x,y,z
-x,1/2+y,-z
-x,-y,-z
x,1/2-y,z
loop_
_atom_site_type_symbol
_atom_site_label
_atom_site_fract_x
_atom_site_fract_y
_atom_site_fract_z
Si Si1 0.795650 0.060958 0.379126
Si Si2 0.480439 0.562111 0.179935
Si Si3 0.857660 0.937906 0.866690
Si Si4 0.568790 0.061185 0.547008
Si Si5 0.889504 0.437789 0.079788
Si Si6 0.967361 0.936211 0.403398
Si Si7 0.655781 0.561657 0.900532
O O1 0.799806 0.250000 0.382710
O O2 0.682331 0.011612 0.462670
O O3 0.839440 0.014591 0.229449
O O4 0.863135 0.995557 0.429714
O O5 0.481640 0.750000 0.177945
O O6 0.476879 0.507675 0.306232
O O7 0.383909 0.506066 0.184586
O O8 0.575875 0.508150 0.046645
O O9 0.866695 0.750000 0.861203
O O10 0.763794 0.984440 0.860448
O O11 0.953539 0.008090 0.742530
O O12 0.842634 0.995628 0.001379
O O13 0.568935 0.250000 0.543926
O O14 0.500000 0.000000 0.500000
O O15 0.889271 0.250000 0.075448
O O16 0.000000 0.500000 0.000000
O O17 0.965787 0.750000 0.410457
O O18 0.000000 0.000000 0.500000
O O19 0.652977 0.750000 0.897619
#
# Coordination Sequence:
#
# PCOD9166721 Si02
#       7
#     4   4   4   4   4   4   4
#     4  10  23  43  63  89 125 163 207 259 309 364
#     4   9  19  38  60  85 117 154 198 248 301 357
#     4  11  23  39  61  91 125 157 201 252 301 363
#     4  10  23  41  62  89 121 160 205 252 304 361
#     4  11  22  38  61  87 120 159 202 249 304 358
#     4  12  26  43  65  92 125 164 206 250 308 371
#     4   9  20  37  59  87 118 154 196 247 301 355
#
# _framework density 19.634816000000001
#
# number of rings (size 3 to 8) (size 9 to 14) (size 15 to 20)
#    0.000    1.714    1.429    2.143    4.000    2.857 
#    0.000    0.000    0.000    0.000    0.000    0.000 
#    0.000    0.000    0.000    0.000    0.000    0.000 
#
# Total GULP energy -156428.496718 kJ/mol
# GULP energy per Si atom -5586.732026 kJ/mol
# Density = 1.959013 g / cm^3
# Si number density = 19.634816 Si / 1000 Ang^3
#
#
#
# Elastic Constant Matrix: (Units=GPa)
#
#
# Indices 1 2 3 4 5 6 
#
# 1 150.2412 25.9958 47.5594 0.0000 14.6445 0.0000
# 2 25.9958 37.2818 19.2682 0.0000 3.7849 0.0000
# 3 47.5594 19.2682 77.7849 0.0000 26.8803 0.0000
# 4 0.0000 0.0000 0.0000 22.9434 0.0000 6.3709
# 5 14.6445 3.7849 26.8803 0.0000 35.3538 0.0000
# 6 0.0000 0.0000 0.0000 6.3709 0.0000 36.7391
#
#
#
# Elastic Compliance Matrix: (Units=1/GPa)
#
#
# Indices 1 2 3 4 5 6 
#
# 1 0.008701 -0.003788 -0.004443 0.000000 0.000180 0.000000
# 2 -0.003788 0.032713 -0.006943 0.000000 0.003346 0.000000
# 3 -0.004443 -0.006943 0.022245 0.000000 -0.014329 0.000000
# 4 0.000000 0.000000 0.000000 0.045791 0.000000 -0.007941
# 5 0.000180 0.003346 -0.014329 0.000000 0.038747 0.000000
# 6 0.000000 0.000000 0.000000 -0.007941 0.000000 0.028596
#
#
# Mechanical properties :
#
#
# Convention : Reuss Voigt Hill
#
# Bulk Modulus (GPa) = 30.02340 50.10609 40.06475
# Shear Modulus (GPa) = 22.91001 30.50623 26.70812
#
# Velocity S-wave (km/s) = 3.41956 3.94595 3.69215
# Velocity P-wave (km/s) = 5.56015 6.80699 6.21492
#
# Compressibility (1/GPa) = 0.03330735
#
# Stress axis : x y z
#
# Youngs Moduli (GPa) = 114.93568 30.56873 44.95492
#
# Poissons Ratio (x) = 0.11581 0.19976
# Poissons Ratio (y) = 0.43543 0.31214
# Poissons Ratio (z) = 0.51071 0.21225
#
# Static dielectric constant tensor:
#      x y z
#    x 1.475260 0.000000 0.080200 
#    y 0.000000 1.670310 0.000000 
#    z 0.080200 0.000000 1.658480 
# 
# From -- ./inp_files/37869.got.cif
#   From: 2010.05.17/outbox.cif.g08.bks.cpg/sg11_19_cif.got.tgz:37869.got - 2010.06.03 12:22:45.
