data_PCOD9166050
_publ_section_title
;
Structure prediction by ZEFSAII (Michael W. Deem and Ramdas Pophale) SiO2 
 PCOD9166050
Probable space group: P 21/M
;
_chemical_formula_sum "Si O2"
_cell_formula_units_Z 20
_cell_length_a 22.314272
_cell_length_b 7.445261
_cell_length_c 13.554341
_cell_angle_alpha 90.000000
_cell_angle_beta 22.926197
_cell_angle_gamma 90.000000
_cell_volume 877.200357
_symmetry_space_group_name_H-M "P 21/M"
_symmetry_group_IT_number 11
_symmetry_cell_setting 'monoclinic'
loop_
_space_group_symop_operation_xyz
x,y,z
-x,1/2+y,-z
-x,-y,-z
x,1/2-y,z
loop_
_atom_site_type_symbol
_atom_site_label
_atom_site_fract_x
_atom_site_fract_y
_atom_site_fract_z
Si Si1 0.814484 0.034195 0.779683
Si Si2 0.672338 0.465385 0.201508
Si Si3 0.798389 0.452494 0.208177
Si Si4 0.850242 0.030171 0.332960
Si Si5 0.334859 0.535243 0.199029
O O1 0.800102 0.250000 0.800464
O O2 0.722684 0.967374 0.820902
O O3 0.731871 0.966570 0.005558
O O4 0.000000 0.000000 0.500000
O O5 0.500000 0.500000 0.500000
O O6 0.695079 0.250000 0.161091
O O7 0.763664 0.541274 0.156975
O O8 0.734577 0.250000 0.301732
O O9 0.751907 0.527600 0.385585
O O10 0.981857 0.449763 0.932864
O O11 0.858505 0.250000 0.317620
O O12 0.782891 0.972650 0.538603
O O13 0.324496 0.750000 0.208351
O O14 0.500000 0.500000 0.000000
#
# Coordination Sequence:
#
# PCOD9166050 Si02
#       5
#     4   4   4   4   4
#     4  10  22  40  60  86 117 152 195 240 285 344
#     4  10  22  37  55  81 114 147 186 232 279 333
#     4   9  18  33  53  77 104 136 176 220 266 322
#     4   9  18  33  53  77 104 136 176 220 266 322
#     4  10  22  37  55  81 114 147 186 232 279 333
#
# _framework density 22.799807000000001
#
# number of rings (size 3 to 8) (size 9 to 14) (size 15 to 20)
#    0.000    2.400    0.000    1.200    2.800    3.200 
#    0.000    0.000    0.000    0.000    0.000    0.000 
#    0.000    0.000    0.000    0.000    0.000    0.000 
#
# Total GULP energy -111393.192750 kJ/mol
# GULP energy per Si atom -5569.659638 kJ/mol
# Density = 2.274791 g / cm^3
# Si number density = 22.799807 Si / 1000 Ang^3
#
#
#
# Elastic Constant Matrix: (Units=GPa)
#
#
# Indices 1 2 3 4 5 6 
#
# 1 283.6150 14.8750 86.5062 0.0000 29.5389 0.0000
# 2 14.8750 79.1169 -9.6547 0.0000 7.1978 0.0000
# 3 86.5062 -9.6547 79.9975 0.0000 10.5510 0.0000
# 4 0.0000 0.0000 0.0000 23.3655 0.0000 -8.0761
# 5 29.5389 7.1978 10.5510 0.0000 36.9132 0.0000
# 6 0.0000 0.0000 0.0000 -8.0761 0.0000 -0.0010
#
#
#
# Elastic Compliance Matrix: (Units=1/GPa)
#
#
# Indices 1 2 3 4 5 6 
#
# 1 0.005714 -0.001580 -0.006034 0.000000 -0.002539 0.000000
# 2 -0.001580 0.013606 0.003672 0.000000 -0.002439 0.000000
# 3 -0.006034 0.003672 0.019668 0.000000 -0.001509 0.000000
# 4 0.000000 0.000000 0.000000 0.000016 0.000000 -0.123777
# 5 -0.002539 -0.002439 -0.001509 0.000000 0.030030 0.000000
# 6 0.000000 0.000000 0.000000 -0.123777 0.000000 -0.358107
#
#
# Mechanical properties :
#
#
# Convention : Reuss Voigt Hill
#
# Bulk Modulus (GPa) = 32.15023 69.57581 50.86302
# Shear Modulus (GPa) = -18.46234 35.45572 8.49669
#
# Velocity S-wave (km/s) = -2.84871 3.94774 1.93255
# Velocity P-wave (km/s) = 1.81975 7.16671 5.22844
#
# Compressibility (1/GPa) = 0.03110398
#
# Stress axis : x y z
#
# Youngs Moduli (GPa) = 175.01442 73.49447 50.84424
#
# Poissons Ratio (x) = 0.11609 0.30681
# Poissons Ratio (y) = 0.27646 -0.18670
# Poissons Ratio (z) = 1.05611 -0.26987
#
# Static dielectric constant tensor:
#      x y z
#    x 2.036080 0.000000 0.001330 
#    y 0.000000 1.835940 0.000000 
#    z 0.001330 0.000000 1.760990 
# 
# From -- ./inp_files/55353.got.cif
#   From: 2010.05.17/outbox.cif.g08.bks.cpg/sg11_28_cif.got.tgz:55353.got - 2010.06.03 12:22:45.
