data_PCOD9166500
_publ_section_title
;
Structure prediction by ZEFSAII (Michael W. Deem and Ramdas Pophale) SiO2 
 PCOD9166500
Probable space group: P 21/M
;
_chemical_formula_sum "Si O2"
_cell_formula_units_Z 26
_cell_length_a 18.977068
_cell_length_b 9.446713
_cell_length_c 12.131770
_cell_angle_alpha 90.000000
_cell_angle_beta 142.642294
_cell_angle_gamma 90.000000
_cell_volume 1319.689890
_symmetry_space_group_name_H-M "P 21/M"
_symmetry_group_IT_number 11
_symmetry_cell_setting 'monoclinic'
loop_
_space_group_symop_operation_xyz
x,y,z
-x,1/2+y,-z
-x,-y,-z
x,1/2-y,z
loop_
_atom_site_type_symbol
_atom_site_label
_atom_site_fract_x
_atom_site_fract_y
_atom_site_fract_z
Si Si1 0.393440 0.579490 0.927126
Si Si2 0.951325 0.475719 0.290381
Si Si3 0.771514 0.079183 0.876673
Si Si4 0.215050 0.090142 0.567634
Si Si5 0.959682 0.250000 0.474708
Si Si6 0.441254 0.920911 0.237400
Si Si7 0.708353 0.918936 0.587679
O O1 0.402833 0.750000 0.929657
O O2 0.279731 0.522723 0.724094
O O3 0.500000 0.500000 0.000000
O O4 0.398641 0.538864 0.062257
O O5 0.078366 0.413788 0.418806
O O6 0.901994 0.372796 0.322817
O O7 0.974700 0.627139 0.371237
O O8 0.871619 0.470433 0.084129
O O9 0.775539 0.250000 0.872808
O O10 0.649827 0.035121 0.783090
O O11 0.776537 0.005654 0.764546
O O12 0.258170 0.250000 0.646127
O O13 0.243378 0.060215 0.475488
O O14 0.443964 0.750000 0.241631
O O15 0.573590 0.967330 0.420294
O O16 0.712914 0.750000 0.616031
#
# Coordination Sequence:
#
# PCOD9166500 Si02
#       7
#     4   4   4   4   2   4   4
#     4  11  22  38  63  94 126 164 207 252 315 374
#     4  11  24  42  64  96 123 167 201 255 312 374
#     4  11  23  40  63  90 121 161 211 260 303 365
#     4  11  23  41  63  91 130 166 201 256 315 377
#     4  10  24  42  64  88 134 156 206 250 310 374
#     4   9  20  38  61  87 121 161 201 255 314 363
#     4  10  22  42  61  84 123 167 206 252 311 371
#
# _framework density 19.701597
#
# number of rings (size 3 to 8) (size 9 to 14) (size 15 to 20)
#    0.000    1.538    3.077    0.923    6.462    1.231 
#    0.000    1.538    0.000    0.000    0.000    0.000 
#    0.000    0.000    0.000    0.000    0.000    0.000 
#
# Total GULP energy -144768.884803 kJ/mol
# GULP energy per Si atom -5568.034031 kJ/mol
# Density = 1.965675 g / cm^3
# Si number density = 19.701597 Si / 1000 Ang^3
#
#
#
# Elastic Constant Matrix: (Units=GPa)
#
#
# Indices 1 2 3 4 5 6 
#
# 1 44.8405 7.2441 16.8845 0.0000 -1.7804 0.0000
# 2 7.2441 81.4660 44.1910 0.0000 -20.5815 0.0000
# 3 16.8845 44.1910 131.8193 0.0000 -21.3302 0.0000
# 4 0.0000 0.0000 0.0000 11.5806 0.0000 -15.5608
# 5 -1.7804 -20.5815 -21.3302 0.0000 27.0140 0.0000
# 6 0.0000 0.0000 0.0000 -15.5608 0.0000 10.5297
#
#
#
# Elastic Compliance Matrix: (Units=1/GPa)
#
#
# Indices 1 2 3 4 5 6 
#
# 1 0.023495 -0.000847 -0.002957 0.000000 -0.001432 0.000000
# 2 -0.000847 0.016981 -0.004012 0.000000 0.009713 0.000000
# 3 -0.002957 -0.004012 0.010071 0.000000 0.004700 0.000000
# 4 0.000000 0.000000 0.000000 -0.087602 0.000000 -0.129459
# 5 -0.001432 0.009713 0.004700 0.000000 0.048035 0.000000
# 6 0.000000 0.000000 0.000000 -0.129459 0.000000 -0.096346
#
#
# Mechanical properties :
#
#
# Convention : Reuss Voigt Hill
#
# Bulk Modulus (GPa) = 28.64230 43.86278 36.25254
# Shear Modulus (GPa) = -86.06376 22.47860 -31.79258
#
# Velocity S-wave (km/s) = -6.61653 3.38146 -4.02145
# Velocity P-wave (km/s) = 6.61828 6.12843 1.76693
#
# Compressibility (1/GPa) = 0.03491340
#
# Stress axis : x y z
#
# Youngs Moduli (GPa) = 42.56273 58.88981 99.29961
#
# Poissons Ratio (x) = 0.04986 0.29365
# Poissons Ratio (y) = 0.03604 0.39843
# Poissons Ratio (z) = 0.12587 0.23629
#
# Static dielectric constant tensor:
#      x y z
#    x 1.731890 0.000000 0.026040 
#    y 0.000000 1.667810 0.000000 
#    z 0.026040 0.000000 1.674170 
# 
# From -- ./inp_files/42963.got.cif
#   From: 2010.05.17/outbox.cif.g08.bks.cpg/sg11_22_cif.got.tgz:42963.got - 2010.06.03 12:22:45.
