data_PCOD9166828
_publ_section_title
;
Structure prediction by ZEFSAII (Michael W. Deem and Ramdas Pophale) SiO2 
 PCOD9166828
Probable space group: P 21/M
;
_chemical_formula_sum "Si O2"
_cell_formula_units_Z 28
_cell_length_a 12.887683
_cell_length_b 8.792413
_cell_length_c 14.861531
_cell_angle_alpha 90.000000
_cell_angle_beta 58.839643
_cell_angle_gamma 90.000000
_cell_volume 1441.051219
_symmetry_space_group_name_H-M "P 21/M"
_symmetry_group_IT_number 11
_symmetry_cell_setting 'monoclinic'
loop_
_space_group_symop_operation_xyz
x,y,z
-x,1/2+y,-z
-x,-y,-z
x,1/2-y,z
loop_
_atom_site_type_symbol
_atom_site_label
_atom_site_fract_x
_atom_site_fract_y
_atom_site_fract_z
Si Si1 0.495657 0.567252 0.270234
Si Si2 0.977280 0.431046 0.107789
Si Si3 0.047146 0.431232 0.571951
Si Si4 0.722854 0.567639 0.283239
Si Si5 0.862561 0.932072 0.796573
Si Si6 0.305455 0.567468 0.512442
Si Si7 0.416432 0.431885 0.115387
O O1 0.490306 0.750000 0.261128
O O2 0.630077 0.527669 0.244755
O O3 0.403646 0.526790 0.392408
O O4 0.457561 0.491035 0.194385
O O5 0.962877 0.250000 0.107648
O O6 0.855301 0.500045 0.205450
O O7 0.089760 0.461476 0.124147
O O8 0.000000 0.500000 0.000000
O O9 0.059729 0.250000 0.560382
O O10 0.175316 0.505774 0.539364
O O11 0.000000 0.500000 0.500000
O O12 0.950143 0.477431 0.690867
O O13 0.730525 0.750000 0.285583
O O14 0.671463 0.504386 0.400278
O O15 0.876516 0.750000 0.773578
O O16 0.723523 0.973399 0.841472
O O17 0.302342 0.750000 0.522045
O O18 0.424787 0.250000 0.109655
O O19 0.500000 0.500000 0.000000
#
# Coordination Sequence:
#
# PCOD9166828 Si02
#       7
#     4   4   4   4   4   4   4
#     4  10  24  43  64  92 130 171 212 261 313 373
#     4  11  24  42  66  95 129 167 212 262 318 378
#     4  12  24  38  62  93 128 168 210 260 313 373
#     4  11  23  41  65  96 131 168 212 261 317 375
#     4  10  23  44  66  91 127 166 208 263 316 371
#     4  11  22  40  64  94 130 168 210 258 315 377
#     4  11  25  44  67  94 125 165 212 262 317 376
#
# _framework density 19.430261000000002
#
# number of rings (size 3 to 8) (size 9 to 14) (size 15 to 20)
#    0.000    1.143    1.429    4.286    2.000    6.286 
#    0.000    0.000    0.000    0.000    0.000    0.000 
#    0.000    0.000    0.000    0.000    0.000    0.000 
#
# Total GULP energy -156642.981076 kJ/mol
# GULP energy per Si atom -5594.392181 kJ/mol
# Density = 1.938604 g / cm^3
# Si number density = 19.430261 Si / 1000 Ang^3
#
#
#
# Elastic Constant Matrix: (Units=GPa)
#
#
# Indices 1 2 3 4 5 6 
#
# 1 150.6554 45.2684 42.6880 0.0000 18.8074 0.0000
# 2 45.2684 52.5046 30.2436 0.0000 14.9994 0.0000
# 3 42.6880 30.2436 84.7469 0.0000 25.3669 0.0000
# 4 0.0000 0.0000 0.0000 37.7846 0.0000 7.5893
# 5 18.8074 14.9994 25.3669 0.0000 35.2868 0.0000
# 6 0.0000 0.0000 0.0000 7.5893 0.0000 29.9587
#
#
#
# Elastic Compliance Matrix: (Units=1/GPa)
#
#
# Indices 1 2 3 4 5 6 
#
# 1 0.009310 -0.006617 -0.002147 0.000000 -0.000606 0.000000
# 2 -0.006617 0.029435 -0.005711 0.000000 -0.004880 0.000000
# 3 -0.002147 -0.005711 0.017647 0.000000 -0.009115 0.000000
# 4 0.000000 0.000000 0.000000 0.027885 0.000000 -0.007064
# 5 -0.000606 -0.004880 -0.009115 0.000000 0.037289 0.000000
# 6 0.000000 0.000000 0.000000 -0.007064 0.000000 0.035169
#
#
# Mechanical properties :
#
#
# Convention : Reuss Voigt Hill
#
# Bulk Modulus (GPa) = 36.43895 58.25635 47.34765
# Shear Modulus (GPa) = 25.66337 31.91982 28.79160
#
# Velocity S-wave (km/s) = 3.63822 4.05753 3.85358
# Velocity P-wave (km/s) = 6.03682 7.21102 6.64989
#
# Compressibility (1/GPa) = 0.02744316
#
# Stress axis : x y z
#
# Youngs Moduli (GPa) = 107.41296 33.97366 56.66591
#
# Poissons Ratio (x) = 0.22481 0.12164
# Poissons Ratio (y) = 0.71077 0.32359
# Poissons Ratio (z) = 0.23057 0.19401
#
# Static dielectric constant tensor:
#      x y z
#    x 1.717560 0.000000 0.025980 
#    y 0.000000 1.650600 0.000000 
#    z 0.025980 0.000000 1.657780 
# 
# From -- ./inp_files/49143.got.cif
#   From: 2010.05.17/outbox.cif.g08.bks.cpg/sg11_25_cif.got.tgz:49143.got - 2010.06.03 12:22:45.
