data_PCOD9166108
_publ_section_title
;
Structure prediction by ZEFSAII (Michael W. Deem and Ramdas Pophale) SiO2 
 PCOD9166108
Probable space group: P 21/M
;
_chemical_formula_sum "Si O2"
_cell_formula_units_Z 30
_cell_length_a 9.419550
_cell_length_b 15.019079
_cell_length_c 16.026934
_cell_angle_alpha 90.000000
_cell_angle_beta 36.096787
_cell_angle_gamma 90.000000
_cell_volume 1335.828052
_symmetry_space_group_name_H-M "P 21/M"
_symmetry_group_IT_number 11
_symmetry_cell_setting 'monoclinic'
loop_
_space_group_symop_operation_xyz
x,y,z
-x,1/2+y,-z
-x,-y,-z
x,1/2-y,z
loop_
_atom_site_type_symbol
_atom_site_label
_atom_site_fract_x
_atom_site_fract_y
_atom_site_fract_z
Si Si1 0.035575 0.983489 0.825433
Si Si2 0.740415 0.352410 0.904942
Si Si3 0.446705 0.511463 0.427274
Si Si4 0.796403 0.841515 0.519541
Si Si5 0.460035 0.416260 0.871754
Si Si6 0.113009 0.851024 0.635957
Si Si7 0.298666 0.750000 0.309076
Si Si8 0.619111 0.887258 0.777256
O O1 0.076406 0.907975 0.736442
O O2 0.947518 0.074676 0.821986
O O3 0.816877 0.947658 0.985472
O O4 0.298362 0.000561 0.739942
O O5 0.811045 0.250000 0.851075
O O6 0.568274 0.386876 0.911695
O O7 0.590122 0.354596 0.062055
O O8 0.500000 0.500000 0.500000
O O9 0.256796 0.434162 0.498093
O O10 0.320147 0.606222 0.480372
O O11 0.728600 0.750000 0.503830
O O12 0.633229 0.846848 0.679373
O O13 0.075219 0.825696 0.410258
O O14 0.502804 0.330212 0.795415
O O15 0.599979 0.505986 0.780021
O O16 0.169358 0.750000 0.628458
O O17 0.865644 0.858944 0.703933
#
# Coordination Sequence:
#
# PCOD9166108 Si02
#       8
#     4   4   4   4   4   4   2   4
#     4  10  22  38  58  95 129 166 211 263 319 371
#     4  11  20  35  66  98 128 165 214 271 324 376
#     4  10  24  41  60  88 128 173 215 253 305 382
#     4  10  24  44  64  92 129 168 215 261 324 388
#     4  11  20  37  63  95 132 161 213 272 322 373
#     4  11  21  35  60  93 127 162 212 264 319 375
#     4  10  24  36  60  98 124 164 214 268 326 372
#     4  11  21  40  65  94 129 165 209 277 328 379
#
# _framework density 22.457981
#
# number of rings (size 3 to 8) (size 9 to 14) (size 15 to 20)
#    0.400    1.067    3.333    2.800    2.800    4.800 
#    0.000    2.667    0.000    0.000    3.467    0.000 
#    0.000    0.000    0.000    0.000    0.000    0.000 
#
# Total GULP energy -167072.104778 kJ/mol
# GULP energy per Si atom -5569.070159 kJ/mol
# Density = 2.240687 g / cm^3
# Si number density = 22.457981 Si / 1000 Ang^3
#
#
#
# Elastic Constant Matrix: (Units=GPa)
#
#
# Indices 1 2 3 4 5 6 
#
# 1 13.4899 13.1529 20.7038 0.0000 -9.1098 0.0000
# 2 13.1529 193.7586 50.7997 0.0000 -19.3389 0.0000
# 3 20.7038 50.7997 99.0829 0.0000 -18.1917 0.0000
# 4 0.0000 0.0000 0.0000 22.0901 0.0000 1.0792
# 5 -9.1098 -19.3389 -18.1917 0.0000 33.6188 0.0000
# 6 0.0000 0.0000 0.0000 1.0792 0.0000 -18.7151
#
#
#
# Elastic Compliance Matrix: (Units=1/GPa)
#
#
# Indices 1 2 3 4 5 6 
#
# 1 0.121517 -0.000579 -0.021219 0.000000 0.021114 0.000000
# 2 -0.000579 0.006085 -0.002648 0.000000 0.001911 0.000000
# 3 -0.021219 -0.002648 0.016154 0.000000 0.001468 0.000000
# 4 0.000000 0.000000 0.000000 0.045142 0.000000 0.002603
# 5 0.021114 0.001911 0.001468 0.000000 0.037360 0.000000
# 6 0.000000 0.000000 0.000000 0.002603 0.000000 -0.053283
#
#
# Mechanical properties :
#
#
# Convention : Reuss Voigt Hill
#
# Bulk Modulus (GPa) = 10.54123 52.84936 31.69529
# Shear Modulus (GPa) = 19.72479 22.17708 20.95093
#
# Velocity S-wave (km/s) = 2.96682 3.14585 3.05765
# Velocity P-wave (km/s) = 4.05463 6.06455 5.15843
#
# Compressibility (1/GPa) = 0.09486560
#
# Stress axis : x y z
#
# Youngs Moduli (GPa) = 8.22928 164.32867 61.90598
#
# Poissons Ratio (x) = 0.09507 1.31355
# Poissons Ratio (y) = 0.00476 0.16394
# Poissons Ratio (z) = 0.17461 0.43518
#
# Static dielectric constant tensor:
#      x y z
#    x 1.887190 0.000000 0.051930 
#    y 0.000000 1.835300 0.000000 
#    z 0.051930 0.000000 1.900020 
# 
# From -- ./inp_files/59376.got.cif
#   From: 2010.05.17/outbox.cif.g08.bks.cpg/sg11_30_cif.got.tgz:59376.got - 2010.06.03 12:22:45.
