data_PCOD9166292
_publ_section_title
;
Structure prediction by ZEFSAII (Michael W. Deem and Ramdas Pophale) SiO2 
 PCOD9166292
Probable space group: P 21/M
;
_chemical_formula_sum "Si O2"
_cell_formula_units_Z 28
_cell_length_a 14.594461
_cell_length_b 9.161113
_cell_length_c 21.157018
_cell_angle_alpha 90.000000
_cell_angle_beta 151.480735
_cell_angle_gamma 90.000000
_cell_volume 1350.586787
_symmetry_space_group_name_H-M "P 21/M"
_symmetry_group_IT_number 11
_symmetry_cell_setting 'monoclinic'
loop_
_space_group_symop_operation_xyz
x,y,z
-x,1/2+y,-z
-x,-y,-z
x,1/2-y,z
loop_
_atom_site_type_symbol
_atom_site_label
_atom_site_fract_x
_atom_site_fract_y
_atom_site_fract_z
Si Si1 0.655598 0.413102 0.404562
Si Si2 0.704867 0.079174 0.117999
Si Si3 0.080730 0.923369 0.112623
Si Si4 0.768925 0.919211 0.034895
Si Si5 0.435841 0.083907 0.766301
Si Si6 0.554631 0.923159 0.598964
Si Si7 0.105780 0.412239 0.659292
O O1 0.578684 0.250000 0.342970
O O2 0.553910 0.531111 0.299188
O O3 0.620249 0.436456 0.456987
O O4 0.877843 0.415361 0.520664
O O5 0.676581 0.250000 0.093338
O O6 0.820784 0.037681 0.250567
O O7 0.500000 0.000000 0.000000
O O8 0.814948 0.013213 0.124459
O O9 0.116488 0.750000 0.122961
O O10 0.267038 0.002276 0.255894
O O11 0.918986 0.934823 0.069065
O O12 0.000000 0.000000 0.000000
O O13 0.755694 0.750000 0.044544
O O14 0.566633 0.978941 0.887160
O O15 0.502820 0.250000 0.813761
O O16 0.219747 0.075840 0.662672
O O17 0.591223 0.750000 0.611209
O O18 0.500000 0.000000 0.500000
O O19 0.161514 0.250000 0.718627
#
# Coordination Sequence:
#
# PCOD9166292 Si02
#       7
#     4   4   4   4   4   4   4
#     4  10  23  42  64  88 124 168 208 254 315 378
#     4  12  24  39  61  91 125 165 209 257 312 373
#     4  11  25  45  70  99 131 172 220 277 337 394
#     4  11  24  41  64  91 126 168 209 258 320 380
#     4  11  22  37  62  95 128 163 206 255 308 372
#     4  11  25  45  68  96 130 173 221 276 336 393
#     4  10  22  40  61  89 126 166 207 253 307 372
#
# _framework density 20.731729999999999
#
# number of rings (size 3 to 8) (size 9 to 14) (size 15 to 20)
#    0.000    1.143    1.429    4.286    2.000    8.000 
#    0.000    0.000    0.000    0.000    0.000    0.000 
#    0.000    0.000    0.000    0.000    0.000    0.000 
#
# Total GULP energy -156489.215541 kJ/mol
# GULP energy per Si atom -5588.900555 kJ/mol
# Density = 2.068454 g / cm^3
# Si number density = 20.731730 Si / 1000 Ang^3
#
#
#
# Elastic Constant Matrix: (Units=GPa)
#
#
# Indices 1 2 3 4 5 6 
#
# 1 97.7168 64.4343 23.1387 0.0000 -18.1546 0.0000
# 2 64.4343 161.4751 44.9424 0.0000 -16.7864 0.0000
# 3 23.1387 44.9424 61.5223 0.0000 -12.3481 0.0000
# 4 0.0000 0.0000 0.0000 34.0169 0.0000 -7.7564
# 5 -18.1546 -16.7864 -12.3481 0.0000 36.4359 0.0000
# 6 0.0000 0.0000 0.0000 -7.7564 0.0000 32.8236
#
#
#
# Elastic Compliance Matrix: (Units=1/GPa)
#
#
# Indices 1 2 3 4 5 6 
#
# 1 0.014690 -0.005146 -0.000829 0.000000 0.004668 0.000000
# 2 -0.005146 0.009685 -0.005106 0.000000 0.000167 0.000000
# 3 -0.000829 -0.005106 0.021182 0.000000 0.004413 0.000000
# 4 0.000000 0.000000 0.000000 0.031071 0.000000 0.007342
# 5 0.004668 0.000167 0.004413 0.000000 0.031344 0.000000
# 6 0.000000 0.000000 0.000000 0.007342 0.000000 0.032201
#
#
# Mechanical properties :
#
#
# Convention : Reuss Voigt Hill
#
# Bulk Modulus (GPa) = 42.74371 65.08276 53.91323
# Shear Modulus (GPa) = 29.38872 33.20186 31.29529
#
# Velocity S-wave (km/s) = 3.76915 4.00622 3.88949
# Velocity P-wave (km/s) = 6.29319 7.27053 6.79945
#
# Compressibility (1/GPa) = 0.02339525
#
# Stress axis : x y z
#
# Youngs Moduli (GPa) = 68.07130 103.25436 47.21080
#
# Poissons Ratio (x) = 0.53135 0.03914
# Poissons Ratio (y) = 0.35030 0.24105
# Poissons Ratio (z) = 0.05643 0.52719
#
# Static dielectric constant tensor:
#      x y z
#    x 1.752010 0.000000 0.008280 
#    y 0.000000 1.730790 0.000000 
#    z 0.008280 0.000000 1.738890 
# 
# From -- ./inp_files/65433.got.cif
#   From: 2010.05.17/outbox.cif.g08.bks.cpg/sg11_33_cif.got.tgz:65433.got - 2010.06.03 12:22:45.
