data_PCOD9166893
_publ_section_title
;
Structure prediction by ZEFSAII (Michael W. Deem and Ramdas Pophale) SiO2 
 PCOD9166893
Probable space group: P 21/M
;
_chemical_formula_sum "Si O2"
_cell_formula_units_Z 16
_cell_length_a 5.396536
_cell_length_b 27.547105
_cell_length_c 5.432880
_cell_angle_alpha 90.000000
_cell_angle_beta 57.116219
_cell_angle_gamma 90.000000
_cell_volume 678.239951
_symmetry_space_group_name_H-M "P 21/M"
_symmetry_group_IT_number 11
_symmetry_cell_setting 'monoclinic'
loop_
_space_group_symop_operation_xyz
x,y,z
-x,1/2+y,-z
-x,-y,-z
x,1/2-y,z
loop_
_atom_site_type_symbol
_atom_site_label
_atom_site_fract_x
_atom_site_fract_y
_atom_site_fract_z
Si Si1 0.839296 0.482638 0.833994
Si Si2 0.813625 0.863069 0.712224
Si Si3 0.761446 0.111161 0.148077
Si Si4 0.271422 0.693040 0.154103
O O1 0.824391 0.424487 0.887976
O O2 0.000000 0.500000 0.500000
O O3 0.500000 0.500000 0.000000
O O4 0.000000 0.500000 0.000000
O O5 0.020635 0.823025 0.477488
O O6 0.592413 0.888787 0.636049
O O7 0.577426 0.836579 0.021020
O O8 0.025812 0.899510 0.742030
O O9 0.826358 0.167454 0.047826
O O10 0.313620 0.750000 0.120978
#
# Coordination Sequence:
#
# PCOD9166893 Si02
#       4
#     4   4   4   4
#     4  12  28  47  76 108 144 187 243 296 360 428
#     4  10  24  41  66  95 135 174 223 276 346 405
#     4  10  26  44  71  94 142 174 232 280 355 406
#     4  10  24  42  66  97 132 176 227 280 342 412
#
# _framework density 23.59047
#
# number of rings (size 3 to 8) (size 9 to 14) (size 15 to 20)
#    1.500    0.000    0.000    3.000   10.500    2.000 
#    0.000    0.000    0.000    0.000    0.000    0.000 
#    0.000    0.000    0.000    0.000    0.000    0.000 
#
# Total GULP energy -89191.568424 kJ/mol
# GULP energy per Si atom -5574.473027 kJ/mol
# Density = 2.353678 g / cm^3
# Si number density = 23.590470 Si / 1000 Ang^3
#
#
#
# Elastic Constant Matrix: (Units=GPa)
#
#
# Indices 1 2 3 4 5 6 
#
# 1 206.7174 39.5189 77.5924 0.0000 -19.3563 0.0000
# 2 39.5189 89.5724 16.5181 0.0000 -4.3581 0.0000
# 3 77.5924 16.5181 114.3564 0.0000 -25.7936 0.0000
# 4 0.0000 0.0000 0.0000 37.1906 0.0000 3.6880
# 5 -19.3563 -4.3581 -25.7936 0.0000 42.3766 0.0000
# 6 0.0000 0.0000 0.0000 3.6880 0.0000 18.4487
#
#
#
# Elastic Compliance Matrix: (Units=1/GPa)
#
#
# Indices 1 2 3 4 5 6 
#
# 1 0.006906 -0.002240 -0.004292 0.000000 0.000312 0.000000
# 2 -0.002240 0.012198 -0.000220 0.000000 0.000097 0.000000
# 3 -0.004292 -0.000220 0.013030 0.000000 0.005948 0.000000
# 4 0.000000 0.000000 0.000000 0.027432 0.000000 -0.005484
# 5 0.000312 0.000097 0.005948 0.000000 0.027371 0.000000
# 6 0.000000 0.000000 0.000000 -0.005484 0.000000 0.055301
#
#
# Mechanical properties :
#
#
# Convention : Reuss Voigt Hill
#
# Bulk Modulus (GPa) = 53.67757 75.32276 64.50017
# Shear Modulus (GPa) = 30.87340 38.07096 34.47218
#
# Velocity S-wave (km/s) = 3.62155 4.02161 3.82681
# Velocity P-wave (km/s) = 6.34751 7.31868 6.85032
#
# Compressibility (1/GPa) = 0.01862975
#
# Stress axis : x y z
#
# Youngs Moduli (GPa) = 144.80220 81.98180 76.74541
#
# Poissons Ratio (x) = 0.18366 0.32938
# Poissons Ratio (y) = 0.32439 0.01688
# Poissons Ratio (z) = 0.62148 0.01803
#
# Static dielectric constant tensor:
#      x y z
#    x 1.971720 0.000000 0.013210 
#    y 0.000000 1.974590 0.000000 
#    z 0.013210 0.000000 1.936510 
# 
# From -- ./inp_files/743.got.cif
#   From: 2010.05.17/outbox.cif.g08.bks.cpg/sg11_1_cif.got.tgz:743.got - 2010.06.03 12:22:45.
