data_PCOD9166145
_publ_section_title
;
Structure prediction by ZEFSAII (Michael W. Deem and Ramdas Pophale) SiO2 
 PCOD9166145
Probable space group: P 21/M
;
_chemical_formula_sum "Si O2"
_cell_formula_units_Z 32
_cell_length_a 10.720613
_cell_length_b 26.455611
_cell_length_c 5.186224
_cell_angle_alpha 90.000000
_cell_angle_beta 68.500206
_cell_angle_gamma 90.000000
_cell_volume 1368.570589
_symmetry_space_group_name_H-M "P 21/M"
_symmetry_group_IT_number 11
_symmetry_cell_setting 'monoclinic'
loop_
_space_group_symop_operation_xyz
x,y,z
-x,1/2+y,-z
-x,-y,-z
x,1/2-y,z
loop_
_atom_site_type_symbol
_atom_site_label
_atom_site_fract_x
_atom_site_fract_y
_atom_site_fract_z
Si Si1 0.105324 0.937135 0.494608
Si Si2 0.384787 0.609710 0.317631
Si Si3 0.128189 0.192599 0.115179
Si Si4 0.743683 0.628354 0.595123
Si Si5 0.442185 0.953489 0.765922
Si Si6 0.041227 0.096797 0.913056
Si Si7 0.284535 0.025684 0.183308
Si Si8 0.424253 0.191734 0.626753
O O1 0.225690 0.898424 0.477244
O O2 0.046041 0.917591 0.269345
O O3 0.167834 0.992439 0.399104
O O4 0.002161 0.936837 0.810994
O O5 0.446007 0.573694 0.491924
O O6 0.457562 0.662959 0.312207
O O7 0.411673 0.587371 0.014393
O O8 0.081900 0.250000 0.151523
O O9 0.149277 0.168940 0.382250
O O10 0.281491 0.191776 0.887852
O O11 0.036020 0.154240 0.025615
O O12 0.729372 0.585927 0.824681
O O13 0.616232 0.659188 0.595072
O O14 0.808497 0.596056 0.315195
O O15 0.584203 0.977244 0.733334
O O16 0.327367 0.995409 0.895268
O O17 0.456675 0.250000 0.544772
#
# Coordination Sequence:
#
# PCOD9166145 Si02
#       8
#     4   4   4   4   4   4   4   4
#     4  11  24  43  63  93 138 179 218 260 316 386
#     4  11  22  43  67  94 137 172 214 271 318 395
#     4  10  22  44  73  96 125 168 218 277 331 383
#     4  11  21  43  68 100 131 169 218 275 325 389
#     4  10  22  40  62  98 132 178 221 251 318 405
#     4  11  24  46  63  95 131 175 222 269 315 382
#     4  10  22  38  65 100 132 178 214 263 326 392
#     4  10  22  39  67 103 130 160 210 279 344 380
#
# _framework density 23.382061
#
# number of rings (size 3 to 8) (size 9 to 14) (size 15 to 20)
#    0.000    1.500    2.500    2.625    0.000    7.000 
#   13.500    1.250    0.000    0.000    0.000    0.000 
#    0.000    0.000    0.000    0.000    0.000    0.000 
#
# Total GULP energy -178882.300947 kJ/mol
# GULP energy per Si atom -5590.071905 kJ/mol
# Density = 2.332884 g / cm^3
# Si number density = 23.382061 Si / 1000 Ang^3
#
#
#
# Elastic Constant Matrix: (Units=GPa)
#
#
# Indices 1 2 3 4 5 6 
#
# 1 66.8099 44.5780 11.0870 0.0000 19.1965 0.0000
# 2 44.5780 160.2258 21.8442 0.0000 3.9024 0.0000
# 3 11.0870 21.8442 88.2711 0.0000 11.2442 0.0000
# 4 0.0000 0.0000 0.0000 25.1157 0.0000 -0.2057
# 5 19.1965 3.9024 11.2442 0.0000 32.2775 0.0000
# 6 0.0000 0.0000 0.0000 -0.2057 0.0000 44.0132
#
#
#
# Elastic Compliance Matrix: (Units=1/GPa)
#
#
# Indices 1 2 3 4 5 6 
#
# 1 0.022623 -0.006020 0.000282 0.000000 -0.012825 0.000000
# 2 -0.006020 0.008063 -0.001644 0.000000 0.003178 0.000000
# 3 0.000282 -0.001644 0.012239 0.000000 -0.004233 0.000000
# 4 0.000000 0.000000 0.000000 0.039817 0.000000 0.000186
# 5 -0.012825 0.003178 -0.004233 0.000000 0.039699 0.000000
# 6 0.000000 0.000000 0.000000 0.000186 0.000000 0.022721
#
#
# Mechanical properties :
#
#
# Convention : Reuss Voigt Hill
#
# Bulk Modulus (GPa) = 35.51047 52.25836 43.88442
# Shear Modulus (GPa) = 29.53089 36.13446 32.83268
#
# Velocity S-wave (km/s) = 3.55769 3.93541 3.75131
# Velocity P-wave (km/s) = 5.66535 6.56112 6.12962
#
# Compressibility (1/GPa) = 0.02816071
#
# Stress axis : x y z
#
# Youngs Moduli (GPa) = 44.20279 124.02529 81.70383
#
# Poissons Ratio (x) = 0.74666 -0.02304
# Poissons Ratio (y) = 0.26611 0.13432
# Poissons Ratio (z) = -0.01247 0.20390
#
# Static dielectric constant tensor:
#      x y z
#    x 1.939360 0.000000 -0.015480 
#    y 0.000000 1.883220 0.000000 
#    z -0.015480 0.000000 1.959710 
# 
# From -- ./inp_files/5455.got.cif
#   From: 2010.05.17/outbox.cif.g08.bks.cpg/sg11_3_cif.got.tgz:5455.got - 2010.06.03 12:22:45.
