data_PCOD9166939
_publ_section_title
;
Structure prediction by ZEFSAII (Michael W. Deem and Ramdas Pophale) SiO2 
 PCOD9166939
Probable space group: P 21/M
;
_chemical_formula_sum "Si O2"
_cell_formula_units_Z 30
_cell_length_a 11.259549
_cell_length_b 20.731884
_cell_length_c 6.557805
_cell_angle_alpha 90.000000
_cell_angle_beta 89.234272
_cell_angle_gamma 90.000000
_cell_volume 1530.662626
_symmetry_space_group_name_H-M "P 21/M"
_symmetry_group_IT_number 11
_symmetry_cell_setting 'monoclinic'
loop_
_space_group_symop_operation_xyz
x,y,z
-x,1/2+y,-z
-x,-y,-z
x,1/2-y,z
loop_
_atom_site_type_symbol
_atom_site_label
_atom_site_fract_x
_atom_site_fract_y
_atom_site_fract_z
Si Si1 0.174334 0.177410 0.548630
Si Si2 0.778444 0.449168 0.707325
Si Si3 0.392617 0.978782 0.650060
Si Si4 0.604222 0.372010 0.014495
Si Si5 0.147933 0.090677 0.160270
Si Si6 0.647593 0.883601 0.153258
Si Si7 0.966689 0.356183 0.854902
Si Si8 0.778150 0.250000 0.021702
O O1 0.189024 0.250000 0.471583
O O2 0.138562 0.129659 0.369404
O O3 0.293015 0.152076 0.656568
O O4 0.070414 0.175675 0.719659
O O5 0.718852 0.461768 0.490689
O O6 0.823176 0.516710 0.794978
O O7 0.887828 0.400056 0.706851
O O8 0.680542 0.416518 0.857019
O O9 0.420756 0.917056 0.788718
O O10 0.500000 0.000000 0.500000
O O11 0.366361 0.041006 0.788879
O O12 0.479511 0.356921 0.909164
O O13 0.678572 0.307881 0.060076
O O14 0.259098 0.119677 0.032891
O O15 0.032084 0.100841 0.024219
O O16 0.878946 0.305776 0.962816
#
# Coordination Sequence:
#
# PCOD9166939 Si02
#       8
#     4   4   4   4   4   4   4   2
#     4  11  25  43  65  95 129 176 221 273 327 395
#     4  11  22  41  67 101 129 168 222 278 329 393
#     4  12  22  40  69 101 134 172 219 273 335 388
#     4  11  24  42  69 100 136 178 212 273 340 403
#     4  11  23  41  67  96 131 175 217 270 337 389
#     4  11  23  41  66  98 136 166 216 275 328 401
#     4  10  24  44  67  91 133 172 222 274 329 391
#     4  10  24  48  66  92 132 178 218 268 336 400
#
# _framework density 19.599353000000001
#
# number of rings (size 3 to 8) (size 9 to 14) (size 15 to 20)
#    0.000    1.067    4.667    1.600    1.867    3.200 
#    0.000    2.667    0.000    0.000    0.000    0.000 
#    0.000    0.000    0.000    0.000    0.000    0.000 
#
# Total GULP energy -167108.884004 kJ/mol
# GULP energy per Si atom -5570.296133 kJ/mol
# Density = 1.955474 g / cm^3
# Si number density = 19.599353 Si / 1000 Ang^3
#
#
#
# Elastic Constant Matrix: (Units=GPa)
#
#
# Indices 1 2 3 4 5 6 
#
# 1 116.4561 31.4069 25.6867 0.0000 13.2498 0.0000
# 2 31.4069 53.7674 -8.5184 0.0000 -7.6329 0.0000
# 3 25.6867 -8.5184 48.4343 0.0000 0.6400 0.0000
# 4 0.0000 0.0000 0.0000 2.1655 0.0000 -12.5420
# 5 13.2498 -7.6329 0.6400 0.0000 22.0909 0.0000
# 6 0.0000 0.0000 0.0000 -12.5420 0.0000 19.5961
#
#
#
# Elastic Compliance Matrix: (Units=1/GPa)
#
#
# Indices 1 2 3 4 5 6 
#
# 1 0.015980 -0.012962 -0.010573 0.000000 -0.013757 0.000000
# 2 -0.012962 0.030632 0.012024 0.000000 0.018010 0.000000
# 3 -0.010573 0.012024 0.028240 0.000000 0.009678 0.000000
# 4 0.000000 0.000000 0.000000 -0.170598 0.000000 -0.109187
# 5 -0.013757 0.018010 0.009678 0.000000 0.059461 0.000000
# 6 0.000000 0.000000 0.000000 -0.109187 0.000000 -0.018852
#
#
# Mechanical properties :
#
#
# Convention : Reuss Voigt Hill
#
# Bulk Modulus (GPa) = 19.29388 35.08980 27.19184
# Shear Modulus (GPa) = -336.97302 20.10935 -158.43184
#
# Velocity S-wave (km/s) = -13.12646 3.20663 -9.00060
# Velocity P-wave (km/s) = 14.82812 5.62605 9.70105
#
# Compressibility (1/GPa) = 0.05182991
#
# Stress axis : x y z
#
# Youngs Moduli (GPa) = 62.57849 32.64567 35.41014
#
# Poissons Ratio (x) = 0.42316 0.37438
# Poissons Ratio (y) = 0.81116 -0.42577
# Poissons Ratio (z) = 0.66163 -0.39253
#
# Static dielectric constant tensor:
#      x y z
#    x 1.682990 0.000000 -0.002820 
#    y 0.000000 1.664090 0.000000 
#    z -0.002820 0.000000 1.678050 
# 
# From -- ./inp_files/5069.got.cif
#   From: 2010.05.17/outbox.cif.g08.bks.cpg/sg11_3_cif.got.tgz:5069.got - 2010.06.03 12:22:45.
