data_PCOD9166030
_publ_section_title
;
Structure prediction by ZEFSAII (Michael W. Deem and Ramdas Pophale) SiO2 
 PCOD9166030
Probable space group: P 21/M
;
_chemical_formula_sum "Si O2"
_cell_formula_units_Z 32
_cell_length_a 11.009249
_cell_length_b 14.177632
_cell_length_c 17.226395
_cell_angle_alpha 90.000000
_cell_angle_beta 31.654913
_cell_angle_gamma 90.000000
_cell_volume 1411.078753
_symmetry_space_group_name_H-M "P 21/M"
_symmetry_group_IT_number 11
_symmetry_cell_setting 'monoclinic'
loop_
_space_group_symop_operation_xyz
x,y,z
-x,1/2+y,-z
-x,-y,-z
x,1/2-y,z
loop_
_atom_site_type_symbol
_atom_site_label
_atom_site_fract_x
_atom_site_fract_y
_atom_site_fract_z
Si Si1 0.642660 0.945473 0.528047
Si Si2 0.895553 0.642728 0.617933
Si Si3 0.569841 0.645286 0.407649
Si Si4 0.343099 0.858871 0.275252
Si Si5 0.933824 0.076288 0.878451
Si Si6 0.456808 0.542177 0.793030
Si Si7 0.940237 0.952795 0.742267
Si Si8 0.547238 0.359519 0.966140
O O1 0.557949 0.051609 0.553001
O O2 0.920902 0.961455 0.376396
O O3 0.580581 0.872656 0.494561
O O4 0.522697 0.918948 0.673291
O O5 0.824157 0.750000 0.644031
O O6 0.092514 0.618494 0.448256
O O7 0.670219 0.578119 0.730301
O O8 0.995624 0.629345 0.650061
O O9 0.481129 0.750000 0.437799
O O10 0.835744 0.635372 0.236061
O O11 0.387651 0.750000 0.269661
O O12 0.372457 0.870180 0.166813
O O13 0.519674 0.929553 0.219873
O O14 0.755745 0.120216 0.912197
O O15 0.009385 0.977665 0.794061
O O16 0.785522 0.066681 0.036644
O O17 0.669102 0.928508 0.901188
O O18 0.474449 0.250000 0.015952
#
# Coordination Sequence:
#
# PCOD9166030 Si02
#       8
#     4   4   4   4   4   4   4   4
#     4  10  25  42  69  94 115 167 209 257 322 359
#     4  11  23  34  54  92 132 169 209 249 306 370
#     4  10  24  48  68  90 120 156 212 264 310 373
#     4  10  22  36  54  87 130 175 209 245 305 369
#     4  11  23  37  62  89 122 168 206 249 310 364
#     4  12  22  39  61  88 133 159 205 259 308 371
#     4  11  20  37  60  87 127 163 207 243 306 362
#     4  11  21  34  54  88 128 166 204 244 302 368
#
# _framework density 22.677683999999999
#
# number of rings (size 3 to 8) (size 9 to 14) (size 15 to 20)
#    0.000    1.250    3.750    2.250    3.500    3.000 
#    0.000    0.000    0.000    0.000    0.000    0.000 
#    0.000    0.000    0.000    0.000    0.000    0.000 
#
# Total GULP energy -178488.178147 kJ/mol
# GULP energy per Si atom -5577.755567 kJ/mol
# Density = 2.262607 g / cm^3
# Si number density = 22.677684 Si / 1000 Ang^3
#
#
#
# Elastic Constant Matrix: (Units=GPa)
#
#
# Indices 1 2 3 4 5 6 
#
# 1 23.7350 12.7404 31.4479 0.0000 4.5197 0.0000
# 2 12.7404 57.3934 23.3558 0.0000 2.4418 0.0000
# 3 31.4479 23.3558 169.4008 0.0000 31.9379 0.0000
# 4 0.0000 0.0000 0.0000 23.4768 0.0000 -0.3280
# 5 4.5197 2.4418 31.9379 0.0000 32.8307 0.0000
# 6 0.0000 0.0000 0.0000 -0.3280 0.0000 16.1211
#
#
#
# Elastic Compliance Matrix: (Units=1/GPa)
#
#
# Indices 1 2 3 4 5 6 
#
# 1 0.060433 -0.009285 -0.010410 0.000000 0.002498 0.000000
# 2 -0.009285 0.019935 -0.001208 0.000000 0.000970 0.000000
# 3 -0.010410 -0.001208 0.009448 0.000000 -0.007668 0.000000
# 4 0.000000 0.000000 0.000000 0.042607 0.000000 0.000867
# 5 0.002498 0.000970 -0.007668 0.000000 0.037503 0.000000
# 6 0.000000 0.000000 0.000000 0.000867 0.000000 0.062048
#
#
# Mechanical properties :
#
#
# Convention : Reuss Voigt Hill
#
# Bulk Modulus (GPa) = 20.82882 42.84636 31.83759
# Shear Modulus (GPa) = 17.25436 26.68474 21.96955
#
# Velocity S-wave (km/s) = 2.76135 3.43402 3.11589
# Velocity P-wave (km/s) = 4.40129 5.88710 5.19756
#
# Compressibility (1/GPa) = 0.04801041
#
# Stress axis : x y z
#
# Youngs Moduli (GPa) = 16.54737 50.16311 105.84470
#
# Poissons Ratio (x) = 0.46578 1.10179
# Poissons Ratio (y) = 0.15365 0.12783
# Poissons Ratio (z) = 0.17225 0.06058
#
# Static dielectric constant tensor:
#      x y z
#    x 1.873060 0.000000 -0.000930 
#    y 0.000000 1.883520 0.000000 
#    z -0.000930 0.000000 1.884980 
# 
# From -- ./inp_files/59444.got.cif
#   From: 2010.05.17/outbox.cif.g08.bks.cpg/sg11_30_cif.got.tgz:59444.got - 2010.06.03 12:22:45.
