data_PCOD9166169
_publ_section_title
;
Structure prediction by ZEFSAII (Michael W. Deem and Ramdas Pophale) SiO2 
 PCOD9166169
Probable space group: P 21/M
;
_chemical_formula_sum "Si O2"
_cell_formula_units_Z 28
_cell_length_a 23.877804
_cell_length_b 11.742578
_cell_length_c 29.710986
_cell_angle_alpha 90.000000
_cell_angle_beta 169.984938
_cell_angle_gamma 90.000000
_cell_volume 1448.745543
_symmetry_space_group_name_H-M "P 21/M"
_symmetry_group_IT_number 11
_symmetry_cell_setting 'monoclinic'
loop_
_space_group_symop_operation_xyz
x,y,z
-x,1/2+y,-z
-x,-y,-z
x,1/2-y,z
loop_
_atom_site_type_symbol
_atom_site_label
_atom_site_fract_x
_atom_site_fract_y
_atom_site_fract_z
Si Si1 0.706841 0.382416 0.173464
Si Si2 0.543194 0.882907 0.828577
Si Si3 0.488427 0.882472 0.886618
Si Si4 0.196427 0.382286 0.223220
Si Si5 0.901530 0.993046 0.588966
Si Si6 0.495883 0.616691 0.346598
Si Si7 0.820729 0.527055 0.691576
O O1 0.577300 0.250000 0.064501
O O2 0.992707 0.398873 0.364145
O O3 0.500000 0.500000 0.000000
O O4 0.769248 0.390945 0.276621
O O5 0.630217 0.750000 0.896010
O O6 0.407030 0.910306 0.770772
O O7 0.272946 0.909881 0.577992
O O8 0.857134 0.958378 0.066300
O O9 0.590248 0.750000 0.966726
O O10 0.787469 0.958213 0.139350
O O11 0.240160 0.250000 0.248373
O O12 0.521486 0.444645 0.466306
O O13 0.131451 0.401741 0.224946
O O14 0.873897 0.423731 0.942836
O O15 0.664174 0.946324 0.438610
O O16 0.484176 0.750000 0.327057
O O17 0.699189 0.597357 0.552547
#
# Coordination Sequence:
#
# PCOD9166169 Si02
#       7
#     4   4   4   4   4   4   4
#     4   9  19  36  61  88 120 160 202 248 299 353
#     4  11  22  36  58  87 117 155 198 243 294 349
#     4   9  19  37  58  82 117 153 193 244 292 341
#     4  10  22  39  59  83 113 149 188 239 291 346
#     4  11  20  36  58  86 119 154 197 239 292 349
#     4  11  22  37  58  84 115 152 190 236 292 348
#     4  11  21  39  60  82 115 149 194 236 287 352
#
# _framework density 19.327064
#
# number of rings (size 3 to 8) (size 9 to 14) (size 15 to 20)
#    0.000    1.714    2.857    2.143    0.000    1.143 
#    0.000    0.000    0.000    0.000    0.000    0.000 
#    0.000    0.000    0.000    0.000    0.000    0.000 
#
# Total GULP energy -156012.129028 kJ/mol
# GULP energy per Si atom -5571.861751 kJ/mol
# Density = 1.928307 g / cm^3
# Si number density = 19.327064 Si / 1000 Ang^3
#
#
#
# Elastic Constant Matrix: (Units=GPa)
#
#
# Indices 1 2 3 4 5 6 
#
# 1 77.6099 7.7496 -14.6284 0.0000 0.2805 0.0000
# 2 7.7496 43.6154 1.2808 0.0000 10.9273 0.0000
# 3 -14.6284 1.2808 18.3541 0.0000 -6.1878 0.0000
# 4 0.0000 0.0000 0.0000 38.6329 0.0000 -5.9623
# 5 0.2805 10.9273 -6.1878 0.0000 28.4483 0.0000
# 6 0.0000 0.0000 0.0000 -5.9623 0.0000 24.2795
#
#
#
# Elastic Compliance Matrix: (Units=1/GPa)
#
#
# Indices 1 2 3 4 5 6 
#
# 1 0.016097 -0.004489 0.014752 0.000000 0.004774 0.000000
# 2 -0.004489 0.027138 -0.009681 0.000000 -0.012485 0.000000
# 3 0.014752 -0.009681 0.073512 0.000000 0.019563 0.000000
# 4 0.000000 0.000000 0.000000 0.026904 0.000000 0.006607
# 5 0.004774 -0.012485 0.019563 0.000000 0.044155 0.000000
# 6 0.000000 0.000000 0.000000 0.006607 0.000000 0.042809
#
#
# Mechanical properties :
#
#
# Convention : Reuss Voigt Hill
#
# Bulk Modulus (GPa) = 8.48111 14.26483 11.37297
# Shear Modulus (GPa) = 18.60431 27.95063 23.27747
#
# Velocity S-wave (km/s) = 3.10595 3.80701 3.47421
# Velocity P-wave (km/s) = 4.15455 5.16925 4.68943
#
# Compressibility (1/GPa) = 0.11790912
#
# Stress axis : x y z
#
# Youngs Moduli (GPa) = 62.12523 36.84910 13.60325
#
# Poissons Ratio (x) = 0.16543 -0.20067
# Poissons Ratio (y) = 0.27891 0.13169
# Poissons Ratio (z) = -0.91647 0.35674
#
# Static dielectric constant tensor:
#      x y z
#    x 1.682030 0.000000 0.013880 
#    y 0.000000 1.660510 0.000000 
#    z 0.013880 0.000000 1.683830 
# 
# From -- ./inp_files/61489.got.cif
#   From: 2010.05.17/outbox.cif.g08.bks.cpg/sg11_31_cif.got.tgz:61489.got - 2010.06.03 12:22:45.
