data_PCOD9166112
_publ_section_title
;
Structure prediction by ZEFSAII (Michael W. Deem and Ramdas Pophale) SiO2 
 PCOD9166112
Probable space group: P 21/M
;
_chemical_formula_sum "Si O2"
_cell_formula_units_Z 32
_cell_length_a 5.246488
_cell_length_b 13.900637
_cell_length_c 17.816723
_cell_angle_alpha 90.000000
_cell_angle_beta 92.928408
_cell_angle_gamma 90.000000
_cell_volume 1297.668373
_symmetry_space_group_name_H-M "P 21/M"
_symmetry_group_IT_number 11
_symmetry_cell_setting 'monoclinic'
loop_
_space_group_symop_operation_xyz
x,y,z
-x,1/2+y,-z
-x,-y,-z
x,1/2-y,z
loop_
_atom_site_type_symbol
_atom_site_label
_atom_site_fract_x
_atom_site_fract_y
_atom_site_fract_z
Si Si1 0.526050 0.988670 0.802089
Si Si2 0.887180 0.639452 0.886796
Si Si3 0.265911 0.635449 0.020122
Si Si4 0.546982 0.648327 0.559780
Si Si5 0.203125 0.986917 0.340935
Si Si6 0.776407 0.635132 0.111228
Si Si7 0.853697 0.143874 0.272061
Si Si8 0.023566 0.890854 0.473816
O O1 0.666766 0.939369 0.874836
O O2 0.697245 0.038244 0.740492
O O3 0.417939 0.895446 0.757174
O O4 0.307906 0.063004 0.824159
O O5 0.810267 0.750000 0.907639
O O6 0.994723 0.645912 0.804263
O O7 0.111954 0.601800 0.944402
O O8 0.275578 0.750000 0.008766
O O9 0.061706 0.620149 0.084601
O O10 0.557086 0.611426 0.045233
O O11 0.592513 0.750000 0.602742
O O12 0.594222 0.550455 0.607542
O O13 0.265226 0.648770 0.522066
O O14 0.752888 0.649059 0.495401
O O15 0.980897 0.065367 0.326277
O O16 0.098504 0.898406 0.387697
O O17 0.749929 0.750000 0.128152
O O18 0.852431 0.250000 0.303960
O O19 0.000000 0.000000 0.500000
#
# Coordination Sequence:
#
# PCOD9166112 Si02
#       8
#     4   4   4   4   4   4   4   4
#     4  11  24  37  62  88 126 168 207 256 311 376
#     4   9  20  38  57  89 126 159 202 261 324 377
#     4   9  20  39  64  86 117 161 208 266 322 369
#     4  11  23  41  68  99 129 163 209 263 312 368
#     4  10  23  40  62  89 127 168 207 248 317 377
#     4  10  23  42  62  86 117 161 217 266 312 368
#     4  10  22  38  59  90 127 165 209 254 312 385
#     4  10  22  41  66  93 127 166 208 255 307 367
#
# _framework density 24.659611999999999
#
# number of rings (size 3 to 8) (size 9 to 14) (size 15 to 20)
#    0.000    2.000    0.000    2.625   10.500    2.500 
#    0.000    1.250    0.000    0.000    0.000    0.000 
#    0.000    0.000    0.000    0.000    0.000    0.000 
#
# Total GULP energy -178874.505510 kJ/mol
# GULP energy per Si atom -5589.828297 kJ/mol
# Density = 2.460349 g / cm^3
# Si number density = 24.659612 Si / 1000 Ang^3
#
#
#
# Elastic Constant Matrix: (Units=GPa)
#
#
# Indices 1 2 3 4 5 6 
#
# 1 98.9921 9.8391 15.2098 0.0000 -2.8491 0.0000
# 2 9.8391 80.0703 11.5333 0.0000 -2.9041 0.0000
# 3 15.2098 11.5333 73.4460 0.0000 -11.6965 0.0000
# 4 0.0000 0.0000 0.0000 12.3251 0.0000 5.2189
# 5 -2.8491 -2.9041 -11.6965 0.0000 41.3626 0.0000
# 6 0.0000 0.0000 0.0000 5.2189 0.0000 54.3668
#
#
#
# Elastic Compliance Matrix: (Units=1/GPa)
#
#
# Indices 1 2 3 4 5 6 
#
# 1 0.010512 -0.001000 -0.002006 0.000000 0.000087 0.000000
# 2 -0.001000 0.012878 -0.001762 0.000000 0.000337 0.000000
# 3 -0.002006 -0.001762 0.014939 0.000000 0.003962 0.000000
# 4 0.000000 0.000000 0.000000 0.084573 0.000000 -0.008119
# 5 0.000087 0.000337 0.003962 0.000000 0.025327 0.000000
# 6 0.000000 0.000000 0.000000 -0.008119 0.000000 0.019173
#
#
# Mechanical properties :
#
#
# Convention : Reuss Voigt Hill
#
# Bulk Modulus (GPa) = 34.72978 36.18589 35.45784
# Shear Modulus (GPa) = 26.80491 36.00598 31.40545
#
# Velocity S-wave (km/s) = 3.30054 3.82530 3.57257
# Velocity P-wave (km/s) = 5.35154 5.84949 5.60605
#
# Compressibility (1/GPa) = 0.02879373
#
# Stress axis : x y z
#
# Youngs Moduli (GPa) = 95.13027 77.65297 66.94099
#
# Poissons Ratio (x) = 0.07762 0.13429
# Poissons Ratio (y) = 0.09509 0.11792
# Poissons Ratio (z) = 0.19084 0.13679
#
# Static dielectric constant tensor:
#      x y z
#    x 1.994710 0.000000 -0.021360 
#    y 0.000000 1.971760 0.000000 
#    z -0.021360 0.000000 2.067750 
# 
# From -- ./inp_files/57067.got.cif
#   From: 2010.05.17/outbox.cif.g08.bks.cpg/sg11_29_cif.got.tgz:57067.got - 2010.06.03 12:22:45.
