data_PCOD9166730
_publ_section_title
;
Structure prediction by ZEFSAII (Michael W. Deem and Ramdas Pophale) SiO2 
 PCOD9166730
Probable space group: P 21/M
;
_chemical_formula_sum "Si O2"
_cell_formula_units_Z 28
_cell_length_a 11.690007
_cell_length_b 19.155471
_cell_length_c 6.970850
_cell_angle_alpha 90.000000
_cell_angle_beta 56.209748
_cell_angle_gamma 90.000000
_cell_volume 1297.285924
_symmetry_space_group_name_H-M "P 21/M"
_symmetry_group_IT_number 11
_symmetry_cell_setting 'monoclinic'
loop_
_space_group_symop_operation_xyz
x,y,z
-x,1/2+y,-z
-x,-y,-z
x,1/2-y,z
loop_
_atom_site_type_symbol
_atom_site_label
_atom_site_fract_x
_atom_site_fract_y
_atom_site_fract_z
Si Si1 0.442245 0.468298 0.751386
Si Si2 0.764847 0.328394 0.040698
Si Si3 0.254554 0.332721 0.377838
Si Si4 0.173782 0.077284 0.803912
Si Si5 0.041322 0.830144 0.484710
Si Si6 0.869313 0.423324 0.267629
Si Si7 0.456163 0.601941 0.003579
O O1 0.500000 0.500000 0.500000
O O2 0.297609 0.432652 0.837740
O O3 0.421417 0.531662 0.918803
O O4 0.543838 0.415803 0.770464
O O5 0.753967 0.250000 0.128328
O O6 0.902371 0.334289 0.784245
O O7 0.773514 0.384115 0.202455
O O8 0.645110 0.342283 0.997562
O O9 0.281080 0.250000 0.354488
O O10 0.212639 0.360299 0.626689
O O11 0.120851 0.345381 0.370235
O O12 0.388767 0.374225 0.187359
O O13 0.167666 0.004660 0.688906
O O14 0.025449 0.083482 0.040134
O O15 0.061702 0.750000 0.531607
O O16 0.124017 0.883849 0.537743
#
# Coordination Sequence:
#
# PCOD9166730 Si02
#       7
#     4   4   4   4   4   4   4
#     4  11  23  41  64  93 127 163 215 263 323 382
#     4  11  23  41  63  94 131 169 215 270 327 389
#     4  11  23  43  66  94 132 176 222 271 324 391
#     4  11  23  41  64  99 128 167 222 271 322 389
#     4  10  23  41  65  92 125 171 216 261 327 393
#     4  11  23  40  66  96 130 167 220 275 331 383
#     4  11  24  40  67  92 128 172 207 269 327 387
#
# _framework density 21.583523
#
# number of rings (size 3 to 8) (size 9 to 14) (size 15 to 20)
#    0.000    1.143    4.286    1.714    2.000    1.143 
#    0.000    1.429    0.000    0.000    0.000    0.000 
#    0.000    0.000    0.000    0.000    0.000    0.000 
#
# Total GULP energy -156557.124314 kJ/mol
# GULP energy per Si atom -5591.325868 kJ/mol
# Density = 2.153440 g / cm^3
# Si number density = 21.583523 Si / 1000 Ang^3
#
#
#
# Elastic Constant Matrix: (Units=GPa)
#
#
# Indices 1 2 3 4 5 6 
#
# 1 107.8546 9.2717 10.9066 0.0000 11.3775 0.0000
# 2 9.2717 36.9316 -1.4158 0.0000 18.8636 0.0000
# 3 10.9066 -1.4158 42.1205 0.0000 11.5088 0.0000
# 4 0.0000 0.0000 0.0000 18.5275 0.0000 2.5661
# 5 11.3775 18.8636 11.5088 0.0000 33.2126 0.0000
# 6 0.0000 0.0000 0.0000 2.5661 0.0000 32.9661
#
#
#
# Elastic Compliance Matrix: (Units=1/GPa)
#
#
# Indices 1 2 3 4 5 6 
#
# 1 0.009809 -0.001702 -0.002146 0.000000 -0.001650 0.000000
# 2 -0.001702 0.041013 0.008864 0.000000 -0.025783 0.000000
# 3 -0.002146 0.008864 0.028465 0.000000 -0.014163 0.000000
# 4 0.000000 0.000000 0.000000 0.054562 0.000000 -0.004247
# 5 -0.001650 -0.025783 -0.014163 0.000000 0.050226 0.000000
# 6 0.000000 0.000000 0.000000 -0.004247 0.000000 0.030665
#
#
# Mechanical properties :
#
#
# Convention : Reuss Voigt Hill
#
# Bulk Modulus (GPa) = 11.19591 24.93684 18.06637
# Shear Modulus (GPa) = 21.32362 28.15086 24.73724
#
# Velocity S-wave (km/s) = 3.14659 3.61539 3.38911
# Velocity P-wave (km/s) = 4.28951 5.38580 4.86861
#
# Compressibility (1/GPa) = 0.08931835
#
# Stress axis : x y z
#
# Youngs Moduli (GPa) = 101.94564 24.38230 35.13088
#
# Poissons Ratio (x) = 0.04151 0.07541
# Poissons Ratio (y) = 0.17354 -0.31140
# Poissons Ratio (z) = 0.21882 -0.21613
#
# Static dielectric constant tensor:
#      x y z
#    x 1.800920 0.000000 -0.011090 
#    y 0.000000 1.765210 0.000000 
#    z -0.011090 0.000000 1.802520 
# 
# From -- ./inp_files/5040.got.cif
#   From: 2010.05.17/outbox.cif.g08.bks.cpg/sg11_3_cif.got.tgz:5040.got - 2010.06.03 12:22:45.
