data_PCOD9166337
_publ_section_title
;
Structure prediction by ZEFSAII (Michael W. Deem and Ramdas Pophale) SiO2 
 PCOD9166337
Probable space group: P 21/M
;
_chemical_formula_sum "Si O2"
_cell_formula_units_Z 28
_cell_length_a 12.700065
_cell_length_b 8.360640
_cell_length_c 15.837978
_cell_angle_alpha 90.000000
_cell_angle_beta 51.977642
_cell_angle_gamma 90.000000
_cell_volume 1324.783433
_symmetry_space_group_name_H-M "P 21/M"
_symmetry_group_IT_number 11
_symmetry_cell_setting 'monoclinic'
loop_
_space_group_symop_operation_xyz
x,y,z
-x,1/2+y,-z
-x,-y,-z
x,1/2-y,z
loop_
_atom_site_type_symbol
_atom_site_label
_atom_site_fract_x
_atom_site_fract_y
_atom_site_fract_z
Si Si1 0.558103 0.058182 0.225605
Si Si2 0.166722 0.939665 0.236327
Si Si3 0.699670 0.933202 0.987930
Si Si4 0.861296 0.943844 0.387458
Si Si5 0.252625 0.443362 0.376040
Si Si6 0.969638 0.064061 0.922963
Si Si7 0.757540 0.441292 0.277777
O O1 0.559544 0.250000 0.227314
O O2 0.406220 0.003700 0.310807
O O3 0.649280 0.007447 0.260812
O O4 0.613352 0.009942 0.105979
O O5 0.161890 0.750000 0.228488
O O6 0.014471 0.997706 0.292876
O O7 0.197891 0.985530 0.316559
O O8 0.282990 0.999276 0.115355
O O9 0.660374 0.750000 0.001439
O O10 0.850957 0.958261 0.945637
O O11 0.855131 0.750000 0.383536
O O12 0.829537 0.986891 0.499938
O O13 0.748477 0.018726 0.381574
O O14 0.250358 0.250000 0.369924
O O15 0.928308 0.250000 0.942531
O O16 0.108635 0.039541 0.808084
O O17 0.000000 0.000000 0.000000
O O18 0.777671 0.250000 0.257897
#
# Coordination Sequence:
#
# PCOD9166337 Si02
#       7
#     4   4   4   4   4   4   4
#     4  10  23  42  62  88 127 167 206 254 305 366
#     4  11  23  40  64  93 124 159 203 261 317 366
#     4  12  24  38  62  93 124 162 205 251 308 373
#     4  10  22  40  64  92 124 160 204 261 315 363
#     4  10  23  44  65  87 120 166 213 258 309 364
#     4  12  22  35  57  89 126 162 201 251 308 364
#     4  11  22  36  60  92 125 163 205 250 304 366
#
# _framework density 21.135531
#
# number of rings (size 3 to 8) (size 9 to 14) (size 15 to 20)
#    0.000    1.143    2.857    3.857    0.000    3.429 
#    0.000    0.000    0.000    0.000    0.000    0.000 
#    0.000    0.000    0.000    0.000    0.000    0.000 
#
# Total GULP energy -156309.447419 kJ/mol
# GULP energy per Si atom -5582.480265 kJ/mol
# Density = 2.108743 g / cm^3
# Si number density = 21.135531 Si / 1000 Ang^3
#
#
#
# Elastic Constant Matrix: (Units=GPa)
#
#
# Indices 1 2 3 4 5 6 
#
# 1 132.0534 54.0571 244.1658 0.0000 -18.0954 0.0000
# 2 54.0571 57.1889 157.8120 0.0000 -16.8198 0.0000
# 3 244.1658 157.8120 726.9919 0.0000 -64.7363 0.0000
# 4 0.0000 0.0000 0.0000 26.1393 0.0000 7.9813
# 5 -18.0954 -16.8198 -64.7363 0.0000 51.3315 0.0000
# 6 0.0000 0.0000 0.0000 7.9813 0.0000 20.1098
#
#
#
# Elastic Compliance Matrix: (Units=1/GPa)
#
#
# Indices 1 2 3 4 5 6 
#
# 1 0.020127 -0.001128 -0.006664 0.000000 -0.001679 0.000000
# 2 -0.001128 0.043993 -0.008925 0.000000 0.002762 0.000000
# 3 -0.006664 -0.008925 0.005724 0.000000 0.001946 0.000000
# 4 0.000000 0.000000 0.000000 0.043532 0.000000 -0.017277
# 5 -0.001679 0.002762 0.001946 0.000000 0.022248 0.000000
# 6 0.000000 0.000000 0.000000 -0.017277 0.000000 0.056584
#
#
# Mechanical properties :
#
#
# Convention : Reuss Voigt Hill
#
# Bulk Modulus (GPa) = 27.46583 203.14490 115.30537
# Shear Modulus (GPa) = 21.02793 50.19608 35.61200
#
# Velocity S-wave (km/s) = 3.15764 4.87864 4.10925
# Velocity P-wave (km/s) = 5.13006 11.31631 8.78568
#
# Compressibility (1/GPa) = 0.03640887
#
# Stress axis : x y z
#
# Youngs Moduli (GPa) = 49.68506 22.73101 174.69069
#
# Poissons Ratio (x) = 0.02565 1.16420
# Poissons Ratio (y) = 0.05606 1.55909
# Poissons Ratio (z) = 0.33112 0.20287
#
# Static dielectric constant tensor:
#      x y z
#    x 1.772130 0.000000 0.038280 
#    y 0.000000 1.719880 0.000000 
#    z 0.038280 0.000000 1.836310 
# 
# From -- ./inp_files/49165.got.cif
#   From: 2010.05.17/outbox.cif.g08.bks.cpg/sg11_25_cif.got.tgz:49165.got - 2010.06.03 12:22:45.
