data_PCOD9166709
_publ_section_title
;
Structure prediction by ZEFSAII (Michael W. Deem and Ramdas Pophale) SiO2 
 PCOD9166709
Probable space group: P 21/M
;
_chemical_formula_sum "Si O2"
_cell_formula_units_Z 32
_cell_length_a 14.759183
_cell_length_b 20.644772
_cell_length_c 9.532739
_cell_angle_alpha 90.000000
_cell_angle_beta 149.004201
_cell_angle_gamma 90.000000
_cell_volume 1495.810051
_symmetry_space_group_name_H-M "P 21/M"
_symmetry_group_IT_number 11
_symmetry_cell_setting 'monoclinic'
loop_
_space_group_symop_operation_xyz
x,y,z
-x,1/2+y,-z
-x,-y,-z
x,1/2-y,z
loop_
_atom_site_type_symbol
_atom_site_label
_atom_site_fract_x
_atom_site_fract_y
_atom_site_fract_z
Si Si1 0.131700 0.056100 0.869694
Si Si2 0.610458 0.820026 0.012441
Si Si3 0.747098 0.004921 0.431039
Si Si4 0.352918 0.602107 0.498312
Si Si5 0.287661 0.922140 0.097720
Si Si6 0.065809 0.672956 0.318202
Si Si7 0.639002 0.122366 0.100482
Si Si8 0.897567 0.602804 0.480285
O O1 0.107692 0.061251 0.670047
O O2 0.952267 0.024755 0.692776
O O3 0.110654 0.128595 0.906540
O O4 0.277618 0.000983 0.089502
O O5 0.574588 0.750000 0.905280
O O6 0.535882 0.872788 0.805259
O O7 0.497487 0.831535 0.002681
O O8 0.811854 0.830323 0.319491
O O9 0.679748 0.028886 0.490834
O O10 0.649370 0.052143 0.191287
O O11 0.756063 0.931391 0.396158
O O12 0.199604 0.645102 0.374031
O O13 0.345708 0.604645 0.323581
O O14 0.387938 0.893269 0.096918
O O15 0.087459 0.898675 0.799683
O O16 0.040494 0.750000 0.271626
O O17 0.173981 0.654972 0.604957
#
# Coordination Sequence:
#
# PCOD9166709 Si02
#       8
#     4   4   4   4   4   4   4   4
#     4   9  17  30  55  86 118 139 173 246 283 318
#     4  10  23  41  55  76 115 156 189 226 288 345
#     4   8  15  31  55  83 113 145 177 221 289 333
#     4   9  20  34  58  84 113 150 185 232 281 342
#     4  11  18  35  62  94 110 132 196 245 285 321
#     4   9  17  32  52  77 110 156 194 214 270 348
#     4   9  16  33  59  78 105 147 191 233 264 332
#     4  11  18  33  60  87 114 139 185 242 278 324
#
# _framework density 21.393091999999999
#
# number of rings (size 3 to 8) (size 9 to 14) (size 15 to 20)
#    0.000    3.000    3.750    2.250    0.000    7.000 
#    0.000    4.375    5.500    0.000    0.000    0.000 
#    0.000    0.000    0.000    0.000    0.000    0.000 
#
# Total GULP energy -178312.481190 kJ/mol
# GULP energy per Si atom -5572.265037 kJ/mol
# Density = 2.134440 g / cm^3
# Si number density = 21.393092 Si / 1000 Ang^3
#
#
#
# Elastic Constant Matrix: (Units=GPa)
#
#
# Indices 1 2 3 4 5 6 
#
# 1 65.8623 6.1985 35.8692 0.0000 -23.3157 0.0000
# 2 6.1985 78.7323 18.0385 0.0000 -4.2580 0.0000
# 3 35.8692 18.0385 51.0114 0.0000 -17.8046 0.0000
# 4 0.0000 0.0000 0.0000 13.5168 0.0000 5.5688
# 5 -23.3157 -4.2580 -17.8046 0.0000 41.7907 0.0000
# 6 0.0000 0.0000 0.0000 5.5688 0.0000 11.9434
#
#
#
# Elastic Compliance Matrix: (Units=1/GPa)
#
#
# Indices 1 2 3 4 5 6 
#
# 1 0.027109 0.002202 -0.017013 0.000000 0.008101 0.000000
# 2 0.002202 0.014022 -0.006554 0.000000 -0.000135 0.000000
# 3 -0.017013 -0.006554 0.035637 0.000000 0.005023 0.000000
# 4 0.000000 0.000000 0.000000 0.091573 0.000000 -0.042697
# 5 0.008101 -0.000135 0.005023 0.000000 0.030575 0.000000
# 6 0.000000 0.000000 0.000000 -0.042697 0.000000 0.103637
#
#
# Mechanical properties :
#
#
# Convention : Reuss Voigt Hill
#
# Bulk Modulus (GPa) = 29.37895 35.09095 32.23495
# Shear Modulus (GPa) = 14.02012 22.48350 18.25181
#
# Velocity S-wave (km/s) = 2.56277 3.24538 2.92407
# Velocity P-wave (km/s) = 4.74550 5.52104 5.14790
#
# Compressibility (1/GPa) = 0.03403798
#
# Stress axis : x y z
#
# Youngs Moduli (GPa) = 36.88771 71.31555 28.06037
#
# Poissons Ratio (x) = -0.15702 0.47740
# Poissons Ratio (y) = -0.08122 0.18390
# Poissons Ratio (z) = 0.62759 0.46739
#
# Static dielectric constant tensor:
#      x y z
#    x 1.853120 0.000000 0.062830 
#    y 0.000000 1.843610 0.000000 
#    z 0.062830 0.000000 1.772500 
# 
# From -- ./inp_files/23118.got.cif
#   From: 2010.05.17/outbox.cif.g08.bks.cpg/sg11_12_cif.got.tgz:23118.got - 2010.06.03 12:22:45.
