data_PCOD9166452
_publ_section_title
;
Structure prediction by ZEFSAII (Michael W. Deem and Ramdas Pophale) SiO2 
 PCOD9166452
Probable space group: P 21/M
;
_chemical_formula_sum "Si O2"
_cell_formula_units_Z 20
_cell_length_a 25.225246
_cell_length_b 8.843309
_cell_length_c 9.738650
_cell_angle_alpha 90.000000
_cell_angle_beta 152.732412
_cell_angle_gamma 90.000000
_cell_volume 995.299120
_symmetry_space_group_name_H-M "P 21/M"
_symmetry_group_IT_number 11
_symmetry_cell_setting 'monoclinic'
loop_
_space_group_symop_operation_xyz
x,y,z
-x,1/2+y,-z
-x,-y,-z
x,1/2-y,z
loop_
_atom_site_type_symbol
_atom_site_label
_atom_site_fract_x
_atom_site_fract_y
_atom_site_fract_z
Si Si1 0.477866 0.070025 0.300914
Si Si2 0.031502 0.931954 0.425489
Si Si3 0.846247 0.929270 0.768654
Si Si4 0.229278 0.930531 0.681130
Si Si5 0.406692 0.428417 0.682794
O O1 0.479683 0.250000 0.309573
O O2 0.500000 0.000000 0.500000
O O3 0.573811 0.009073 0.416932
O O4 0.352285 0.013286 0.961053
O O5 0.025758 0.750000 0.423032
O O6 0.157016 0.971303 0.651604
O O7 0.000000 0.000000 0.500000
O O8 0.940058 0.978079 0.097097
O O9 0.863235 0.750000 0.779053
O O10 0.720509 0.948109 0.548570
O O11 0.843367 0.020013 0.619968
O O12 0.246511 0.750000 0.718811
O O13 0.429139 0.250000 0.720007
O O14 0.500000 0.500000 0.000000
#
# Coordination Sequence:
#
# PCOD9166452 Si02
#       5
#     4   4   4   4   4
#     4  12  26  43  64  92 129 169 210 259 317 375
#     4  10  24  43  63  93 126 161 209 261 315 373
#     4  10  22  41  65  92 125 166 208 254 311 373
#     4  11  23  41  65  94 126 162 212 261 310 376
#     4  11  22  39  64  96 130 164 207 254 310 374
#
# _framework density 20.094460999999999
#
# number of rings (size 3 to 8) (size 9 to 14) (size 15 to 20)
#    0.000    1.200    2.000    3.600    2.800    3.200 
#    0.000    0.000    0.000    0.000    0.000    0.000 
#    0.000    0.000    0.000    0.000    0.000    0.000 
#
# Total GULP energy -111879.388529 kJ/mol
# GULP energy per Si atom -5593.969426 kJ/mol
# Density = 2.004872 g / cm^3
# Si number density = 20.094461 Si / 1000 Ang^3
#
#
#
# Elastic Constant Matrix: (Units=GPa)
#
#
# Indices 1 2 3 4 5 6 
#
# 1 129.3194 56.7595 7.3411 0.0000 -18.9101 0.0000
# 2 56.7595 94.1809 14.7355 0.0000 4.7658 0.0000
# 3 7.3411 14.7355 44.7141 0.0000 -6.2112 0.0000
# 4 0.0000 0.0000 0.0000 30.7477 0.0000 -9.4450
# 5 -18.9101 4.7658 -6.2112 0.0000 31.4455 0.0000
# 6 0.0000 0.0000 0.0000 -9.4450 0.0000 37.3835
#
#
#
# Elastic Compliance Matrix: (Units=1/GPa)
#
#
# Indices 1 2 3 4 5 6 
#
# 1 0.012673 -0.008418 0.001984 0.000000 0.009289 0.000000
# 2 -0.008418 0.016980 -0.005423 0.000000 -0.008707 0.000000
# 3 0.001984 -0.005423 0.024786 0.000000 0.006911 0.000000
# 4 0.000000 0.000000 0.000000 0.035259 0.000000 0.008908
# 5 0.009289 -0.008707 0.006911 0.000000 0.040072 0.000000
# 6 0.000000 0.000000 0.000000 0.008908 0.000000 0.029000
#
#
# Mechanical properties :
#
#
# Convention : Reuss Voigt Hill
#
# Bulk Modulus (GPa) = 32.54764 47.32072 39.93418
# Shear Modulus (GPa) = 25.94339 32.54056 29.24197
#
# Velocity S-wave (km/s) = 3.59705 4.02852 3.81888
# Velocity P-wave (km/s) = 5.78655 6.72598 6.27387
#
# Compressibility (1/GPa) = 0.03072419
#
# Stress axis : x y z
#
# Youngs Moduli (GPa) = 78.90606 58.89170 40.34574
#
# Poissons Ratio (x) = 0.49576 -0.08004
# Poissons Ratio (y) = 0.66425 0.21880
# Poissons Ratio (z) = -0.15654 0.31938
#
# Static dielectric constant tensor:
#      x y z
#    x 1.700350 0.000000 0.012120 
#    y 0.000000 1.672270 0.000000 
#    z 0.012120 0.000000 1.710840 
# 
# From -- ./inp_files/15904.got.cif
#   From: 2010.05.17/outbox.cif.g08.bks.cpg/sg11_8_cif.got.tgz:15904.got - 2010.06.03 12:22:45.
