data_PCOD9166437
_publ_section_title
;
Structure prediction by ZEFSAII (Michael W. Deem and Ramdas Pophale) SiO2 
 PCOD9166437
Probable space group: P 21/M
;
_chemical_formula_sum "Si O2"
_cell_formula_units_Z 28
_cell_length_a 12.906644
_cell_length_b 8.897572
_cell_length_c 14.864724
_cell_angle_alpha 90.000000
_cell_angle_beta 58.299273
_cell_angle_gamma 90.000000
_cell_volume 1452.350507
_symmetry_space_group_name_H-M "P 21/M"
_symmetry_group_IT_number 11
_symmetry_cell_setting 'monoclinic'
loop_
_space_group_symop_operation_xyz
x,y,z
-x,1/2+y,-z
-x,-y,-z
x,1/2-y,z
loop_
_atom_site_type_symbol
_atom_site_label
_atom_site_fract_x
_atom_site_fract_y
_atom_site_fract_z
Si Si1 0.996269 0.568801 0.777740
Si Si2 0.449770 0.071996 0.931974
Si Si3 0.807491 0.429451 0.003940
Si Si4 0.231572 0.569837 0.774687
Si Si5 0.914336 0.929994 0.615175
Si Si6 0.486056 0.069747 0.604460
Si Si7 0.657208 0.428007 0.686658
O O1 0.987694 0.750000 0.786220
O O2 0.906089 0.501099 0.892999
O O3 0.957958 0.521709 0.695008
O O4 0.133924 0.528122 0.742873
O O5 0.428687 0.250000 0.953138
O O6 0.551199 0.052071 0.808713
O O7 0.500000 0.000000 0.000000
O O8 0.324748 0.992612 0.961828
O O9 0.809371 0.250000 0.992803
O O10 0.824967 0.464835 0.101587
O O11 0.252318 0.750000 0.761307
O O12 0.359346 0.487531 0.703999
O O13 0.921912 0.750000 0.607932
O O14 0.776933 0.982908 0.659597
O O15 0.000000 0.000000 0.500000
O O16 0.484488 0.250000 0.600560
O O17 0.597705 0.026174 0.618853
O O18 0.500000 0.000000 0.500000
O O19 0.686874 0.250000 0.669079
#
# Coordination Sequence:
#
# PCOD9166437 Si02
#       7
#     4   4   4   4   4   4   4
#     4  10  23  42  63  89 125 168 208 254 312 367
#     4  11  22  38  61  90 125 165 205 252 307 366
#     4  11  22  37  61  94 127 162 206 255 306 368
#     4  10  22  41  64  93 128 165 207 255 308 371
#     4  11  25  43  65  91 122 162 209 258 309 366
#     4  11  24  42  65  94 125 163 207 258 314 370
#     4  10  23  43  64  88 124 163 203 252 308 366
#
# _framework density 19.279093
#
# number of rings (size 3 to 8) (size 9 to 14) (size 15 to 20)
#    0.000    1.429    1.429    3.000    2.000    6.857 
#    0.000    0.000    0.000    0.000    0.000    0.000 
#    0.000    0.000    0.000    0.000    0.000    0.000 
#
# Total GULP energy -156563.351012 kJ/mol
# GULP energy per Si atom -5591.548250 kJ/mol
# Density = 1.923521 g / cm^3
# Si number density = 19.279093 Si / 1000 Ang^3
#
#
#
# Elastic Constant Matrix: (Units=GPa)
#
#
# Indices 1 2 3 4 5 6 
#
# 1 146.8362 36.5903 33.1048 0.0000 22.6405 0.0000
# 2 36.5903 28.8785 27.3110 0.0000 10.0805 0.0000
# 3 33.1048 27.3110 67.7659 0.0000 21.7774 0.0000
# 4 0.0000 0.0000 0.0000 37.2858 0.0000 -4.8044
# 5 22.6405 10.0805 21.7774 0.0000 37.6489 0.0000
# 6 0.0000 0.0000 0.0000 -4.8044 0.0000 32.2401
#
#
#
# Elastic Compliance Matrix: (Units=1/GPa)
#
#
# Indices 1 2 3 4 5 6 
#
# 1 0.010315 -0.013165 0.001385 0.000000 -0.003479 0.000000
# 2 -0.013165 0.072930 -0.023621 0.000000 0.002053 0.000000
# 3 0.001385 -0.023621 0.026821 0.000000 -0.010022 0.000000
# 4 0.000000 0.000000 0.000000 0.027345 0.000000 0.004075
# 5 -0.003479 0.002053 -0.010022 0.000000 0.033901 0.000000
# 6 0.000000 0.000000 0.000000 0.004075 0.000000 0.031625
#
#
# Mechanical properties :
#
#
# Convention : Reuss Voigt Hill
#
# Bulk Modulus (GPa) = 25.46852 48.61032 37.03942
# Shear Modulus (GPa) = 17.43219 31.19994 24.31607
#
# Velocity S-wave (km/s) = 3.01026 4.02721 3.55528
# Velocity P-wave (km/s) = 5.03203 6.84787 6.00894
#
# Compressibility (1/GPa) = 0.03926416
#
# Stress axis : x y z
#
# Youngs Moduli (GPa) = 96.94512 13.71178 37.28474
#
# Poissons Ratio (x) = 0.18051 -0.05162
# Poissons Ratio (y) = 1.27625 0.88069
# Poissons Ratio (z) = -0.13423 0.32388
#
# Static dielectric constant tensor:
#      x y z
#    x 1.658980 0.000000 0.017630 
#    y 0.000000 1.644910 0.000000 
#    z 0.017630 0.000000 1.652620 
# 
# From -- ./inp_files/49158.got.cif
#   From: 2010.05.17/outbox.cif.g08.bks.cpg/sg11_25_cif.got.tgz:49158.got - 2010.06.03 12:22:45.
