data_PCOD9166674
_publ_section_title
;
Structure prediction by ZEFSAII (Michael W. Deem and Ramdas Pophale) SiO2 
 PCOD9166674
Probable space group: P 21/M
;
_chemical_formula_sum "Si O2"
_cell_formula_units_Z 24
_cell_length_a 20.497889
_cell_length_b 11.078039
_cell_length_c 15.095859
_cell_angle_alpha 90.000000
_cell_angle_beta 160.236797
_cell_angle_gamma 90.000000
_cell_volume 1159.092705
_symmetry_space_group_name_H-M "P 21/M"
_symmetry_group_IT_number 11
_symmetry_cell_setting 'monoclinic'
loop_
_space_group_symop_operation_xyz
x,y,z
-x,1/2+y,-z
-x,-y,-z
x,1/2-y,z
loop_
_atom_site_type_symbol
_atom_site_label
_atom_site_fract_x
_atom_site_fract_y
_atom_site_fract_z
Si Si1 0.854563 0.116174 0.404535
Si Si2 0.760655 0.476638 0.781704
Si Si3 0.280071 0.611323 0.571943
Si Si4 0.359790 0.390030 0.209727
Si Si5 0.178113 0.386488 0.312173
Si Si6 0.297133 0.439065 0.934455
O O1 0.776658 0.250000 0.304057
O O2 0.805597 0.073763 0.441664
O O3 0.083588 0.117509 0.676061
O O4 0.750901 0.045855 0.193795
O O5 0.567929 0.399530 0.522314
O O6 0.776908 0.541535 0.896868
O O7 0.746866 0.580405 0.689656
O O8 0.947279 0.395605 0.006986
O O9 0.210102 0.750000 0.460623
O O10 0.232894 0.500780 0.444719
O O11 0.513906 0.620654 0.867856
O O12 0.310238 0.250000 0.131075
O O13 0.360329 0.457939 0.116783
O O14 0.234062 0.250000 0.411329
#
# Coordination Sequence:
#
# PCOD9166674 Si02
#       6
#     4   4   4   4   4   4
#     4  10  23  42  64  92 126 163 210 265 324 385
#     4  10  23  39  60  90 126 169 212 257 318 377
#     4  11  23  42  69  95 126 170 215 261 319 387
#     4  11  21  39  63  89 122 165 215 261 311 380
#     4  11  23  40  62  94 132 168 210 263 319 376
#     4  11  22  40  64  93 122 161 213 261 319 380
#
# _framework density 20.705850000000002
#
# number of rings (size 3 to 8) (size 9 to 14) (size 15 to 20)
#    0.000    1.333    1.667    4.000    0.000    5.333 
#    0.000   10.000    0.000    0.000    0.000    0.000 
#    0.000    0.000    0.000    0.000    0.000    0.000 
#
# Total GULP energy -133723.735697 kJ/mol
# GULP energy per Si atom -5571.822321 kJ/mol
# Density = 2.065872 g / cm^3
# Si number density = 20.705850 Si / 1000 Ang^3
#
#
#
# Elastic Constant Matrix: (Units=GPa)
#
#
# Indices 1 2 3 4 5 6 
#
# 1 109.5527 38.7380 0.1493 0.0000 -17.6235 0.0000
# 2 38.7380 90.6596 23.3506 0.0000 -21.6920 0.0000
# 3 0.1493 23.3506 52.9832 0.0000 -3.0647 0.0000
# 4 0.0000 0.0000 0.0000 27.8077 0.0000 17.5392
# 5 -17.6235 -21.6920 -3.0647 0.0000 37.6344 0.0000
# 6 0.0000 0.0000 0.0000 17.5392 0.0000 56.3048
#
#
#
# Elastic Compliance Matrix: (Units=1/GPa)
#
#
# Indices 1 2 3 4 5 6 
#
# 1 0.011230 -0.004715 0.002204 0.000000 0.002720 0.000000
# 2 -0.004715 0.016405 -0.006830 0.000000 0.006692 0.000000
# 3 0.002204 -0.006830 0.021812 0.000000 -0.001128 0.000000
# 4 0.000000 0.000000 0.000000 0.044754 0.000000 -0.013941
# 5 0.002720 0.006692 -0.001128 0.000000 0.031610 0.000000
# 6 0.000000 0.000000 0.000000 -0.013941 0.000000 0.022103
#
#
# Mechanical properties :
#
#
# Convention : Reuss Voigt Hill
#
# Bulk Modulus (GPa) = 32.50409 41.96348 37.23379
# Shear Modulus (GPa) = 28.27210 37.07989 32.67599
#
# Velocity S-wave (km/s) = 3.69916 4.23637 3.97685
# Velocity P-wave (km/s) = 5.82899 6.65128 6.25367
#
# Compressibility (1/GPa) = 0.03076536
#
# Stress axis : x y z
#
# Youngs Moduli (GPa) = 89.04762 60.95639 45.84546
#
# Poissons Ratio (x) = 0.28742 -0.10103
# Poissons Ratio (y) = 0.41987 0.31311
# Poissons Ratio (z) = -0.19624 0.41631
#
# Static dielectric constant tensor:
#      x y z
#    x 1.757570 0.000000 0.020450 
#    y 0.000000 1.755960 0.000000 
#    z 0.020450 0.000000 1.782070 
# 
# From -- ./inp_files/54815.got.cif
#   From: 2010.05.17/outbox.cif.g08.bks.cpg/sg11_28_cif.got.tgz:54815.got - 2010.06.03 12:22:45.
