data_PCOD9166665
_publ_section_title
;
Structure prediction by ZEFSAII (Michael W. Deem and Ramdas Pophale) SiO2 
 PCOD9166665
Probable space group: P 21/M
;
_chemical_formula_sum "Si O2"
_cell_formula_units_Z 28
_cell_length_a 8.705305
_cell_length_b 18.850909
_cell_length_c 15.637035
_cell_angle_alpha 90.000000
_cell_angle_beta 144.940710
_cell_angle_gamma 90.000000
_cell_volume 1474.019119
_symmetry_space_group_name_H-M "P 21/M"
_symmetry_group_IT_number 11
_symmetry_cell_setting 'monoclinic'
loop_
_space_group_symop_operation_xyz
x,y,z
-x,1/2+y,-z
-x,-y,-z
x,1/2-y,z
loop_
_atom_site_type_symbol
_atom_site_label
_atom_site_fract_x
_atom_site_fract_y
_atom_site_fract_z
Si Si1 0.000952 0.331981 0.592410
Si Si2 0.241964 0.016477 0.995815
Si Si3 0.015484 0.617942 0.992755
Si Si4 0.839335 0.524952 0.243622
Si Si5 0.527772 0.668909 0.326608
Si Si6 0.664836 0.566093 0.538535
Si Si7 0.376950 0.170521 0.324454
O O1 0.035203 0.250000 0.639301
O O2 0.683352 0.343234 0.434742
O O3 0.094583 0.395244 0.697048
O O4 0.191347 0.337890 0.596236
O O5 0.175889 0.022117 0.865979
O O6 0.147487 0.086394 0.001686
O O7 0.093985 0.949721 0.970607
O O8 0.555048 0.000580 0.149057
O O9 0.823692 0.664145 0.846201
O O10 0.284279 0.654162 0.150292
O O11 0.066166 0.469450 0.374572
O O12 0.506533 0.750000 0.348683
O O13 0.521450 0.611477 0.399485
O O14 0.500000 0.500000 0.500000
O O15 0.705978 0.617409 0.638078
O O16 0.368895 0.250000 0.355707
#
# Coordination Sequence:
#
# PCOD9166665 Si02
#       7
#     4   4   4   4   4   4   4
#     4  10  23  41  64  92 128 168 212 260 317 377
#     4  10  23  37  63  94 128 159 210 262 310 368
#     4  11  22  41  64  92 124 168 206 259 307 380
#     4  11  21  41  63  95 126 167 207 263 316 371
#     4  11  25  44  66  94 128 169 212 258 312 381
#     4  12  24  39  66  96 124 161 215 259 317 370
#     4  11  24  42  63  91 129 166 206 261 316 375
#
# _framework density 18.995683
#
# number of rings (size 3 to 8) (size 9 to 14) (size 15 to 20)
#    0.000    1.143    4.286    1.714    4.000    0.571 
#    0.000    0.714    0.000    0.000    0.000    0.000 
#    0.000    0.000    0.000    0.000    0.000    0.000 
#
# Total GULP energy -156365.048899 kJ/mol
# GULP energy per Si atom -5584.466032 kJ/mol
# Density = 1.895245 g / cm^3
# Si number density = 18.995683 Si / 1000 Ang^3
#
#
#
# Elastic Constant Matrix: (Units=GPa)
#
#
# Indices 1 2 3 4 5 6 
#
# 1 57.5716 31.1296 16.2699 0.0000 8.3305 0.0000
# 2 31.1296 111.4221 35.4782 0.0000 -2.2925 0.0000
# 3 16.2699 35.4782 84.1176 0.0000 2.7548 0.0000
# 4 0.0000 0.0000 0.0000 30.2492 0.0000 -5.0013
# 5 8.3305 -2.2925 2.7548 0.0000 21.6834 0.0000
# 6 0.0000 0.0000 0.0000 -5.0013 0.0000 27.1840
#
#
#
# Elastic Compliance Matrix: (Units=1/GPa)
#
#
# Indices 1 2 3 4 5 6 
#
# 1 0.022311 -0.005936 -0.001517 0.000000 -0.009006 0.000000
# 2 -0.005936 0.012006 -0.004049 0.000000 0.004064 0.000000
# 3 -0.001517 -0.004049 0.013942 0.000000 -0.001617 0.000000
# 4 0.000000 0.000000 0.000000 0.034096 0.000000 0.006273
# 5 -0.009006 0.004064 -0.001617 0.000000 0.050213 0.000000
# 6 0.000000 0.000000 0.000000 0.006273 0.000000 0.037940
#
#
# Mechanical properties :
#
#
# Convention : Reuss Voigt Hill
#
# Bulk Modulus (GPa) = 39.59388 46.54071 43.06730
# Shear Modulus (GPa) = 24.76098 27.17221 25.96660
#
# Velocity S-wave (km/s) = 3.61433 3.78622 3.70127
# Velocity P-wave (km/s) = 6.18924 6.60816 6.40213
#
# Compressibility (1/GPa) = 0.02525643
#
# Stress axis : x y z
#
# Youngs Moduli (GPa) = 44.82081 83.29161 71.72510
#
# Poissons Ratio (x) = 0.49439 0.10880
# Poissons Ratio (y) = 0.26604 0.29040
# Poissons Ratio (z) = 0.06799 0.33723
#
# Static dielectric constant tensor:
#      x y z
#    x 1.659430 0.000000 0.022180 
#    y 0.000000 1.660860 0.000000 
#    z 0.022180 0.000000 1.661870 
# 
# From -- ./inp_files/22780.got.cif
#   From: 2010.05.17/outbox.cif.g08.bks.cpg/sg11_12_cif.got.tgz:22780.got - 2010.06.03 12:22:45.
