data_PCOD9166657
_publ_section_title
;
Structure prediction by ZEFSAII (Michael W. Deem and Ramdas Pophale) SiO2 
 PCOD9166657
Probable space group: P 21/M
;
_chemical_formula_sum "Si O2"
_cell_formula_units_Z 24
_cell_length_a 9.570080
_cell_length_b 14.663776
_cell_length_c 9.036553
_cell_angle_alpha 90.000000
_cell_angle_beta 65.308220
_cell_angle_gamma 90.000000
_cell_volume 1152.183574
_symmetry_space_group_name_H-M "P 21/M"
_symmetry_group_IT_number 11
_symmetry_cell_setting 'monoclinic'
loop_
_space_group_symop_operation_xyz
x,y,z
-x,1/2+y,-z
-x,-y,-z
x,1/2-y,z
loop_
_atom_site_type_symbol
_atom_site_label
_atom_site_fract_x
_atom_site_fract_y
_atom_site_fract_z
Si Si1 0.009173 0.250000 0.721086
Si Si2 0.310927 0.750000 0.955401
Si Si3 0.860520 0.598109 0.900703
Si Si4 0.658378 0.750000 0.319033
Si Si5 0.186349 0.929338 0.888961
Si Si6 0.098914 0.089666 0.455442
Si Si7 0.397777 0.250000 0.959634
Si Si8 0.658660 0.949675 0.434425
O O1 0.152066 0.250000 0.774845
O O2 0.036972 0.163201 0.600910
O O3 0.842305 0.250000 0.871082
O O4 0.295511 0.842763 0.866947
O O5 0.469427 0.750000 0.978077
O O6 0.898266 0.620713 0.714312
O O7 0.715096 0.662483 0.993916
O O8 0.016640 0.609659 0.926711
O O9 0.817837 0.493692 0.963195
O O10 0.631221 0.844701 0.409601
O O11 0.541779 0.750000 0.233341
O O12 0.234169 0.997490 0.733455
O O13 0.263492 0.055411 0.440366
O O14 0.000000 0.000000 0.500000
O O15 0.500000 0.000000 0.500000
#
# Coordination Sequence:
#
# PCOD9166657 Si02
#       8
#     2   2   4   2   4   4   2   4
#     4  10  23  43  66  95 134 174 225 276 340 398
#     4  12  28  40  65 102 141 174 222 290 338 406
#     4  11  23  43  73  96 131 177 236 276 327 419
#     4  10  22  47  68  93 129 183 221 266 336 405
#     4  11  24  45  69  98 132 184 225 276 342 403
#     4  11  22  42  68  99 128 176 225 277 331 398
#     4  12  25  42  67 100 134 175 226 278 342 387
#     4  11  25  43  69 101 139 177 221 281 346 397
#
# _framework density 20.830013000000001
#
# number of rings (size 3 to 8) (size 9 to 14) (size 15 to 20)
#    0.000    1.000    3.333    3.000    7.000    4.000 
#    0.000    0.000    0.000    0.000    0.000    0.000 
#    0.000    0.000    0.000    0.000    0.000    0.000 
#
# Total GULP energy -133895.580716 kJ/mol
# GULP energy per Si atom -5578.982530 kJ/mol
# Density = 2.078260 g / cm^3
# Si number density = 20.830013 Si / 1000 Ang^3
#
#
#
# Elastic Constant Matrix: (Units=GPa)
#
#
# Indices 1 2 3 4 5 6 
#
# 1 121.5546 68.2287 3.3457 0.0000 15.8867 0.0000
# 2 68.2287 129.7208 8.4721 0.0000 16.1154 0.0000
# 3 3.3457 8.4721 41.9774 0.0000 9.6072 0.0000
# 4 0.0000 0.0000 0.0000 14.0930 0.0000 -3.6774
# 5 15.8867 16.1154 9.6072 0.0000 33.2754 0.0000
# 6 0.0000 0.0000 0.0000 -3.6774 0.0000 22.6645
#
#
#
# Elastic Compliance Matrix: (Units=1/GPa)
#
#
# Indices 1 2 3 4 5 6 
#
# 1 0.011953 -0.005965 0.000960 0.000000 -0.003095 0.000000
# 2 -0.005965 0.011204 -0.001280 0.000000 -0.002209 0.000000
# 3 0.000960 -0.001280 0.025663 0.000000 -0.007247 0.000000
# 4 0.000000 0.000000 0.000000 0.074094 0.000000 0.012022
# 5 -0.003095 -0.002209 -0.007247 0.000000 0.034692 0.000000
# 6 0.000000 0.000000 0.000000 0.012022 0.000000 0.046073
#
#
# Mechanical properties :
#
#
# Convention : Reuss Voigt Hill
#
# Bulk Modulus (GPa) = 27.58740 50.37174 38.97957
# Shear Modulus (GPa) = 21.89778 28.22033 25.05905
#
# Velocity S-wave (km/s) = 3.24583 3.68474 3.47223
# Velocity P-wave (km/s) = 5.22686 6.50676 5.90161
#
# Compressibility (1/GPa) = 0.03624844
#
# Stress axis : x y z
#
# Youngs Moduli (GPa) = 83.66081 89.25154 38.96666
#
# Poissons Ratio (x) = 0.53239 -0.03739
# Poissons Ratio (y) = 0.49904 0.04989
# Poissons Ratio (z) = -0.08027 0.11428
#
# Static dielectric constant tensor:
#      x y z
#    x 1.705860 0.000000 -0.061600 
#    y 0.000000 1.688680 0.000000 
#    z -0.061600 0.000000 1.818310 
# 
# From -- ./inp_files/12497.got.cif
#   From: 2010.05.17/outbox.cif.g08.bks.cpg/sg11_7_cif.got.tgz:12497.got - 2010.06.03 12:22:45.
