data_PCOD9166005
_publ_section_title
;
Structure prediction by ZEFSAII (Michael W. Deem and Ramdas Pophale) SiO2 
 PCOD9166005
Probable space group: P 21/M
;
_chemical_formula_sum "Si O2"
_cell_formula_units_Z 30
_cell_length_a 4.986241
_cell_length_b 25.738641
_cell_length_c 9.071817
_cell_angle_alpha 90.000000
_cell_angle_beta 100.438966
_cell_angle_gamma 90.000000
_cell_volume 1144.998110
_symmetry_space_group_name_H-M "P 21/M"
_symmetry_group_IT_number 11
_symmetry_cell_setting 'monoclinic'
loop_
_space_group_symop_operation_xyz
x,y,z
-x,1/2+y,-z
-x,-y,-z
x,1/2-y,z
loop_
_atom_site_type_symbol
_atom_site_label
_atom_site_fract_x
_atom_site_fract_y
_atom_site_fract_z
Si Si1 0.763919 0.572307 0.097615
Si Si2 0.848862 0.030180 0.614980
Si Si3 0.037738 0.877535 0.549857
Si Si4 0.375751 0.250000 0.336909
Si Si5 0.678238 0.939487 0.756285
Si Si6 0.741921 0.357957 0.894133
Si Si7 0.382821 0.664617 0.796084
Si Si8 0.356559 0.194127 0.635395
O O1 0.925303 0.539496 0.234982
O O2 0.951183 0.623664 0.096852
O O3 0.461818 0.591543 0.113202
O O4 0.767398 0.547944 0.933383
O O5 0.769344 0.084683 0.530386
O O6 0.623008 0.993453 0.667263
O O7 0.000000 0.000000 0.500000
O O8 0.148237 0.827198 0.650696
O O9 0.885917 0.910555 0.663716
O O10 0.841996 0.854469 0.404400
O O11 0.379996 0.204262 0.212567
O O12 0.418761 0.206366 0.471926
O O13 0.457727 0.894950 0.767613
O O14 0.615176 0.322334 0.755716
O O15 0.717369 0.331035 0.049539
O O16 0.242800 0.250000 0.680716
#
# Coordination Sequence:
#
# PCOD9166005 Si02
#       8
#     4   4   4   2   4   4   4   4
#     4  11  23  46  70 100 141 186 230 289 348 415
#     4  10  23  40  68 100 142 188 236 287 356 417
#     4  11  21  43  65  99 137 176 234 290 350 419
#     4  10  24  38  70  92 136 172 230 284 354 404
#     4  10  21  44  64  98 140 179 234 286 353 418
#     4  11  25  46  73  98 142 184 230 290 350 417
#     4  11  24  42  68  99 132 183 230 290 353 424
#     4  10  23  43  66 100 135 182 231 292 352 417
#
# _framework density 26.200914999999998
#
# number of rings (size 3 to 8) (size 9 to 14) (size 15 to 20)
#    0.400    1.067    4.000    0.400    3.733    0.533 
#    4.800    2.000    1.467    0.000    0.000    0.000 
#    0.000    0.000    0.000    0.000    0.000    0.000 
#
# Total GULP energy -167141.190609 kJ/mol
# GULP energy per Si atom -5571.373020 kJ/mol
# Density = 2.614128 g / cm^3
# Si number density = 26.200915 Si / 1000 Ang^3
#
#
#
# Elastic Constant Matrix: (Units=GPa)
#
#
# Indices 1 2 3 4 5 6 
#
# 1 60.4946 7.5677 6.5316 0.0000 -6.6431 0.0000
# 2 7.5677 73.7485 26.7165 0.0000 -9.7274 0.0000
# 3 6.5316 26.7165 136.0217 0.0000 -9.1692 0.0000
# 4 0.0000 0.0000 0.0000 171.5368 0.0000 60.4859
# 5 -6.6431 -9.7274 -9.1692 0.0000 33.7464 0.0000
# 6 0.0000 0.0000 0.0000 60.4859 0.0000 -38.2563
#
#
#
# Elastic Compliance Matrix: (Units=1/GPa)
#
#
# Indices 1 2 3 4 5 6 
#
# 1 0.017043 -0.001228 -0.000382 0.000000 0.002897 0.000000
# 2 -0.001228 0.015103 -0.002679 0.000000 0.003384 0.000000
# 3 -0.000382 -0.002679 0.007985 0.000000 0.001322 0.000000
# 4 0.000000 0.000000 0.000000 0.003743 0.000000 0.005918
# 5 0.002897 0.003384 0.001322 0.000000 0.031538 0.000000
# 6 0.000000 0.000000 0.000000 0.005918 0.000000 -0.016783
#
#
# Mechanical properties :
#
#
# Convention : Reuss Voigt Hill
#
# Bulk Modulus (GPa) = 31.69333 39.09962 35.39647
# Shear Modulus (GPa) = 64.32871 48.70197 56.51534
#
# Velocity S-wave (km/s) = 4.96038 4.31604 4.64939
# Velocity P-wave (km/s) = 6.70296 6.30817 6.50856
#
# Compressibility (1/GPa) = 0.03155238
#
# Stress axis : x y z
#
# Youngs Moduli (GPa) = 58.67352 66.21402 125.22728
#
# Poissons Ratio (x) = 0.08134 0.04781
# Poissons Ratio (y) = 0.07208 0.33552
# Poissons Ratio (z) = 0.02240 0.17741
#
# Static dielectric constant tensor:
#      x y z
#    x 2.132830 0.000000 0.076270 
#    y 0.000000 2.080590 0.000000 
#    z 0.076270 0.000000 2.056220 
# 
# From -- ./inp_files/10870.got.cif
#   From: 2010.05.17/outbox.cif.g08.bks.cpg/sg11_6_cif.got.tgz:10870.got - 2010.06.03 12:22:45.
