data_PCOD9166208
_publ_section_title
;
Structure prediction by ZEFSAII (Michael W. Deem and Ramdas Pophale) SiO2 
 PCOD9166208
Probable space group: P 21/M
;
_chemical_formula_sum "Si O2"
_cell_formula_units_Z 28
_cell_length_a 15.273568
_cell_length_b 9.068845
_cell_length_c 20.847623
_cell_angle_alpha 90.000000
_cell_angle_beta 153.060035
_cell_angle_gamma 90.000000
_cell_volume 1308.282502
_symmetry_space_group_name_H-M "P 21/M"
_symmetry_group_IT_number 11
_symmetry_cell_setting 'monoclinic'
loop_
_space_group_symop_operation_xyz
x,y,z
-x,1/2+y,-z
-x,-y,-z
x,1/2-y,z
loop_
_atom_site_type_symbol
_atom_site_label
_atom_site_fract_x
_atom_site_fract_y
_atom_site_fract_z
Si Si1 0.384964 0.073048 0.592930
Si Si2 0.796071 0.572497 0.889057
Si Si3 0.665614 0.412095 0.188985
Si Si4 0.932715 0.572749 0.116050
Si Si5 0.224617 0.085835 0.854599
Si Si6 0.818720 0.426063 0.419057
Si Si7 0.305040 0.075167 0.394858
O O1 0.401148 0.250000 0.611877
O O2 0.288439 0.044933 0.460396
O O3 0.600216 0.001118 0.734444
O O4 0.256204 0.002709 0.565504
O O5 0.797399 0.750000 0.878040
O O6 0.000000 0.500000 0.000000
O O7 0.797385 0.547142 0.966988
O O8 0.754384 0.250000 0.242666
O O9 0.790663 0.513509 0.224455
O O10 0.655930 0.447577 0.257342
O O11 0.451931 0.406221 0.020406
O O12 0.954446 0.750000 0.134531
O O13 0.137568 0.495805 0.242822
O O14 0.860149 0.512991 0.137209
O O15 0.145035 0.250000 0.797606
O O16 0.847878 0.250000 0.448143
O O17 0.000000 0.500000 0.500000
O O18 0.310153 0.250000 0.389300
O O19 0.500000 0.000000 0.500000
#
# Coordination Sequence:
#
# PCOD9166208 Si02
#       7
#     4   4   4   4   4   4   4
#     4  11  25  44  65  94 131 170 216 268 320 381
#     4  11  23  41  66  96 129 165 209 263 322 385
#     4   9  19  36  56  81 117 153 192 244 297 347
#     4  10  22  39  61  89 122 157 202 254 307 370
#     4   9  18  34  57  84 112 149 193 240 296 356
#     4  11  24  41  62  88 124 168 214 262 313 373
#     4  11  25  43  64  91 125 163 208 260 316 377
#
# _framework density 21.402104999999999
#
# number of rings (size 3 to 8) (size 9 to 14) (size 15 to 20)
#    0.000    1.714    0.000    3.429    2.000   10.857 
#    0.000    2.857    0.000    0.000    0.000    0.000 
#    0.000    0.000    0.000    0.000    0.000    0.000 
#
# Total GULP energy -156296.242415 kJ/mol
# GULP energy per Si atom -5582.008658 kJ/mol
# Density = 2.135339 g / cm^3
# Si number density = 21.402105 Si / 1000 Ang^3
#
#
#
# Elastic Constant Matrix: (Units=GPa)
#
#
# Indices 1 2 3 4 5 6 
#
# 1 94.3535 36.0573 0.5146 0.0000 -4.5762 0.0000
# 2 36.0573 50.3914 26.3426 0.0000 -10.0465 0.0000
# 3 0.5146 26.3426 65.4738 0.0000 -8.4962 0.0000
# 4 0.0000 0.0000 0.0000 26.8329 0.0000 -2.3255
# 5 -4.5762 -10.0465 -8.4962 0.0000 34.1453 0.0000
# 6 0.0000 0.0000 0.0000 -2.3255 0.0000 35.4006
#
#
#
# Elastic Compliance Matrix: (Units=1/GPa)
#
#
# Indices 1 2 3 4 5 6 
#
# 1 0.016133 -0.014658 0.005675 0.000000 -0.000739 0.000000
# 2 -0.014658 0.039316 -0.014939 0.000000 0.005886 0.000000
# 3 0.005675 -0.014939 0.021461 0.000000 0.001705 0.000000
# 4 0.000000 0.000000 0.000000 0.037481 0.000000 0.002462
# 5 -0.000739 0.005886 0.001705 0.000000 0.031344 0.000000
# 6 0.000000 0.000000 0.000000 0.002462 0.000000 0.028410
#
#
# Mechanical properties :
#
#
# Convention : Reuss Voigt Hill
#
# Bulk Modulus (GPa) = 34.40549 37.33864 35.87206
# Shear Modulus (GPa) = 21.58170 29.09603 25.33886
#
# Velocity S-wave (km/s) = 3.17896 3.69113 3.44458
# Velocity P-wave (km/s) = 5.43921 5.97077 5.71118
#
# Compressibility (1/GPa) = 0.02906513
#
# Stress axis : x y z
#
# Youngs Moduli (GPa) = 61.98413 25.43481 46.59709
#
# Poissons Ratio (x) = 0.37282 -0.26443
# Poissons Ratio (y) = 0.90855 0.69613
# Poissons Ratio (z) = -0.35174 0.37998
#
# Static dielectric constant tensor:
#      x y z
#    x 1.820620 0.000000 -0.010820 
#    y 0.000000 1.740050 0.000000 
#    z -0.010820 0.000000 1.789890 
# 
# From -- ./inp_files/65436.got.cif
#   From: 2010.05.17/outbox.cif.g08.bks.cpg/sg11_33_cif.got.tgz:65436.got - 2010.06.03 12:22:45.
