data_PCOD9166827
_publ_section_title
;
Structure prediction by ZEFSAII (Michael W. Deem and Ramdas Pophale) SiO2 
 PCOD9166827
Probable space group: P 21/M
;
_chemical_formula_sum "Si O2"
_cell_formula_units_Z 24
_cell_length_a 19.823658
_cell_length_b 13.345550
_cell_length_c 12.329709
_cell_angle_alpha 90.000000
_cell_angle_beta 156.106492
_cell_angle_gamma 90.000000
_cell_volume 1321.200905
_symmetry_space_group_name_H-M "P 21/M"
_symmetry_group_IT_number 11
_symmetry_cell_setting 'monoclinic'
loop_
_space_group_symop_operation_xyz
x,y,z
-x,1/2+y,-z
-x,-y,-z
x,1/2-y,z
loop_
_atom_site_type_symbol
_atom_site_label
_atom_site_fract_x
_atom_site_fract_y
_atom_site_fract_z
Si Si1 0.613959 0.750000 0.910706
Si Si2 0.252889 0.976163 0.572676
Si Si3 0.142858 0.750000 0.373467
Si Si4 0.020217 0.250000 0.654371
Si Si5 0.244854 0.750000 0.279677
Si Si6 0.129558 0.585844 0.717537
Si Si7 0.414578 0.472395 0.042043
Si Si8 0.024202 0.860944 0.805158
O O1 0.441138 0.750000 0.589460
O O2 0.789537 0.750000 0.105818
O O3 0.608573 0.854270 0.968843
O O4 0.226657 0.856579 0.526234
O O5 0.330181 0.003444 0.802728
O O6 0.090504 0.046578 0.327473
O O7 0.391868 0.998918 0.686097
O O8 0.144333 0.750000 0.245482
O O9 0.986455 0.750000 0.225409
O O10 0.916056 0.160817 0.446259
O O11 0.180742 0.844371 0.115109
O O12 0.313079 0.539294 0.978249
O O13 0.000000 0.500000 0.500000
O O14 0.086239 0.625995 0.773013
O O15 0.937257 0.750000 0.682948
#
# Coordination Sequence:
#
# PCOD9166827 Si02
#       8
#     2   4   2   2   2   4   4   4
#     4  12  22  42  62  89 133 178 212 254 331 373
#     4  11  22  39  64 100 129 165 205 271 330 372
#     4  12  22  42  61  98 128 167 222 257 312 381
#     4  12  21  34  63  93 127 152 210 271 317 377
#     4  10  25  46  64  84 130 187 216 250 300 393
#     4  12  20  38  64  98 121 157 204 267 334 373
#     4  11  23  36  64 101 131 157 208 271 330 381
#     4  10  23  44  66  89 131 174 210 254 320 385
#
# _framework density 18.165291
#
# number of rings (size 3 to 8) (size 9 to 14) (size 15 to 20)
#    0.500    0.333    7.500    0.000    1.167    0.667 
#    3.000    2.500    0.000    0.000    0.000    0.000 
#    0.000    0.000    0.000    0.000    0.000    0.000 
#
# Total GULP energy -133612.930512 kJ/mol
# GULP energy per Si atom -5567.205438 kJ/mol
# Density = 1.812395 g / cm^3
# Si number density = 18.165291 Si / 1000 Ang^3
#
#
#
# Elastic Constant Matrix: (Units=GPa)
#
#
# Indices 1 2 3 4 5 6 
#
# 1 109.1059 25.0478 41.6501 0.0000 11.5137 0.0000
# 2 25.0478 108.9362 49.0445 0.0000 7.9716 0.0000
# 3 41.6501 49.0445 67.0200 0.0000 5.0058 0.0000
# 4 0.0000 0.0000 0.0000 25.4616 0.0000 4.4121
# 5 11.5137 7.9716 5.0058 0.0000 37.8702 0.0000
# 6 0.0000 0.0000 0.0000 4.4121 0.0000 16.1846
#
#
#
# Elastic Compliance Matrix: (Units=1/GPa)
#
#
# Indices 1 2 3 4 5 6 
#
# 1 0.012380 0.001092 -0.008276 0.000000 -0.002900 0.000000
# 2 0.001092 0.013880 -0.010698 0.000000 -0.001839 0.000000
# 3 -0.008276 -0.010698 0.027811 0.000000 0.001092 0.000000
# 4 0.000000 0.000000 0.000000 0.041222 0.000000 -0.011237
# 5 -0.002900 -0.001839 0.001092 0.000000 0.027530 0.000000
# 6 0.000000 0.000000 0.000000 -0.011237 0.000000 0.064850
#
#
# Mechanical properties :
#
#
# Convention : Reuss Voigt Hill
#
# Bulk Modulus (GPa) = 54.62608 57.39411 56.01010
# Shear Modulus (GPa) = 21.78265 27.19126 24.48696
#
# Velocity S-wave (km/s) = 3.46661 3.87315 3.67551
# Velocity P-wave (km/s) = 6.79413 7.18789 6.99378
#
# Compressibility (1/GPa) = 0.01830627
#
# Stress axis : x y z
#
# Youngs Moduli (GPa) = 80.77514 72.04785 35.95687
#
# Poissons Ratio (x) = -0.07864 0.29757
# Poissons Ratio (y) = -0.08817 0.38466
# Poissons Ratio (z) = 0.66848 0.77076
#
# Static dielectric constant tensor:
#      x y z
#    x 1.655470 0.000000 0.033950 
#    y 0.000000 1.620480 0.000000 
#    z 0.033950 0.000000 1.636570 
# 
# From -- ./inp_files/41402.got.cif
#   From: 2010.05.17/outbox.cif.g08.bks.cpg/sg11_21_cif.got.tgz:41402.got - 2010.06.03 12:22:45.
