data_PCOD9166688
_publ_section_title
;
Structure prediction by ZEFSAII (Michael W. Deem and Ramdas Pophale) SiO2 
 PCOD9166688
Probable space group: P 21/M
;
_chemical_formula_sum "Si O2"
_cell_formula_units_Z 32
_cell_length_a 23.871073
_cell_length_b 13.959094
_cell_length_c 7.471675
_cell_angle_alpha 90.000000
_cell_angle_beta 36.282310
_cell_angle_gamma 90.000000
_cell_volume 1473.316059
_symmetry_space_group_name_H-M "P 21/M"
_symmetry_group_IT_number 11
_symmetry_cell_setting 'monoclinic'
loop_
_space_group_symop_operation_xyz
x,y,z
-x,1/2+y,-z
-x,-y,-z
x,1/2-y,z
loop_
_atom_site_type_symbol
_atom_site_label
_atom_site_fract_x
_atom_site_fract_y
_atom_site_fract_z
Si Si1 0.085555 0.020107 0.512335
Si Si2 0.221264 0.646627 0.086755
Si Si3 0.433667 0.854451 0.688750
Si Si4 0.075256 0.134945 0.170916
Si Si5 0.814745 0.861883 0.462211
Si Si6 0.493072 0.355285 0.894757
Si Si7 0.291767 0.854493 0.515286
Si Si8 0.355517 0.013089 0.132369
O O1 0.090134 0.093213 0.332145
O O2 0.101879 0.083401 0.646075
O O3 0.172636 0.946751 0.282521
O O4 0.999625 0.944131 0.712996
O O5 0.176915 0.750000 0.246349
O O6 0.327828 0.649727 0.882626
O O7 0.227645 0.638941 0.855234
O O8 0.454246 0.750000 0.722202
O O9 0.497014 0.862178 0.347846
O O10 0.426949 0.945350 0.835267
O O11 0.048847 0.250000 0.244095
O O12 0.163471 0.129523 0.806323
O O13 0.816526 0.750000 0.503294
O O14 0.712307 0.906375 0.776232
O O15 0.456498 0.250000 0.035156
O O16 0.598451 0.361065 0.702377
O O17 0.416889 0.436042 0.129802
O O18 0.277800 0.750000 0.468196
O O19 0.280141 0.938361 0.407224
#
# Coordination Sequence:
#
# PCOD9166688 Si02
#       8
#     4   4   4   4   4   4   4   4
#     4  11  20  39  64  84 110 151 190 222 279 340
#     4   9  17  33  54  79 106 137 178 227 277 327
#     4   9  18  32  50  74 105 134 177 231 273 314
#     4  10  23  40  60  86 115 147 185 231 278 330
#     4  11  24  39  56  85 120 149 184 231 277 332
#     4   9  19  34  50  71 103 146 185 227 275 324
#     4   9  19  33  51  77 109 139 180 235 283 323
#     4  12  19  32  53  79 104 146 186 221 276 338
#
# _framework density 21.719711
#
# number of rings (size 3 to 8) (size 9 to 14) (size 15 to 20)
#    0.000    2.000    1.250    4.875    0.000    0.000 
#    0.000    0.000    0.000    6.000    0.000    0.000 
#    0.000    0.000    0.000    0.000    0.000    0.000 
#
# Total GULP energy -178322.773254 kJ/mol
# GULP energy per Si atom -5572.586664 kJ/mol
# Density = 2.167028 g / cm^3
# Si number density = 21.719711 Si / 1000 Ang^3
#
#
#
# Elastic Constant Matrix: (Units=GPa)
#
#
# Indices 1 2 3 4 5 6 
#
# 1 40.6265 16.0027 6.6668 0.0000 4.4240 0.0000
# 2 16.0027 159.9337 27.1218 0.0000 4.7063 0.0000
# 3 6.6668 27.1218 29.0485 0.0000 5.4960 0.0000
# 4 0.0000 0.0000 0.0000 24.1079 0.0000 4.7883
# 5 4.4240 4.7063 5.4960 0.0000 23.6868 0.0000
# 6 0.0000 0.0000 0.0000 4.7883 0.0000 27.8014
#
#
#
# Elastic Compliance Matrix: (Units=1/GPa)
#
#
# Indices 1 2 3 4 5 6 
#
# 1 0.026360 -0.001927 -0.003548 0.000000 -0.003717 0.000000
# 2 -0.001927 0.007570 -0.006704 0.000000 0.000411 0.000000
# 3 -0.003548 -0.006704 0.043009 0.000000 -0.007985 0.000000
# 4 0.000000 0.000000 0.000000 0.042949 0.000000 -0.007397
# 5 -0.003717 0.000411 -0.007985 0.000000 0.044683 0.000000
# 6 0.000000 0.000000 0.000000 -0.007397 0.000000 0.037244
#
#
# Mechanical properties :
#
#
# Convention : Reuss Voigt Hill
#
# Bulk Modulus (GPa) = 19.01731 36.57681 27.79706
# Shear Modulus (GPa) = 20.51714 27.10706 23.81210
#
# Velocity S-wave (km/s) = 3.07682 3.53659 3.31469
# Velocity P-wave (km/s) = 4.62571 5.79255 5.24170
#
# Compressibility (1/GPa) = 0.05258368
#
# Stress axis : x y z
#
# Youngs Moduli (GPa) = 37.93587 132.09918 23.25092
#
# Poissons Ratio (x) = 0.25450 0.08249
# Poissons Ratio (y) = 0.07309 0.15587
# Poissons Ratio (z) = 0.13458 0.88554
#
# Static dielectric constant tensor:
#      x y z
#    x 1.806060 0.000000 0.003320 
#    y 0.000000 1.840330 0.000000 
#    z 0.003320 0.000000 1.839730 
# 
# From -- ./inp_files/26610.got.cif
#   From: 2010.05.17/outbox.cif.g08.bks.cpg/sg11_14_cif.got.tgz:26610.got - 2010.06.03 12:22:45.
