data_PCOD9166986
_publ_section_title
;
Structure prediction by ZEFSAII (Michael W. Deem and Ramdas Pophale) SiO2 
 PCOD9166986
Probable space group: P 21/M
;
_chemical_formula_sum "Si O2"
_cell_formula_units_Z 24
_cell_length_a 5.121335
_cell_length_b 18.435713
_cell_length_c 11.838630
_cell_angle_alpha 90.000000
_cell_angle_beta 68.536297
_cell_angle_gamma 90.000000
_cell_volume 1040.233289
_symmetry_space_group_name_H-M "P 21/M"
_symmetry_group_IT_number 11
_symmetry_cell_setting 'monoclinic'
loop_
_space_group_symop_operation_xyz
x,y,z
-x,1/2+y,-z
-x,-y,-z
x,1/2-y,z
loop_
_atom_site_type_symbol
_atom_site_label
_atom_site_fract_x
_atom_site_fract_y
_atom_site_fract_z
Si Si1 0.322862 0.529269 0.367784
Si Si2 0.813974 0.250000 0.122846
Si Si3 0.177388 0.381811 0.449995
Si Si4 0.323876 0.552077 0.107731
Si Si5 0.667934 0.673345 0.336852
Si Si6 0.137528 0.363146 0.922314
Si Si7 0.824171 0.750000 0.722592
O O1 0.398827 0.447753 0.394698
O O2 0.246700 0.524646 0.246237
O O3 0.548221 0.593011 0.336269
O O4 0.093901 0.568222 0.484745
O O5 0.908972 0.250000 0.237734
O O6 0.477931 0.250000 0.166345
O O7 0.964038 0.318667 0.041400
O O8 0.210332 0.335317 0.558153
O O9 0.166378 0.323659 0.352517
O O10 0.543023 0.619512 0.091778
O O11 0.043045 0.567304 0.082719
O O12 0.500000 0.500000 0.000000
O O13 0.498298 0.750000 0.362352
O O14 0.866858 0.677764 0.197338
#
# Coordination Sequence:
#
# PCOD9166986 Si02
#       7
#     4   2   4   4   4   4   2
#     4  10  25  42  69 102 146 183 238 297 356 413
#     4  12  28  49  67 108 140 188 234 297 360 417
#     4  11  24  46  67 102 142 190 238 292 351 427
#     4  11  24  44  71 108 135 190 233 290 356 423
#     4  11  22  43  71 103 131 187 238 300 351 428
#     4  11  24  46  72 101 140 179 238 295 353 415
#     4  12  30  47  75 102 146 196 238 285 358 431
#
# _framework density 23.071747999999999
#
# number of rings (size 3 to 8) (size 9 to 14) (size 15 to 20)
#    0.000    1.000    3.333    2.000    8.167    0.000 
#    1.500    0.000    0.000    0.000    0.000    0.000 
#    0.000    0.000    0.000    0.000    0.000    0.000 
#
# Total GULP energy -133728.939481 kJ/mol
# GULP energy per Si atom -5572.039145 kJ/mol
# Density = 2.301924 g / cm^3
# Si number density = 23.071748 Si / 1000 Ang^3
#
#
#
# Elastic Constant Matrix: (Units=GPa)
#
#
# Indices 1 2 3 4 5 6 
#
# 1 43.0618 5.4157 -3.6781 0.0000 1.3525 0.0000
# 2 5.4157 135.7995 38.9314 0.0000 2.8724 0.0000
# 3 -3.6781 38.9314 70.5158 0.0000 4.4288 0.0000
# 4 0.0000 0.0000 0.0000 221.0632 0.0000 32.7636
# 5 1.3525 2.8724 4.4288 0.0000 34.0980 0.0000
# 6 0.0000 0.0000 0.0000 32.7636 0.0000 28.0179
#
#
#
# Elastic Compliance Matrix: (Units=1/GPa)
#
#
# Indices 1 2 3 4 5 6 
#
# 1 0.023633 -0.001536 0.002149 0.000000 -0.001087 0.000000
# 2 -0.001536 0.008849 -0.004963 0.000000 -0.000040 0.000000
# 3 0.002149 -0.004963 0.017152 0.000000 -0.001895 0.000000
# 4 0.000000 0.000000 0.000000 0.005472 0.000000 -0.006399
# 5 -0.001087 -0.000040 -0.001895 0.000000 0.029620 0.000000
# 6 0.000000 0.000000 0.000000 -0.006399 0.000000 0.043174
#
#
# Mechanical properties :
#
#
# Convention : Reuss Voigt Hill
#
# Bulk Modulus (GPa) = 24.42905 36.74612 30.58758
# Shear Modulus (GPa) = 33.27913 70.54969 51.91441
#
# Velocity S-wave (km/s) = 3.80204 5.53577 4.74870
# Velocity P-wave (km/s) = 5.46674 7.53798 6.58432
#
# Compressibility (1/GPa) = 0.04093488
#
# Stress axis : x y z
#
# Youngs Moduli (GPa) = 42.31329 113.01163 58.30131
#
# Poissons Ratio (x) = 0.17353 -0.12527
# Poissons Ratio (y) = 0.06497 0.28934
# Poissons Ratio (z) = -0.09092 0.56086
#
# Static dielectric constant tensor:
#      x y z
#    x 1.952000 0.000000 -0.037250 
#    y 0.000000 2.039480 0.000000 
#    z -0.037250 0.000000 1.964650 
# 
# From -- ./inp_files/29760.got.cif
#   From: 2010.05.17/outbox.cif.g08.bks.cpg/sg11_15_cif.got.tgz:29760.got - 2010.06.03 12:22:45.
