data_PCOD9166537
_publ_section_title
;
Structure prediction by ZEFSAII (Michael W. Deem and Ramdas Pophale) SiO2 
 PCOD9166537
Probable space group: P 21/M
;
_chemical_formula_sum "Si O2"
_cell_formula_units_Z 20
_cell_length_a 4.905919
_cell_length_b 14.164445
_cell_length_c 11.273091
_cell_angle_alpha 90.000000
_cell_angle_beta 90.828314
_cell_angle_gamma 90.000000
_cell_volume 783.280948
_symmetry_space_group_name_H-M "P 21/M"
_symmetry_group_IT_number 11
_symmetry_cell_setting 'monoclinic'
loop_
_space_group_symop_operation_xyz
x,y,z
-x,1/2+y,-z
-x,-y,-z
x,1/2-y,z
loop_
_atom_site_type_symbol
_atom_site_label
_atom_site_fract_x
_atom_site_fract_y
_atom_site_fract_z
Si Si1 0.587802 0.903265 0.856707
Si Si2 0.601050 0.356422 0.399308
Si Si3 0.265976 0.597666 0.246407
Si Si4 0.884314 0.350500 0.009439
Si Si5 0.778904 0.574060 0.399075
O O1 0.496144 0.850894 0.737254
O O2 0.313900 0.925792 0.929051
O O3 0.806267 0.859765 0.947839
O O4 0.742485 0.991555 0.801370
O O5 0.709967 0.250000 0.429174
O O6 0.764091 0.458430 0.405049
O O7 0.345496 0.380385 0.483653
O O8 0.572422 0.608985 0.294118
O O9 0.072635 0.607535 0.358424
O O10 0.162563 0.650705 0.130578
O O11 0.780224 0.250000 0.056316
#
# Coordination Sequence:
#
# PCOD9166537 Si02
#       5
#     4   4   4   4   4
#     4  11  23  40  63  90 122 163 204 251 308 362
#     4  10  22  42  66  93 126 161 205 259 308 362
#     4  11  23  43  64  87 125 165 203 251 307 366
#     4  12  24  39  62  93 125 159 205 254 305 366
#     4  10  24  42  65  93 122 164 209 250 307 371
#
# _framework density 25.533622000000001
#
# number of rings (size 3 to 8) (size 9 to 14) (size 15 to 20)
#    0.000    1.200    0.000    6.600    0.000   10.400 
#    0.000   11.000    0.000    0.000    0.000    0.000 
#    0.000    0.000    0.000    0.000    0.000    0.000 
#
# Total GULP energy -111789.095469 kJ/mol
# GULP energy per Si atom -5589.454773 kJ/mol
# Density = 2.547551 g / cm^3
# Si number density = 25.533622 Si / 1000 Ang^3
#
#
#
# Elastic Constant Matrix: (Units=GPa)
#
#
# Indices 1 2 3 4 5 6 
#
# 1 89.0962 -7.5020 18.3993 0.0000 4.2775 0.0000
# 2 -7.5020 85.9843 8.4425 0.0000 -1.8497 0.0000
# 3 18.3993 8.4425 142.7906 0.0000 6.0945 0.0000
# 4 0.0000 0.0000 0.0000 26.8792 0.0000 -3.9617
# 5 4.2775 -1.8497 6.0945 0.0000 44.2858 0.0000
# 6 0.0000 0.0000 0.0000 -3.9617 0.0000 7.5463
#
#
#
# Elastic Compliance Matrix: (Units=1/GPa)
#
#
# Indices 1 2 3 4 5 6 
#
# 1 0.011680 0.001151 -0.001536 0.000000 -0.000869 0.000000
# 2 0.001151 0.011827 -0.000869 0.000000 0.000502 0.000000
# 3 -0.001536 -0.000869 0.007291 0.000000 -0.000891 0.000000
# 4 0.000000 0.000000 0.000000 0.040324 0.000000 0.021169
# 5 -0.000869 0.000502 -0.000891 0.000000 0.022808 0.000000
# 6 0.000000 0.000000 0.000000 0.021169 0.000000 0.143629
#
#
# Mechanical properties :
#
#
# Convention : Reuss Voigt Hill
#
# Bulk Modulus (GPa) = 35.34920 39.61673 37.48297
# Shear Modulus (GPa) = 20.04046 35.64433 27.84240
#
# Velocity S-wave (km/s) = 2.80458 3.74033 3.30573
# Velocity P-wave (km/s) = 4.93577 5.84830 5.41131
#
# Compressibility (1/GPa) = 0.02828919
#
# Stress axis : x y z
#
# Youngs Moduli (GPa) = 85.61906 84.55512 137.16287
#
# Poissons Ratio (x) = -0.09734 0.21068
# Poissons Ratio (y) = -0.09856 0.11920
# Poissons Ratio (z) = 0.13151 0.07348
#
# Static dielectric constant tensor:
#      x y z
#    x 1.952930 0.000000 0.053710 
#    y 0.000000 2.214030 0.000000 
#    z 0.053710 0.000000 1.968740 
# 
# From -- ./inp_files/29568.got.cif
#   From: 2010.05.17/outbox.cif.g08.bks.cpg/sg11_15_cif.got.tgz:29568.got - 2010.06.03 12:22:45.
