data_PCOD9166436
_publ_section_title
;
Structure prediction by ZEFSAII (Michael W. Deem and Ramdas Pophale) SiO2 
 PCOD9166436
Probable space group: P 21/M
;
_chemical_formula_sum "Si O2"
_cell_formula_units_Z 32
_cell_length_a 14.573352
_cell_length_b 8.772603
_cell_length_c 14.959085
_cell_angle_alpha 90.000000
_cell_angle_beta 130.586532
_cell_angle_gamma 90.000000
_cell_volume 1452.370524
_symmetry_space_group_name_H-M "P 21/M"
_symmetry_group_IT_number 11
_symmetry_cell_setting 'monoclinic'
loop_
_space_group_symop_operation_xyz
x,y,z
-x,1/2+y,-z
-x,-y,-z
x,1/2-y,z
loop_
_atom_site_type_symbol
_atom_site_label
_atom_site_fract_x
_atom_site_fract_y
_atom_site_fract_z
Si Si1 0.298029 0.429888 0.847529
Si Si2 0.719938 0.433004 0.656219
Si Si3 0.771251 0.072928 0.021606
Si Si4 0.024977 0.067799 0.613729
Si Si5 0.213899 0.430105 0.478965
Si Si6 0.973339 0.934340 0.885140
Si Si7 0.589233 0.071891 0.749118
Si Si8 0.622502 0.428399 0.274058
O O1 0.316436 0.250000 0.849011
O O2 0.304004 0.478543 0.954128
O O3 0.382879 0.517307 0.831660
O O4 0.159534 0.469608 0.731899
O O5 0.724191 0.250000 0.654980
O O6 0.703965 0.501521 0.547825
O O7 0.848791 0.497415 0.770707
O O8 0.621680 0.475421 0.669109
O O9 0.768368 0.250000 0.047805
O O10 0.909941 0.022883 0.100408
O O11 0.711043 0.065027 0.885717
O O12 0.013953 0.250000 0.603565
O O13 0.919757 0.000349 0.609205
O O14 0.000000 0.000000 0.500000
O O15 0.207302 0.250000 0.466672
O O16 0.271211 0.478304 0.609480
O O17 0.966725 0.750000 0.883501
O O18 0.000000 0.000000 0.000000
O O19 0.548852 0.250000 0.723546
O O20 0.494132 0.971158 0.742012
O O21 0.648293 0.250000 0.294718
#
# Coordination Sequence:
#
# PCOD9166436 Si02
#       8
#     4   4   4   4   4   4   4   4
#     4  11  24  41  64  95 128 165 206 256 315 373
#     4  11  23  42  66  95 129 168 210 260 317 375
#     4  10  22  41  64  93 127 168 209 254 312 369
#     4  11  22  38  64  95 129 168 207 254 312 374
#     4  12  25  42  65  95 130 168 208 258 315 378
#     4  11  21  37  63  96 132 170 209 255 314 376
#     4  10  23  45  67  89 124 166 211 264 314 369
#     4  12  26  44  67  92 121 163 213 265 316 375
#
# _framework density 22.032945999999999
#
# number of rings (size 3 to 8) (size 9 to 14) (size 15 to 20)
#    0.000    1.000    2.500    4.500    0.000    7.000 
#    0.000    0.000    0.000    0.000    0.000    0.000 
#    0.000    0.000    0.000    0.000    0.000    0.000 
#
# Total GULP energy -179132.794456 kJ/mol
# GULP energy per Si atom -5597.899827 kJ/mol
# Density = 2.198280 g / cm^3
# Si number density = 22.032946 Si / 1000 Ang^3
#
#
#
# Elastic Constant Matrix: (Units=GPa)
#
#
# Indices 1 2 3 4 5 6 
#
# 1 124.1272 39.8722 7.1519 0.0000 -25.5188 0.0000
# 2 39.8722 66.7928 -0.7798 0.0000 -9.4456 0.0000
# 3 7.1519 -0.7798 33.2893 0.0000 -20.6292 0.0000
# 4 0.0000 0.0000 0.0000 30.4110 0.0000 -5.0861
# 5 -25.5188 -9.4456 -20.6292 0.0000 43.5969 0.0000
# 6 0.0000 0.0000 0.0000 -5.0861 0.0000 35.1690
#
#
#
# Elastic Compliance Matrix: (Units=1/GPa)
#
#
# Indices 1 2 3 4 5 6 
#
# 1 0.011016 -0.005761 0.001020 0.000000 0.005683 0.000000
# 2 -0.005761 0.018742 0.002976 0.000000 0.002097 0.000000
# 3 0.001020 0.002976 0.043380 0.000000 0.021768 0.000000
# 4 0.000000 0.000000 0.000000 0.033698 0.000000 0.004873
# 5 0.005683 0.002097 0.021768 0.000000 0.037018 0.000000
# 6 0.000000 0.000000 0.000000 0.004873 0.000000 0.029139
#
#
# Mechanical properties :
#
#
# Convention : Reuss Voigt Hill
#
# Bulk Modulus (GPa) = 14.36604 35.18864 24.77734
# Shear Modulus (GPa) = 25.03436 33.69971 29.36704
#
# Velocity S-wave (km/s) = 3.37445 3.91514 3.65481
# Velocity P-wave (km/s) = 4.66014 6.03684 5.39260
#
# Compressibility (1/GPa) = 0.06960862
#
# Stress axis : x y z
#
# Youngs Moduli (GPa) = 90.77547 53.35676 23.05205
#
# Poissons Ratio (x) = 0.30737 -0.02351
# Poissons Ratio (y) = 0.52292 -0.06860
# Poissons Ratio (z) = -0.09258 -0.15879
#
# Static dielectric constant tensor:
#      x y z
#    x 1.745180 0.000000 0.048760 
#    y 0.000000 1.729660 0.000000 
#    z 0.048760 0.000000 1.804250 
# 
# From -- ./inp_files/51770.got.cif
#   From: 2010.05.17/outbox.cif.g08.bks.cpg/sg11_26_cif.got.tgz:51770.got - 2010.06.03 12:22:45.
