data_PCOD9166363
_publ_section_title
;
Structure prediction by ZEFSAII (Michael W. Deem and Ramdas Pophale) SiO2 
 PCOD9166363
Probable space group: P 21/M
;
_chemical_formula_sum "Si O2"
_cell_formula_units_Z 16
_cell_length_a 8.064891
_cell_length_b 16.961280
_cell_length_c 5.695841
_cell_angle_alpha 90.000000
_cell_angle_beta 122.017099
_cell_angle_gamma 90.000000
_cell_volume 660.624159
_symmetry_space_group_name_H-M "P 21/M"
_symmetry_group_IT_number 11
_symmetry_cell_setting 'monoclinic'
loop_
_space_group_symop_operation_xyz
x,y,z
-x,1/2+y,-z
-x,-y,-z
x,1/2-y,z
loop_
_atom_site_type_symbol
_atom_site_label
_atom_site_fract_x
_atom_site_fract_y
_atom_site_fract_z
Si Si1 0.620182 0.545981 0.891411
Si Si2 0.928591 0.064907 0.257723
Si Si3 0.699061 0.159300 0.460577
Si Si4 0.894342 0.838363 0.972003
O O1 0.462232 0.591171 0.609521
O O2 0.752484 0.622236 0.056494
O O3 0.500000 0.500000 0.000000
O O4 0.790852 0.482599 0.971669
O O5 0.797671 0.130537 0.290411
O O6 0.104769 0.107722 0.258168
O O7 0.000000 0.000000 0.500000
O O8 0.626405 0.250000 0.392271
O O9 0.882880 0.160395 0.772963
O O10 0.837170 0.750000 0.877427
#
# Coordination Sequence:
#
# PCOD9166363 Si02
#       4
#     4   4   4   4
#     4  10  22  40  66  96 128 165 214 270 319 383
#     4  11  22  41  65  96 129 173 217 269 323 382
#     4  10  22  41  63  91 131 171 214 269 328 386
#     4  11  23  42  66  92 130 176 217 267 329 388
#
# _framework density 24.219521
#
# number of rings (size 3 to 8) (size 9 to 14) (size 15 to 20)
#    0.000    1.500    2.500    2.250    0.000    1.000 
#    9.000    0.000    0.000    0.000    0.000    0.000 
#    0.000    0.000    0.000    0.000    0.000    0.000 
#
# Total GULP energy -89173.797995 kJ/mol
# GULP energy per Si atom -5573.362375 kJ/mol
# Density = 2.416440 g / cm^3
# Si number density = 24.219521 Si / 1000 Ang^3
#
#
#
# Elastic Constant Matrix: (Units=GPa)
#
#
# Indices 1 2 3 4 5 6 
#
# 1 99.3113 65.0418 19.0518 0.0000 13.0246 0.0000
# 2 65.0418 194.4155 54.5531 0.0000 -5.7442 0.0000
# 3 19.0518 54.5531 78.0543 0.0000 13.2873 0.0000
# 4 0.0000 0.0000 0.0000 35.9490 0.0000 13.2824
# 5 13.0246 -5.7442 13.2873 0.0000 30.6573 0.0000
# 6 0.0000 0.0000 0.0000 13.2824 0.0000 38.5971
#
#
#
# Elastic Compliance Matrix: (Units=1/GPa)
#
#
# Indices 1 2 3 4 5 6 
#
# 1 0.014396 -0.005523 0.001688 0.000000 -0.007883 0.000000
# 2 -0.005523 0.008860 -0.005967 0.000000 0.006593 0.000000
# 3 0.001688 -0.005967 0.018227 0.000000 -0.009735 0.000000
# 4 0.000000 0.000000 0.000000 0.031869 0.000000 -0.010967
# 5 -0.007883 0.006593 -0.009735 0.000000 0.041422 0.000000
# 6 0.000000 0.000000 0.000000 -0.010967 0.000000 0.029683
#
#
# Mechanical properties :
#
#
# Convention : Reuss Voigt Hill
#
# Bulk Modulus (GPa) = 45.70320 72.11939 58.91129
# Shear Modulus (GPa) = 29.17917 36.58297 32.88107
#
# Velocity S-wave (km/s) = 3.47476 3.89070 3.68860
# Velocity P-wave (km/s) = 5.91692 7.07286 6.52056
#
# Compressibility (1/GPa) = 0.02188031
#
# Stress axis : x y z
#
# Youngs Moduli (GPa) = 69.46176 112.86193 54.86341
#
# Poissons Ratio (x) = 0.62332 -0.09261
# Poissons Ratio (y) = 0.38363 0.32736
# Poissons Ratio (z) = -0.11725 0.67343
#
# Static dielectric constant tensor:
#      x y z
#    x 1.975640 0.000000 0.048170 
#    y 0.000000 1.945830 0.000000 
#    z 0.048170 0.000000 2.003100 
# 
# From -- ./inp_files/1484.got.cif
#   From: 2010.05.17/outbox.cif.g08.bks.cpg/sg11_1_cif.got.tgz:1484.got - 2010.06.03 12:22:45.
