data_PCOD9166705
_publ_section_title
;
Structure prediction by ZEFSAII (Michael W. Deem and Ramdas Pophale) SiO2 
 PCOD9166705
Probable space group: P 21/M
;
_chemical_formula_sum "Si O2"
_cell_formula_units_Z 20
_cell_length_a 13.787320
_cell_length_b 12.157837
_cell_length_c 10.669575
_cell_angle_alpha 90.000000
_cell_angle_beta 151.861086
_cell_angle_gamma 90.000000
_cell_volume 843.465106
_symmetry_space_group_name_H-M "P 21/M"
_symmetry_group_IT_number 11
_symmetry_cell_setting 'monoclinic'
loop_
_space_group_symop_operation_xyz
x,y,z
-x,1/2+y,-z
-x,-y,-z
x,1/2-y,z
loop_
_atom_site_type_symbol
_atom_site_label
_atom_site_fract_x
_atom_site_fract_y
_atom_site_fract_z
Si Si1 0.243052 0.123761 0.564834
Si Si2 0.165620 0.981114 0.892606
Si Si3 0.175639 0.925242 0.355620
Si Si4 0.543312 0.874516 0.946659
Si Si5 0.404603 0.625361 0.372492
O O1 0.225558 0.250000 0.517297
O O2 0.247069 0.053513 0.442854
O O3 0.427547 0.104866 0.872261
O O4 0.035802 0.077052 0.394666
O O5 0.060640 0.066584 0.873035
O O6 0.311056 0.047502 0.967919
O O7 0.287920 0.889187 0.108372
O O8 0.315114 0.879468 0.628709
O O9 0.240395 0.873301 0.300341
O O10 0.619258 0.750000 0.015513
O O11 0.500000 0.500000 0.500000
O O12 0.503516 0.750000 0.489733
#
# Coordination Sequence:
#
# PCOD9166705 Si02
#       5
#     4   4   4   4   4
#     4   9  21  40  64  93 129 169 213 267 319 385
#     4  10  23  41  66  93 126 172 211 269 321 383
#     4  10  23  40  65  91 128 168 212 269 316 387
#     4  11  21  40  64  94 133 168 213 264 320 389
#     4  12  25  45  69  97 132 172 220 275 327 389
#
# _framework density 23.711711999999999
#
# number of rings (size 3 to 8) (size 9 to 14) (size 15 to 20)
#    1.200    0.400    2.000    3.000    0.000    2.400 
#    0.000    0.000    0.000    0.000    0.000    0.000 
#    0.000    0.000    0.000    0.000    0.000    0.000 
#
# Total GULP energy -111402.861157 kJ/mol
# GULP energy per Si atom -5570.143058 kJ/mol
# Density = 2.365774 g / cm^3
# Si number density = 23.711712 Si / 1000 Ang^3
#
#
#
# Elastic Constant Matrix: (Units=GPa)
#
#
# Indices 1 2 3 4 5 6 
#
# 1 75.9561 46.7343 1.7609 0.0000 5.1374 0.0000
# 2 46.7343 170.6055 22.2259 0.0000 5.3815 0.0000
# 3 1.7609 22.2259 52.3732 0.0000 -0.7337 0.0000
# 4 0.0000 0.0000 0.0000 23.0450 0.0000 -5.1805
# 5 5.1374 5.3815 -0.7337 0.0000 27.1230 0.0000
# 6 0.0000 0.0000 0.0000 -5.1805 0.0000 21.9026
#
#
#
# Elastic Compliance Matrix: (Units=1/GPa)
#
#
# Indices 1 2 3 4 5 6 
#
# 1 0.016049 -0.004505 0.001343 0.000000 -0.002110 0.000000
# 2 -0.004505 0.007515 -0.003048 0.000000 -0.000720 0.000000
# 3 0.001343 -0.003048 0.020355 0.000000 0.000901 0.000000
# 4 0.000000 0.000000 0.000000 0.045830 0.000000 0.010840
# 5 -0.002110 -0.000720 0.000901 0.000000 0.037436 0.000000
# 6 0.000000 0.000000 0.000000 0.010840 0.000000 0.048221
#
#
# Mechanical properties :
#
#
# Convention : Reuss Voigt Hill
#
# Bulk Modulus (GPa) = 31.74748 48.93077 40.33912
# Shear Modulus (GPa) = 25.21117 29.62837 27.41977
#
# Velocity S-wave (km/s) = 3.26427 3.53870 3.40425
# Velocity P-wave (km/s) = 5.25598 6.11367 5.70098
#
# Compressibility (1/GPa) = 0.03149856
#
# Stress axis : x y z
#
# Youngs Moduli (GPa) = 62.31050 133.06324 49.12871
#
# Poissons Ratio (x) = 0.59940 -0.06596
# Poissons Ratio (y) = 0.28068 0.14974
# Poissons Ratio (z) = -0.08365 0.40557
#
# Static dielectric constant tensor:
#      x y z
#    x 1.912600 0.000000 0.001420 
#    y 0.000000 1.982130 0.000000 
#    z 0.001420 0.000000 1.929190 
# 
# From -- ./inp_files/39089.got.cif
#   From: 2010.05.17/outbox.cif.g08.bks.cpg/sg11_20_cif.got.tgz:39089.got - 2010.06.03 12:22:45.
