data_PCOD9166142
_publ_section_title
;
Structure prediction by ZEFSAII (Michael W. Deem and Ramdas Pophale) SiO2 
 PCOD9166142
Probable space group: P 21/M
;
_chemical_formula_sum "Si O2"
_cell_formula_units_Z 30
_cell_length_a 19.322092
_cell_length_b 14.516049
_cell_length_c 5.151988
_cell_angle_alpha 90.000000
_cell_angle_beta 109.334720
_cell_angle_gamma 90.000000
_cell_volume 1363.532750
_symmetry_space_group_name_H-M "P 21/M"
_symmetry_group_IT_number 11
_symmetry_cell_setting 'monoclinic'
loop_
_space_group_symop_operation_xyz
x,y,z
-x,1/2+y,-z
-x,-y,-z
x,1/2-y,z
loop_
_atom_site_type_symbol
_atom_site_label
_atom_site_fract_x
_atom_site_fract_y
_atom_site_fract_z
Si Si1 0.440122 0.360361 0.725198
Si Si2 0.526654 0.138424 0.329612
Si Si3 0.709459 0.567330 0.228988
Si Si4 0.666546 0.405453 0.819585
Si Si5 0.211287 0.901229 0.400307
Si Si6 0.863601 0.642353 0.293389
Si Si7 0.280907 0.750000 0.817834
Si Si8 0.916271 0.528386 0.857193
O O1 0.441988 0.250000 0.732684
O O2 0.497996 0.392755 0.015186
O O3 0.466160 0.387840 0.471928
O O4 0.359570 0.388943 0.715405
O O5 0.534027 0.250000 0.340644
O O6 0.602300 0.098233 0.531383
O O7 0.748274 0.495548 0.470632
O O8 0.775395 0.633102 0.220935
O O9 0.681951 0.504570 0.956488
O O10 0.739563 0.362878 0.773409
O O11 0.657500 0.331027 0.035793
O O12 0.223200 0.830244 0.644500
O O13 0.131018 0.934230 0.227489
O O14 0.883421 0.750000 0.306354
O O15 0.901723 0.589690 0.582263
O O16 0.886474 0.587075 0.063803
O O17 0.000000 0.500000 0.000000
#
# Coordination Sequence:
#
# PCOD9166142 Si02
#       8
#     4   4   4   4   4   4   2   4
#     4  10  23  40  57  87 122 167 215 273 333 380
#     4  10  23  37  58  82 124 165 215 272 331 390
#     4  10  23  39  63  91 127 166 219 278 321 386
#     4  11  21  38  62  87 123 170 219 268 330 386
#     4  10  23  41  63  95 127 169 220 269 332 394
#     4  11  23  45  74 103 134 183 228 261 326 400
#     4  10  22  38  64  92 126 170 228 268 322 394
#     4  11  24  47  71 102 146 176 209 279 331 387
#
# _framework density 22.001673
#
# number of rings (size 3 to 8) (size 9 to 14) (size 15 to 20)
#    0.000    1.600    2.000    1.600    5.600    1.067 
#    2.400    2.667    0.000    0.000    0.000    0.000 
#    0.000    0.000    0.000    0.000    0.000    0.000 
#
# Total GULP energy -167309.197059 kJ/mol
# GULP energy per Si atom -5576.973235 kJ/mol
# Density = 2.195160 g / cm^3
# Si number density = 22.001673 Si / 1000 Ang^3
#
#
#
# Elastic Constant Matrix: (Units=GPa)
#
#
# Indices 1 2 3 4 5 6 
#
# 1 77.8857 11.9613 3.2621 0.0000 24.3016 0.0000
# 2 11.9613 79.9368 15.9284 0.0000 8.2209 0.0000
# 3 3.2621 15.9284 63.8551 0.0000 4.2429 0.0000
# 4 0.0000 0.0000 0.0000 18.6306 0.0000 3.9458
# 5 24.3016 8.2209 4.2429 0.0000 34.4319 0.0000
# 6 0.0000 0.0000 0.0000 3.9458 0.0000 6.6115
#
#
#
# Elastic Compliance Matrix: (Units=1/GPa)
#
#
# Indices 1 2 3 4 5 6 
#
# 1 0.016602 -0.001359 0.000250 0.000000 -0.011424 0.000000
# 2 -0.001359 0.013541 -0.003183 0.000000 -0.001881 0.000000
# 3 0.000250 -0.003183 0.016538 0.000000 -0.001454 0.000000
# 4 0.000000 0.000000 0.000000 0.061441 0.000000 -0.036669
# 5 -0.011424 -0.001881 -0.001454 0.000000 0.037734 0.000000
# 6 0.000000 0.000000 0.000000 -0.036669 0.000000 0.173136
#
#
# Mechanical properties :
#
#
# Convention : Reuss Voigt Hill
#
# Bulk Modulus (GPa) = 26.24923 31.55347 28.90135
# Shear Modulus (GPa) = 14.69393 24.63652 19.66522
#
# Velocity S-wave (km/s) = 2.58709 3.34991 2.99290
# Velocity P-wave (km/s) = 4.56952 5.41618 5.01077
#
# Compressibility (1/GPa) = 0.03809636
#
# Stress axis : x y z
#
# Youngs Moduli (GPa) = 60.23376 73.84945 60.46543
#
# Poissons Ratio (x) = 0.10038 -0.01511
# Poissons Ratio (y) = 0.08187 0.19248
# Poissons Ratio (z) = -0.01506 0.23509
#
# Static dielectric constant tensor:
#      x y z
#    x 1.867580 0.000000 -0.081290 
#    y 0.000000 1.769080 0.000000 
#    z -0.081290 0.000000 1.888310 
# 
# From -- ./inp_files/7914.got.cif
#   From: 2010.05.17/outbox.cif.g08.bks.cpg/sg11_4_cif.got.tgz:7914.got - 2010.06.03 12:22:45.
