data_PCOD9166729
_publ_section_title
;
Structure prediction by ZEFSAII (Michael W. Deem and Ramdas Pophale) SiO2 
 PCOD9166729
Probable space group: P 21/M
;
_chemical_formula_sum "Si O2"
_cell_formula_units_Z 22
_cell_length_a 10.899656
_cell_length_b 14.761921
_cell_length_c 6.761286
_cell_angle_alpha 90.000000
_cell_angle_beta 98.430758
_cell_angle_gamma 90.000000
_cell_volume 1076.133986
_symmetry_space_group_name_H-M "P 21/M"
_symmetry_group_IT_number 11
_symmetry_cell_setting 'monoclinic'
loop_
_space_group_symop_operation_xyz
x,y,z
-x,1/2+y,-z
-x,-y,-z
x,1/2-y,z
loop_
_atom_site_type_symbol
_atom_site_label
_atom_site_fract_x
_atom_site_fract_y
_atom_site_fract_z
Si Si1 0.943843 0.250000 0.210381
Si Si2 0.707344 0.750000 0.913671
Si Si3 0.973032 0.750000 0.183976
Si Si4 0.545547 0.250000 0.981154
Si Si5 0.332130 0.409727 0.406236
Si Si6 0.939160 0.598975 0.500924
Si Si7 0.401946 0.891840 0.323991
Si Si8 0.305746 0.750000 0.598898
O O1 0.816363 0.250000 0.299669
O O2 0.015545 0.159655 0.301181
O O3 0.928939 0.250000 0.971107
O O4 0.687777 0.835844 0.767625
O O5 0.841584 0.750000 0.041668
O O6 0.602843 0.750000 0.057588
O O7 0.976965 0.661898 0.324206
O O8 0.597066 0.337756 0.880538
O O9 0.583256 0.250000 0.217599
O O10 0.209288 0.410207 0.512521
O O11 0.456892 0.390382 0.559916
O O12 0.353836 0.506586 0.308685
O O13 0.000000 0.500000 0.500000
O O14 0.319776 0.836278 0.461426
#
# Coordination Sequence:
#
# PCOD9166729 Si02
#       8
#     2   2   2   2   4   4   4   2
#     4  11  24  42  63  94 132 165 229 261 315 387
#     4  12  20  42  68  96 126 166 212 268 316 382
#     4  11  24  43  68  94 126 165 220 269 314 382
#     4  11  22  39  66  92 126 167 208 257 332 370
#     4  11  21  42  67  93 132 166 212 260 321 383
#     4  11  24  44  67  93 129 178 213 265 322 379
#     4  10  23  41  64  96 129 168 208 265 319 384
#     4  11  22  42  61  92 128 169 211 267 315 375
#
# _framework density 20.443550999999999
#
# number of rings (size 3 to 8) (size 9 to 14) (size 15 to 20)
#    0.000    1.091    3.636    3.273    0.000    5.818 
#    6.545    0.000    0.000    0.000    0.000    0.000 
#    0.000    0.000    0.000    0.000    0.000    0.000 
#
# Total GULP energy -123041.566329 kJ/mol
# GULP energy per Si atom -5592.798470 kJ/mol
# Density = 2.039702 g / cm^3
# Si number density = 20.443551 Si / 1000 Ang^3
#
#
#
# Elastic Constant Matrix: (Units=GPa)
#
#
# Indices 1 2 3 4 5 6 
#
# 1 104.2969 27.0202 10.2841 0.0000 -30.4522 0.0000
# 2 27.0202 175.7940 62.0587 0.0000 -4.7102 0.0000
# 3 10.2841 62.0587 93.9886 0.0000 -21.4661 0.0000
# 4 0.0000 0.0000 0.0000 -20.9479 0.0000 -25.9064
# 5 -30.4522 -4.7102 -21.4661 0.0000 36.0612 0.0000
# 6 0.0000 0.0000 0.0000 -25.9064 0.0000 -4.7164
#
#
#
# Elastic Compliance Matrix: (Units=1/GPa)
#
#
# Indices 1 2 3 4 5 6 
#
# 1 0.013976 -0.003047 0.003573 0.000000 0.013531 0.000000
# 2 -0.003047 0.008243 -0.006309 0.000000 -0.005252 0.000000
# 3 0.003573 -0.006309 0.017262 0.000000 0.012469 0.000000
# 4 0.000000 0.000000 0.000000 0.008240 0.000000 -0.045264
# 5 0.013531 -0.005252 0.012469 0.000000 0.045893 0.000000
# 6 0.000000 0.000000 0.000000 -0.045264 0.000000 0.036600
#
#
# Mechanical properties :
#
#
# Convention : Reuss Voigt Hill
#
# Bulk Modulus (GPa) = 35.82278 63.64505 49.73392
# Shear Modulus (GPa) = 33.09385 20.39383 26.74384
#
# Velocity S-wave (km/s) = 4.02779 3.16186 3.62080
# Velocity P-wave (km/s) = 6.26032 6.67304 6.46997
#
# Compressibility (1/GPa) = 0.02791520
#
# Stress axis : x y z
#
# Youngs Moduli (GPa) = 71.55260 121.31153 57.93070
#
# Poissons Ratio (x) = 0.36962 -0.20698
# Poissons Ratio (y) = 0.21801 0.36548
# Poissons Ratio (z) = -0.25565 0.76534
#
# Static dielectric constant tensor:
#      x y z
#    x 1.771530 0.000000 0.005420 
#    y 0.000000 1.713780 0.000000 
#    z 0.005420 0.000000 1.709220 
# 
# From -- ./inp_files/4290.got.cif
#   From: 2010.05.17/outbox.cif.g08.bks.cpg/sg11_3_cif.got.tgz:4290.got - 2010.06.03 12:22:45.
