data_PCOD9166510
_publ_section_title
;
Structure prediction by ZEFSAII (Michael W. Deem and Ramdas Pophale) SiO2 
 PCOD9166510
Probable space group: P 21/M
;
_chemical_formula_sum "Si O2"
_cell_formula_units_Z 24
_cell_length_a 12.238591
_cell_length_b 19.149845
_cell_length_c 4.958420
_cell_angle_alpha 90.000000
_cell_angle_beta 114.351466
_cell_angle_gamma 90.000000
_cell_volume 1058.703211
_symmetry_space_group_name_H-M "P 21/M"
_symmetry_group_IT_number 11
_symmetry_cell_setting 'monoclinic'
loop_
_space_group_symop_operation_xyz
x,y,z
-x,1/2+y,-z
-x,-y,-z
x,1/2-y,z
loop_
_atom_site_type_symbol
_atom_site_label
_atom_site_fract_x
_atom_site_fract_y
_atom_site_fract_z
Si Si1 0.004373 0.625375 0.613592
Si Si2 0.885081 0.438712 0.742888
Si Si3 0.620932 0.953520 0.890975
Si Si4 0.675005 0.250000 0.782723
Si Si5 0.771655 0.584099 0.566961
Si Si6 0.162255 0.750000 0.553587
Si Si7 0.375715 0.596277 0.444784
O O1 0.014700 0.570108 0.382257
O O2 0.077473 0.686742 0.549779
O O3 0.867909 0.639991 0.560811
O O4 0.077414 0.598814 0.945465
O O5 0.857730 0.520132 0.741567
O O6 0.753024 0.407836 0.538497
O O7 0.688567 0.904907 0.739046
O O8 0.484402 0.927334 0.746706
O O9 0.627744 0.033282 0.782826
O O10 0.687266 0.942005 0.238968
O O11 0.792387 0.250000 0.706390
O O12 0.611485 0.175403 0.654074
O O13 0.720858 0.250000 0.135912
#
# Coordination Sequence:
#
# PCOD9166510 Si02
#       7
#     4   4   4   2   4   2   4
#     4  12  22  39  59  90 127 158 205 249 306 372
#     4  11  21  36  63  90 121 157 204 258 305 351
#     4  10  24  40  64  90 127 165 209 254 307 364
#     4  12  24  40  66  90 126 156 210 254 318 374
#     4  11  23  39  61  90 123 167 203 246 305 371
#     4  12  24  40  60  94 124 164 198 256 324 358
#     4  10  22  42  63  94 124 161 208 263 306 364
#
# _framework density 22.669243999999999
#
# number of rings (size 3 to 8) (size 9 to 14) (size 15 to 20)
#    0.000    1.000    3.333    4.000    0.000    8.667 
#    0.000    1.667    0.000    0.000    0.000    0.000 
#    0.000    0.000    0.000    0.000    0.000    0.000 
#
# Total GULP energy -134149.566322 kJ/mol
# GULP energy per Si atom -5589.565263 kJ/mol
# Density = 2.261765 g / cm^3
# Si number density = 22.669244 Si / 1000 Ang^3
#
#
#
# Elastic Constant Matrix: (Units=GPa)
#
#
# Indices 1 2 3 4 5 6 
#
# 1 104.7693 -1.6195 25.6306 0.0000 1.4770 0.0000
# 2 -1.6195 67.2532 -4.7411 0.0000 18.6299 0.0000
# 3 25.6306 -4.7411 101.1470 0.0000 -0.4672 0.0000
# 4 0.0000 0.0000 0.0000 12.0524 0.0000 4.5743
# 5 1.4770 18.6299 -0.4672 0.0000 38.0283 0.0000
# 6 0.0000 0.0000 0.0000 4.5743 0.0000 33.7365
#
#
#
# Elastic Compliance Matrix: (Units=1/GPa)
#
#
# Indices 1 2 3 4 5 6 
#
# 1 0.010185 0.000211 -0.002573 0.000000 -0.000530 0.000000
# 2 0.000211 0.017268 0.000717 0.000000 -0.008459 0.000000
# 3 -0.002573 0.000717 0.010572 0.000000 -0.000121 0.000000
# 4 0.000000 0.000000 0.000000 0.087472 0.000000 -0.011860
# 5 -0.000530 -0.008459 -0.000121 0.000000 0.030459 0.000000
# 6 0.000000 0.000000 0.000000 -0.011860 0.000000 0.031250
#
#
# Mechanical properties :
#
#
# Convention : Reuss Voigt Hill
#
# Bulk Modulus (GPa) = 28.79079 34.63442 31.71260
# Shear Modulus (GPa) = 24.74326 33.69009 29.21667
#
# Velocity S-wave (km/s) = 3.30735 3.85925 3.59391
# Velocity P-wave (km/s) = 5.22616 5.93041 5.58939
#
# Compressibility (1/GPa) = 0.03473333
#
# Stress axis : x y z
#
# Youngs Moduli (GPa) = 98.18278 57.91055 94.59163
#
# Poissons Ratio (x) = -0.01221 0.24343
# Poissons Ratio (y) = -0.02070 -0.06781
# Poissons Ratio (z) = 0.25267 -0.04152
#
# Static dielectric constant tensor:
#      x y z
#    x 1.909650 0.000000 0.016820 
#    y 0.000000 2.005410 0.000000 
#    z 0.016820 0.000000 1.812270 
# 
# From -- ./inp_files/4962.got.cif
#   From: 2010.05.17/outbox.cif.g08.bks.cpg/sg11_3_cif.got.tgz:4962.got - 2010.06.03 12:22:45.
