data_PCOD9166342
_publ_section_title
;
Structure prediction by ZEFSAII (Michael W. Deem and Ramdas Pophale) SiO2 
 PCOD9166342
Probable space group: P 21/M
;
_chemical_formula_sum "Si O2"
_cell_formula_units_Z 16
_cell_length_a 9.328771
_cell_length_b 14.229077
_cell_length_c 4.801437
_cell_angle_alpha 90.000000
_cell_angle_beta 98.425635
_cell_angle_gamma 90.000000
_cell_volume 630.462881
_symmetry_space_group_name_H-M "P 21/M"
_symmetry_group_IT_number 11
_symmetry_cell_setting 'monoclinic'
loop_
_space_group_symop_operation_xyz
x,y,z
-x,1/2+y,-z
-x,-y,-z
x,1/2-y,z
loop_
_atom_site_type_symbol
_atom_site_label
_atom_site_fract_x
_atom_site_fract_y
_atom_site_fract_z
Si Si1 0.215553 0.750000 0.841802
Si Si2 0.526623 0.145023 0.950353
Si Si3 0.873759 0.949739 0.287621
Si Si4 0.987893 0.250000 0.712115
Si Si5 0.318699 0.021926 0.252118
O O1 0.154728 0.750000 0.136232
O O2 0.325171 0.663843 0.831185
O O3 0.075562 0.750000 0.615611
O O4 0.490869 0.250000 0.832013
O O5 0.404848 0.104023 0.115997
O O6 0.577457 0.068618 0.739670
O O7 0.922406 0.844620 0.224746
O O8 0.739164 0.950300 0.464204
O O9 0.821396 0.996823 0.986315
O O10 0.000000 0.000000 0.500000
#
# Coordination Sequence:
#
# PCOD9166342 Si02
#       5
#     2   4   4   2   4
#     4  10  22  40  64  94 128 172 218 252 332 380
#     4   9  23  43  71  93 133 169 214 275 321 383
#     4  12  26  42  68  95 138 168 218 265 318 390
#     4  12  24  40  66  94 130 180 210 268 322 388
#     4  11  24  45  65 103 124 173 218 268 323 381
#
# _framework density 25.378183
#
# number of rings (size 3 to 8) (size 9 to 14) (size 15 to 20)
#    0.750    0.500    0.000    5.250    3.500    6.000 
#    0.000    0.000    0.000    0.000    0.000    0.000 
#    0.000    0.000    0.000    0.000    0.000    0.000 
#
# Total GULP energy -89613.070647 kJ/mol
# GULP energy per Si atom -5600.816915 kJ/mol
# Density = 2.532042 g / cm^3
# Si number density = 25.378183 Si / 1000 Ang^3
#
#
#
# Elastic Constant Matrix: (Units=GPa)
#
#
# Indices 1 2 3 4 5 6 
#
# 1 127.6042 43.0885 16.6739 0.0000 -18.2847 0.0000
# 2 43.0885 136.7869 0.5105 0.0000 -8.2992 0.0000
# 3 16.6739 0.5105 77.9906 0.0000 -9.8852 0.0000
# 4 0.0000 0.0000 0.0000 23.7355 0.0000 9.1683
# 5 -18.2847 -8.2992 -9.8852 0.0000 50.3072 0.0000
# 6 0.0000 0.0000 0.0000 9.1683 0.0000 54.1127
#
#
#
# Elastic Compliance Matrix: (Units=1/GPa)
#
#
# Indices 1 2 3 4 5 6 
#
# 1 0.009369 -0.002786 -0.001653 0.000000 0.002621 0.000000
# 2 -0.002786 0.008214 0.000600 0.000000 0.000460 0.000000
# 3 -0.001653 0.000600 0.013443 0.000000 0.002140 0.000000
# 4 0.000000 0.000000 0.000000 0.045081 0.000000 -0.007638
# 5 0.002621 0.000460 0.002140 0.000000 0.021327 0.000000
# 6 0.000000 0.000000 0.000000 -0.007638 0.000000 0.019774
#
#
# Mechanical properties :
#
#
# Convention : Reuss Voigt Hill
#
# Bulk Modulus (GPa) = 42.82892 51.43639 47.13265
# Shear Modulus (GPa) = 37.68812 44.43833 41.06322
#
# Velocity S-wave (km/s) = 3.85783 4.18909 4.02687
# Velocity P-wave (km/s) = 6.06273 6.61135 6.34297
#
# Compressibility (1/GPa) = 0.02334871
#
# Stress axis : x y z
#
# Youngs Moduli (GPa) = 106.73463 121.74378 74.39005
#
# Poissons Ratio (x) = 0.33919 0.12294
# Poissons Ratio (y) = 0.29737 -0.04465
# Poissons Ratio (z) = 0.17639 -0.07308
#
# Static dielectric constant tensor:
#      x y z
#    x 1.992480 0.000000 0.091280 
#    y 0.000000 2.005450 0.000000 
#    z 0.091280 0.000000 1.948240 
# 
# From -- ./inp_files/1536.got.cif
#   From: 2010.05.17/outbox.cif.g08.bks.cpg/sg11_1_cif.got.tgz:1536.got - 2010.06.03 12:22:45.
