data_PCOD9166999
_publ_section_title
;
Structure prediction by ZEFSAII (Michael W. Deem and Ramdas Pophale) SiO2 
 PCOD9166999
Probable space group: P 21/M
;
_chemical_formula_sum "Si O2"
_cell_formula_units_Z 20
_cell_length_a 9.166311
_cell_length_b 17.153540
_cell_length_c 4.787451
_cell_angle_alpha 90.000000
_cell_angle_beta 93.378925
_cell_angle_gamma 90.000000
_cell_volume 751.444732
_symmetry_space_group_name_H-M "P 21/M"
_symmetry_group_IT_number 11
_symmetry_cell_setting 'monoclinic'
loop_
_space_group_symop_operation_xyz
x,y,z
-x,1/2+y,-z
-x,-y,-z
x,1/2-y,z
loop_
_atom_site_type_symbol
_atom_site_label
_atom_site_fract_x
_atom_site_fract_y
_atom_site_fract_z
Si Si1 0.173941 0.658227 0.324136
Si Si2 0.319202 0.158665 0.018373
Si Si3 0.422854 0.562424 0.693806
Si Si4 0.149538 0.531854 0.880439
Si Si5 0.140409 0.393511 0.494096
O O1 0.200476 0.750000 0.307603
O O2 0.305289 0.614748 0.503931
O O3 0.017920 0.642241 0.459697
O O4 0.153463 0.618125 0.019723
O O5 0.322608 0.250000 0.074838
O O6 0.467861 0.120606 0.139554
O O7 0.189856 0.119916 0.185948
O O8 0.266452 0.145910 0.696066
O O9 0.500000 0.500000 0.500000
O O10 0.325743 0.518400 0.919624
O O11 0.140832 0.483945 0.583554
O O12 0.000000 0.500000 0.000000
#
# Coordination Sequence:
#
# PCOD9166999 Si02
#       5
#     4   4   4   4   4
#     4  11  26  46  74 112 151 203 263 327 388 465
#     4  12  26  46  75 114 158 203 256 329 402 464
#     4  12  26  47  74 108 153 199 261 319 398 460
#     4  10  25  46  76 104 148 202 260 312 381 468
#     4  11  26  49  78 109 154 210 264 315 395 477
#
# _framework density 26.615393999999998
#
# number of rings (size 3 to 8) (size 9 to 14) (size 15 to 20)
#    0.000    0.800    2.000    3.600    8.400    4.800 
#    0.000    0.000    0.000    0.000    0.000    0.000 
#    0.000    0.000    0.000    0.000    0.000    0.000 
#
# Total GULP energy -111773.362690 kJ/mol
# GULP energy per Si atom -5588.668135 kJ/mol
# Density = 2.655482 g / cm^3
# Si number density = 26.615394 Si / 1000 Ang^3
#
#
#
# Elastic Constant Matrix: (Units=GPa)
#
#
# Indices 1 2 3 4 5 6 
#
# 1 201.9565 76.7831 38.5259 0.0000 16.8240 0.0000
# 2 76.7831 212.8711 44.1472 0.0000 28.0374 0.0000
# 3 38.5259 44.1472 96.2175 0.0000 18.9419 0.0000
# 4 0.0000 0.0000 0.0000 43.3375 0.0000 9.8470
# 5 16.8240 28.0374 18.9419 0.0000 67.0286 0.0000
# 6 0.0000 0.0000 0.0000 9.8470 0.0000 39.2518
#
#
#
# Elastic Compliance Matrix: (Units=1/GPa)
#
#
# Indices 1 2 3 4 5 6 
#
# 1 0.005945 -0.001792 -0.001495 0.000000 -0.000320 0.000000
# 2 -0.001792 0.005896 -0.001685 0.000000 -0.001541 0.000000
# 3 -0.001495 -0.001685 0.012233 0.000000 -0.002377 0.000000
# 4 0.000000 0.000000 0.000000 0.024470 0.000000 -0.006139
# 5 -0.000320 -0.001541 -0.002377 0.000000 0.016315 0.000000
# 6 0.000000 0.000000 0.000000 -0.006139 0.000000 0.027017
#
#
# Mechanical properties :
#
#
# Convention : Reuss Voigt Hill
#
# Bulk Modulus (GPa) = 70.76982 92.21749 81.49365
# Shear Modulus (GPa) = 46.93569 53.36283 50.14926
#
# Velocity S-wave (km/s) = 4.20394 4.48254 4.34547
# Velocity P-wave (km/s) = 7.08602 7.84310 7.47415
#
# Compressibility (1/GPa) = 0.01413032
#
# Stress axis : x y z
#
# Youngs Moduli (GPa) = 168.21521 169.59639 81.74865
#
# Poissons Ratio (x) = 0.30393 0.12222
# Poissons Ratio (y) = 0.30146 0.13771
# Poissons Ratio (z) = 0.25149 0.28570
#
# Static dielectric constant tensor:
#      x y z
#    x 2.113350 0.000000 -0.034720 
#    y 0.000000 2.160060 0.000000 
#    z -0.034720 0.000000 2.252440 
# 
# From -- ./inp_files/1978.got.cif
#   From: 2010.05.17/outbox.cif.g08.bks.cpg/sg11_1_cif.got.tgz:1978.got - 2010.06.03 12:22:45.
