data_PCOD9166320
_publ_section_title
;
Structure prediction by ZEFSAII (Michael W. Deem and Ramdas Pophale) SiO2 
 PCOD9166320
Probable space group: P 21/M
;
_chemical_formula_sum "Si O2"
_cell_formula_units_Z 28
_cell_length_a 18.167595
_cell_length_b 15.017640
_cell_length_c 5.454510
_cell_angle_alpha 90.000000
_cell_angle_beta 121.229271
_cell_angle_gamma 90.000000
_cell_volume 1272.540241
_symmetry_space_group_name_H-M "P 21/M"
_symmetry_group_IT_number 11
_symmetry_cell_setting 'monoclinic'
loop_
_space_group_symop_operation_xyz
x,y,z
-x,1/2+y,-z
-x,-y,-z
x,1/2-y,z
loop_
_atom_site_type_symbol
_atom_site_label
_atom_site_fract_x
_atom_site_fract_y
_atom_site_fract_z
Si Si1 0.935080 0.466094 0.593653
Si Si2 0.598641 0.152631 0.864935
Si Si3 0.367412 0.440212 0.651193
Si Si4 0.748640 0.023820 0.202933
Si Si5 0.486706 0.598713 0.764968
Si Si6 0.929452 0.647461 0.891737
Si Si7 0.245734 0.153464 0.095254
O O1 0.841784 0.432535 0.351280
O O2 0.915179 0.559616 0.699528
O O3 0.000000 0.500000 0.500000
O O4 0.985118 0.387332 0.820504
O O5 0.638011 0.250000 0.930169
O O6 0.532931 0.146170 0.523507
O O7 0.557281 0.138835 0.063789
O O8 0.673548 0.081501 0.953315
O O9 0.288091 0.504265 0.588473
O O10 0.442173 0.501201 0.662530
O O11 0.325658 0.364266 0.416487
O O12 0.414345 0.408068 0.982021
O O13 0.756685 0.928602 0.090411
O O14 0.940180 0.750000 0.811967
O O15 0.844580 0.651885 0.914392
O O16 0.253993 0.250000 0.988460
#
# Coordination Sequence:
#
# PCOD9166320 Si02
#       7
#     4   4   4   4   4   4   4
#     4  11  22  40  66  90 126 170 208 259 324 387
#     4  11  24  43  66  95 134 178 222 274 326 387
#     4  10  22  40  63  91 125 169 214 264 330 386
#     4  11  23  40  65  93 129 166 215 266 323 392
#     4  10  23  41  68  91 130 173 223 272 328 392
#     4  10  23  41  63  93 126 162 212 267 322 386
#     4  11  22  38  62  94 126 161 210 269 327 386
#
# _framework density 22.003233000000002
#
# number of rings (size 3 to 8) (size 9 to 14) (size 15 to 20)
#    0.000    1.429    4.286    0.429    2.000    5.143 
#    0.000    0.000    0.000    0.000    0.000    0.000 
#    0.000    0.000    0.000    0.000    0.000    0.000 
#
# Total GULP energy -156247.654517 kJ/mol
# GULP energy per Si atom -5580.273376 kJ/mol
# Density = 2.195315 g / cm^3
# Si number density = 22.003233 Si / 1000 Ang^3
#
#
#
# Elastic Constant Matrix: (Units=GPa)
#
#
# Indices 1 2 3 4 5 6 
#
# 1 85.9349 6.4979 29.3247 0.0000 15.7951 0.0000
# 2 6.4979 113.3377 18.3305 0.0000 1.5880 0.0000
# 3 29.3247 18.3305 95.8836 0.0000 21.9267 0.0000
# 4 0.0000 0.0000 0.0000 8.8711 0.0000 -4.7492
# 5 15.7951 1.5880 21.9267 0.0000 37.2033 0.0000
# 6 0.0000 0.0000 0.0000 -4.7492 0.0000 21.1506
#
#
#
# Elastic Compliance Matrix: (Units=1/GPa)
#
#
# Indices 1 2 3 4 5 6 
#
# 1 0.013445 -0.000200 -0.003202 0.000000 -0.003813 0.000000
# 2 -0.000200 0.009125 -0.001865 0.000000 0.000795 0.000000
# 3 -0.003202 -0.001865 0.013218 0.000000 -0.006351 0.000000
# 4 0.000000 0.000000 0.000000 0.128127 0.000000 0.028770
# 5 -0.003813 0.000795 -0.006351 0.000000 0.032207 0.000000
# 6 0.000000 0.000000 0.000000 0.028770 0.000000 0.053740
#
#
# Mechanical properties :
#
#
# Convention : Reuss Voigt Hill
#
# Bulk Modulus (GPa) = 39.59698 44.82916 42.21307
# Shear Modulus (GPa) = 18.60023 29.51188 24.05605
#
# Velocity S-wave (km/s) = 2.91063 3.66628 3.31009
# Velocity P-wave (km/s) = 5.41578 6.19196 5.81683
#
# Compressibility (1/GPa) = 0.02525445
#
# Stress axis : x y z
#
# Youngs Moduli (GPa) = 74.37574 109.58719 75.65716
#
# Poissons Ratio (x) = 0.02187 0.24226
# Poissons Ratio (y) = 0.01484 0.14111
# Poissons Ratio (z) = 0.23815 0.20440
#
# Static dielectric constant tensor:
#      x y z
#    x 1.853460 0.000000 -0.017070 
#    y 0.000000 1.785390 0.000000 
#    z -0.017070 0.000000 1.874240 
# 
# From -- ./inp_files/8129.got.cif
#   From: 2010.05.17/outbox.cif.g08.bks.cpg/sg11_5_cif.got.tgz:8129.got - 2010.06.03 12:22:45.
