data_PCOD9166668
_publ_section_title
;
Structure prediction by ZEFSAII (Michael W. Deem and Ramdas Pophale) SiO2 
 PCOD9166668
Probable space group: P 21/M
;
_chemical_formula_sum "Si O2"
_cell_formula_units_Z 20
_cell_length_a 6.551923
_cell_length_b 27.570241
_cell_length_c 4.841016
_cell_angle_alpha 90.000000
_cell_angle_beta 74.417366
_cell_angle_gamma 90.000000
_cell_volume 842.329851
_symmetry_space_group_name_H-M "P 21/M"
_symmetry_group_IT_number 11
_symmetry_cell_setting 'monoclinic'
loop_
_space_group_symop_operation_xyz
x,y,z
-x,1/2+y,-z
-x,-y,-z
x,1/2-y,z
loop_
_atom_site_type_symbol
_atom_site_label
_atom_site_fract_x
_atom_site_fract_y
_atom_site_fract_z
Si Si1 0.689564 0.899869 0.889017
Si Si2 0.656087 0.250000 0.503247
Si Si3 0.324668 0.534858 0.923247
Si Si4 0.952254 0.250000 0.887572
Si Si5 0.279148 0.301755 0.426346
Si Si6 0.862092 0.546967 0.337062
O O1 0.453757 0.915046 0.874878
O O2 0.737332 0.846290 0.769045
O O3 0.839860 0.935233 0.654991
O O4 0.741142 0.913636 0.185248
O O5 0.741836 0.250000 0.777680
O O6 0.505148 0.296193 0.497108
O O7 0.856619 0.250000 0.226195
O O8 0.255192 0.504093 0.679601
O O9 0.500000 0.500000 0.000000
O O10 0.104212 0.542896 0.158956
O O11 0.094799 0.295083 0.722973
O O12 0.272774 0.250000 0.267658
#
# Coordination Sequence:
#
# PCOD9166668 Si02
#       6
#     4   2   4   2   4   4
#     4  11  22  40  58  90 121 155 198 248 291 355
#     4   9  20  39  60  80 112 155 192 239 294 336
#     4   9  21  40  62  89 122 157 196 246 296 356
#     4   9  20  37  56  78 112 147 190 243 288 340
#     4   8  23  39  59  90 116 157 202 245 291 356
#     4  10  23  38  62  89 119 158 197 241 302 355
#
# _framework density 23.743668
#
# number of rings (size 3 to 8) (size 9 to 14) (size 15 to 20)
#    1.200    1.200    0.000    0.600    0.000   20.000 
#    0.000    0.000    0.000    0.000    0.000    0.000 
#    0.000    0.000    0.000    0.000    0.000    0.000 
#
# Total GULP energy -111655.614229 kJ/mol
# GULP energy per Si atom -5582.780711 kJ/mol
# Density = 2.368963 g / cm^3
# Si number density = 23.743668 Si / 1000 Ang^3
#
#
#
# Elastic Constant Matrix: (Units=GPa)
#
#
# Indices 1 2 3 4 5 6 
#
# 1 123.5537 26.1711 16.5865 0.0000 -20.4993 0.0000
# 2 26.1711 54.5086 -3.2850 0.0000 7.2715 0.0000
# 3 16.5865 -3.2850 59.5892 0.0000 -0.7675 0.0000
# 4 0.0000 0.0000 0.0000 10.5833 0.0000 3.0897
# 5 -20.4993 7.2715 -0.7675 0.0000 36.2938 0.0000
# 6 0.0000 0.0000 0.0000 3.0897 0.0000 16.7626
#
#
#
# Elastic Compliance Matrix: (Units=1/GPa)
#
#
# Indices 1 2 3 4 5 6 
#
# 1 0.011201 -0.006593 -0.003384 0.000000 0.007576 0.000000
# 2 -0.006593 0.022788 0.002985 0.000000 -0.008226 0.000000
# 3 -0.003384 0.002985 0.017861 0.000000 -0.002132 0.000000
# 4 0.000000 0.000000 0.000000 0.099862 0.000000 -0.018407
# 5 0.007576 -0.008226 -0.002132 0.000000 0.033435 0.000000
# 6 0.000000 0.000000 0.000000 -0.018407 0.000000 0.063049
#
#
# Mechanical properties :
#
#
# Convention : Reuss Voigt Hill
#
# Bulk Modulus (GPa) = 26.40737 35.17739 30.79238
# Shear Modulus (GPa) = 18.19496 25.93987 22.06742
#
# Velocity S-wave (km/s) = 2.77123 3.30888 3.05192
# Velocity P-wave (km/s) = 4.62446 5.42641 5.04140
#
# Compressibility (1/GPa) = 0.03786821
#
# Stress axis : x y z
#
# Youngs Moduli (GPa) = 89.27533 43.88211 55.98939
#
# Poissons Ratio (x) = 0.28930 0.18945
# Poissons Ratio (y) = 0.58856 -0.16715
# Poissons Ratio (z) = 0.30208 -0.13100
#
# Static dielectric constant tensor:
#      x y z
#    x 1.920490 0.000000 0.009670 
#    y 0.000000 1.984900 0.000000 
#    z 0.009670 0.000000 1.900970 
# 
# From -- ./inp_files/920.got.cif
#   From: 2010.05.17/outbox.cif.g08.bks.cpg/sg11_1_cif.got.tgz:920.got - 2010.06.03 12:22:45.
