data_PCOD9166923
_publ_section_title
;
Structure prediction by ZEFSAII (Michael W. Deem and Ramdas Pophale) SiO2 
 PCOD9166923
Probable space group: P 21/M
;
_chemical_formula_sum "Si O2"
_cell_formula_units_Z 18
_cell_length_a 4.659041
_cell_length_b 15.119737
_cell_length_c 9.586914
_cell_angle_alpha 90.000000
_cell_angle_beta 101.695591
_cell_angle_gamma 90.000000
_cell_volume 661.314495
_symmetry_space_group_name_H-M "P 21/M"
_symmetry_group_IT_number 11
_symmetry_cell_setting 'monoclinic'
loop_
_space_group_symop_operation_xyz
x,y,z
-x,1/2+y,-z
-x,-y,-z
x,1/2-y,z
loop_
_atom_site_type_symbol
_atom_site_label
_atom_site_fract_x
_atom_site_fract_y
_atom_site_fract_z
Si Si1 0.042046 0.648266 0.530739
Si Si2 0.180529 0.250000 0.816912
Si Si3 0.510767 0.394667 0.660466
Si Si4 0.913048 0.345344 0.044271
Si Si5 0.493396 0.577060 0.802677
O O1 0.947476 0.750000 0.543218
O O2 0.228262 0.644742 0.405985
O O3 0.257084 0.617745 0.672567
O O4 0.755144 0.589266 0.477544
O O5 0.370695 0.325571 0.752738
O O6 0.012421 0.326593 0.896968
O O7 0.581170 0.483239 0.749338
O O8 0.776700 0.250000 0.074888
O O9 0.216922 0.364604 0.152590
O O10 0.683352 0.418926 0.068259
#
# Coordination Sequence:
#
# PCOD9166923 Si02
#       5
#     4   2   4   4   4
#     4  12  23  41  69  98 134 175 212 266 338 397
#     4  10  26  46  64  94 136 178 226 258 334 386
#     4  12  25  44  67 102 134 174 213 277 326 395
#     4  10  24  43  66  94 132 176 221 268 317 389
#     4  12  24  43  70 102 131 167 226 273 325 384
#
# _framework density 27.218516000000001
#
# number of rings (size 3 to 8) (size 9 to 14) (size 15 to 20)
#    0.667    0.000    2.222    6.000    0.000    5.333 
#    0.000    0.000    0.000    0.000    0.000    0.000 
#    0.000    0.000    0.000    0.000    0.000    0.000 
#
# Total GULP energy -100535.422695 kJ/mol
# GULP energy per Si atom -5585.301261 kJ/mol
# Density = 2.715657 g / cm^3
# Si number density = 27.218516 Si / 1000 Ang^3
#
#
#
# Elastic Constant Matrix: (Units=GPa)
#
#
# Indices 1 2 3 4 5 6 
#
# 1 108.4894 4.6525 21.0462 0.0000 -14.6720 0.0000
# 2 4.6525 72.4504 31.5700 0.0000 -0.6451 0.0000
# 3 21.0462 31.5700 119.1246 0.0000 -11.9749 0.0000
# 4 0.0000 0.0000 0.0000 22.0524 0.0000 -0.1910
# 5 -14.6720 -0.6451 -11.9749 0.0000 52.0061 0.0000
# 6 0.0000 0.0000 0.0000 -0.1910 0.0000 97.0244
#
#
#
# Elastic Compliance Matrix: (Units=1/GPa)
#
#
# Indices 1 2 3 4 5 6 
#
# 1 0.009836 0.000046 -0.001506 0.000000 0.002429 0.000000
# 2 0.000046 0.015635 -0.004229 0.000000 -0.000767 0.000000
# 3 -0.001506 -0.004229 0.009964 0.000000 0.001817 0.000000
# 4 0.000000 0.000000 0.000000 0.045347 0.000000 0.000089
# 5 0.002429 -0.000767 0.001817 0.000000 0.020323 0.000000
# 6 0.000000 0.000000 0.000000 0.000089 0.000000 0.010307
#
#
# Mechanical properties :
#
#
# Convention : Reuss Voigt Hill
#
# Bulk Modulus (GPa) = 41.56553 46.06685 43.81619
# Shear Modulus (GPa) = 38.22368 50.40296 44.31332
#
# Velocity S-wave (km/s) = 3.75150 4.30791 4.03930
# Velocity P-wave (km/s) = 5.83688 6.45799 6.15528
#
# Compressibility (1/GPa) = 0.02405840
#
# Stress axis : x y z
#
# Youngs Moduli (GPa) = 101.66623 63.95711 100.36129
#
# Poissons Ratio (x) = -0.00295 0.15113
# Poissons Ratio (y) = -0.00469 0.42442
# Poissons Ratio (z) = 0.15310 0.27047
#
# Static dielectric constant tensor:
#      x y z
#    x 2.070890 0.000000 0.117060 
#    y 0.000000 1.981010 0.000000 
#    z 0.117060 0.000000 2.305040 
# 
# From -- ./inp_files/10092.got.cif
#   From: 2010.05.17/outbox.cif.g08.bks.cpg/sg11_6_cif.got.tgz:10092.got - 2010.06.03 12:22:45.
