data_PCOD9166156
_publ_section_title
;
Structure prediction by ZEFSAII (Michael W. Deem and Ramdas Pophale) SiO2 
 PCOD9166156
Probable space group: P 21/M
;
_chemical_formula_sum "Si O2"
_cell_formula_units_Z 28
_cell_length_a 26.614386
_cell_length_b 7.854821
_cell_length_c 9.627087
_cell_angle_alpha 90.000000
_cell_angle_beta 140.616500
_cell_angle_gamma 90.000000
_cell_volume 1276.981814
_symmetry_space_group_name_H-M "P 21/M"
_symmetry_group_IT_number 11
_symmetry_cell_setting 'monoclinic'
loop_
_space_group_symop_operation_xyz
x,y,z
-x,1/2+y,-z
-x,-y,-z
x,1/2-y,z
loop_
_atom_site_type_symbol
_atom_site_label
_atom_site_fract_x
_atom_site_fract_y
_atom_site_fract_z
Si Si1 0.307882 0.456783 0.136831
Si Si2 0.243314 0.947248 0.471796
Si Si3 0.080881 0.055090 0.250234
Si Si4 0.003384 0.453630 0.668321
Si Si5 0.368263 0.545132 0.959625
Si Si6 0.469960 0.454515 0.590276
Si Si7 0.177105 0.447471 0.049068
O O1 0.306893 0.250000 0.138459
O O2 0.379514 0.515628 0.391773
O O3 0.225247 0.521674 0.022248
O O4 0.328314 0.506947 0.023554
O O5 0.260077 0.750000 0.477160
O O6 0.312604 0.019240 0.717477
O O7 0.159545 0.957183 0.373813
O O8 0.230721 0.039858 0.299504
O O9 0.095814 0.250000 0.243845
O O10 0.061953 0.036104 0.372659
O O11 0.000000 0.000000 0.000000
O O12 0.996396 0.250000 0.672896
O O13 0.000000 0.500000 0.500000
O O14 0.090793 0.518718 0.899322
O O15 0.370784 0.750000 0.952974
O O16 0.459347 0.481206 0.159890
O O17 0.500000 0.500000 0.500000
O O18 0.467668 0.250000 0.599925
O O19 0.162109 0.250000 0.983779
#
# Coordination Sequence:
#
# PCOD9166156 Si02
#       7
#     4   4   4   4   4   4   4
#     4   9  18  33  56  83 109 144 185 226 278 331
#     4  11  23  38  57  82 112 149 190 228 277 333
#     4  12  24  41  63  85 111 147 189 231 280 335
#     4  11  24  41  60  85 116 149 188 232 279 330
#     4   9  19  34  54  83 112 142 183 229 274 326
#     4   8  14  29  52  77 109 142 177 224 273 324
#     4  10  22  39  56  79 112 148 186 229 278 331
#
# _framework density 21.9267
#
# number of rings (size 3 to 8) (size 9 to 14) (size 15 to 20)
#    0.000    2.000    1.429    2.143    2.000    2.286 
#    0.000    0.714    0.000    0.000    0.000    0.000 
#    0.000    0.000    0.000    0.000    0.000    0.000 
#
# Total GULP energy -156263.298709 kJ/mol
# GULP energy per Si atom -5580.832097 kJ/mol
# Density = 2.187679 g / cm^3
# Si number density = 21.926700 Si / 1000 Ang^3
#
#
#
# Elastic Constant Matrix: (Units=GPa)
#
#
# Indices 1 2 3 4 5 6 
#
# 1 28.5593 -9.9722 -27.6301 0.0000 -3.9239 0.0000
# 2 -9.9722 38.2973 -8.0127 0.0000 6.7546 0.0000
# 3 -27.6301 -8.0127 79.4334 0.0000 -6.2148 0.0000
# 4 0.0000 0.0000 0.0000 18.9388 0.0000 -6.7803
# 5 -3.9239 6.7546 -6.2148 0.0000 23.6371 0.0000
# 6 0.0000 0.0000 0.0000 -6.7803 0.0000 17.4215
#
#
#
# Elastic Compliance Matrix: (Units=1/GPa)
#
#
# Indices 1 2 3 4 5 6 
#
# 1 0.072029 0.022389 0.028331 0.000000 0.013008 0.000000
# 2 0.022389 0.034840 0.011041 0.000000 -0.003336 0.000000
# 3 0.028331 0.011041 0.024176 0.000000 0.007904 0.000000
# 4 0.000000 0.000000 0.000000 0.061350 0.000000 0.023877
# 5 0.013008 -0.003336 0.007904 0.000000 0.047498 0.000000
# 6 0.000000 0.000000 0.000000 0.023877 0.000000 0.066693
#
#
# Mechanical properties :
#
#
# Convention : Reuss Voigt Hill
#
# Bulk Modulus (GPa) = 3.92827 6.11776 5.02302
# Shear Modulus (GPa) = 18.66237 24.79315 21.72776
#
# Velocity S-wave (km/s) = 2.92057 3.36628 3.15131
# Velocity P-wave (km/s) = 3.62883 4.23146 3.94168
#
# Compressibility (1/GPa) = 0.25456484
#
# Stress axis : x y z
#
# Youngs Moduli (GPa) = 13.88337 28.70287 41.36354
#
# Poissons Ratio (x) = -0.64262 -1.17186
# Poissons Ratio (y) = -0.31083 -0.45670
# Poissons Ratio (z) = -0.39332 -0.31691
#
# Static dielectric constant tensor:
#      x y z
#    x 1.792720 0.000000 0.034210 
#    y 0.000000 1.794530 0.000000 
#    z 0.034210 0.000000 1.856320 
# 
# From -- ./inp_files/28544.got.cif
#   From: 2010.05.17/outbox.cif.g08.bks.cpg/sg11_15_cif.got.tgz:28544.got - 2010.06.03 12:22:45.
