data_PCOD9166025
_publ_section_title
;
Structure prediction by ZEFSAII (Michael W. Deem and Ramdas Pophale) SiO2 
 PCOD9166025
Probable space group: P 21/M
;
_chemical_formula_sum "Si O2"
_cell_formula_units_Z 32
_cell_length_a 19.008906
_cell_length_b 7.311573
_cell_length_c 10.816155
_cell_angle_alpha 90.000000
_cell_angle_beta 128.316625
_cell_angle_gamma 90.000000
_cell_volume 1179.470853
_symmetry_space_group_name_H-M "P 21/M"
_symmetry_group_IT_number 11
_symmetry_cell_setting 'monoclinic'
loop_
_space_group_symop_operation_xyz
x,y,z
-x,1/2+y,-z
-x,-y,-z
x,1/2-y,z
loop_
_atom_site_type_symbol
_atom_site_label
_atom_site_fract_x
_atom_site_fract_y
_atom_site_fract_z
Si Si1 0.868144 0.038661 0.105728
Si Si2 0.228651 0.527061 0.756976
Si Si3 0.608491 0.472770 0.212043
Si Si4 0.243436 0.958091 0.437317
Si Si5 0.468506 0.039682 0.247750
Si Si6 0.948210 0.466248 0.573094
Si Si7 0.623723 0.971527 0.621821
Si Si8 0.104111 0.530647 0.124570
O O1 0.841391 0.250000 0.068468
O O2 0.811579 0.960233 0.157744
O O3 0.856129 0.953235 0.959122
O O4 0.974724 0.037391 0.251607
O O5 0.226681 0.750000 0.755466
O O6 0.332245 0.475102 0.843204
O O7 0.154315 0.472662 0.571079
O O8 0.601174 0.250000 0.203694
O O9 0.681244 0.538118 0.393168
O O10 0.513885 0.536301 0.169963
O O11 0.234722 0.750000 0.472106
O O12 0.147824 0.039712 0.299222
O O13 0.288510 0.959246 0.350746
O O14 0.446662 0.250000 0.197620
O O15 0.390457 0.962716 0.251875
O O16 0.546934 0.035544 0.439796
O O17 0.943246 0.250000 0.591497
O O18 0.000000 0.500000 0.500000
O O19 0.622124 0.750000 0.620237
O O20 0.116475 0.750000 0.143068
O O21 0.000000 0.500000 0.000000
#
# Coordination Sequence:
#
# PCOD9166025 Si02
#       8
#     4   4   4   4   4   4   4   4
#     4   9  18  32  45  62  86 111 145 188 229 266
#     4   8  14  24  42  64  84 108 139 176 215 259
#     4   8  13  23  41  64  87 110 141 175 209 259
#     4   9  18  31  45  61  84 117 152 183 219 266
#     4   8  14  24  39  62  91 119 143 170 211 264
#     4   9  16  26  43  64  85 111 145 183 222 264
#     4   9  15  24  41  63  88 115 144 179 216 258
#     4  10  22  36  49  64  87 118 153 194 232 269
#
# _framework density 27.130808999999999
#
# number of rings (size 3 to 8) (size 9 to 14) (size 15 to 20)
#    0.000    3.250    0.000    2.250    1.750    1.500 
#    0.000    0.000    0.000    6.750    0.000    0.875 
#    0.000    0.000    0.000    0.000    0.000    0.000 
#
# Total GULP energy -178426.050427 kJ/mol
# GULP energy per Si atom -5575.814076 kJ/mol
# Density = 2.706906 g / cm^3
# Si number density = 27.130809 Si / 1000 Ang^3
#
#
#
# Elastic Constant Matrix: (Units=GPa)
#
#
# Indices 1 2 3 4 5 6 
#
# 1 162.6502 -0.6566 9.1224 0.0000 -21.2526 0.0000
# 2 -0.6566 132.9451 2.4156 0.0000 -4.4356 0.0000
# 3 9.1224 2.4156 80.3594 0.0000 6.7570 0.0000
# 4 0.0000 0.0000 0.0000 3.7684 0.0000 3.9001
# 5 -21.2526 -4.4356 6.7570 0.0000 43.3691 0.0000
# 6 0.0000 0.0000 0.0000 3.9001 0.0000 15.5460
#
#
#
# Elastic Compliance Matrix: (Units=1/GPa)
#
#
# Indices 1 2 3 4 5 6 
#
# 1 0.006658 0.000167 -0.001050 0.000000 0.003443 0.000000
# 2 0.000167 0.007559 -0.000322 0.000000 0.000905 0.000000
# 3 -0.001050 -0.000322 0.012787 0.000000 -0.002540 0.000000
# 4 0.000000 0.000000 0.000000 0.358423 0.000000 -0.089918
# 5 0.003443 0.000905 -0.002540 0.000000 0.025234 0.000000
# 6 0.000000 0.000000 0.000000 -0.089918 0.000000 0.086884
#
#
# Mechanical properties :
#
#
# Convention : Reuss Voigt Hill
#
# Bulk Modulus (GPa) = 40.66437 44.19084 42.42761
# Shear Modulus (GPa) = 9.83959 36.87491 23.35725
#
# Velocity S-wave (km/s) = 1.90646 3.69067 2.93731
# Velocity P-wave (km/s) = 4.45723 5.87238 5.21305
#
# Compressibility (1/GPa) = 0.02459155
#
# Stress axis : x y z
#
# Youngs Moduli (GPa) = 150.20318 132.29655 78.20703
#
# Poissons Ratio (x) = -0.02207 0.08214
# Poissons Ratio (y) = -0.02506 0.02520
# Poissons Ratio (z) = 0.15776 0.04263
#
# Static dielectric constant tensor:
#      x y z
#    x 2.263080 0.000000 -0.035070 
#    y 0.000000 2.218510 0.000000 
#    z -0.035070 0.000000 2.133920 
# 
# From -- ./inp_files/42549.got.cif
#   From: 2010.05.17/outbox.cif.g08.bks.cpg/sg11_22_cif.got.tgz:42549.got - 2010.06.03 12:22:45.
