data_PCOD9166580
_publ_section_title
;
Structure prediction by ZEFSAII (Michael W. Deem and Ramdas Pophale) SiO2 
 PCOD9166580
Probable space group: P 21/M
;
_chemical_formula_sum "Si O2"
_cell_formula_units_Z 32
_cell_length_a 11.915955
_cell_length_b 9.047576
_cell_length_c 15.368700
_cell_angle_alpha 90.000000
_cell_angle_beta 89.248758
_cell_angle_gamma 90.000000
_cell_volume 1656.764940
_symmetry_space_group_name_H-M "P 21/M"
_symmetry_group_IT_number 11
_symmetry_cell_setting 'monoclinic'
loop_
_space_group_symop_operation_xyz
x,y,z
-x,1/2+y,-z
-x,-y,-z
x,1/2-y,z
loop_
_atom_site_type_symbol
_atom_site_label
_atom_site_fract_x
_atom_site_fract_y
_atom_site_fract_z
Si Si1 0.010013 0.077801 0.906728
Si Si2 0.243169 0.578849 0.157183
Si Si3 0.434331 0.574840 0.422500
Si Si4 0.449221 0.425258 0.085194
Si Si5 0.424250 0.075026 0.755913
Si Si6 0.839429 0.571323 0.257486
Si Si7 0.238833 0.078912 0.339048
Si Si8 0.984619 0.078305 0.407049
O O1 0.036896 0.250000 0.922003
O O2 0.886981 0.068069 0.865338
O O3 0.098250 0.022345 0.832818
O O4 0.000000 0.000000 0.000000
O O5 0.277933 0.750000 0.151430
O O6 0.321578 0.480634 0.095812
O O7 0.259198 0.517740 0.253528
O O8 0.500000 0.500000 0.500000
O O9 0.419561 0.750000 0.435564
O O10 0.507230 0.552974 0.333936
O O11 0.315822 0.493111 0.411920
O O12 0.454599 0.250000 0.080011
O O13 0.517243 0.483474 0.168352
O O14 0.500000 0.500000 0.000000
O O15 0.430163 0.250000 0.777643
O O16 0.292919 0.037167 0.745430
O O17 0.852285 0.750000 0.263293
O O18 0.899312 0.500025 0.340925
O O19 0.270996 0.250000 0.324327
O O20 0.108040 0.073863 0.362855
O O21 0.952510 0.250000 0.419477
O O22 0.000000 0.000000 0.500000
#
# Coordination Sequence:
#
# PCOD9166580 Si02
#       8
#     4   4   4   4   4   4   4   4
#     4  10  23  40  63  93 126 165 206 254 310 370
#     4  11  22  41  66  94 126 162 209 261 314 372
#     4  11  24  41  64  93 129 167 208 260 313 373
#     4  12  26  43  66  94 127 167 212 261 314 374
#     4  10  23  43  65  91 127 168 210 258 313 370
#     4  10  22  43  65  90 126 167 208 255 310 369
#     4  11  23  41  65  93 124 163 211 262 314 371
#     4  11  25  42  64  94 127 165 210 260 313 372
#
# _framework density 19.314748999999999
#
# number of rings (size 3 to 8) (size 9 to 14) (size 15 to 20)
#    0.000    1.250    2.500    2.625    3.500    4.000 
#    0.000    0.000    0.000    0.000    0.000    0.000 
#    0.000    0.000    0.000    0.000    0.000    0.000 
#
# Total GULP energy -178874.709350 kJ/mol
# GULP energy per Si atom -5589.834667 kJ/mol
# Density = 1.927079 g / cm^3
# Si number density = 19.314749 Si / 1000 Ang^3
#
#
#
# Elastic Constant Matrix: (Units=GPa)
#
#
# Indices 1 2 3 4 5 6 
#
# 1 69.9308 36.5863 -3.4797 0.0000 0.8261 0.0000
# 2 36.5863 106.8898 42.9536 0.0000 7.3111 0.0000
# 3 -3.4797 42.9536 66.1235 0.0000 3.3458 0.0000
# 4 0.0000 0.0000 0.0000 39.6785 0.0000 3.8310
# 5 0.8261 7.3111 3.3458 0.0000 26.7317 0.0000
# 6 0.0000 0.0000 0.0000 3.8310 0.0000 30.9879
#
#
#
# Elastic Compliance Matrix: (Units=1/GPa)
#
#
# Indices 1 2 3 4 5 6 
#
# 1 0.019781 -0.009803 0.007351 0.000000 0.001150 0.000000
# 2 -0.009803 0.017680 -0.011846 0.000000 -0.003050 0.000000
# 3 0.007351 -0.011846 0.023200 0.000000 0.000109 0.000000
# 4 0.000000 0.000000 0.000000 0.025507 0.000000 -0.003153
# 5 0.001150 -0.003050 0.000109 0.000000 0.038194 0.000000
# 6 0.000000 0.000000 0.000000 -0.003153 0.000000 0.032661
#
#
# Mechanical properties :
#
#
# Convention : Reuss Voigt Hill
#
# Bulk Modulus (GPa) = 31.18834 43.89606 37.54220
# Shear Modulus (GPa) = 25.47032 30.60521 28.03777
#
# Velocity S-wave (km/s) = 3.63533 3.98496 3.81415
# Velocity P-wave (km/s) = 5.81406 6.62942 6.23508
#
# Compressibility (1/GPa) = 0.03206327
#
# Stress axis : x y z
#
# Youngs Moduli (GPa) = 50.55397 56.56144 43.10373
#
# Poissons Ratio (x) = 0.55448 -0.31685
# Poissons Ratio (y) = 0.49559 0.51062
# Poissons Ratio (z) = -0.37161 0.67005
#
# Static dielectric constant tensor:
#      x y z
#    x 1.659350 0.000000 -0.039480 
#    y 0.000000 1.655430 0.000000 
#    z -0.039480 0.000000 1.583910 
# 
# From -- ./inp_files/45210.got.cif
#   From: 2010.05.17/outbox.cif.g08.bks.cpg/sg11_23_cif.got.tgz:45210.got - 2010.06.03 12:22:45.
