data_PCOD9166432
_publ_section_title
;
Structure prediction by ZEFSAII (Michael W. Deem and Ramdas Pophale) SiO2 
 PCOD9166432
Probable space group: P 21/M
;
_chemical_formula_sum "Si O2"
_cell_formula_units_Z 24
_cell_length_a 12.411678
_cell_length_b 8.407543
_cell_length_c 23.296610
_cell_angle_alpha 90.000000
_cell_angle_beta 151.945909
_cell_angle_gamma 90.000000
_cell_volume 1143.330643
_symmetry_space_group_name_H-M "P 21/M"
_symmetry_group_IT_number 11
_symmetry_cell_setting 'monoclinic'
loop_
_space_group_symop_operation_xyz
x,y,z
-x,1/2+y,-z
-x,-y,-z
x,1/2-y,z
loop_
_atom_site_type_symbol
_atom_site_label
_atom_site_fract_x
_atom_site_fract_y
_atom_site_fract_z
Si Si1 0.569016 0.937875 0.150675
Si Si2 0.427928 0.942557 0.304130
Si Si3 0.763528 0.941695 0.361609
Si Si4 0.126564 0.935037 0.801018
Si Si5 0.675432 0.060754 0.534166
Si Si6 0.915760 0.562643 0.092139
O O1 0.607659 0.750000 0.161829
O O2 0.713339 0.996773 0.273351
O O3 0.650023 0.021679 0.130544
O O4 0.302052 0.971327 0.035385
O O5 0.434400 0.750000 0.312721
O O6 0.554150 0.987910 0.304803
O O7 0.162801 0.991051 0.184901
O O8 0.570719 0.015312 0.423748
O O9 0.770380 0.750000 0.363088
O O10 0.000000 0.000000 0.500000
O O11 0.127610 0.750000 0.816982
O O12 0.090719 0.032826 0.842392
O O13 0.914946 0.976391 0.659922
O O14 0.704514 0.250000 0.552194
O O15 0.500000 0.000000 0.500000
O O16 0.890296 0.750000 0.068884
#
# Coordination Sequence:
#
# PCOD9166432 Si02
#       6
#     4   4   4   4   4   4
#     4  11  24  42  63  90 126 165 209 256 310 372
#     4  10  22  41  64  91 126 164 208 258 309 365
#     4  10  23  43  66  92 122 161 205 257 310 367
#     4  12  24  40  63  91 126 165 210 260 312 368
#     4  12  23  37  60  92 126 161 203 251 309 366
#     4  11  23  40  63  91 125 164 208 257 313 373
#
# _framework density 20.991302000000001
#
# number of rings (size 3 to 8) (size 9 to 14) (size 15 to 20)
#    0.000    1.000    1.667    5.500    0.000    6.000 
#    0.000    0.000    0.000    0.000    0.000    0.000 
#    0.000    0.000    0.000    0.000    0.000    0.000 
#
# Total GULP energy -134310.073890 kJ/mol
# GULP energy per Si atom -5596.253079 kJ/mol
# Density = 2.094352 g / cm^3
# Si number density = 20.991302 Si / 1000 Ang^3
#
#
#
# Elastic Constant Matrix: (Units=GPa)
#
#
# Indices 1 2 3 4 5 6 
#
# 1 104.3610 -0.4153 22.6413 0.0000 11.6584 0.0000
# 2 -0.4153 26.3982 -12.1034 0.0000 1.5299 0.0000
# 3 22.6413 -12.1034 94.7253 0.0000 11.8470 0.0000
# 4 0.0000 0.0000 0.0000 35.1991 0.0000 2.6089
# 5 11.6584 1.5299 11.8470 0.0000 30.6341 0.0000
# 6 0.0000 0.0000 0.0000 2.6089 0.0000 21.4748
#
#
#
# Elastic Compliance Matrix: (Units=1/GPa)
#
#
# Indices 1 2 3 4 5 6 
#
# 1 0.010397 -0.000659 -0.002184 0.000000 -0.003079 0.000000
# 2 -0.000659 0.040802 0.005879 0.000000 -0.004060 0.000000
# 3 -0.002184 0.005879 0.012361 0.000000 -0.004243 0.000000
# 4 0.000000 0.000000 0.000000 0.028668 0.000000 -0.003483
# 5 -0.003079 -0.004060 -0.004243 0.000000 0.035659 0.000000
# 6 0.000000 0.000000 0.000000 -0.003483 0.000000 0.046989
#
#
# Mechanical properties :
#
#
# Convention : Reuss Voigt Hill
#
# Bulk Modulus (GPa) = 14.36165 27.30330 20.83247
# Shear Modulus (GPa) = 26.03952 31.81906 28.92929
#
# Velocity S-wave (km/s) = 3.52588 3.89758 3.71638
# Velocity P-wave (km/s) = 4.84070 5.76975 5.32552
#
# Compressibility (1/GPa) = 0.06962990
#
# Stress axis : x y z
#
# Youngs Moduli (GPa) = 96.17804 24.50875 80.90155
#
# Poissons Ratio (x) = 0.01616 0.17672
# Poissons Ratio (y) = 0.06343 -0.47561
# Poissons Ratio (z) = 0.21009 -0.14408
#
# Static dielectric constant tensor:
#      x y z
#    x 1.718890 0.000000 -0.003690 
#    y 0.000000 1.707960 0.000000 
#    z -0.003690 0.000000 1.751040 
# 
# From -- ./inp_files/68473.got.cif
#   From: 2010.05.17/outbox.cif.g08.bks.cpg/sg11_35_cif.got.tgz:68473.got - 2010.06.03 12:22:45.
