data_PCOD9166464
_publ_section_title
;
Structure prediction by ZEFSAII (Michael W. Deem and Ramdas Pophale) SiO2 
 PCOD9166464
Probable space group: P 21/M
;
_chemical_formula_sum "Si O2"
_cell_formula_units_Z 18
_cell_length_a 10.188317
_cell_length_b 9.432843
_cell_length_c 7.492681
_cell_angle_alpha 90.000000
_cell_angle_beta 97.319052
_cell_angle_gamma 90.000000
_cell_volume 714.215435
_symmetry_space_group_name_H-M "P 21/M"
_symmetry_group_IT_number 11
_symmetry_cell_setting 'monoclinic'
loop_
_space_group_symop_operation_xyz
x,y,z
-x,1/2+y,-z
-x,-y,-z
x,1/2-y,z
loop_
_atom_site_type_symbol
_atom_site_label
_atom_site_fract_x
_atom_site_fract_y
_atom_site_fract_z
Si Si1 0.860957 0.979030 0.080705
Si Si2 0.332965 0.495726 0.244393
Si Si3 0.306912 0.750000 0.814376
Si Si4 0.490792 0.250000 0.866299
Si Si5 0.788571 0.250000 0.573376
Si Si6 0.917817 0.750000 0.388963
Si Si7 0.661776 0.750000 0.502704
O O1 0.781231 0.117732 0.133563
O O2 0.893924 0.884328 0.257083
O O3 0.750566 0.917452 0.924328
O O4 0.000000 0.000000 0.000000
O O5 0.442911 0.601558 0.186691
O O6 0.232457 0.610069 0.314142
O O7 0.384075 0.389114 0.402510
O O8 0.314914 0.750000 0.604081
O O9 0.455448 0.750000 0.921820
O O10 0.364825 0.250000 0.714539
O O11 0.933327 0.250000 0.518606
O O12 0.820355 0.750000 0.538005
#
# Coordination Sequence:
#
# PCOD9166464 Si02
#       7
#     4   4   2   2   2   2   2
#     4  11  21  39  59  88 122 163 197 241 307 376
#     4  10  22  41  66  88 120 163 207 247 299 362
#     4  10  23  38  62  83 122 164 199 248 309 357
#     4   9  22  46  63  85 120 171 207 238 303 364
#     4  11  22  41  58  94 123 160 197 249 318 362
#     4  12  25  36  60  96 132 152 196 257 311 355
#     4  12  24  39  63  96 123 153 209 264 289 348
#
# _framework density 25.202482
#
# number of rings (size 3 to 8) (size 9 to 14) (size 15 to 20)
#    0.000    1.333    2.222    4.000    3.111    1.778 
#    0.000   14.444    0.000    0.000    0.000    0.000 
#    0.000    0.000    0.000    0.000    0.000    0.000 
#
# Total GULP energy -100675.745295 kJ/mol
# GULP energy per Si atom -5593.096961 kJ/mol
# Density = 2.514512 g / cm^3
# Si number density = 25.202482 Si / 1000 Ang^3
#
#
#
# Elastic Constant Matrix: (Units=GPa)
#
#
# Indices 1 2 3 4 5 6 
#
# 1 37.6082 2.9374 -12.4593 0.0000 14.0828 0.0000
# 2 2.9374 111.6929 17.9279 0.0000 1.1898 0.0000
# 3 -12.4593 17.9279 114.2929 0.0000 15.7666 0.0000
# 4 0.0000 0.0000 0.0000 44.9353 0.0000 20.2737
# 5 14.0828 1.1898 15.7666 0.0000 36.4502 0.0000
# 6 0.0000 0.0000 0.0000 20.2737 0.0000 5.4505
#
#
#
# Elastic Compliance Matrix: (Units=1/GPa)
#
#
# Indices 1 2 3 4 5 6 
#
# 1 0.034857 -0.001756 0.006301 0.000000 -0.016135 0.000000
# 2 -0.001756 0.009277 -0.001806 0.000000 0.001157 0.000000
# 3 0.006301 -0.001806 0.010685 0.000000 -0.006997 0.000000
# 4 0.000000 0.000000 0.000000 -0.032814 0.000000 0.122056
# 5 -0.016135 0.001157 -0.006997 0.000000 0.036658 0.000000
# 6 0.000000 0.000000 0.000000 0.122056 0.000000 -0.270529
#
#
# Mechanical properties :
#
#
# Convention : Reuss Voigt Hill
#
# Bulk Modulus (GPa) = 16.58486 31.15624 23.87055
# Shear Modulus (GPa) = -25.34904 34.37974 4.51535
#
# Velocity S-wave (km/s) = -3.17490 3.69743 1.33997
# Velocity P-wave (km/s) = 2.61631 5.53328 3.44762
#
# Compressibility (1/GPa) = 0.06029596
#
# Stress axis : x y z
#
# Youngs Moduli (GPa) = 28.68887 107.79458 93.58965
#
# Poissons Ratio (x) = 0.18931 -0.58972
# Poissons Ratio (y) = 0.05038 0.16904
# Poissons Ratio (z) = -0.18077 0.19470
#
# Static dielectric constant tensor:
#      x y z
#    x 1.975340 0.000000 0.020160 
#    y 0.000000 1.916070 0.000000 
#    z 0.020160 0.000000 1.999850 
# 
# From -- ./inp_files/15770.got.cif
#   From: 2010.05.17/outbox.cif.g08.bks.cpg/sg11_8_cif.got.tgz:15770.got - 2010.06.03 12:22:45.
