data_PCOD9166129
_publ_section_title
;
Structure prediction by ZEFSAII (Michael W. Deem and Ramdas Pophale) SiO2 
 PCOD9166129
Probable space group: P 21/M
;
_chemical_formula_sum "Si O2"
_cell_formula_units_Z 32
_cell_length_a 11.760410
_cell_length_b 8.531502
_cell_length_c 15.212206
_cell_angle_alpha 90.000000
_cell_angle_beta 88.322134
_cell_angle_gamma 90.000000
_cell_volume 1525.646482
_symmetry_space_group_name_H-M "P 21/M"
_symmetry_group_IT_number 11
_symmetry_cell_setting 'monoclinic'
loop_
_space_group_symop_operation_xyz
x,y,z
-x,1/2+y,-z
-x,-y,-z
x,1/2-y,z
loop_
_atom_site_type_symbol
_atom_site_label
_atom_site_fract_x
_atom_site_fract_y
_atom_site_fract_z
Si Si1 0.075897 0.431451 0.920215
Si Si2 0.427673 0.561674 0.584276
Si Si3 0.166537 0.939106 0.561473
Si Si4 0.069203 0.939102 0.374642
Si Si5 0.657161 0.568014 0.914653
Si Si6 0.680091 0.069550 0.100453
Si Si7 0.493215 0.067688 0.770545
Si Si8 0.138504 0.932331 0.187484
O O1 0.107889 0.250000 0.936648
O O2 0.186525 0.535335 0.905659
O O3 0.992291 0.435069 0.839024
O O4 0.000000 0.500000 0.000000
O O5 0.500000 0.500000 0.500000
O O6 0.428110 0.750000 0.582444
O O7 0.294541 0.509362 0.581996
O O8 0.482225 0.503321 0.674064
O O9 0.165222 0.750000 0.565150
O O10 0.132063 0.987950 0.462883
O O11 0.060483 0.000212 0.621178
O O12 0.065100 0.750000 0.372777
O O13 0.139850 0.988810 0.287541
O O14 0.655755 0.250000 0.121965
O O15 0.581855 0.515601 0.833744
O O16 0.785107 0.532421 0.879748
O O17 0.634635 0.471608 0.004082
O O18 0.359696 0.250000 0.065791
O O19 0.624538 0.960357 0.175103
O O20 0.521427 0.250000 0.763616
O O21 0.177102 0.750000 0.180398
#
# Coordination Sequence:
#
# PCOD9166129 Si02
#       8
#     4   4   4   4   4   4   4   4
#     4  11  22  38  60  92 131 171 213 259 317 381
#     4  11  25  45  67  98 132 171 218 269 326 389
#     4   9  20  39  62  90 126 162 204 260 319 374
#     4   9  19  37  62  92 124 163 208 257 313 378
#     4  12  25  43  67  97 131 169 219 271 326 393
#     4  12  25  44  68  96 132 172 217 271 326 392
#     4  12  27  47  70  95 127 171 219 273 332 389
#     4  10  22  38  61  92 128 170 216 262 318 383
#
# _framework density 20.974713999999999
#
# number of rings (size 3 to 8) (size 9 to 14) (size 15 to 20)
#    0.000    1.250    1.250    4.500    3.500    2.000 
#    0.000    0.000    0.000    0.000    0.000    0.000 
#    0.000    0.000    0.000    0.000    0.000    0.000 
#
# Total GULP energy -178942.498252 kJ/mol
# GULP energy per Si atom -5591.953070 kJ/mol
# Density = 2.092697 g / cm^3
# Si number density = 20.974714 Si / 1000 Ang^3
#
#
#
# Elastic Constant Matrix: (Units=GPa)
#
#
# Indices 1 2 3 4 5 6 
#
# 1 63.0627 -2.8821 -5.1074 0.0000 6.6318 0.0000
# 2 -2.8821 52.6776 -0.5942 0.0000 7.3704 0.0000
# 3 -5.1074 -0.5942 89.1497 0.0000 -6.4041 0.0000
# 4 0.0000 0.0000 0.0000 31.3167 0.0000 -2.5972
# 5 6.6318 7.3704 -6.4041 0.0000 22.4352 0.0000
# 6 0.0000 0.0000 0.0000 -2.5972 0.0000 33.1537
#
#
#
# Elastic Compliance Matrix: (Units=1/GPa)
#
#
# Indices 1 2 3 4 5 6 
#
# 1 0.016533 0.001647 0.000580 0.000000 -0.005263 0.000000
# 2 0.001647 0.020072 -0.000286 0.000000 -0.007163 0.000000
# 3 0.000580 -0.000286 0.011478 0.000000 0.003199 0.000000
# 4 0.000000 0.000000 0.000000 0.032141 0.000000 0.002518
# 5 -0.005263 -0.007163 0.003199 0.000000 0.049395 0.000000
# 6 0.000000 0.000000 0.000000 0.002518 0.000000 0.030360
#
#
# Mechanical properties :
#
#
# Convention : Reuss Voigt Hill
#
# Bulk Modulus (GPa) = 19.24337 20.85808 20.05072
# Shear Modulus (GPa) = 28.83198 31.61271 30.22235
#
# Velocity S-wave (km/s) = 3.71159 3.88646 3.80003
# Velocity P-wave (km/s) = 5.24999 5.48684 5.36972
#
# Compressibility (1/GPa) = 0.05196594
#
# Stress axis : x y z
#
# Youngs Moduli (GPa) = 60.48532 49.81941 87.12153
#
# Poissons Ratio (x) = -0.08207 -0.05054
# Poissons Ratio (y) = -0.09964 0.02495
# Poissons Ratio (z) = -0.03509 0.01427
#
# Static dielectric constant tensor:
#      x y z
#    x 1.789720 0.000000 0.023120 
#    y 0.000000 1.730450 0.000000 
#    z 0.023120 0.000000 1.745810 
# 
# From -- ./inp_files/49352.got.cif
#   From: 2010.05.17/outbox.cif.g08.bks.cpg/sg11_25_cif.got.tgz:49352.got - 2010.06.03 12:22:45.
