data_PCOD9166376
_publ_section_title
;
Structure prediction by ZEFSAII (Michael W. Deem and Ramdas Pophale) SiO2 
 PCOD9166376
Probable space group: P 21/M
;
_chemical_formula_sum "Si O2"
_cell_formula_units_Z 24
_cell_length_a 11.435399
_cell_length_b 18.988858
_cell_length_c 5.321584
_cell_angle_alpha 90.000000
_cell_angle_beta 63.612479
_cell_angle_gamma 90.000000
_cell_volume 1035.157204
_symmetry_space_group_name_H-M "P 21/M"
_symmetry_group_IT_number 11
_symmetry_cell_setting 'monoclinic'
loop_
_space_group_symop_operation_xyz
x,y,z
-x,1/2+y,-z
-x,-y,-z
x,1/2-y,z
loop_
_atom_site_type_symbol
_atom_site_label
_atom_site_fract_x
_atom_site_fract_y
_atom_site_fract_z
Si Si1 0.691538 0.167592 0.896944
Si Si2 0.164654 0.172028 0.460609
Si Si3 0.772090 0.085647 0.320568
Si Si4 0.961628 0.937750 0.720805
Si Si5 0.710191 0.936213 0.272658
Si Si6 0.426403 0.326903 0.886105
O O1 0.727016 0.250000 0.881458
O O2 0.747655 0.131810 0.591702
O O3 0.535954 0.163667 0.991984
O O4 0.731609 0.126522 0.108808
O O5 0.134166 0.250000 0.585913
O O6 0.048146 0.135336 0.422469
O O7 0.213321 0.119129 0.626672
O O8 0.286403 0.177369 0.153298
O O9 0.927101 0.068567 0.175753
O O10 0.694191 0.011586 0.416834
O O11 0.815285 0.952477 0.954083
O O12 0.000000 0.000000 0.500000
O O13 0.586485 0.893455 0.285749
O O14 0.451561 0.250000 0.736766
#
# Coordination Sequence:
#
# PCOD9166376 Si02
#       6
#     4   4   4   4   4   4
#     4  11  27  48  68  97 139 186 231 277 341 415
#     4  10  22  40  68  99 129 172 230 284 336 398
#     4  12  26  43  71 102 137 183 224 279 348 415
#     4  11  23  44  66  96 137 180 221 280 347 410
#     4  11  23  40  71  99 131 171 231 288 342 398
#     4   9  22  44  67  94 135 181 225 283 340 396
#
# _framework density 23.184885000000001
#
# number of rings (size 3 to 8) (size 9 to 14) (size 15 to 20)
#    0.000    1.333    1.667    2.500    7.000    3.333 
#    0.000    0.000    0.000    0.000    0.000    0.000 
#    0.000    0.000    0.000    0.000    0.000    0.000 
#
# Total GULP energy -134249.889794 kJ/mol
# GULP energy per Si atom -5593.745408 kJ/mol
# Density = 2.313211 g / cm^3
# Si number density = 23.184885 Si / 1000 Ang^3
#
#
#
# Elastic Constant Matrix: (Units=GPa)
#
#
# Indices 1 2 3 4 5 6 
#
# 1 130.2553 71.9030 21.2764 0.0000 27.6179 0.0000
# 2 71.9030 188.6981 43.4168 0.0000 26.7334 0.0000
# 3 21.2764 43.4168 54.5160 0.0000 20.4544 0.0000
# 4 0.0000 0.0000 0.0000 34.3455 0.0000 10.3581
# 5 27.6179 26.7334 20.4544 0.0000 32.1284 0.0000
# 6 0.0000 0.0000 0.0000 10.3581 0.0000 38.8985
#
#
#
# Elastic Compliance Matrix: (Units=1/GPa)
#
#
# Indices 1 2 3 4 5 6 
#
# 1 0.010906 -0.003394 0.001188 0.000000 -0.007307 0.000000
# 2 -0.003394 0.007738 -0.004621 0.000000 -0.000580 0.000000
# 3 0.001188 -0.004621 0.026934 0.000000 -0.014324 0.000000
# 4 0.000000 0.000000 0.000000 0.031658 0.000000 -0.008430
# 5 -0.007307 -0.000580 -0.014324 0.000000 0.047008 0.000000
# 6 0.000000 0.000000 0.000000 -0.008430 0.000000 0.027953
#
#
# Mechanical properties :
#
#
# Convention : Reuss Voigt Hill
#
# Bulk Modulus (GPa) = 31.32303 71.85130 51.58716
# Shear Modulus (GPa) = 28.33007 36.86602 32.59805
#
# Velocity S-wave (km/s) = 3.49939 3.99192 3.75374
# Velocity P-wave (km/s) = 5.46508 7.23222 6.40984
#
# Compressibility (1/GPa) = 0.03192539
#
# Stress axis : x y z
#
# Youngs Moduli (GPa) = 91.69289 129.23385 37.12822
#
# Poissons Ratio (x) = 0.43860 -0.04412
# Poissons Ratio (y) = 0.31119 0.17155
# Poissons Ratio (z) = -0.10896 0.59713
#
# Static dielectric constant tensor:
#      x y z
#    x 1.860620 0.000000 -0.018200 
#    y 0.000000 1.976000 0.000000 
#    z -0.018200 0.000000 1.912800 
# 
# From -- ./inp_files/4584.got.cif
#   From: 2010.05.17/outbox.cif.g08.bks.cpg/sg11_3_cif.got.tgz:4584.got - 2010.06.03 12:22:45.
