data_PCOD9166322
_publ_section_title
;
Structure prediction by ZEFSAII (Michael W. Deem and Ramdas Pophale) SiO2 
 PCOD9166322
Probable space group: P 21/M
;
_chemical_formula_sum "Si O2"
_cell_formula_units_Z 26
_cell_length_a 11.980207
_cell_length_b 8.185235
_cell_length_c 16.623990
_cell_angle_alpha 90.000000
_cell_angle_beta 42.397792
_cell_angle_gamma 90.000000
_cell_volume 1099.175682
_symmetry_space_group_name_H-M "P 21/M"
_symmetry_group_IT_number 11
_symmetry_cell_setting 'monoclinic'
loop_
_space_group_symop_operation_xyz
x,y,z
-x,1/2+y,-z
-x,-y,-z
x,1/2-y,z
loop_
_atom_site_type_symbol
_atom_site_label
_atom_site_fract_x
_atom_site_fract_y
_atom_site_fract_z
Si Si1 0.895691 0.063111 0.633249
Si Si2 0.185317 0.568254 0.563830
Si Si3 0.327987 0.250000 0.985398
Si Si4 0.281772 0.063980 0.675224
Si Si5 0.472612 0.436230 0.321997
Si Si6 0.988456 0.569962 0.916212
Si Si7 0.534003 0.562269 0.859707
O O1 0.847528 0.250000 0.645611
O O2 0.733624 0.961194 0.743845
O O3 0.000000 0.000000 0.500000
O O4 0.031500 0.049277 0.631835
O O5 0.117515 0.750000 0.604449
O O6 0.290868 0.529633 0.586700
O O7 0.314302 0.548274 0.422808
O O8 0.455430 0.400982 0.941858
O O9 0.190796 0.110836 0.024699
O O10 0.331600 0.250000 0.636951
O O11 0.386765 0.989226 0.691552
O O12 0.092239 0.047320 0.803908
O O13 0.421041 0.250000 0.365694
O O14 0.525050 0.449439 0.202370
O O15 0.073472 0.750000 0.871238
O O16 0.000000 0.500000 0.000000
O O17 0.501136 0.750000 0.904053
#
# Coordination Sequence:
#
# PCOD9166322 Si02
#       7
#     4   4   2   4   4   4   4
#     4  12  23  40  65  97 136 172 220 269 323 389
#     4  12  25  41  62  95 133 178 220 263 326 400
#     4  10  24  40  66  92 128 168 220 280 336 376
#     4  12  25  41  64  92 132 177 218 271 332 399
#     4  11  23  38  61  91 137 176 218 261 318 398
#     4  10  22  40  63  92 125 165 221 272 334 382
#     4  11  23  40  65 100 134 174 221 273 332 389
#
# _framework density 23.654088999999999
#
# number of rings (size 3 to 8) (size 9 to 14) (size 15 to 20)
#    0.462    0.308    2.308    6.462    4.308    2.462 
#    0.000    0.000    0.000    0.923    0.000    0.000 
#    0.000    0.000    0.000    0.000    0.000    0.000 
#
# Total GULP energy -144840.759248 kJ/mol
# GULP energy per Si atom -5570.798433 kJ/mol
# Density = 2.360025 g / cm^3
# Si number density = 23.654089 Si / 1000 Ang^3
#
#
#
# Elastic Constant Matrix: (Units=GPa)
#
#
# Indices 1 2 3 4 5 6 
#
# 1 81.4597 27.0108 21.7708 0.0000 -19.6883 0.0000
# 2 27.0108 135.3672 9.7616 0.0000 -3.6600 0.0000
# 3 21.7708 9.7616 37.7022 0.0000 -17.3981 0.0000
# 4 0.0000 0.0000 0.0000 35.0569 0.0000 -10.9358
# 5 -19.6883 -3.6600 -17.3981 0.0000 35.7148 0.0000
# 6 0.0000 0.0000 0.0000 -10.9358 0.0000 58.3243
#
#
#
# Elastic Compliance Matrix: (Units=1/GPa)
#
#
# Indices 1 2 3 4 5 6 
#
# 1 0.016130 -0.002632 -0.006004 0.000000 0.005698 0.000000
# 2 -0.002632 0.007959 -0.001076 0.000000 -0.001159 0.000000
# 3 -0.006004 -0.001076 0.037011 0.000000 0.014609 0.000000
# 4 0.000000 0.000000 0.000000 0.030297 0.000000 0.005681
# 5 0.005698 -0.001159 0.014609 0.000000 0.038139 0.000000
# 6 0.000000 0.000000 0.000000 0.005681 0.000000 0.018211
#
#
# Mechanical properties :
#
#
# Convention : Reuss Voigt Hill
#
# Bulk Modulus (GPa) = 23.99393 41.29062 32.64227
# Shear Modulus (GPa) = 27.61505 38.88492 33.24999
#
# Velocity S-wave (km/s) = 3.42051 4.05890 3.75330
# Velocity P-wave (km/s) = 5.07598 6.28173 5.71077
#
# Compressibility (1/GPa) = 0.04167720
#
# Stress axis : x y z
#
# Youngs Moduli (GPa) = 61.99535 125.64927 27.01927
#
# Poissons Ratio (x) = 0.33066 0.16221
# Poissons Ratio (y) = 0.16315 0.02907
# Poissons Ratio (z) = 0.37220 0.13519
#
# Static dielectric constant tensor:
#      x y z
#    x 1.988630 0.000000 0.001540 
#    y 0.000000 1.809110 0.000000 
#    z 0.001540 0.000000 1.951880 
# 
# From -- ./inp_files/64307.got.cif
#   From: 2010.05.17/outbox.cif.g08.bks.cpg/sg11_33_cif.got.tgz:64307.got - 2010.06.03 12:22:45.
