data_PCOD9166785
_publ_section_title
;
Structure prediction by ZEFSAII (Michael W. Deem and Ramdas Pophale) SiO2 
 PCOD9166785
Probable space group: P 21/M
;
_chemical_formula_sum "Si O2"
_cell_formula_units_Z 24
_cell_length_a 15.371830
_cell_length_b 8.746703
_cell_length_c 15.053019
_cell_angle_alpha 90.000000
_cell_angle_beta 39.985118
_cell_angle_gamma 90.000000
_cell_volume 1300.548612
_symmetry_space_group_name_H-M "P 21/M"
_symmetry_group_IT_number 11
_symmetry_cell_setting 'monoclinic'
loop_
_space_group_symop_operation_xyz
x,y,z
-x,1/2+y,-z
-x,-y,-z
x,1/2-y,z
loop_
_atom_site_type_symbol
_atom_site_label
_atom_site_fract_x
_atom_site_fract_y
_atom_site_fract_z
Si Si1 0.837143 0.067745 0.345666
Si Si2 0.127937 0.933682 0.155554
Si Si3 0.322250 0.066830 0.360502
Si Si4 0.630736 0.433493 0.167091
Si Si5 0.641271 0.567797 0.353301
Si Si6 0.859391 0.433341 0.647391
O O1 0.826916 0.250000 0.352825
O O2 0.761973 0.002990 0.491820
O O3 0.760523 0.998958 0.320740
O O4 0.992254 0.015280 0.228935
O O5 0.106845 0.750000 0.167674
O O6 0.152828 0.972795 0.239200
O O7 0.255712 0.971980 0.994179
O O8 0.306312 0.250000 0.374399
O O9 0.480015 0.029749 0.250725
O O10 0.260304 0.001120 0.318625
O O11 0.635069 0.250000 0.179149
O O12 0.656330 0.517315 0.239768
O O13 0.500000 0.500000 0.500000
O O14 0.637849 0.750000 0.364114
O O15 0.861562 0.250000 0.637196
O O16 0.000000 0.500000 0.500000
#
# Coordination Sequence:
#
# PCOD9166785 Si02
#       6
#     4   4   4   4   4   4
#     4  12  24  39  64  94 124 163 210 257 307 371
#     4  10  23  43  64  90 127 167 208 258 313 366
#     4  11  22  38  63  92 125 163 207 259 310 368
#     4  10  23  43  65  91 126 166 208 257 312 369
#     4  12  24  40  65  94 125 163 207 257 309 370
#     4  11  22  37  62  92 125 164 210 259 307 368
#
# _framework density 18.453752000000001
#
# number of rings (size 3 to 8) (size 9 to 14) (size 15 to 20)
#    0.000    1.000    3.333    4.000    0.000    3.333 
#    0.000    0.000    0.000    0.000    0.000    0.000 
#    0.000    0.000    0.000    0.000    0.000    0.000 
#
# Total GULP energy -134250.941385 kJ/mol
# GULP energy per Si atom -5593.789224 kJ/mol
# Density = 1.841175 g / cm^3
# Si number density = 18.453752 Si / 1000 Ang^3
#
#
#
# Elastic Constant Matrix: (Units=GPa)
#
#
# Indices 1 2 3 4 5 6 
#
# 1 176.9549 73.9094 68.1694 0.0000 2.1341 0.0000
# 2 73.9094 85.2643 60.4446 0.0000 0.7288 0.0000
# 3 68.1694 60.4446 133.1275 0.0000 1.9084 0.0000
# 4 0.0000 0.0000 0.0000 15.4832 0.0000 2.0760
# 5 2.1341 0.7288 1.9084 0.0000 32.7576 0.0000
# 6 0.0000 0.0000 0.0000 2.0760 0.0000 38.6461
#
#
#
# Elastic Compliance Matrix: (Units=1/GPa)
#
#
# Indices 1 2 3 4 5 6 
#
# 1 0.009084 -0.006750 -0.001582 0.000000 -0.000349 0.000000
# 2 -0.006750 0.022311 -0.006678 0.000000 0.000332 0.000000
# 3 -0.001582 -0.006678 0.011360 0.000000 -0.000410 0.000000
# 4 0.000000 0.000000 0.000000 0.065055 0.000000 -0.003495
# 5 -0.000349 0.000332 -0.000410 0.000000 0.030567 0.000000
# 6 0.000000 0.000000 0.000000 -0.003495 0.000000 0.026064
#
#
# Mechanical properties :
#
#
# Convention : Reuss Voigt Hill
#
# Bulk Modulus (GPa) = 78.52792 88.93261 83.73027
# Shear Modulus (GPa) = 25.16306 30.23225 27.69766
#
# Velocity S-wave (km/s) = 3.69667 4.05195 3.87838
# Velocity P-wave (km/s) = 7.80171 8.37782 8.09489
#
# Compressibility (1/GPa) = 0.01273432
#
# Stress axis : x y z
#
# Youngs Moduli (GPa) = 110.08348 44.82165 88.03084
#
# Poissons Ratio (x) = 0.30254 0.13925
# Poissons Ratio (y) = 0.74305 0.58789
# Poissons Ratio (z) = 0.17414 0.29933
#
# Static dielectric constant tensor:
#      x y z
#    x 1.614260 0.000000 0.001090 
#    y 0.000000 1.599060 0.000000 
#    z 0.001090 0.000000 1.603910 
# 
# From -- ./inp_files/51515.got.cif
#   From: 2010.05.17/outbox.cif.g08.bks.cpg/sg11_26_cif.got.tgz:51515.got - 2010.06.03 12:22:45.
