data_PCOD9166571
_publ_section_title
;
Structure prediction by ZEFSAII (Michael W. Deem and Ramdas Pophale) SiO2 
 PCOD9166571
Probable space group: P 21/M
;
_chemical_formula_sum "Si O2"
_cell_formula_units_Z 32
_cell_length_a 10.909234
_cell_length_b 22.389068
_cell_length_c 5.601823
_cell_angle_alpha 90.000000
_cell_angle_beta 74.649106
_cell_angle_gamma 90.000000
_cell_volume 1319.416837
_symmetry_space_group_name_H-M "P 21/M"
_symmetry_group_IT_number 11
_symmetry_cell_setting 'monoclinic'
loop_
_space_group_symop_operation_xyz
x,y,z
-x,1/2+y,-z
-x,-y,-z
x,1/2-y,z
loop_
_atom_site_type_symbol
_atom_site_label
_atom_site_fract_x
_atom_site_fract_y
_atom_site_fract_z
Si Si1 0.892153 0.497093 0.757131
Si Si2 0.329793 0.425077 0.170694
Si Si3 0.790600 0.817786 0.447488
Si Si4 0.322916 0.818297 0.140723
Si Si5 0.570729 0.851671 0.255066
Si Si6 0.560827 0.443318 0.347106
Si Si7 0.013633 0.396110 0.958289
Si Si8 0.227114 0.628685 0.687679
O O1 0.753475 0.516490 0.739070
O O2 0.916967 0.548965 0.942373
O O3 0.000000 0.500000 0.500000
O O4 0.913059 0.431078 0.843707
O O5 0.261812 0.368557 0.338965
O O6 0.478067 0.437532 0.152183
O O7 0.341536 0.404209 0.894851
O O8 0.822796 0.750000 0.518866
O O9 0.670423 0.810619 0.333765
O O10 0.902392 0.850410 0.238332
O O11 0.285893 0.750000 0.187789
O O12 0.475520 0.824024 0.110538
O O13 0.260025 0.851785 0.400647
O O14 0.285500 0.837104 0.891089
O O15 0.483195 0.883946 0.491823
O O16 0.500000 0.500000 0.500000
O O17 0.711608 0.437404 0.291976
O O18 0.924116 0.366088 0.202124
#
# Coordination Sequence:
#
# PCOD9166571 Si02
#       8
#     4   4   4   4   4   4   4   4
#     4  11  24  42  69  94 131 178 224 288 345 417
#     4  11  22  42  67  98 132 171 232 281 351 413
#     4  11  24  42  65  96 132 172 227 287 341 409
#     4  11  24  46  70  95 132 181 229 279 339 404
#     4  10  22  43  63  97 130 168 225 280 338 404
#     4  10  24  39  63  99 136 174 218 281 345 412
#     4  11  26  43  65  98 134 177 227 281 351 419
#     4  11  26  44  67 102 137 177 228 279 338 419
#
# _framework density 24.253140999999999
#
# number of rings (size 3 to 8) (size 9 to 14) (size 15 to 20)
#    0.000    1.250    3.750    0.750    5.250    3.500 
#    0.000    0.000    0.000    0.000    0.000    0.000 
#    0.000    0.000    0.000    0.000    0.000    0.000 
#
# Total GULP energy -178437.489734 kJ/mol
# GULP energy per Si atom -5576.171554 kJ/mol
# Density = 2.419794 g / cm^3
# Si number density = 24.253141 Si / 1000 Ang^3
#
#
#
# Elastic Constant Matrix: (Units=GPa)
#
#
# Indices 1 2 3 4 5 6 
#
# 1 55.4728 21.0277 24.4795 0.0000 -5.1145 0.0000
# 2 21.0277 87.1656 26.2330 0.0000 7.2424 0.0000
# 3 24.4795 26.2330 100.1558 0.0000 -17.0520 0.0000
# 4 0.0000 0.0000 0.0000 16.3283 0.0000 9.0872
# 5 -5.1145 7.2424 -17.0520 0.0000 40.5001 0.0000
# 6 0.0000 0.0000 0.0000 9.0872 0.0000 20.7944
#
#
#
# Elastic Compliance Matrix: (Units=1/GPa)
#
#
# Indices 1 2 3 4 5 6 
#
# 1 0.021475 -0.004178 -0.003841 0.000000 0.001842 0.000000
# 2 -0.004178 0.013859 -0.003362 0.000000 -0.004421 0.000000
# 3 -0.003841 -0.003362 0.012737 0.000000 0.005479 0.000000
# 4 0.000000 0.000000 0.000000 0.080925 0.000000 -0.035364
# 5 0.001842 -0.004421 0.005479 0.000000 0.028021 0.000000
# 6 0.000000 0.000000 0.000000 -0.035364 0.000000 0.063544
#
#
# Mechanical properties :
#
#
# Convention : Reuss Voigt Hill
#
# Bulk Modulus (GPa) = 39.50981 42.91940 41.21461
# Shear Modulus (GPa) = 19.86027 26.92817 23.39422
#
# Velocity S-wave (km/s) = 2.86470 3.33573 3.10915
# Velocity P-wave (km/s) = 5.22188 5.70710 5.46987
#
# Compressibility (1/GPa) = 0.02531017
#
# Stress axis : x y z
#
# Youngs Moduli (GPa) = 46.56517 72.15359 78.51442
#
# Poissons Ratio (x) = 0.30144 0.30158
# Poissons Ratio (y) = 0.19454 0.26394
# Poissons Ratio (z) = 0.17886 0.24256
#
# Static dielectric constant tensor:
#      x y z
#    x 2.150130 0.000000 -0.007870 
#    y 0.000000 5.297950 0.000000 
#    z -0.007870 0.000000 2.007810 
# 
# From -- ./inp_files/5463.got.cif
#   From: 2010.05.17/outbox.cif.g08.bks.cpg/sg11_3_cif.got.tgz:5463.got - 2010.06.03 12:22:45.
