data_PCOD9166250
_publ_section_title
;
Structure prediction by ZEFSAII (Michael W. Deem and Ramdas Pophale) SiO2 
 PCOD9166250
Probable space group: P 21/M
;
_chemical_formula_sum "Si O2"
_cell_formula_units_Z 24
_cell_length_a 5.569912
_cell_length_b 19.091444
_cell_length_c 11.631045
_cell_angle_alpha 90.000000
_cell_angle_beta 66.742783
_cell_angle_gamma 90.000000
_cell_volume 1136.316133
_symmetry_space_group_name_H-M "P 21/M"
_symmetry_group_IT_number 11
_symmetry_cell_setting 'monoclinic'
loop_
_space_group_symop_operation_xyz
x,y,z
-x,1/2+y,-z
-x,-y,-z
x,1/2-y,z
loop_
_atom_site_type_symbol
_atom_site_label
_atom_site_fract_x
_atom_site_fract_y
_atom_site_fract_z
Si Si1 0.766979 0.427727 0.229636
Si Si2 0.647697 0.672452 0.123662
Si Si3 0.102260 0.674637 0.357117
Si Si4 0.397622 0.428098 0.076316
Si Si5 0.654988 0.169645 0.461150
Si Si6 0.754162 0.918413 0.308317
O O1 0.583069 0.417207 0.152653
O O2 0.717673 0.366592 0.330216
O O3 0.685069 0.502073 0.300814
O O4 0.081913 0.433565 0.152799
O O5 0.765830 0.750000 0.086962
O O6 0.387793 0.680444 0.248689
O O7 0.804344 0.618904 0.175423
O O8 0.577126 0.635937 0.017915
O O9 0.973748 0.750000 0.345337
O O10 0.105119 0.672223 0.494047
O O11 0.012863 0.599423 0.329249
O O12 0.500000 0.500000 0.000000
O O13 0.571177 0.250000 0.461538
O O14 0.448570 0.123212 0.571982
#
# Coordination Sequence:
#
# PCOD9166250 Si02
#       6
#     4   4   4   4   4   4
#     4  12  28  43  73  97 137 179 223 276 340 402
#     4  10  22  39  65  97 129 173 232 278 333 394
#     4   9  19  37  65  95 130 172 221 285 331 389
#     4  12  26  48  67  97 136 182 222 282 332 394
#     4  10  24  44  64 100 138 174 221 273 339 408
#     4  11  21  40  69  97 131 174 224 282 332 394
#
# _framework density 21.120884
#
# number of rings (size 3 to 8) (size 9 to 14) (size 15 to 20)
#    0.000    1.333    1.667    4.500    7.000    2.000 
#    0.000    0.000    0.000    0.000    0.000    0.000 
#    0.000    0.000    0.000    0.000    0.000    0.000 
#
# Total GULP energy -133718.644803 kJ/mol
# GULP energy per Si atom -5571.610200 kJ/mol
# Density = 2.107281 g / cm^3
# Si number density = 21.120884 Si / 1000 Ang^3
#
#
#
# Elastic Constant Matrix: (Units=GPa)
#
#
# Indices 1 2 3 4 5 6 
#
# 1 84.8501 30.0012 55.4889 0.0000 15.4754 0.0000
# 2 30.0012 106.3432 57.8685 0.0000 20.0342 0.0000
# 3 55.4889 57.8685 116.5065 0.0000 23.9149 0.0000
# 4 0.0000 0.0000 0.0000 -76.7649 0.0000 10.5670
# 5 15.4754 20.0342 23.9149 0.0000 33.2608 0.0000
# 6 0.0000 0.0000 0.0000 10.5670 0.0000 14.9724
#
#
#
# Elastic Compliance Matrix: (Units=1/GPa)
#
#
# Indices 1 2 3 4 5 6 
#
# 1 0.017297 -0.000291 -0.007599 0.000000 -0.002409 0.000000
# 2 -0.000291 0.013293 -0.005688 0.000000 -0.003782 0.000000
# 3 -0.007599 -0.005688 0.015953 0.000000 -0.004509 0.000000
# 4 0.000000 0.000000 0.000000 -0.011873 0.000000 0.008380
# 5 -0.002409 -0.003782 -0.004509 0.000000 0.036706 0.000000
# 6 0.000000 0.000000 0.000000 0.008380 0.000000 0.060876
#
#
# Mechanical properties :
#
#
# Convention : Reuss Voigt Hill
#
# Bulk Modulus (GPa) = 51.57898 66.04633 58.81266
# Shear Modulus (GPa) = 30.14395 5.24975 17.69685
#
# Velocity S-wave (km/s) = 3.78194 1.57828 2.89776
# Velocity P-wave (km/s) = 6.59884 5.88726 6.25318
#
# Compressibility (1/GPa) = 0.01938774
#
# Stress axis : x y z
#
# Youngs Moduli (GPa) = 57.81239 75.22631 62.68307
#
# Poissons Ratio (x) = 0.02187 0.47635
# Poissons Ratio (y) = 0.01681 0.35654
# Poissons Ratio (z) = 0.43934 0.42788
#
# Static dielectric constant tensor:
#      x y z
#    x 1.924750 0.000000 -0.001640 
#    y 0.000000 1.932950 0.000000 
#    z -0.001640 0.000000 1.741670 
# 
# From -- ./inp_files/29756.got.cif
#   From: 2010.05.17/outbox.cif.g08.bks.cpg/sg11_15_cif.got.tgz:29756.got - 2010.06.03 12:22:45.
