data_PCOD9166666
_publ_section_title
;
Structure prediction by ZEFSAII (Michael W. Deem and Ramdas Pophale) SiO2 
 PCOD9166666
Probable space group: P 21/M
;
_chemical_formula_sum "Si O2"
_cell_formula_units_Z 22
_cell_length_a 11.455538
_cell_length_b 13.878718
_cell_length_c 8.311630
_cell_angle_alpha 90.000000
_cell_angle_beta 140.029494
_cell_angle_gamma 90.000000
_cell_volume 848.891084
_symmetry_space_group_name_H-M "P 21/M"
_symmetry_group_IT_number 11
_symmetry_cell_setting 'monoclinic'
loop_
_space_group_symop_operation_xyz
x,y,z
-x,1/2+y,-z
-x,-y,-z
x,1/2-y,z
loop_
_atom_site_type_symbol
_atom_site_label
_atom_site_fract_x
_atom_site_fract_y
_atom_site_fract_z
Si Si1 0.277341 0.567241 0.121658
Si Si2 0.313436 0.614359 0.810751
Si Si3 0.901193 0.643807 0.746909
Si Si4 0.732047 0.887839 0.221152
Si Si5 0.009021 0.750000 0.364599
Si Si6 0.581969 0.636740 0.670487
O O1 0.387959 0.612361 0.385370
O O2 0.368433 0.462687 0.181323
O O3 0.296144 0.633751 0.983228
O O4 0.063008 0.567485 0.927863
O O5 0.264367 0.502123 0.752083
O O6 0.169073 0.668608 0.551790
O O7 0.519814 0.637115 0.984643
O O8 0.979358 0.750000 0.870683
O O9 0.822753 0.647410 0.484197
O O10 0.734603 0.628911 0.690952
O O11 0.852292 0.834730 0.214749
O O12 0.577807 0.750000 0.714110
#
# Coordination Sequence:
#
# PCOD9166666 Si02
#       6
#     4   4   4   4   2   4
#     4  11  21  38  60  84 114 155 190 241 291 345
#     4  11  24  38  62  88 122 156 195 242 301 349
#     4  11  20  36  63  87 112 149 197 238 283 345
#     4  11  22  39  59  93 121 148 199 246 289 350
#     4  12  22  38  64  88 114 162 200 238 288 358
#     4  10  23  38  58  85 116 149 198 241 286 341
#
# _framework density 25.916163999999998
#
# number of rings (size 3 to 8) (size 9 to 14) (size 15 to 20)
#    0.000    1.091    4.545    2.182    1.273    0.000 
#    1.636    0.000    0.000    0.000    0.000    0.000 
#    0.000    0.000    0.000    0.000    0.000    0.000 
#
# Total GULP energy -122647.156604 kJ/mol
# GULP energy per Si atom -5574.870755 kJ/mol
# Density = 2.585718 g / cm^3
# Si number density = 25.916164 Si / 1000 Ang^3
#
#
#
# Elastic Constant Matrix: (Units=GPa)
#
#
# Indices 1 2 3 4 5 6 
#
# 1 -24.1406 27.3807 50.7210 0.0000 -10.6210 0.0000
# 2 27.3807 148.0471 40.2632 0.0000 21.5372 0.0000
# 3 50.7210 40.2632 129.2806 0.0000 59.3399 0.0000
# 4 0.0000 0.0000 0.0000 62.5100 0.0000 14.7074
# 5 -10.6210 21.5372 59.3399 0.0000 31.5518 0.0000
# 6 0.0000 0.0000 0.0000 14.7074 0.0000 4.8055
#
#
#
# Elastic Compliance Matrix: (Units=1/GPa)
#
#
# Indices 1 2 3 4 5 6 
#
# 1 -0.003126 0.000835 0.012511 0.000000 -0.025151 0.000000
# 2 0.000835 0.007277 -0.003237 0.000000 0.001402 0.000000
# 3 0.012511 -0.003237 0.006491 0.000000 -0.005786 0.000000
# 4 0.000000 0.000000 0.000000 0.057151 0.000000 -0.174912
# 5 -0.025151 0.001402 -0.005786 0.000000 0.033152 0.000000
# 6 0.000000 0.000000 0.000000 -0.174912 0.000000 0.743419
#
#
# Mechanical properties :
#
#
# Convention : Reuss Voigt Hill
#
# Bulk Modulus (GPa) = 32.40705 54.43522 43.42114
# Shear Modulus (GPa) = 5.99210 28.76160 17.37685
#
# Velocity S-wave (km/s) = 1.52221 3.33497 2.59221
# Velocity P-wave (km/s) = 3.95237 5.98994 5.07447
#
# Compressibility (1/GPa) = 0.03085748
#
# Stress axis : x y z
#
# Youngs Moduli (GPa) = -319.91861 137.42504 154.06928
#
# Poissons Ratio (x) = -0.11468 -1.92753
# Poissons Ratio (y) = 0.26697 0.49877
# Poissons Ratio (z) = 4.00245 0.44489
#
# Static dielectric constant tensor:
#      x y z
#    x 2.138600 0.000000 -0.113490 
#    y 0.000000 1.984990 0.000000 
#    z -0.113490 0.000000 2.014550 
# 
# From -- ./inp_files/39502.got.cif
#   From: 2010.05.17/outbox.cif.g08.bks.cpg/sg11_20_cif.got.tgz:39502.got - 2010.06.03 12:22:45.
