data_PCOD9166482
_publ_section_title
;
Structure prediction by ZEFSAII (Michael W. Deem and Ramdas Pophale) SiO2 
 PCOD9166482
Probable space group: P 21/M
;
_chemical_formula_sum "Si O2"
_cell_formula_units_Z 8
_cell_length_a 7.510142
_cell_length_b 7.925780
_cell_length_c 8.725127
_cell_angle_alpha 90.000000
_cell_angle_beta 147.205346
_cell_angle_gamma 90.000000
_cell_volume 281.296580
_symmetry_space_group_name_H-M "P 21/M"
_symmetry_group_IT_number 11
_symmetry_cell_setting 'monoclinic'
loop_
_space_group_symop_operation_xyz
x,y,z
-x,1/2+y,-z
-x,-y,-z
x,1/2-y,z
loop_
_atom_site_type_symbol
_atom_site_label
_atom_site_fract_x
_atom_site_fract_y
_atom_site_fract_z
Si Si1 0.552606 0.561673 0.710152
Si Si2 0.979470 0.750000 0.439657
Si Si3 0.250146 0.750000 0.951778
O O1 0.500000 0.500000 0.500000
O O2 0.707833 0.750000 0.823964
O O3 0.198822 0.597211 0.533126
O O4 0.739770 0.419226 0.940561
O O5 0.603119 0.750000 0.116881
O O6 0.981708 0.750000 0.625502
#
# Coordination Sequence:
#
# PCOD9166482 Si02
#       3
#     4   2   2
#     4  10  22  41  67  94 132 170 209 263 321 377
#     4  10  25  40  73  90 130 168 212 266 315 370
#     4  12  21  48  63 100 124 166 220 262 311 380
#
# _framework density 28.439737000000001
#
# number of rings (size 3 to 8) (size 9 to 14) (size 15 to 20)
#    1.500    0.000    2.500    3.000    0.000    0.000 
#    0.000   15.000    0.000    0.000    0.000    0.000 
#    0.000    0.000    0.000    0.000    0.000    0.000 
#
# Total GULP energy -44969.259606 kJ/mol
# GULP energy per Si atom -5621.157451 kJ/mol
# Density = 2.837501 g / cm^3
# Si number density = 28.439737 Si / 1000 Ang^3
#
#
#
# Elastic Constant Matrix: (Units=GPa)
#
#
# Indices 1 2 3 4 5 6 
#
# 1 129.7427 66.2137 33.0376 0.0000 -23.5536 0.0000
# 2 66.2137 272.6930 45.8621 0.0000 -26.3888 0.0000
# 3 33.0376 45.8621 93.5933 0.0000 -18.9120 0.0000
# 4 0.0000 0.0000 0.0000 44.9245 0.0000 -2.9899
# 5 -23.5536 -26.3888 -18.9120 0.0000 71.3501 0.0000
# 6 0.0000 0.0000 0.0000 -2.9899 0.0000 72.9418
#
#
#
# Elastic Compliance Matrix: (Units=1/GPa)
#
#
# Indices 1 2 3 4 5 6 
#
# 1 0.009492 -0.001766 -0.002096 0.000000 0.001925 0.000000
# 2 -0.001766 0.004396 -0.001395 0.000000 0.000673 0.000000
# 3 -0.002096 -0.001395 0.012535 0.000000 0.002115 0.000000
# 4 0.000000 0.000000 0.000000 0.022320 0.000000 0.000915
# 5 0.001925 0.000673 0.002115 0.000000 0.015460 0.000000
# 6 0.000000 0.000000 0.000000 0.000915 0.000000 0.013747
#
#
# Mechanical properties :
#
#
# Convention : Reuss Voigt Hill
#
# Bulk Modulus (GPa) = 62.85704 87.36176 75.10940
# Shear Modulus (GPa) = 53.32348 61.23765 57.28057
#
# Velocity S-wave (km/s) = 4.33478 4.64534 4.49274
# Velocity P-wave (km/s) = 6.87049 7.71733 7.30619
#
# Compressibility (1/GPa) = 0.01590912
#
# Stress axis : x y z
#
# Youngs Moduli (GPa) = 105.35144 227.49998 79.77551
#
# Poissons Ratio (x) = 0.40176 0.16724
# Poissons Ratio (y) = 0.18605 0.11125
# Poissons Ratio (z) = 0.22085 0.31725
#
# Static dielectric constant tensor:
#      x y z
#    x 2.234830 0.000000 0.064430 
#    y 0.000000 2.246150 0.000000 
#    z 0.064430 0.000000 2.024810 
# 
# From -- ./inp_files/76.got.cif
#   From: 2010.05.17/outbox.cif.g08.bks.cpg/sg11_1_cif.got.tgz:76.got - 2010.06.03 12:22:45.
