data_PCOD9166209
_publ_section_title
;
Structure prediction by ZEFSAII (Michael W. Deem and Ramdas Pophale) SiO2 
 PCOD9166209
Probable space group: P 21/M
;
_chemical_formula_sum "Si O2"
_cell_formula_units_Z 28
_cell_length_a 15.087236
_cell_length_b 8.970015
_cell_length_c 21.909834
_cell_angle_alpha 90.000000
_cell_angle_beta 152.585621
_cell_angle_gamma 90.000000
_cell_volume 1365.207142
_symmetry_space_group_name_H-M "P 21/M"
_symmetry_group_IT_number 11
_symmetry_cell_setting 'monoclinic'
loop_
_space_group_symop_operation_xyz
x,y,z
-x,1/2+y,-z
-x,-y,-z
x,1/2-y,z
loop_
_atom_site_type_symbol
_atom_site_label
_atom_site_fract_x
_atom_site_fract_y
_atom_site_fract_z
Si Si1 0.067766 0.082773 0.981058
Si Si2 0.055576 0.927499 0.307578
Si Si3 0.696351 0.070973 0.147470
Si Si4 0.817705 0.928845 0.352562
Si Si5 0.440244 0.925078 0.204019
Si Si6 0.450560 0.575239 0.603303
Si Si7 0.282431 0.919677 0.326403
O O1 0.127023 0.250000 0.033067
O O2 0.249539 0.002615 0.061824
O O3 0.885463 0.087268 0.826204
O O4 0.000000 0.000000 0.000000
O O5 0.009180 0.750000 0.273932
O O6 0.220149 0.944441 0.459572
O O7 0.168927 0.975146 0.316191
O O8 0.869095 0.022278 0.208139
O O9 0.677847 0.250000 0.140405
O O10 0.762996 0.003027 0.253924
O O11 0.500000 0.000000 0.000000
O O12 0.848597 0.750000 0.363294
O O13 0.629852 0.951039 0.280165
O O14 0.000000 0.000000 0.500000
O O15 0.405918 0.750000 0.187199
O O16 0.470052 0.989155 0.289960
O O17 0.490484 0.750000 0.632667
O O18 0.550712 0.515124 0.602854
O O19 0.350735 0.750000 0.380491
#
# Coordination Sequence:
#
# PCOD9166209 Si02
#       7
#     4   4   4   4   4   4   4
#     4  11  22  37  59  89 124 164 207 255 313 375
#     4  10  23  43  65  93 127 165 212 264 319 383
#     4  12  27  47  71  99 133 176 223 280 340 399
#     4  11  25  46  72 103 135 173 223 279 337 399
#     4  11  24  40  62  91 127 165 209 260 313 379
#     4  11  22  37  62  94 129 167 208 257 312 376
#     4  10  22  39  61  89 126 167 207 256 314 377
#
# _framework density 20.509706999999999
#
# number of rings (size 3 to 8) (size 9 to 14) (size 15 to 20)
#    0.000    1.143    1.429    4.286    2.000    6.857 
#    0.000    0.000    0.000    0.000    0.000    0.000 
#    0.000    0.000    0.000    0.000    0.000    0.000 
#
# Total GULP energy -156505.857648 kJ/mol
# GULP energy per Si atom -5589.494916 kJ/mol
# Density = 2.046303 g / cm^3
# Si number density = 20.509707 Si / 1000 Ang^3
#
#
#
# Elastic Constant Matrix: (Units=GPa)
#
#
# Indices 1 2 3 4 5 6 
#
# 1 94.0908 66.8488 49.4136 0.0000 10.5058 0.0000
# 2 66.8488 127.6672 66.4828 0.0000 26.2020 0.0000
# 3 49.4136 66.4828 121.8709 0.0000 16.8256 0.0000
# 4 0.0000 0.0000 0.0000 32.5105 0.0000 6.5755
# 5 10.5058 26.2020 16.8256 0.0000 38.1533 0.0000
# 6 0.0000 0.0000 0.0000 6.5755 0.0000 33.9075
#
#
#
# Elastic Compliance Matrix: (Units=1/GPa)
#
#
# Indices 1 2 3 4 5 6 
#
# 1 0.017789 -0.008144 -0.003052 0.000000 0.002041 0.000000
# 2 -0.008144 0.015732 -0.004363 0.000000 -0.006637 0.000000
# 3 -0.003052 -0.004363 0.012025 0.000000 -0.001466 0.000000
# 4 0.000000 0.000000 0.000000 0.032015 0.000000 -0.006209
# 5 0.002041 -0.006637 -0.001466 0.000000 0.030853 0.000000
# 6 0.000000 0.000000 0.000000 -0.006209 0.000000 0.030696
#
#
# Mechanical properties :
#
#
# Convention : Reuss Voigt Hill
#
# Bulk Modulus (GPa) = 69.31164 78.79102 74.05133
# Shear Modulus (GPa) = 28.56513 31.63983 30.10248
#
# Velocity S-wave (km/s) = 3.73602 3.93195 3.83524
# Velocity P-wave (km/s) = 7.24420 7.68853 7.46967
#
# Compressibility (1/GPa) = 0.01442759
#
# Stress axis : x y z
#
# Youngs Moduli (GPa) = 56.21401 63.56519 83.15669
#
# Poissons Ratio (x) = 0.51770 0.25376
# Poissons Ratio (y) = 0.45783 0.36285
# Poissons Ratio (z) = 0.17154 0.27737
#
# Static dielectric constant tensor:
#      x y z
#    x 1.724770 0.000000 -0.019080 
#    y 0.000000 1.721190 0.000000 
#    z -0.019080 0.000000 1.747150 
# 
# From -- ./inp_files/65429.got.cif
#   From: 2010.05.17/outbox.cif.g08.bks.cpg/sg11_33_cif.got.tgz:65429.got - 2010.06.03 12:22:45.
