data_PCOD9166755
_publ_section_title
;
Structure prediction by ZEFSAII (Michael W. Deem and Ramdas Pophale) SiO2 
 PCOD9166755
Probable space group: P 21/M
;
_chemical_formula_sum "Si O2"
_cell_formula_units_Z 28
_cell_length_a 23.707765
_cell_length_b 8.777221
_cell_length_c 21.521138
_cell_angle_alpha 90.000000
_cell_angle_beta 161.270630
_cell_angle_gamma 90.000000
_cell_volume 1437.974368
_symmetry_space_group_name_H-M "P 21/M"
_symmetry_group_IT_number 11
_symmetry_cell_setting 'monoclinic'
loop_
_space_group_symop_operation_xyz
x,y,z
-x,1/2+y,-z
-x,-y,-z
x,1/2-y,z
loop_
_atom_site_type_symbol
_atom_site_label
_atom_site_fract_x
_atom_site_fract_y
_atom_site_fract_z
Si Si1 0.808831 0.432312 0.815597
Si Si2 0.523919 0.932126 0.956010
Si Si3 0.660281 0.932273 0.540619
Si Si4 0.083636 0.569149 0.293573
Si Si5 0.264997 0.568261 0.116946
Si Si6 0.198063 0.068071 0.542885
Si Si7 0.930635 0.567704 0.362753
O O1 0.810236 0.250000 0.809230
O O2 0.679061 0.506603 0.630180
O O3 0.762534 0.465486 0.838628
O O4 0.000000 0.500000 0.000000
O O5 0.499177 0.750000 0.932908
O O6 0.378826 0.004657 0.760031
O O7 0.722778 0.962989 0.141618
O O8 0.500000 0.000000 0.000000
O O9 0.682728 0.750000 0.564374
O O10 0.466934 0.968036 0.312745
O O11 0.809994 0.007667 0.654995
O O12 0.098141 0.750000 0.312496
O O13 0.164658 0.492723 0.439084
O O14 0.881399 0.519987 0.074233
O O15 0.238312 0.750000 0.080804
O O16 0.200341 0.250000 0.546159
O O17 0.042227 0.006598 0.424276
O O18 0.956786 0.750000 0.389833
O O19 0.000000 0.500000 0.500000
#
# Coordination Sequence:
#
# PCOD9166755 Si02
#       7
#     4   4   4   4   4   4   4
#     4  11  21  36  62  95 128 167 212 264 321 374
#     4  11  23  40  66  98 131 166 208 257 313 373
#     4  11  23  41  65  93 128 168 213 264 319 381
#     4  12  26  44  66  91 125 169 214 265 318 381
#     4  10  23  42  65  92 127 169 213 263 319 380
#     4  12  26  44  67  94 129 171 213 263 318 378
#     4  11  23  40  66  98 131 166 207 257 313 373
#
# _framework density 19.471834000000001
#
# number of rings (size 3 to 8) (size 9 to 14) (size 15 to 20)
#    0.000    0.857    2.857    4.714    0.000    4.571 
#    0.000    0.000    0.000    0.000    0.000    0.000 
#    0.000    0.000    0.000    0.000    0.000    0.000 
#
# Total GULP energy -156692.869021 kJ/mol
# GULP energy per Si atom -5596.173894 kJ/mol
# Density = 1.942752 g / cm^3
# Si number density = 19.471834 Si / 1000 Ang^3
#
#
#
# Elastic Constant Matrix: (Units=GPa)
#
#
# Indices 1 2 3 4 5 6 
#
# 1 40.8580 27.7048 29.3330 0.0000 -12.5335 0.0000
# 2 27.7048 108.8795 76.4155 0.0000 -1.1624 0.0000
# 3 29.3330 76.4155 148.2958 0.0000 -8.2417 0.0000
# 4 0.0000 0.0000 0.0000 37.5686 0.0000 -5.7371
# 5 -12.5335 -1.1624 -8.2417 0.0000 34.3605 0.0000
# 6 0.0000 0.0000 0.0000 -5.7371 0.0000 29.7821
#
#
#
# Elastic Compliance Matrix: (Units=1/GPa)
#
#
# Indices 1 2 3 4 5 6 
#
# 1 0.034621 -0.006793 -0.002695 0.000000 0.011752 0.000000
# 2 -0.006793 0.015779 -0.006988 0.000000 -0.003620 0.000000
# 3 -0.002695 -0.006988 0.010956 0.000000 0.001409 0.000000
# 4 0.000000 0.000000 0.000000 0.027425 0.000000 0.005283
# 5 0.011752 -0.003620 0.001409 0.000000 0.033605 0.000000
# 6 0.000000 0.000000 0.000000 0.005283 0.000000 0.034595
#
#
# Mechanical properties :
#
#
# Convention : Reuss Voigt Hill
#
# Bulk Modulus (GPa) = 35.20657 62.77111 48.98884
# Shear Modulus (GPa) = 25.07531 31.31424 28.19477
#
# Velocity S-wave (km/s) = 3.59245 4.01456 3.80936
# Velocity P-wave (km/s) = 5.94370 7.33456 6.67546
#
# Compressibility (1/GPa) = 0.02840379
#
# Stress axis : x y z
#
# Youngs Moduli (GPa) = 28.88454 63.37574 91.27775
#
# Poissons Ratio (x) = 0.43049 0.24596
# Poissons Ratio (y) = 0.19620 0.63788
# Poissons Ratio (z) = 0.07783 0.44289
#
# Static dielectric constant tensor:
#      x y z
#    x 1.667090 0.000000 0.004290 
#    y 0.000000 1.650360 0.000000 
#    z 0.004290 0.000000 1.676940 
# 
# From -- ./inp_files/66752.got.cif
#   From: 2010.05.17/outbox.cif.g08.bks.cpg/sg11_34_cif.got.tgz:66752.got - 2010.06.03 12:22:45.
