data_PCOD9166576
_publ_section_title
;
Structure prediction by ZEFSAII (Michael W. Deem and Ramdas Pophale) SiO2 
 PCOD9166576
Probable space group: P 21/M
;
_chemical_formula_sum "Si O2"
_cell_formula_units_Z 28
_cell_length_a 14.128438
_cell_length_b 17.990479
_cell_length_c 5.196603
_cell_angle_alpha 90.000000
_cell_angle_beta 71.218176
_cell_angle_gamma 90.000000
_cell_volume 1250.525043
_symmetry_space_group_name_H-M "P 21/M"
_symmetry_group_IT_number 11
_symmetry_cell_setting 'monoclinic'
loop_
_space_group_symop_operation_xyz
x,y,z
-x,1/2+y,-z
-x,-y,-z
x,1/2-y,z
loop_
_atom_site_type_symbol
_atom_site_label
_atom_site_fract_x
_atom_site_fract_y
_atom_site_fract_z
Si Si1 0.736847 0.899387 0.071792
Si Si2 0.569884 0.662775 0.569473
Si Si3 0.558244 0.338178 0.827094
Si Si4 0.118031 0.479270 0.731365
Si Si5 0.058944 0.900131 0.166052
Si Si6 0.950458 0.750000 0.156221
Si Si7 0.264675 0.952769 0.229241
Si Si8 0.188067 0.250000 0.223519
O O1 0.664564 0.878318 0.369068
O O2 0.846034 0.920252 0.087273
O O3 0.748803 0.825888 0.883200
O O4 0.702462 0.976750 0.972115
O O5 0.595010 0.750000 0.559620
O O6 0.485240 0.653528 0.421821
O O7 0.525068 0.641496 0.884909
O O8 0.582018 0.250000 0.844564
O O9 0.650794 0.392733 0.791261
O O10 0.219366 0.507169 0.516549
O O11 0.038849 0.438279 0.618309
O O12 0.070199 0.552016 0.896792
O O13 0.165424 0.911917 0.204675
O O14 0.023749 0.818870 0.135858
O O15 0.864265 0.750000 0.452467
O O16 0.896556 0.750000 0.926772
#
# Coordination Sequence:
#
# PCOD9166576 Si02
#       8
#     4   4   4   4   4   2   4   2
#     4  11  24  42  70 102 133 177 221 281 344 401
#     4  10  23  45  70  99 136 177 219 282 345 392
#     4  10  25  46  68  98 138 178 227 278 330 400
#     4  10  22  43  64  97 136 176 221 280 333 403
#     4  10  23  41  65  95 136 179 223 272 341 389
#     4  12  26  42  68 100 133 179 228 278 324 405
#     4  11  25  41  68  98 134 185 225 278 331 399
#     4  12  26  44  68 104 137 169 230 284 332 405
#
# _framework density 22.390595999999999
#
# number of rings (size 3 to 8) (size 9 to 14) (size 15 to 20)
#    0.000    1.429    2.143    1.286    9.000    1.143 
#    1.286    0.000    0.000    0.000    0.000    0.000 
#    0.000    0.000    0.000    0.000    0.000    0.000 
#
# Total GULP energy -156499.049887 kJ/mol
# GULP energy per Si atom -5589.251782 kJ/mol
# Density = 2.233963 g / cm^3
# Si number density = 22.390596 Si / 1000 Ang^3
#
#
#
# Elastic Constant Matrix: (Units=GPa)
#
#
# Indices 1 2 3 4 5 6 
#
# 1 94.2097 59.9326 3.7978 0.0000 -9.8855 0.0000
# 2 59.9326 111.2122 -7.2697 0.0000 -10.9701 0.0000
# 3 3.7978 -7.2697 47.1819 0.0000 -3.5921 0.0000
# 4 0.0000 0.0000 0.0000 50.8814 0.0000 -22.1653
# 5 -9.8855 -10.9701 -3.5921 0.0000 32.2918 0.0000
# 6 0.0000 0.0000 0.0000 -22.1653 0.0000 51.6962
#
#
#
# Elastic Compliance Matrix: (Units=1/GPa)
#
#
# Indices 1 2 3 4 5 6 
#
# 1 0.016586 -0.008934 -0.002578 0.000000 0.001756 0.000000
# 2 -0.008934 0.014251 0.003101 0.000000 0.002451 0.000000
# 3 -0.002578 0.003101 0.022087 0.000000 0.002721 0.000000
# 4 0.000000 0.000000 0.000000 0.024168 0.000000 0.010362
# 5 0.001756 0.002451 0.002721 0.000000 0.032641 0.000000
# 6 0.000000 0.000000 0.000000 0.010362 0.000000 0.023787
#
#
# Mechanical properties :
#
#
# Convention : Reuss Voigt Hill
#
# Bulk Modulus (GPa) = 27.69785 40.61392 34.15588
# Shear Modulus (GPa) = 30.79328 40.05007 35.42168
#
# Velocity S-wave (km/s) = 3.71250 4.23389 3.98174
# Velocity P-wave (km/s) = 5.54743 6.48686 6.03545
#
# Compressibility (1/GPa) = 0.03610389
#
# Stress axis : x y z
#
# Youngs Moduli (GPa) = 60.29202 70.17217 45.27525
#
# Poissons Ratio (x) = 0.62688 0.11671
# Poissons Ratio (y) = 0.53862 -0.14042
# Poissons Ratio (z) = 0.15542 -0.21763
#
# Static dielectric constant tensor:
#      x y z
#    x 1.862200 0.000000 0.009300 
#    y 0.000000 1.804650 0.000000 
#    z 0.009300 0.000000 1.894370 
# 
# From -- ./inp_files/6790.got.cif
#   From: 2010.05.17/outbox.cif.g08.bks.cpg/sg11_4_cif.got.tgz:6790.got - 2010.06.03 12:22:45.
