data_PCOD9166604
_publ_section_title
;
Structure prediction by ZEFSAII (Michael W. Deem and Ramdas Pophale) SiO2 
 PCOD9166604
Probable space group: P 21/M
;
_chemical_formula_sum "Si O2"
_cell_formula_units_Z 32
_cell_length_a 12.063040
_cell_length_b 13.544436
_cell_length_c 11.719123
_cell_angle_alpha 90.000000
_cell_angle_beta 38.556803
_cell_angle_gamma 90.000000
_cell_volume 1193.446925
_symmetry_space_group_name_H-M "P 21/M"
_symmetry_group_IT_number 11
_symmetry_cell_setting 'monoclinic'
loop_
_space_group_symop_operation_xyz
x,y,z
-x,1/2+y,-z
-x,-y,-z
x,1/2-y,z
loop_
_atom_site_type_symbol
_atom_site_label
_atom_site_fract_x
_atom_site_fract_y
_atom_site_fract_z
Si Si1 0.800965 0.134531 0.533168
Si Si2 0.974738 0.632823 0.425055
Si Si3 0.542359 0.086109 0.562505
Si Si4 0.394741 0.084298 0.163327
Si Si5 0.165881 0.144201 0.818791
Si Si6 0.752662 0.078748 0.991658
Si Si7 0.156853 0.587890 0.818175
Si Si8 0.189693 0.141931 0.108487
O O1 0.746856 0.250000 0.581504
O O2 0.876139 0.108350 0.598439
O O3 0.634899 0.074605 0.611538
O O4 0.982957 0.126827 0.313215
O O5 0.944417 0.750000 0.453288
O O6 0.080300 0.607599 0.223201
O O7 0.782830 0.583214 0.608413
O O8 0.701995 0.140172 0.372132
O O9 0.500000 0.000000 0.500000
O O10 0.363543 0.144108 0.704351
O O11 0.565584 0.121769 0.097364
O O12 0.302021 0.143923 0.136777
O O13 0.135726 0.250000 0.780958
O O14 0.141457 0.029001 0.794763
O O15 0.031445 0.138287 0.031784
O O16 0.783566 0.102460 0.098949
O O17 0.744545 0.960202 0.997991
O O18 0.500000 0.000000 0.000000
O O19 0.221636 0.250000 0.034346
#
# Coordination Sequence:
#
# PCOD9166604 Si02
#       8
#     4   4   4   4   4   4   4   4
#     4   9  19  39  68 100 131 174 231 293 350 400
#     4  10  23  45  71 105 148 189 237 293 349 427
#     4  10  22  43  68  99 138 177 231 300 356 413
#     4   9  20  41  65  97 136 184 233 287 344 409
#     4  10  23  45  71  99 134 185 242 296 356 415
#     4  11  24  43  70 104 147 193 231 279 361 438
#     4  10  25  45  67 104 144 183 233 295 353 427
#     4   9  20  39  66 100 137 179 232 291 345 405
#
# _framework density 26.813091
#
# number of rings (size 3 to 8) (size 9 to 14) (size 15 to 20)
#    0.000    2.250    0.000    1.500    5.250    8.500 
#   15.750    0.000    0.000    3.750    0.000    0.000 
#    0.000    0.000    0.000    0.000    0.000    0.000 
#
# Total GULP energy -178433.341321 kJ/mol
# GULP energy per Si atom -5576.041916 kJ/mol
# Density = 2.675206 g / cm^3
# Si number density = 26.813091 Si / 1000 Ang^3
#
#
#
# Elastic Constant Matrix: (Units=GPa)
#
#
# Indices 1 2 3 4 5 6 
#
# 1 153.8918 40.5526 52.1593 0.0000 -29.5769 0.0000
# 2 40.5526 163.4566 44.8197 0.0000 -25.8721 0.0000
# 3 52.1593 44.8197 183.8773 0.0000 -33.1016 0.0000
# 4 0.0000 0.0000 0.0000 11.2711 0.0000 5.1793
# 5 -29.5769 -25.8721 -33.1016 0.0000 51.7411 0.0000
# 6 0.0000 0.0000 0.0000 5.1793 0.0000 32.0059
#
#
#
# Elastic Compliance Matrix: (Units=1/GPa)
#
#
# Indices 1 2 3 4 5 6 
#
# 1 0.007846 -0.001077 -0.001416 0.000000 0.003041 0.000000
# 2 -0.001077 0.007016 -0.000999 0.000000 0.002253 0.000000
# 3 -0.001416 -0.000999 0.006609 0.000000 0.002919 0.000000
# 4 0.000000 0.000000 0.000000 0.095850 0.000000 -0.015511
# 5 0.003041 0.002253 0.002919 0.000000 0.024060 0.000000
# 6 0.000000 0.000000 0.000000 -0.015511 0.000000 0.033754
#
#
# Mechanical properties :
#
#
# Convention : Reuss Voigt Hill
#
# Bulk Modulus (GPa) = 69.02541 86.25434 77.63988
# Shear Modulus (GPa) = 26.74554 43.24988 34.99771
#
# Velocity S-wave (km/s) = 3.16172 4.02059 3.61674
# Velocity P-wave (km/s) = 6.25521 7.33431 6.81615
#
# Compressibility (1/GPa) = 0.01448742
#
# Stress axis : x y z
#
# Youngs Moduli (GPa) = 127.45080 142.53960 151.30826
#
# Poissons Ratio (x) = 0.15353 0.21421
# Poissons Ratio (y) = 0.13728 0.15114
# Poissons Ratio (z) = 0.18043 0.14238
#
# Static dielectric constant tensor:
#      x y z
#    x 2.309440 0.000000 -0.011200 
#    y 0.000000 2.157630 0.000000 
#    z -0.011200 0.000000 2.157440 
# 
# From -- ./inp_files/60473.got.cif
#   From: 2010.05.17/outbox.cif.g08.bks.cpg/sg11_31_cif.got.tgz:60473.got - 2010.06.03 12:22:45.
