data_PCOD9166866
_publ_section_title
;
Structure prediction by ZEFSAII (Michael W. Deem and Ramdas Pophale) SiO2 
 PCOD9166866
Probable space group: P 21/M
;
_chemical_formula_sum "Si O2"
_cell_formula_units_Z 20
_cell_length_a 7.229068
_cell_length_b 14.576742
_cell_length_c 9.649546
_cell_angle_alpha 90.000000
_cell_angle_beta 46.994976
_cell_angle_gamma 90.000000
_cell_volume 743.603811
_symmetry_space_group_name_H-M "P 21/M"
_symmetry_group_IT_number 11
_symmetry_cell_setting 'monoclinic'
loop_
_space_group_symop_operation_xyz
x,y,z
-x,1/2+y,-z
-x,-y,-z
x,1/2-y,z
loop_
_atom_site_type_symbol
_atom_site_label
_atom_site_fract_x
_atom_site_fract_y
_atom_site_fract_z
Si Si1 0.287240 0.424871 0.573155
Si Si2 0.773824 0.350921 0.297375
Si Si3 0.518593 0.857709 0.087243
Si Si4 0.998119 0.357005 0.472902
Si Si5 0.773024 0.050922 0.005490
O O1 0.500000 0.500000 0.500000
O O2 0.481430 0.342289 0.494675
O O3 0.186619 0.419066 0.466627
O O4 0.040608 0.428983 0.793508
O O5 0.862842 0.250000 0.214341
O O6 0.780798 0.410133 0.155477
O O7 0.308160 0.443574 0.952994
O O8 0.597537 0.750000 0.045793
O O9 0.059781 0.883186 0.655859
O O10 0.428540 0.890320 0.980874
O O11 0.269806 0.860677 0.311113
O O12 0.081389 0.250000 0.433194
#
# Coordination Sequence:
#
# PCOD9166866 Si02
#       5
#     4   4   4   4   4
#     4  11  26  49  78 112 159 208 263 328 398 482
#     4  11  25  47  78 117 157 208 270 332 402 469
#     4   9  19  43  78 116 161 213 270 334 406 476
#     4   9  21  46  77 112 157 208 261 328 401 476
#     4  10  23  46  79 116 158 212 273 335 396 478
#
# _framework density 26.896042000000001
#
# number of rings (size 3 to 8) (size 9 to 14) (size 15 to 20)
#    0.000    2.000    0.000    1.200    2.800    4.000 
#    7.200    5.000    0.000    3.600    0.000    1.400 
#    0.000    0.000    0.000    0.000    0.000    0.000 
#
# Total GULP energy -112019.999955 kJ/mol
# GULP energy per Si atom -5600.999998 kJ/mol
# Density = 2.683483 g / cm^3
# Si number density = 26.896042 Si / 1000 Ang^3
#
#
#
# Elastic Constant Matrix: (Units=GPa)
#
#
# Indices 1 2 3 4 5 6 
#
# 1 258.3191 115.5377 74.9965 0.0000 15.4908 0.0000
# 2 115.5377 227.8510 82.5196 0.0000 6.7334 0.0000
# 3 74.9965 82.5196 137.1108 0.0000 -1.8767 0.0000
# 4 0.0000 0.0000 0.0000 28.8104 0.0000 11.2897
# 5 15.4908 6.7334 -1.8767 0.0000 63.6146 0.0000
# 6 0.0000 0.0000 0.0000 11.2897 0.0000 10.6541
#
#
#
# Elastic Compliance Matrix: (Units=1/GPa)
#
#
# Indices 1 2 3 4 5 6 
#
# 1 0.005358 -0.002067 -0.001702 0.000000 -0.001136 0.000000
# 2 -0.002067 0.006440 -0.002749 0.000000 -0.000259 0.000000
# 3 -0.001702 -0.002749 0.009893 0.000000 0.000997 0.000000
# 4 0.000000 0.000000 0.000000 0.059357 0.000000 -0.062899
# 5 -0.001136 -0.000259 0.000997 0.000000 0.016053 0.000000
# 6 0.000000 0.000000 0.000000 -0.062899 0.000000 0.160512
#
#
# Mechanical properties :
#
#
# Convention : Reuss Voigt Hill
#
# Bulk Modulus (GPa) = 115.54795 129.93207 122.74001
# Shear Modulus (GPa) = 18.27923 43.96429 31.12176
#
# Velocity S-wave (km/s) = 2.60979 4.04741 3.40533
# Velocity P-wave (km/s) = 7.22050 8.38188 7.82277
#
# Compressibility (1/GPa) = 0.00865442
#
# Stress axis : x y z
#
# Youngs Moduli (GPa) = 186.63845 155.27668 101.08510
#
# Poissons Ratio (x) = 0.32092 0.17208
# Poissons Ratio (y) = 0.38574 0.27789
# Poissons Ratio (z) = 0.31772 0.42686
#
# Static dielectric constant tensor:
#      x y z
#    x 2.065650 0.000000 -0.061110 
#    y 0.000000 2.372260 0.000000 
#    z -0.061110 0.000000 2.148220 
# 
# From -- ./inp_files/60445.got.cif
#   From: 2010.05.17/outbox.cif.g08.bks.cpg/sg11_31_cif.got.tgz:60445.got - 2010.06.03 12:22:45.
