data_PCOD9166289
_publ_section_title
;
Structure prediction by ZEFSAII (Michael W. Deem and Ramdas Pophale) SiO2 
 PCOD9166289
Probable space group: P 21/M
;
_chemical_formula_sum "Si O2"
_cell_formula_units_Z 24
_cell_length_a 9.693936
_cell_length_b 9.103768
_cell_length_c 12.943134
_cell_angle_alpha 90.000000
_cell_angle_beta 79.169519
_cell_angle_gamma 90.000000
_cell_volume 1121.902581
_symmetry_space_group_name_H-M "P 21/M"
_symmetry_group_IT_number 11
_symmetry_cell_setting 'monoclinic'
loop_
_space_group_symop_operation_xyz
x,y,z
-x,1/2+y,-z
-x,-y,-z
x,1/2-y,z
loop_
_atom_site_type_symbol
_atom_site_label
_atom_site_fract_x
_atom_site_fract_y
_atom_site_fract_z
Si Si1 0.477166 0.425481 0.815496
Si Si2 0.222912 0.575503 0.949720
Si Si3 0.964971 0.576333 0.848875
Si Si4 0.142643 0.579564 0.513913
Si Si5 0.613730 0.925703 0.408052
Si Si6 0.786162 0.080611 0.726687
O O1 0.470120 0.250000 0.833381
O O2 0.374205 0.507882 0.907334
O O3 0.425979 0.454269 0.705374
O O4 0.640181 0.469919 0.797577
O O5 0.230964 0.750000 0.963560
O O6 0.122421 0.544540 0.864640
O O7 0.139376 0.502516 0.055640
O O8 0.945287 0.750000 0.856857
O O9 0.916567 0.515177 0.745999
O O10 0.119581 0.750000 0.546371
O O11 0.235514 0.493862 0.583812
O O12 0.230578 0.578498 0.394013
O O13 0.000000 0.500000 0.500000
O O14 0.614100 0.750000 0.424015
O O15 0.500000 0.000000 0.500000
O O16 0.812271 0.250000 0.752627
#
# Coordination Sequence:
#
# PCOD9166289 Si02
#       6
#     4   4   4   4   4   4
#     4  10  22  40  61  87 119 158 200 241 295 355
#     4  10  22  40  62  90 118 152 196 243 297 355
#     4  10  22  40  62  89 119 153 195 244 296 354
#     4  11  24  42  61  89 124 162 206 252 302 359
#     4  11  22  40  63  89 122 164 204 249 301 355
#     4  10  22  41  61  85 120 159 197 243 297 353
#
# _framework density 21.392233000000001
#
# number of rings (size 3 to 8) (size 9 to 14) (size 15 to 20)
#    0.000    1.667    1.667    2.000    2.333    6.000 
#    0.000    0.000    0.000    0.000    0.000    0.000 
#    0.000    0.000    0.000    0.000    0.000    0.000 
#
# Total GULP energy -134225.675344 kJ/mol
# GULP energy per Si atom -5592.736473 kJ/mol
# Density = 2.134354 g / cm^3
# Si number density = 21.392233 Si / 1000 Ang^3
#
#
#
# Elastic Constant Matrix: (Units=GPa)
#
#
# Indices 1 2 3 4 5 6 
#
# 1 96.0789 33.2121 -0.5690 0.0000 0.7980 0.0000
# 2 33.2121 55.0229 9.2393 0.0000 4.5805 0.0000
# 3 -0.5690 9.2393 30.1466 0.0000 0.2417 0.0000
# 4 0.0000 0.0000 0.0000 28.9471 0.0000 0.9180
# 5 0.7980 4.5805 0.2417 0.0000 43.7549 0.0000
# 6 0.0000 0.0000 0.0000 0.9180 0.0000 35.9974
#
#
#
# Elastic Compliance Matrix: (Units=1/GPa)
#
#
# Indices 1 2 3 4 5 6 
#
# 1 0.013403 -0.008629 0.002892 0.000000 0.000643 0.000000
# 2 -0.008629 0.024888 -0.007771 0.000000 -0.002405 0.000000
# 3 0.002892 -0.007771 0.035603 0.000000 0.000564 0.000000
# 4 0.000000 0.000000 0.000000 0.034574 0.000000 -0.000882
# 5 0.000643 -0.002405 0.000564 0.000000 0.023092 0.000000
# 6 0.000000 0.000000 0.000000 -0.000882 0.000000 0.027802
#
#
# Mechanical properties :
#
#
# Convention : Reuss Voigt Hill
#
# Bulk Modulus (GPa) = 21.33203 29.44592 25.38898
# Shear Modulus (GPa) = 24.75208 31.03094 27.89151
#
# Velocity S-wave (km/s) = 3.40525 3.81277 3.61475
# Velocity P-wave (km/s) = 5.04524 5.76000 5.41443
#
# Compressibility (1/GPa) = 0.04687785
#
# Stress axis : x y z
#
# Youngs Moduli (GPa) = 74.61130 40.18000 28.08754
#
# Poissons Ratio (x) = 0.34672 -0.08124
# Poissons Ratio (y) = 0.64384 0.21827
# Poissons Ratio (z) = -0.21581 0.31225
#
# Static dielectric constant tensor:
#      x y z
#    x 1.766690 0.000000 0.008930 
#    y 0.000000 1.713260 0.000000 
#    z 0.008930 0.000000 1.812410 
# 
# From -- ./inp_files/46474.got.cif
#   From: 2010.05.17/outbox.cif.g08.bks.cpg/sg11_24_cif.got.tgz:46474.got - 2010.06.03 12:22:45.
