data_PCOD9166621
_publ_section_title
;
Structure prediction by ZEFSAII (Michael W. Deem and Ramdas Pophale) SiO2 
 PCOD9166621
Probable space group: P 21/M
;
_chemical_formula_sum "Si O2"
_cell_formula_units_Z 28
_cell_length_a 6.013176
_cell_length_b 28.251975
_cell_length_c 8.606554
_cell_angle_alpha 90.000000
_cell_angle_beta 121.541897
_cell_angle_gamma 90.000000
_cell_volume 1246.100425
_symmetry_space_group_name_H-M "P 21/M"
_symmetry_group_IT_number 11
_symmetry_cell_setting 'monoclinic'
loop_
_space_group_symop_operation_xyz
x,y,z
-x,1/2+y,-z
-x,-y,-z
x,1/2-y,z
loop_
_atom_site_type_symbol
_atom_site_label
_atom_site_fract_x
_atom_site_fract_y
_atom_site_fract_z
Si Si1 0.339231 0.250000 0.206419
Si Si2 0.572610 0.925893 0.988861
Si Si3 0.121687 0.150845 0.073039
Si Si4 0.975509 0.250000 0.397495
Si Si5 0.083026 0.983014 0.198289
Si Si6 0.891097 0.854433 0.564083
Si Si7 0.930420 0.045045 0.369118
Si Si8 0.626388 0.108759 0.755223
O O1 0.238291 0.202349 0.091237
O O2 0.655553 0.250000 0.298355
O O3 0.173890 0.250000 0.313726
O O4 0.669944 0.888361 0.898513
O O5 0.350266 0.955388 0.818193
O O6 0.461620 0.900188 0.099626
O O7 0.818995 0.954700 0.144616
O O8 0.048539 0.146576 0.228926
O O9 0.883351 0.139946 0.871414
O O10 0.039698 0.303241 0.481734
O O11 0.305062 0.943632 0.282770
O O12 0.132962 0.031757 0.305822
O O13 0.000000 0.000000 0.000000
O O14 0.588375 0.864958 0.423398
O O15 0.028502 0.902418 0.550814
O O16 0.000000 0.000000 0.500000
#
# Coordination Sequence:
#
# PCOD9166621 Si02
#       8
#     2   4   4   2   4   4   4   4
#     4  10  22  43  81 104 141 185 245 302 379 431
#     4  11  22  43  62  91 142 178 235 295 352 429
#     4  10  23  44  69  99 133 184 233 300 357 436
#     4  10  24  49  75 110 141 189 239 314 363 435
#     4  11  23  40  60  90 135 184 229 290 352 422
#     4  11  24  46  71  99 141 182 239 294 365 437
#     4  12  24  37  65 102 133 188 235 287 366 435
#     4  11  24  43  66  99 139 186 235 287 361 429
#
# _framework density 22.470096999999999
#
# number of rings (size 3 to 8) (size 9 to 14) (size 15 to 20)
#    0.000    1.143    2.857    3.000    6.000    1.143 
#   10.286    0.714    0.000    0.000    0.000    0.000 
#    0.000    0.000    0.000    0.000    0.000    0.000 
#
# Total GULP energy -156054.431422 kJ/mol
# GULP energy per Si atom -5573.372551 kJ/mol
# Density = 2.241895 g / cm^3
# Si number density = 22.470097 Si / 1000 Ang^3
#
#
#
# Elastic Constant Matrix: (Units=GPa)
#
#
# Indices 1 2 3 4 5 6 
#
# 1 63.5488 28.0514 5.3818 0.0000 18.7429 0.0000
# 2 28.0514 160.9089 18.3186 0.0000 8.4788 0.0000
# 3 5.3818 18.3186 61.1604 0.0000 19.7832 0.0000
# 4 0.0000 0.0000 0.0000 22.1581 0.0000 1.5513
# 5 18.7429 8.4788 19.7832 0.0000 25.0578 0.0000
# 6 0.0000 0.0000 0.0000 1.5513 0.0000 36.5624
#
#
#
# Elastic Compliance Matrix: (Units=1/GPa)
#
#
# Indices 1 2 3 4 5 6 
#
# 1 0.022814 -0.003547 0.005622 0.000000 -0.020303 0.000000
# 2 -0.003547 0.007000 -0.002520 0.000000 0.002274 0.000000
# 3 0.005622 -0.002520 0.023764 0.000000 -0.022114 0.000000
# 4 0.000000 0.000000 0.000000 0.045265 0.000000 -0.001921
# 5 -0.020303 0.002274 -0.022114 0.000000 0.071784 0.000000
# 6 0.000000 0.000000 0.000000 -0.001921 0.000000 0.027432
#
#
# Mechanical properties :
#
#
# Convention : Reuss Voigt Hill
#
# Bulk Modulus (GPa) = 18.98004 43.23573 31.10789
# Shear Modulus (GPa) = 23.09354 32.34676 27.72015
#
# Velocity S-wave (km/s) = 3.20932 3.79825 3.51614
# Velocity P-wave (km/s) = 4.71149 6.20636 5.50986
#
# Compressibility (1/GPa) = 0.05268692
#
# Stress axis : x y z
#
# Youngs Moduli (GPa) = 43.83319 142.85353 42.08106
#
# Poissons Ratio (x) = 0.50676 -0.23659
# Poissons Ratio (y) = 0.15549 0.10605
# Poissons Ratio (z) = -0.24644 0.36002
#
# Static dielectric constant tensor:
#      x y z
#    x 1.870960 0.000000 0.060120 
#    y 0.000000 1.857980 0.000000 
#    z 0.060120 0.000000 1.635770 
# 
# From -- ./inp_files/10904.got.cif
#   From: 2010.05.17/outbox.cif.g08.bks.cpg/sg11_6_cif.got.tgz:10904.got - 2010.06.03 12:22:45.
