data_PCOD9166257
_publ_section_title
;
Structure prediction by ZEFSAII (Michael W. Deem and Ramdas Pophale) SiO2 
 PCOD9166257
Probable space group: P 21/M
;
_chemical_formula_sum "Si O2"
_cell_formula_units_Z 30
_cell_length_a 5.768001
_cell_length_b 16.689498
_cell_length_c 14.434249
_cell_angle_alpha 90.000000
_cell_angle_beta 107.517125
_cell_angle_gamma 90.000000
_cell_volume 1325.077704
_symmetry_space_group_name_H-M "P 21/M"
_symmetry_group_IT_number 11
_symmetry_cell_setting 'monoclinic'
loop_
_space_group_symop_operation_xyz
x,y,z
-x,1/2+y,-z
-x,-y,-z
x,1/2-y,z
loop_
_atom_site_type_symbol
_atom_site_label
_atom_site_fract_x
_atom_site_fract_y
_atom_site_fract_z
Si Si1 0.427241 0.614949 0.731895
Si Si2 0.613310 0.066227 0.759944
Si Si3 0.093766 0.464530 0.915292
Si Si4 0.193836 0.638864 0.883054
Si Si5 0.541799 0.659881 0.082823
Si Si6 0.964255 0.093162 0.464933
Si Si7 0.762982 0.750000 0.760229
Si Si8 0.516397 0.093617 0.535526
O O1 0.547290 0.527995 0.755957
O O2 0.383229 0.659944 0.824339
O O3 0.169377 0.601176 0.650021
O O4 0.590768 0.678078 0.696950
O O5 0.469583 0.117668 0.819003
O O6 0.571420 0.094213 0.651185
O O7 0.888495 0.073783 0.827286
O O8 0.186351 0.543138 0.874671
O O9 0.294758 0.398821 0.958596
O O10 0.000000 0.500000 0.000000
O O11 0.943236 0.680768 0.828400
O O12 0.288243 0.660249 0.996375
O O13 0.632493 0.750000 0.099727
O O14 0.755537 0.126124 0.510274
O O15 0.239389 0.126794 0.492775
O O16 0.000000 0.000000 0.500000
O O17 0.500000 0.000000 0.500000
#
# Coordination Sequence:
#
# PCOD9166257 Si02
#       8
#     4   4   4   4   4   4   2   4
#     4  12  25  43  72 108 144 193 252 312 392 468
#     4  12  24  43  75 103 143 193 256 308 381 477
#     4  12  25  42  72 104 143 195 255 309 376 472
#     4  12  25  44  68 101 149 190 245 311 385 464
#     4  12  28  47  70 105 147 200 253 322 390 460
#     4  10  22  40  71 109 145 189 249 310 383 461
#     4  12  28  42  70 106 148 192 248 316 392 450
#     4  10  22  39  70 111 141 195 250 311 379 459
#
# _framework density 22.640179
#
# number of rings (size 3 to 8) (size 9 to 14) (size 15 to 20)
#    0.000    0.533    7.333    1.600    7.467    0.533 
#    0.000    0.000    2.933    0.000    0.000    0.000 
#    0.000    0.000    0.000    0.000    0.000    0.000 
#
# Total GULP energy -167076.308043 kJ/mol
# GULP energy per Si atom -5569.210268 kJ/mol
# Density = 2.258865 g / cm^3
# Si number density = 22.640179 Si / 1000 Ang^3
#
#
#
# Elastic Constant Matrix: (Units=GPa)
#
#
# Indices 1 2 3 4 5 6 
#
# 1 114.9394 25.1163 35.6312 0.0000 10.9391 0.0000
# 2 25.1163 120.5128 3.7387 0.0000 3.7442 0.0000
# 3 35.6312 3.7387 122.3669 0.0000 5.1497 0.0000
# 4 0.0000 0.0000 0.0000 -6.7450 0.0000 20.5815
# 5 10.9391 3.7442 5.1497 0.0000 49.7955 0.0000
# 6 0.0000 0.0000 0.0000 20.5815 0.0000 29.7697
#
#
#
# Elastic Compliance Matrix: (Units=1/GPa)
#
#
# Indices 1 2 3 4 5 6 
#
# 1 0.010180 -0.001978 -0.002828 0.000000 -0.001795 0.000000
# 2 -0.001978 0.008708 0.000321 0.000000 -0.000253 0.000000
# 3 -0.002828 0.000321 0.009000 0.000000 -0.000334 0.000000
# 4 0.000000 0.000000 0.000000 -0.047678 0.000000 0.032962
# 5 -0.001795 -0.000253 -0.000334 0.000000 0.020530 0.000000
# 6 0.000000 0.000000 0.000000 0.032962 0.000000 0.010802
#
#
# Mechanical properties :
#
#
# Convention : Reuss Voigt Hill
#
# Bulk Modulus (GPa) = 52.86401 54.08793 53.47597
# Shear Modulus (GPa) = 186.42876 34.11957 110.27416
#
# Velocity S-wave (km/s) = 9.08422 3.88627 6.98663
# Velocity P-wave (km/s) = 11.55123 6.63924 9.42100
#
# Compressibility (1/GPa) = 0.01891646
#
# Stress axis : x y z
#
# Youngs Moduli (GPa) = 98.23072 114.83605 111.11184
#
# Poissons Ratio (x) = 0.22716 0.31426
# Poissons Ratio (y) = 0.19431 -0.03562
# Poissons Ratio (z) = 0.27783 -0.03682
#
# Static dielectric constant tensor:
#      x y z
#    x 1.966100 0.000000 -0.077870 
#    y 0.000000 1.834060 0.000000 
#    z -0.077870 0.000000 1.832600 
# 
# From -- ./inp_files/46075.got.cif
#   From: 2010.05.17/outbox.cif.g08.bks.cpg/sg11_24_cif.got.tgz:46075.got - 2010.06.03 12:22:45.
