data_PCOD9166562
_publ_section_title
;
Structure prediction by ZEFSAII (Michael W. Deem and Ramdas Pophale) SiO2 
 PCOD9166562
Probable space group: P 21/M
;
_chemical_formula_sum "Si O2"
_cell_formula_units_Z 16
_cell_length_a 4.713258
_cell_length_b 21.845536
_cell_length_c 6.129659
_cell_angle_alpha 90.000000
_cell_angle_beta 86.657382
_cell_angle_gamma 90.000000
_cell_volume 630.058317
_symmetry_space_group_name_H-M "P 21/M"
_symmetry_group_IT_number 11
_symmetry_cell_setting 'monoclinic'
loop_
_space_group_symop_operation_xyz
x,y,z
-x,1/2+y,-z
-x,-y,-z
x,1/2-y,z
loop_
_atom_site_type_symbol
_atom_site_label
_atom_site_fract_x
_atom_site_fract_y
_atom_site_fract_z
Si Si1 0.103259 0.906245 0.078783
Si Si2 0.746914 0.818455 0.775696
Si Si3 0.776984 0.364964 0.484719
Si Si4 0.726672 0.486579 0.295694
O O1 0.278959 0.871392 0.257852
O O2 0.891545 0.954528 0.203383
O O3 0.909339 0.858532 0.952154
O O4 0.319723 0.948570 0.928575
O O5 0.674599 0.750000 0.854583
O O6 0.481792 0.848930 0.662988
O O7 0.981361 0.816669 0.573983
O O8 0.901414 0.431496 0.403592
O O9 0.500000 0.500000 0.500000
#
# Coordination Sequence:
#
# PCOD9166562 Si02
#       4
#     4   4   4   4
#     4  10  24  45  71 105 146 190 233 292 370 432
#     4  11  26  46  69 102 141 188 251 304 349 423
#     4  11  24  44  70 103 143 187 237 297 362 430
#     4  10  22  42  71 109 147 182 232 295 362 441
#
# _framework density 25.394473000000001
#
# number of rings (size 3 to 8) (size 9 to 14) (size 15 to 20)
#    0.000    1.500    0.000    3.000    0.000   16.000 
#    0.000    0.000    0.000    6.000    0.000    0.000 
#    0.000    0.000    0.000    0.000    0.000    0.000 
#
# Total GULP energy -89199.186214 kJ/mol
# GULP energy per Si atom -5574.949138 kJ/mol
# Density = 2.533667 g / cm^3
# Si number density = 25.394473 Si / 1000 Ang^3
#
#
#
# Elastic Constant Matrix: (Units=GPa)
#
#
# Indices 1 2 3 4 5 6 
#
# 1 107.6484 58.5447 44.6614 0.0000 7.7975 0.0000
# 2 58.5447 173.6990 83.6803 0.0000 15.0441 0.0000
# 3 44.6614 83.6803 132.1520 0.0000 -0.0697 0.0000
# 4 0.0000 0.0000 0.0000 23.8371 0.0000 -8.4773
# 5 7.7975 15.0441 -0.0697 0.0000 59.3404 0.0000
# 6 0.0000 0.0000 0.0000 -8.4773 0.0000 106.6146
#
#
#
# Elastic Compliance Matrix: (Units=1/GPa)
#
#
# Indices 1 2 3 4 5 6 
#
# 1 0.011809 -0.002857 -0.002182 0.000000 -0.000830 0.000000
# 2 -0.002857 0.009247 -0.004891 0.000000 -0.001975 0.000000
# 3 -0.002182 -0.004891 0.011402 0.000000 0.001540 0.000000
# 4 0.000000 0.000000 0.000000 0.043172 0.000000 0.003433
# 5 -0.000830 -0.001975 0.001540 0.000000 0.017463 0.000000
# 6 0.000000 0.000000 0.000000 0.003433 0.000000 0.009653
#
#
# Mechanical properties :
#
#
# Convention : Reuss Voigt Hill
#
# Bulk Modulus (GPa) = 79.37709 87.47468 83.42588
# Shear Modulus (GPa) = 39.43019 53.06595 46.24807
#
# Velocity S-wave (km/s) = 3.94472 4.57625 4.27217
# Velocity P-wave (km/s) = 7.21618 7.90214 7.56693
#
# Compressibility (1/GPa) = 0.01259809
#
# Stress axis : x y z
#
# Youngs Moduli (GPa) = 84.68321 108.13941 87.70070
#
# Poissons Ratio (x) = 0.30895 0.19138
# Poissons Ratio (y) = 0.24193 0.42895
# Poissons Ratio (z) = 0.18480 0.52892
#
# Static dielectric constant tensor:
#      x y z
#    x 2.017300 0.000000 -0.008690 
#    y 0.000000 2.036140 0.000000 
#    z -0.008690 0.000000 2.199100 
# 
# From -- ./inp_files/451.got.cif
#   From: 2010.05.17/outbox.cif.g08.bks.cpg/sg11_1_cif.got.tgz:451.got - 2010.06.03 12:22:45.
