data_PCOD9166074
_publ_section_title
;
Structure prediction by ZEFSAII (Michael W. Deem and Ramdas Pophale) SiO2 
 PCOD9166074
Probable space group: P 21/M
;
_chemical_formula_sum "Si O2"
_cell_formula_units_Z 28
_cell_length_a 14.745471
_cell_length_b 7.641876
_cell_length_c 20.759992
_cell_angle_alpha 90.000000
_cell_angle_beta 146.795584
_cell_angle_gamma 90.000000
_cell_volume 1281.065208
_symmetry_space_group_name_H-M "P 21/M"
_symmetry_group_IT_number 11
_symmetry_cell_setting 'monoclinic'
loop_
_space_group_symop_operation_xyz
x,y,z
-x,1/2+y,-z
-x,-y,-z
x,1/2-y,z
loop_
_atom_site_type_symbol
_atom_site_label
_atom_site_fract_x
_atom_site_fract_y
_atom_site_fract_z
Si Si1 0.463340 0.454423 0.676110
Si Si2 0.898077 0.538007 0.778129
Si Si3 0.182154 0.944593 0.129264
Si Si4 0.270288 0.538601 0.962160
Si Si5 0.175597 0.536258 0.764343
Si Si6 0.807747 0.963739 0.582442
Si Si7 0.614647 0.047036 0.230824
O O1 0.485827 0.250000 0.672053
O O2 0.647224 0.535630 0.790403
O O3 0.344743 0.529247 0.550502
O O4 0.378410 0.462179 0.695127
O O5 0.889904 0.750000 0.779443
O O6 0.820162 0.454517 0.794821
O O7 0.811602 0.486375 0.659761
O O8 0.092631 0.490391 0.887063
O O9 0.193173 0.750000 0.108566
O O10 0.000000 0.000000 0.000000
O O11 0.279272 0.750000 0.969180
O O12 0.265004 0.482894 0.884046
O O13 0.428131 0.467747 0.092960
O O14 0.180167 0.750000 0.766585
O O15 0.266785 0.473509 0.754552
O O16 0.984246 0.483363 0.656990
O O17 0.807636 0.750000 0.581439
O O18 0.656559 0.250000 0.264703
#
# Coordination Sequence:
#
# PCOD9166074 Si02
#       7
#     4   4   4   4   4   4   4
#     4  10  22  38  54  73 100 137 177 209 244 303
#     4   9  18  34  58  81 100 130 170 210 254 303
#     4  11  23  37  54  78 106 135 168 207 253 304
#     4   9  17  32  53  76 103 135 170 205 248 309
#     4   8  16  31  52  77 103 132 168 210 254 301
#     4   8  16  35  58  76  99 134 172 207 249 304
#     4  11  21  31  48  77 108 136 169 212 257 293
#
# _framework density 21.856811
#
# number of rings (size 3 to 8) (size 9 to 14) (size 15 to 20)
#    0.000    2.571    0.000    3.857    0.000    6.286 
#    0.000    1.429    0.000    3.429    0.000    0.000 
#    0.000    0.000    0.000    0.000    0.000    0.000 
#
# Total GULP energy -156319.503851 kJ/mol
# GULP energy per Si atom -5582.839423 kJ/mol
# Density = 2.180706 g / cm^3
# Si number density = 21.856811 Si / 1000 Ang^3
#
#
#
# Elastic Constant Matrix: (Units=GPa)
#
#
# Indices 1 2 3 4 5 6 
#
# 1 83.4541 -10.7934 5.8096 0.0000 -10.6383 0.0000
# 2 -10.7934 34.6736 1.5182 0.0000 3.4894 0.0000
# 3 5.8096 1.5182 97.5068 0.0000 -13.3402 0.0000
# 4 0.0000 0.0000 0.0000 11.0893 0.0000 -6.0642
# 5 -10.6383 3.4894 -13.3402 0.0000 12.4627 0.0000
# 6 0.0000 0.0000 0.0000 -6.0642 0.0000 17.8399
#
#
#
# Elastic Compliance Matrix: (Units=1/GPa)
#
#
# Indices 1 2 3 4 5 6 
#
# 1 0.013825 0.003092 0.000731 0.000000 0.011719 0.000000
# 2 0.003092 0.030663 -0.001728 0.000000 -0.007795 0.000000
# 3 0.000731 -0.001728 0.012173 0.000000 0.014139 0.000000
# 4 0.000000 0.000000 0.000000 0.110768 0.000000 0.037653
# 5 0.011719 -0.007795 0.014139 0.000000 0.107559 0.000000
# 6 0.000000 0.000000 0.000000 0.037653 0.000000 0.068853
#
#
# Mechanical properties :
#
#
# Convention : Reuss Voigt Hill
#
# Bulk Modulus (GPa) = 16.43304 23.18927 19.81116
# Shear Modulus (GPa) = 13.89137 22.88505 18.38821
#
# Velocity S-wave (km/s) = 2.52377 3.23932 2.90367
# Velocity P-wave (km/s) = 4.00342 4.96221 4.50838
#
# Compressibility (1/GPa) = 0.06085302
#
# Stress axis : x y z
#
# Youngs Moduli (GPa) = 72.33017 32.61246 82.14645
#
# Poissons Ratio (x) = -0.10085 -0.06008
# Poissons Ratio (y) = -0.22367 0.14196
# Poissons Ratio (z) = -0.05290 0.05636
#
# Static dielectric constant tensor:
#      x y z
#    x 1.778410 0.000000 0.017710 
#    y 0.000000 1.805030 0.000000 
#    z 0.017710 0.000000 1.805770 
# 
# From -- ./inp_files/49027.got.cif
#   From: 2010.05.17/outbox.cif.g08.bks.cpg/sg11_25_cif.got.tgz:49027.got - 2010.06.03 12:22:45.
