data_PCOD9166633
_publ_section_title
;
Structure prediction by ZEFSAII (Michael W. Deem and Ramdas Pophale) SiO2 
 PCOD9166633
Probable space group: P 21/M
;
_chemical_formula_sum "Si O2"
_cell_formula_units_Z 30
_cell_length_a 13.514870
_cell_length_b 17.393749
_cell_length_c 5.298889
_cell_angle_alpha 90.000000
_cell_angle_beta 78.935757
_cell_angle_gamma 90.000000
_cell_volume 1222.479351
_symmetry_space_group_name_H-M "P 21/M"
_symmetry_group_IT_number 11
_symmetry_cell_setting 'monoclinic'
loop_
_space_group_symop_operation_xyz
x,y,z
-x,1/2+y,-z
-x,-y,-z
x,1/2-y,z
loop_
_atom_site_type_symbol
_atom_site_label
_atom_site_fract_x
_atom_site_fract_y
_atom_site_fract_z
Si Si1 0.618772 0.963040 0.974206
Si Si2 0.462602 0.389199 0.491785
Si Si3 0.005998 0.663431 0.606012
Si Si4 0.175492 0.116971 0.990287
Si Si5 0.304057 0.250000 0.673007
Si Si6 0.834418 0.331945 0.853384
Si Si7 0.851021 0.035937 0.233219
Si Si8 0.326226 0.904176 0.385384
O O1 0.561977 0.918018 0.776902
O O2 0.628556 0.050033 0.874572
O O3 0.570587 0.949848 0.272959
O O4 0.728891 0.925793 0.937084
O O5 0.390307 0.316721 0.576334
O O6 0.581005 0.375201 0.491374
O O7 0.032389 0.750000 0.692094
O O8 0.050319 0.667936 0.302616
O O9 0.064449 0.587333 0.673448
O O10 0.892830 0.650190 0.751519
O O11 0.220883 0.183012 0.792774
O O12 0.119601 0.049359 0.862194
O O13 0.813307 0.250000 0.989231
O O14 0.753455 0.340383 0.667107
O O15 0.823582 0.408568 0.015770
O O16 0.747917 0.034663 0.442809
#
# Coordination Sequence:
#
# PCOD9166633 Si02
#       8
#     4   4   4   4   2   4   4   4
#     4  11  24  45  69 106 138 185 244 292 352 438
#     4  11  26  43  71 100 147 185 244 293 356 431
#     4  10  22  44  70 102 143 186 238 297 368 434
#     4  11  22  45  72  99 150 187 240 300 367 422
#     4  10  24  46  66 106 142 190 242 294 356 438
#     4  10  23  42  65  99 137 177 243 298 363 435
#     4  11  23  43  69 107 137 187 244 298 356 441
#     4  11  23  42  70  96 139 184 231 301 362 414
#
# _framework density 24.540291
#
# number of rings (size 3 to 8) (size 9 to 14) (size 15 to 20)
#    0.000    1.333    2.000    3.200    2.800    3.200 
#    7.200    0.000    0.000    0.000    0.000    0.000 
#    0.000    0.000    0.000    0.000    0.000    0.000 
#
# Total GULP energy -167099.328516 kJ/mol
# GULP energy per Si atom -5569.977617 kJ/mol
# Density = 2.448444 g / cm^3
# Si number density = 24.540291 Si / 1000 Ang^3
#
#
#
# Elastic Constant Matrix: (Units=GPa)
#
#
# Indices 1 2 3 4 5 6 
#
# 1 60.6657 4.3091 16.2495 0.0000 -22.3253 0.0000
# 2 4.3091 153.6433 16.1461 0.0000 -5.5312 0.0000
# 3 16.2495 16.1461 86.9426 0.0000 -17.1704 0.0000
# 4 0.0000 0.0000 0.0000 -3.4287 0.0000 -39.3677
# 5 -22.3253 -5.5312 -17.1704 0.0000 38.5756 0.0000
# 6 0.0000 0.0000 0.0000 -39.3677 0.0000 1.9772
#
#
#
# Elastic Compliance Matrix: (Units=1/GPa)
#
#
# Indices 1 2 3 4 5 6 
#
# 1 0.021167 -0.000003 -0.001684 0.000000 0.011500 0.000000
# 2 -0.000003 0.006645 -0.001146 0.000000 0.000441 0.000000
# 3 -0.001684 -0.001146 0.012942 0.000000 0.004621 0.000000
# 4 0.000000 0.000000 0.000000 -0.001270 0.000000 -0.025291
# 5 0.011500 0.000441 0.004621 0.000000 0.034699 0.000000
# 6 0.000000 0.000000 0.000000 -0.025291 0.000000 0.002203
#
#
# Mechanical properties :
#
#
# Convention : Reuss Voigt Hill
#
# Bulk Modulus (GPa) = 28.50022 41.62899 35.06461
# Shear Modulus (GPa) = 53.33392 25.06130 39.19761
#
# Velocity S-wave (km/s) = 4.66695 3.19914 4.00093
# Velocity P-wave (km/s) = 6.37804 5.53591 5.97184
#
# Compressibility (1/GPa) = 0.03508745
#
# Stress axis : x y z
#
# Youngs Moduli (GPa) = 47.24275 150.48886 77.26620
#
# Poissons Ratio (x) = 0.00040 0.13015
# Poissons Ratio (y) = 0.00012 0.08858
# Poissons Ratio (z) = 0.07958 0.17253
#
# Static dielectric constant tensor:
#      x y z
#    x 2.009170 0.000000 0.046570 
#    y 0.000000 1.912830 0.000000 
#    z 0.046570 0.000000 2.013900 
# 
# From -- ./inp_files/6812.got.cif
#   From: 2010.05.17/outbox.cif.g08.bks.cpg/sg11_4_cif.got.tgz:6812.got - 2010.06.03 12:22:45.
