data_PCOD9166269
_publ_section_title
;
Structure prediction by ZEFSAII (Michael W. Deem and Ramdas Pophale) SiO2 
 PCOD9166269
Probable space group: P 21/M
;
_chemical_formula_sum "Si O2"
_cell_formula_units_Z 28
_cell_length_a 18.880802
_cell_length_b 8.345323
_cell_length_c 15.720174
_cell_angle_alpha 90.000000
_cell_angle_beta 144.119816
_cell_angle_gamma 90.000000
_cell_volume 1451.733347
_symmetry_space_group_name_H-M "P 21/M"
_symmetry_group_IT_number 11
_symmetry_cell_setting 'monoclinic'
loop_
_space_group_symop_operation_xyz
x,y,z
-x,1/2+y,-z
-x,-y,-z
x,1/2-y,z
loop_
_atom_site_type_symbol
_atom_site_label
_atom_site_fract_x
_atom_site_fract_y
_atom_site_fract_z
Si Si1 0.611482 0.941200 0.168401
Si Si2 0.562917 0.942471 0.474180
Si Si3 0.507593 0.558090 0.780513
Si Si4 0.916276 0.942861 0.039116
Si Si5 0.131177 0.056342 0.658258
Si Si6 0.219703 0.445517 0.926385
Si Si7 0.166152 0.056676 0.227078
O O1 0.611835 0.750000 0.160702
O O2 0.745637 0.998205 0.270261
O O3 0.584324 0.988819 0.239378
O O4 0.500000 0.000000 0.000000
O O5 0.557660 0.750000 0.467663
O O6 0.702784 0.994761 0.615016
O O7 0.500000 0.000000 0.500000
O O8 0.509823 0.007028 0.334171
O O9 0.501500 0.750000 0.778870
O O10 0.641116 0.504915 0.939486
O O11 0.910186 0.750000 0.032901
O O12 0.844033 0.002990 0.049990
O O13 0.858795 0.999094 0.894033
O O14 0.055314 0.993917 0.174512
O O15 0.131197 0.250000 0.654668
O O16 0.150912 0.004541 0.774956
O O17 0.000000 0.000000 0.500000
O O18 0.219481 0.250000 0.927767
O O19 0.162927 0.250000 0.224015
#
# Coordination Sequence:
#
# PCOD9166269 Si02
#       7
#     4   4   4   4   4   4   4
#     4  11  22  40  64  91 124 160 204 256 309 369
#     4  11  23  39  58  85 121 157 196 246 301 358
#     4  11  22  39  63  89 118 158 204 251 305 363
#     4   9  17  32  57  80 102 143 193 234 282 351
#     4  10  22  40  60  86 120 156 196 252 312 367
#     4   9  18  36  58  81 111 147 191 242 299 355
#     4   9  19  35  52  76 113 149 183 233 294 345
#
# _framework density 19.287289000000001
#
# number of rings (size 3 to 8) (size 9 to 14) (size 15 to 20)
#    0.000    2.000    1.429    2.143    0.000    5.714 
#    0.000    7.857    0.000    0.000    0.000    0.000 
#    0.000    0.000    0.000    0.000    0.000    0.000 
#
# Total GULP energy -156278.028999 kJ/mol
# GULP energy per Si atom -5581.358179 kJ/mol
# Density = 1.924339 g / cm^3
# Si number density = 19.287289 Si / 1000 Ang^3
#
#
#
# Elastic Constant Matrix: (Units=GPa)
#
#
# Indices 1 2 3 4 5 6 
#
# 1 129.7636 14.2351 42.0454 0.0000 4.0352 0.0000
# 2 14.2351 24.3583 15.7722 0.0000 2.7647 0.0000
# 3 42.0454 15.7722 120.5980 0.0000 12.7613 0.0000
# 4 0.0000 0.0000 0.0000 30.2257 0.0000 0.9525
# 5 4.0352 2.7647 12.7613 0.0000 27.6012 0.0000
# 6 0.0000 0.0000 0.0000 0.9525 0.0000 28.7781
#
#
#
# Elastic Compliance Matrix: (Units=1/GPa)
#
#
# Indices 1 2 3 4 5 6 
#
# 1 0.008956 -0.003524 -0.002692 0.000000 0.000288 0.000000
# 2 -0.003524 0.046330 -0.004620 0.000000 -0.001989 0.000000
# 3 -0.002692 -0.004620 0.010246 0.000000 -0.003881 0.000000
# 4 0.000000 0.000000 0.000000 0.033119 0.000000 -0.001096
# 5 0.000288 -0.001989 -0.003881 0.000000 0.038182 0.000000
# 6 0.000000 0.000000 0.000000 -0.001096 0.000000 0.034785
#
#
# Mechanical properties :
#
#
# Convention : Reuss Voigt Hill
#
# Bulk Modulus (GPa) = 22.79979 46.53615 34.66797
# Shear Modulus (GPa) = 24.04891 30.83214 27.44053
#
# Velocity S-wave (km/s) = 3.53495 4.00255 3.77600
# Velocity P-wave (km/s) = 5.33928 6.74840 6.08477
#
# Compressibility (1/GPa) = 0.04386005
#
# Stress axis : x y z
#
# Youngs Moduli (GPa) = 111.65451 21.58411 97.60381
#
# Poissons Ratio (x) = 0.07605 0.26277
# Poissons Ratio (y) = 0.39342 0.45096
# Poissons Ratio (z) = 0.30059 0.09972
#
# Static dielectric constant tensor:
#      x y z
#    x 1.669750 0.000000 0.003210 
#    y 0.000000 1.673430 0.000000 
#    z 0.003210 0.000000 1.658840 
# 
# From -- ./inp_files/53299.got.cif
#   From: 2010.05.17/outbox.cif.g08.bks.cpg/sg11_27_cif.got.tgz:53299.got - 2010.06.03 12:22:45.
