data_PCOD9166375
_publ_section_title
;
Structure prediction by ZEFSAII (Michael W. Deem and Ramdas Pophale) SiO2 
 PCOD9166375
Probable space group: P 21/M
;
_chemical_formula_sum "Si O2"
_cell_formula_units_Z 16
_cell_length_a 5.312711
_cell_length_b 21.217951
_cell_length_c 6.670291
_cell_angle_alpha 90.000000
_cell_angle_beta 109.134963
_cell_angle_gamma 90.000000
_cell_volume 710.363902
_symmetry_space_group_name_H-M "P 21/M"
_symmetry_group_IT_number 11
_symmetry_cell_setting 'monoclinic'
loop_
_space_group_symop_operation_xyz
x,y,z
-x,1/2+y,-z
-x,-y,-z
x,1/2-y,z
loop_
_atom_site_type_symbol
_atom_site_label
_atom_site_fract_x
_atom_site_fract_y
_atom_site_fract_z
Si Si1 0.304996 0.913619 0.589934
Si Si2 0.652839 0.607931 0.053645
Si Si3 0.216682 0.824748 0.217840
Si Si4 0.000613 0.499431 0.237060
O O1 0.549538 0.911887 0.806647
O O2 0.287002 0.849492 0.460187
O O3 0.248977 0.965793 0.402973
O O4 0.064919 0.933298 0.678368
O O5 0.421688 0.643581 0.114666
O O6 0.747456 0.546705 0.204011
O O7 0.917240 0.650219 0.102940
O O8 0.231163 0.750000 0.207369
O O9 0.000000 0.500000 0.000000
#
# Coordination Sequence:
#
# PCOD9166375 Si02
#       4
#     4   4   4   4
#     4  10  22  40  68  98 131 175 215 264 336 398
#     4  11  24  43  66  95 132 173 219 275 335 397
#     4  11  26  45  65  94 130 174 231 282 326 389
#     4  10  22  41  67 104 141 170 215 274 337 409
#
# _framework density 22.523668000000001
#
# number of rings (size 3 to 8) (size 9 to 14) (size 15 to 20)
#    0.000    1.500    0.000    4.500    0.000   14.000 
#    0.000    0.000    0.000    0.000    0.000    0.000 
#    0.000    0.000    0.000    0.000    0.000    0.000 
#
# Total GULP energy -89369.471656 kJ/mol
# GULP energy per Si atom -5585.591979 kJ/mol
# Density = 2.247240 g / cm^3
# Si number density = 22.523668 Si / 1000 Ang^3
#
#
#
# Elastic Constant Matrix: (Units=GPa)
#
#
# Indices 1 2 3 4 5 6 
#
# 1 147.4174 53.3472 63.2877 0.0000 -4.1202 0.0000
# 2 53.3472 83.6709 43.1490 0.0000 -5.8342 0.0000
# 3 63.2877 43.1490 192.1220 0.0000 18.1539 0.0000
# 4 0.0000 0.0000 0.0000 26.2732 0.0000 -4.7314
# 5 -4.1202 -5.8342 18.1539 0.0000 52.0929 0.0000
# 6 0.0000 0.0000 0.0000 -4.7314 0.0000 33.7779
#
#
#
# Elastic Compliance Matrix: (Units=1/GPa)
#
#
# Indices 1 2 3 4 5 6 
#
# 1 0.009489 -0.004893 -0.002116 0.000000 0.000940 0.000000
# 2 -0.004893 0.016407 -0.002285 0.000000 0.002247 0.000000
# 3 -0.002116 -0.002285 0.006675 0.000000 -0.002749 0.000000
# 4 0.000000 0.000000 0.000000 0.039047 0.000000 0.005469
# 5 0.000940 0.002247 -0.002749 0.000000 0.020481 0.000000
# 6 0.000000 0.000000 0.000000 0.005469 0.000000 0.030371
#
#
# Mechanical properties :
#
#
# Convention : Reuss Voigt Hill
#
# Bulk Modulus (GPa) = 71.51932 82.53089 77.02511
# Shear Modulus (GPa) = 34.31297 39.99057 37.15177
#
# Velocity S-wave (km/s) = 3.90733 4.21823 4.06575
# Velocity P-wave (km/s) = 7.22345 7.77470 7.50414
#
# Compressibility (1/GPa) = 0.01398224
#
# Stress axis : x y z
#
# Youngs Moduli (GPa) = 105.38812 60.95097 149.81446
#
# Poissons Ratio (x) = 0.29826 0.31693
# Poissons Ratio (y) = 0.51570 0.34235
# Poissons Ratio (z) = 0.22295 0.13928
#
# Static dielectric constant tensor:
#      x y z
#    x 1.905300 0.000000 -0.031810 
#    y 0.000000 1.843160 0.000000 
#    z -0.031810 0.000000 1.834950 
# 
# From -- ./inp_files/659.got.cif
#   From: 2010.05.17/outbox.cif.g08.bks.cpg/sg11_1_cif.got.tgz:659.got - 2010.06.03 12:22:45.
