data_PCOD9167229
_publ_section_title
;
Structure prediction by ZEFSAII (Michael W. Deem and Ramdas Pophale) SiO2 
 PCOD9167229
Probable space group: P 21/M
;
_chemical_formula_sum "Si O2"
_cell_formula_units_Z 22
_cell_length_a 6.295754
_cell_length_b 23.673928
_cell_length_c 6.807062
_cell_angle_alpha 90.000000
_cell_angle_beta 67.725724
_cell_angle_gamma 90.000000
_cell_volume 938.853614
_symmetry_space_group_name_H-M "P 21/M"
_symmetry_group_IT_number 11
_symmetry_cell_setting 'monoclinic'
loop_
_space_group_symop_operation_xyz
x,y,z
-x,1/2+y,-z
-x,-y,-z
x,1/2-y,z
loop_
_atom_site_type_symbol
_atom_site_label
_atom_site_fract_x
_atom_site_fract_y
_atom_site_fract_z
Si Si1 0.394054 0.250000 0.485128
Si Si2 0.771280 0.972530 0.169461
Si Si3 0.436462 0.250000 0.037453
Si Si4 0.442081 0.429749 0.395865
Si Si5 0.098144 0.750000 0.278457
Si Si6 0.238577 0.843080 0.544147
Si Si7 0.757447 0.635013 0.901138
O O1 0.559536 0.302164 0.456933
O O2 0.164089 0.250000 0.690729
O O3 0.311167 0.250000 0.290136
O O4 0.732193 0.916809 0.056158
O O5 0.768407 0.952212 0.398045
O O6 0.430200 0.980837 0.760045
O O7 0.000000 0.000000 0.000000
O O8 0.711192 0.250000 0.957086
O O9 0.366147 0.190493 0.971893
O O10 0.629748 0.403142 0.482677
O O11 0.355706 0.385680 0.263817
O O12 0.144490 0.807809 0.388240
O O13 0.021417 0.849937 0.763835
#
# Coordination Sequence:
#
# PCOD9167229 Si02
#       7
#     2   4   2   4   2   4   4
#     4  11  22  45  63  97 142 182 232 287 350 415
#     4  11  25  47  72 105 138 189 240 288 355 419
#     4  12  23  44  69 103 136 184 230 283 357 420
#     4  11  24  46  71 102 143 180 237 298 345 419
#     4  11  23  41  66  96 138 186 232 292 361 415
#     4  11  21  44  67  95 142 183 231 294 349 417
#     4  12  24  48  73 104 144 187 236 292 356 421
#
# _framework density 23.432832999999999
#
# number of rings (size 3 to 8) (size 9 to 14) (size 15 to 20)
#    0.000    0.727    5.455    2.182    0.000    0.727 
#   22.909    0.000    0.000    0.000    0.000    0.000 
#    0.000    0.000    0.000    0.000    0.000    0.000 
#
# Total GULP energy -122896.623939 kJ/mol
# GULP energy per Si atom -5586.210179 kJ/mol
# Density = 2.337950 g / cm^3
# Si number density = 23.432833 Si / 1000 Ang^3
#
#
#
# Elastic Constant Matrix: (Units=GPa)
#
#
# Indices 1 2 3 4 5 6 
#
# 1 87.8105 59.5420 53.6171 0.0000 -19.3757 0.0000
# 2 59.5420 162.2353 53.9292 0.0000 -9.5793 0.0000
# 3 53.6171 53.9292 145.6418 0.0000 -32.1576 0.0000
# 4 0.0000 0.0000 0.0000 24.4904 0.0000 0.9521
# 5 -19.3757 -9.5793 -32.1576 0.0000 41.2837 0.0000
# 6 0.0000 0.0000 0.0000 0.9521 0.0000 32.4724
#
#
#
# Elastic Compliance Matrix: (Units=1/GPa)
#
#
# Indices 1 2 3 4 5 6 
#
# 1 0.018170 -0.005140 -0.003824 0.000000 0.004356 0.000000
# 2 -0.005140 0.008491 -0.001630 0.000000 -0.001712 0.000000
# 3 -0.003824 -0.001630 0.010142 0.000000 0.005727 0.000000
# 4 0.000000 0.000000 0.000000 0.040879 0.000000 -0.001199
# 5 0.004356 -0.001712 0.005727 0.000000 0.030331 0.000000
# 6 0.000000 0.000000 0.000000 -0.001199 0.000000 0.030831
#
#
# Mechanical properties :
#
#
# Convention : Reuss Voigt Hill
#
# Bulk Modulus (GPa) = 64.04042 81.09604 72.56823
# Shear Modulus (GPa) = 30.25981 34.88925 32.57453
#
# Velocity S-wave (km/s) = 3.59742 3.86282 3.73248
# Velocity P-wave (km/s) = 6.68161 7.38770 7.04351
#
# Compressibility (1/GPa) = 0.01561514
#
# Stress axis : x y z
#
# Youngs Moduli (GPa) = 55.03698 117.77109 98.60077
#
# Poissons Ratio (x) = 0.60536 0.37703
# Poissons Ratio (y) = 0.28290 0.16070
# Poissons Ratio (z) = 0.21045 0.19194
#
# Static dielectric constant tensor:
#      x y z
#    x 1.892940 0.000000 0.044170 
#    y 0.000000 1.938850 0.000000 
#    z 0.044170 0.000000 1.881030 
# 
# From -- ./inp_files/10520.got.cif
#   From: 2010.05.17/outbox.cif.g08.bks.cpg/sg11_6_cif.got.tgz:10520.got - 2010.06.03 12:22:45.
