data_PCOD9167403
_publ_section_title
;
Structure prediction by ZEFSAII (Michael W. Deem and Ramdas Pophale) SiO2 
 PCOD9167403
Probable space group: P 21/M
;
_chemical_formula_sum "Si O2"
_cell_formula_units_Z 28
_cell_length_a 21.678856
_cell_length_b 7.984881
_cell_length_c 18.282299
_cell_angle_alpha 90.000000
_cell_angle_beta 153.263460
_cell_angle_gamma 90.000000
_cell_volume 1423.772669
_symmetry_space_group_name_H-M "P 21/M"
_symmetry_group_IT_number 11
_symmetry_cell_setting 'monoclinic'
loop_
_space_group_symop_operation_xyz
x,y,z
-x,1/2+y,-z
-x,-y,-z
x,1/2-y,z
loop_
_atom_site_type_symbol
_atom_site_label
_atom_site_fract_x
_atom_site_fract_y
_atom_site_fract_z
Si Si1 0.701053 0.453922 0.414715
Si Si2 0.068891 0.440180 0.997922
Si Si3 0.368158 0.937556 0.317279
Si Si4 0.519025 0.558996 0.708410
Si Si5 0.522013 0.952792 0.939808
Si Si6 0.989578 0.543560 0.228617
Si Si7 0.251140 0.441125 0.922741
O O1 0.698734 0.250000 0.411236
O O2 0.622101 0.501933 0.405625
O O3 0.606051 0.510399 0.246430
O O4 0.858560 0.504645 0.584584
O O5 0.023583 0.250000 0.942549
O O6 0.232224 0.453602 0.181219
O O7 0.000000 0.500000 0.000000
O O8 0.036860 0.516333 0.883181
O O9 0.331716 0.750000 0.301145
O O10 0.500000 0.000000 0.500000
O O11 0.416475 0.946403 0.284983
O O12 0.502075 0.750000 0.661881
O O13 0.627419 0.568412 0.888897
O O14 0.526425 0.750000 0.938539
O O15 0.666967 0.016849 0.059530
O O16 0.500000 0.000000 0.000000
O O17 0.978910 0.750000 0.216360
O O18 0.876615 0.483889 0.168050
O O19 0.210753 0.250000 0.859877
#
# Coordination Sequence:
#
# PCOD9167403 Si02
#       7
#     4   4   4   4   4   4   4
#     4   8  16  29  51  80 106 135 175 217 264 323
#     4  11  23  39  58  83 114 148 186 232 286 338
#     4  12  25  39  55  77 107 145 188 234 284 334
#     4   9  16  32  54  76 101 131 174 226 272 322
#     4   9  17  31  52  77 106 139 174 216 263 316
#     4   9  16  30  54  80 103 136 182 224 261 319
#     4   8  14  28  51  75 100 135 175 213 261 321
#
# _framework density 19.666060000000002
#
# number of rings (size 3 to 8) (size 9 to 14) (size 15 to 20)
#    0.000    2.571    1.429    3.429    2.000    0.000 
#    0.000    3.571    0.000    1.714    0.000    0.000 
#    0.000    0.000    0.000    0.000    0.000    0.000 
#
# Total GULP energy -155968.676695 kJ/mol
# GULP energy per Si atom -5570.309882 kJ/mol
# Density = 1.962130 g / cm^3
# Si number density = 19.666060 Si / 1000 Ang^3
#
#
#
# Elastic Constant Matrix: (Units=GPa)
#
#
# Indices 1 2 3 4 5 6 
#
# 1 184.2224 8.5188 73.3953 0.0000 25.8275 0.0000
# 2 8.5188 17.7806 -5.6362 0.0000 -2.2350 0.0000
# 3 73.3953 -5.6362 90.6258 0.0000 26.2165 0.0000
# 4 0.0000 0.0000 0.0000 9.3568 0.0000 -1.8908
# 5 25.8275 -2.2350 26.2165 0.0000 32.9619 0.0000
# 6 0.0000 0.0000 0.0000 -1.8908 0.0000 26.0662
#
#
#
# Elastic Compliance Matrix: (Units=1/GPa)
#
#
# Indices 1 2 3 4 5 6 
#
# 1 0.008775 -0.006648 -0.007015 0.000000 -0.001747 0.000000
# 2 -0.006648 0.062455 0.008489 0.000000 0.002691 0.000000
# 3 -0.007015 0.008489 0.020115 0.000000 -0.009927 0.000000
# 4 0.000000 0.000000 0.000000 0.108464 0.000000 0.007868
# 5 -0.001747 0.002691 -0.009927 0.000000 0.039785 0.000000
# 6 0.000000 0.000000 0.000000 0.007868 0.000000 0.038935
#
#
# Mechanical properties :
#
#
# Convention : Reuss Voigt Hill
#
# Bulk Modulus (GPa) = 12.34574 49.46493 30.90534
# Shear Modulus (GPa) = 15.82902 28.10036 21.96469
#
# Velocity S-wave (km/s) = 2.84014 3.78415 3.34561
# Velocity P-wave (km/s) = 4.12874 6.65583 5.53835
#
# Compressibility (1/GPa) = 0.08099959
#
# Stress axis : x y z
#
# Youngs Moduli (GPa) = 113.95549 16.01144 49.71400
#
# Poissons Ratio (x) = 0.10644 0.34874
# Poissons Ratio (y) = 0.75753 -0.42204
# Poissons Ratio (z) = 0.79938 -0.13593
#
# Static dielectric constant tensor:
#      x y z
#    x 1.735240 0.000000 -0.002860 
#    y 0.000000 1.777450 0.000000 
#    z -0.002860 0.000000 1.684270 
# 
# From -- ./inp_files/61274.got.cif
#   From: 2010.05.17/outbox.cif.g08.bks.cpg/sg11_31_cif.got.tgz:61274.got - 2010.06.03 12:22:45.
