data_PCOD9167991
_publ_section_title
;
Structure prediction by ZEFSAII (Michael W. Deem and Ramdas Pophale) SiO2 
 PCOD9167991
Probable space group: P 21/M
;
_chemical_formula_sum "Si O2"
_cell_formula_units_Z 32
_cell_length_a 15.000000
_cell_length_b 9.000000
_cell_length_c 15.000000
_cell_angle_alpha 90.000000
_cell_angle_beta 60.000000
_cell_angle_gamma 90.000000
_cell_volume 1753.701443
_symmetry_space_group_name_H-M "P 21/M"
_symmetry_group_IT_number 11
_symmetry_cell_setting 'monoclinic'
loop_
_space_group_symop_operation_xyz
x,y,z
-x,1/2+y,-z
-x,-y,-z
x,1/2-y,z
loop_
_atom_site_type_symbol
_atom_site_label
_atom_site_fract_x
_atom_site_fract_y
_atom_site_fract_z
Si Si1 0.688631 0.070448 0.744660
Si Si2 0.774161 0.571920 0.229116
Si Si3 0.227471 0.924358 0.488191
Si Si4 0.486715 0.572106 0.908889
Si Si5 0.736589 0.071364 0.059466
Si Si6 0.840512 0.430649 0.825914
Si Si7 0.609894 0.074846 0.439458
Si Si8 0.070551 0.071494 0.696210
O O1 0.673972 0.250000 0.754657
O O2 0.748462 0.033171 0.624548
O O3 0.755878 0.023704 0.796249
O O4 0.579951 0.989815 0.803819
O O5 0.768655 0.750000 0.229969
O O6 0.770839 0.507047 0.132302
O O7 0.677593 0.505247 0.330722
O O8 0.872902 0.527624 0.239858
O O9 0.200626 0.750000 0.503626
O O10 0.328902 0.943180 0.498279
O O11 0.138571 0.014528 0.580873
O O12 0.490348 0.750000 0.916694
O O13 0.378862 0.534129 0.915608
O O14 0.500000 0.500000 0.000000
O O15 0.741136 0.250000 0.069094
O O16 0.808516 0.027468 0.941089
O O17 0.840913 0.250000 0.822772
O O18 0.954531 0.484228 0.747891
O O19 0.602216 0.250000 0.424102
O O20 0.500000 0.000000 0.500000
O O21 0.069160 0.250000 0.695372
#
# Coordination Sequence:
#
# PCOD9167991 Si02
#       8
#     4   4   4   4   4   4   4   4
#     4  10  20  37  58  82 112 149 184 222 274 330
#     4  10  21  36  54  80 110 143 185 231 277 323
#     4   9  20  36  55  80 111 143 179 225 277 325
#     4  11  22  37  57  82 112 148 184 225 275 327
#     4  10  21  37  56  81 111 148 186 223 275 333
#     4   9  18  36  59  80 108 147 186 222 275 334
#     4  10  20  35  53  78 109 144 184 227 277 330
#     4   9  19  37  59  80 108 146 185 228 274 326
#
# _framework density 18.247119999999999
#
# number of rings (size 3 to 8) (size 9 to 14) (size 15 to 20)
#    0.000    2.250    1.250    1.125    1.750    3.500 
#    0.000    1.250    0.000    0.000    0.000    0.000 
#    0.000    0.000    0.000    0.000    0.000    0.000 
#
# Total GULP energy -178557.526115 kJ/mol
# GULP energy per Si atom -5579.922691 kJ/mol
# Density = 1.820559 g / cm^3
# Si number density = 18.247120 Si / 1000 Ang^3
#
#
#
# Elastic Constant Matrix: (Units=GPa)
#
#
# Indices 1 2 3 4 5 6 
#
# 1 -12.3545 5.6229 0.2120 0.0000 -26.5295 0.0000
# 2 5.6229 15.8117 10.9114 0.0000 -2.2802 0.0000
# 3 0.2120 10.9114 51.0120 0.0000 8.3976 0.0000
# 4 0.0000 0.0000 0.0000 29.0076 0.0000 1.9091
# 5 -26.5295 -2.2802 8.3976 0.0000 29.9876 0.0000
# 6 0.0000 0.0000 0.0000 1.9091 0.0000 19.4884
#
#
#
# Elastic Compliance Matrix: (Units=1/GPa)
#
#
# Indices 1 2 3 4 5 6 
#
# 1 -0.026829 0.003728 0.003328 0.000000 -0.024383 0.000000
# 2 0.003728 0.077020 -0.018867 0.000000 0.014438 0.000000
# 3 0.003328 -0.018867 0.024506 0.000000 -0.005353 0.000000
# 4 0.000000 0.000000 0.000000 0.034697 0.000000 -0.003399
# 5 -0.024383 0.014438 -0.005353 0.000000 0.014372 0.000000
# 6 0.000000 0.000000 0.000000 -0.003399 0.000000 0.051646
#
#
# Mechanical properties :
#
#
# Convention : Reuss Voigt Hill
#
# Bulk Modulus (GPa) = 19.57868 9.77352 14.67610
# Shear Modulus (GPa) = 23.14173 18.21158 20.67666
#
# Velocity S-wave (km/s) = 3.56510 3.16262 3.36988
# Velocity P-wave (km/s) = 5.26304 4.32482 4.81683
#
# Compressibility (1/GPa) = 0.05107595
#
# Stress axis : x y z
#
# Youngs Moduli (GPa) = -37.27353 12.98363 40.80608
#
# Poissons Ratio (x) = -0.04840 -0.13581
# Poissons Ratio (y) = 0.13895 0.76988
# Poissons Ratio (z) = 0.12405 0.24496
#
# Static dielectric constant tensor:
#      x y z
#    x 1.611450 0.000000 -0.008780 
#    y 0.000000 1.606750 0.000000 
#    z -0.008780 0.000000 1.623840 
# 
# From -- ./inp_files/51632.got.cif
#   From: 2010.05.17/outbox.ucp.g08.bks.cvg/sg11_26_cif.got.tgz:51632.got - 2010.06.11 11:38:39.
