data_PCOD9167006
_publ_section_title
;
Structure prediction by ZEFSAII (Michael W. Deem and Ramdas Pophale) SiO2 
 PCOD9167006
Probable space group: P 21/M
;
_chemical_formula_sum "Si O2"
_cell_formula_units_Z 18
_cell_length_a 4.763118
_cell_length_b 19.255135
_cell_length_c 8.340164
_cell_angle_alpha 90.000000
_cell_angle_beta 91.462977
_cell_angle_gamma 90.000000
_cell_volume 764.664467
_symmetry_space_group_name_H-M "P 21/M"
_symmetry_group_IT_number 11
_symmetry_cell_setting 'monoclinic'
loop_
_space_group_symop_operation_xyz
x,y,z
-x,1/2+y,-z
-x,-y,-z
x,1/2-y,z
loop_
_atom_site_type_symbol
_atom_site_label
_atom_site_fract_x
_atom_site_fract_y
_atom_site_fract_z
Si Si1 0.512702 0.877303 0.093588
Si Si2 0.812066 0.374647 0.465730
Si Si3 0.287050 0.397653 0.249198
Si Si4 0.012150 0.546322 0.220704
Si Si5 0.450325 0.750000 0.325629
O O1 0.192525 0.901472 0.110957
O O2 0.568266 0.811273 0.205842
O O3 0.599650 0.864851 0.912693
O O4 0.693817 0.941651 0.164878
O O5 0.556495 0.409004 0.365724
O O6 0.940373 0.427085 0.598132
O O7 0.688605 0.310339 0.561219
O O8 0.059839 0.354108 0.347231
O O9 0.127913 0.469287 0.207469
#
# Coordination Sequence:
#
# PCOD9167006 Si02
#       5
#     4   4   4   4   2
#     4  11  24  41  67  91 130 171 206 261 310 383
#     4  11  24  40  65  91 130 168 206 264 309 378
#     4  12  23  41  67 102 123 160 216 267 314 365
#     4  11  22  42  66  97 131 166 202 257 329 380
#     4  10  26  46  60  88 128 176 216 246 326 374
#
# _framework density 23.539736999999999
#
# number of rings (size 3 to 8) (size 9 to 14) (size 15 to 20)
#    0.000    0.889    0.000    8.000    0.000    9.778 
#    0.000    0.000    0.000    0.000    0.000    0.000 
#    0.000    0.000    0.000    0.000    0.000    0.000 
#
# Total GULP energy -100339.638123 kJ/mol
# GULP energy per Si atom -5574.424340 kJ/mol
# Density = 2.348616 g / cm^3
# Si number density = 23.539737 Si / 1000 Ang^3
#
#
#
# Elastic Constant Matrix: (Units=GPa)
#
#
# Indices 1 2 3 4 5 6 
#
# 1 64.4846 -11.9065 22.8908 0.0000 -1.1538 0.0000
# 2 -11.9065 47.7464 39.3071 0.0000 -12.1363 0.0000
# 3 22.8908 39.3071 188.2833 0.0000 -35.3243 0.0000
# 4 0.0000 0.0000 0.0000 8.8234 0.0000 -4.0398
# 5 -1.1538 -12.1363 -35.3243 0.0000 42.4197 0.0000
# 6 0.0000 0.0000 0.0000 -4.0398 0.0000 -19.4868
#
#
#
# Elastic Compliance Matrix: (Units=1/GPa)
#
#
# Indices 1 2 3 4 5 6 
#
# 1 0.018307 0.007654 -0.003934 0.000000 -0.000588 0.000000
# 2 0.007654 0.028903 -0.006369 0.000000 0.003174 0.000000
# 3 -0.003934 -0.006369 0.008008 0.000000 0.004740 0.000000
# 4 0.000000 0.000000 0.000000 0.103510 0.000000 -0.021458
# 5 -0.000588 0.003174 0.004740 0.000000 0.028413 0.000000
# 6 0.000000 0.000000 0.000000 -0.021458 0.000000 -0.046868
#
#
# Mechanical properties :
#
#
# Convention : Reuss Voigt Hill
#
# Bulk Modulus (GPa) = 20.03189 44.56636 32.29912
# Shear Modulus (GPa) = 30.82427 23.03278 26.92852
#
# Velocity S-wave (km/s) = 3.62257 3.13143 3.38592
# Velocity P-wave (km/s) = 5.10153 5.66110 5.38858
#
# Compressibility (1/GPa) = 0.04992039
#
# Stress axis : x y z
#
# Youngs Moduli (GPa) = 54.62433 34.59877 124.87083
#
# Poissons Ratio (x) = -0.26483 0.49124
# Poissons Ratio (y) = -0.41811 0.79531
# Poissons Ratio (z) = 0.21489 0.22036
#
# Static dielectric constant tensor:
#      x y z
#    x 1.884920 0.000000 0.006140 
#    y 0.000000 1.796280 0.000000 
#    z 0.006140 0.000000 1.914200 
# 
# From -- ./inp_files/10154.got.cif
#   From: 2010.05.17/outbox.cif.g08.bks.cpg/sg11_6_cif.got.tgz:10154.got - 2010.06.03 12:22:45.
