data_PCOD9167293
_publ_section_title
;
Structure prediction by ZEFSAII (Michael W. Deem and Ramdas Pophale) SiO2 
 PCOD9167293
Probable space group: P 21/M
;
_chemical_formula_sum "Si O2"
_cell_formula_units_Z 32
_cell_length_a 14.207848
_cell_length_b 15.667161
_cell_length_c 18.738232
_cell_angle_alpha 90.000000
_cell_angle_beta 158.396661
_cell_angle_gamma 90.000000
_cell_volume 1535.698369
_symmetry_space_group_name_H-M "P 21/M"
_symmetry_group_IT_number 11
_symmetry_cell_setting 'monoclinic'
loop_
_space_group_symop_operation_xyz
x,y,z
-x,1/2+y,-z
-x,-y,-z
x,1/2-y,z
loop_
_atom_site_type_symbol
_atom_site_label
_atom_site_fract_x
_atom_site_fract_y
_atom_site_fract_z
Si Si1 0.018598 0.158964 0.784139
Si Si2 0.556402 0.343729 0.948613
Si Si3 0.972520 0.621326 0.371095
Si Si4 0.225359 0.481973 0.339470
Si Si5 0.856384 0.077104 0.283858
Si Si6 0.327599 0.350393 0.539953
Si Si7 0.454764 0.603760 0.789320
Si Si8 0.707262 0.071529 0.913345
O O1 0.889574 0.250000 0.709381
O O2 0.085435 0.155534 0.747791
O O3 0.866713 0.072314 0.692714
O O4 0.284530 0.153049 0.013488
O O5 0.635119 0.250000 0.029498
O O6 0.663192 0.361740 0.946247
O O7 0.251202 0.349526 0.734170
O O8 0.667017 0.411423 0.082894
O O9 0.254572 0.645041 0.594303
O O10 0.956674 0.519010 0.358492
O O11 0.500000 0.500000 0.500000
O O12 0.249185 0.409133 0.417149
O O13 0.005345 0.454124 0.127982
O O14 0.700711 0.095384 0.246034
O O15 0.100992 0.135527 0.438368
O O16 0.351355 0.250000 0.540163
O O17 0.586089 0.389180 0.756784
O O18 0.543813 0.511523 0.822347
#
# Coordination Sequence:
#
# PCOD9167293 Si02
#       8
#     4   4   4   4   4   4   4   4
#     4  11  24  42  64  94 128 167 217 269 323 390
#     4  12  23  34  56  94 134 175 218 258 307 374
#     4  12  21  38  61  88 130 177 218 256 306 374
#     4  11  26  48  74  96 124 165 213 279 344 401
#     4  12  20  37  60  91 135 180 220 258 305 371
#     4  12  25  42  68 101 135 173 220 269 323 389
#     4  11  22  37  61  89 129 179 218 256 311 375
#     4  11  22  42  65  93 129 168 214 268 326 385
#
# _framework density 20.837425
#
# number of rings (size 3 to 8) (size 9 to 14) (size 15 to 20)
#    0.000    0.500    6.250    3.375    0.000    3.000 
#    0.000    0.000    0.000    0.000    0.000    0.000 
#    0.000    0.000    0.000    0.000    0.000    0.000 
#
# Total GULP energy -178936.029671 kJ/mol
# GULP energy per Si atom -5591.750927 kJ/mol
# Density = 2.079000 g / cm^3
# Si number density = 20.837425 Si / 1000 Ang^3
#
#
#
# Elastic Constant Matrix: (Units=GPa)
#
#
# Indices 1 2 3 4 5 6 
#
# 1 14.3967 23.8668 24.2277 0.0000 5.4953 0.0000
# 2 23.8668 136.5471 32.4785 0.0000 1.4791 0.0000
# 3 24.2277 32.4785 130.2561 0.0000 2.7363 0.0000
# 4 0.0000 0.0000 0.0000 -2.8426 0.0000 20.8189
# 5 5.4953 1.4791 2.7363 0.0000 36.1330 0.0000
# 6 0.0000 0.0000 0.0000 20.8189 0.0000 -33.6042
#
#
#
# Elastic Compliance Matrix: (Units=1/GPa)
#
#
# Indices 1 2 3 4 5 6 
#
# 1 0.147984 -0.020413 -0.022015 0.000000 -0.020004 0.000000
# 2 -0.020413 0.010602 0.001099 0.000000 0.002587 0.000000
# 3 -0.022015 0.001099 0.011447 0.000000 0.002436 0.000000
# 4 0.000000 0.000000 0.000000 0.099449 0.000000 0.061612
# 5 -0.020004 0.002587 0.002436 0.000000 0.030427 0.000000
# 6 0.000000 0.000000 0.000000 0.061612 0.000000 0.008412
#
#
# Mechanical properties :
#
#
# Convention : Reuss Voigt Hill
#
# Bulk Modulus (GPa) = 11.44491 49.14956 30.29724
# Shear Modulus (GPa) = 11.90178 13.31237 12.60708
#
# Velocity S-wave (km/s) = 2.39252 2.53033 2.46239
# Velocity P-wave (km/s) = 3.62444 5.67231 4.75982
#
# Compressibility (1/GPa) = 0.08737508
#
# Stress axis : x y z
#
# Youngs Moduli (GPa) = 6.75747 94.32188 87.36043
#
# Poissons Ratio (x) = 1.92537 1.92325
# Poissons Ratio (y) = 0.13794 -0.09600
# Poissons Ratio (z) = 0.14877 -0.10365
#
# Static dielectric constant tensor:
#      x y z
#    x 1.716880 0.000000 -0.015690 
#    y 0.000000 1.695590 0.000000 
#    z -0.015690 0.000000 1.774220 
# 
# From -- ./inp_files/65775.got.cif
#   From: 2010.05.17/outbox.cif.g08.bks.cpg/sg11_33_cif.got.tgz:65775.got - 2010.06.03 12:22:45.
