data_PCOD9167986
_publ_section_title
;
Structure prediction by ZEFSAII (Michael W. Deem and Ramdas Pophale) SiO2 
 PCOD9167986
Probable space group: P 21/M
;
_chemical_formula_sum "Si O2"
_cell_formula_units_Z 32
_cell_length_a 18.000000
_cell_length_b 9.000000
_cell_length_c 24.000000
_cell_angle_alpha 90.000000
_cell_angle_beta 150.000000
_cell_angle_gamma 90.000000
_cell_volume 1944.000000
_symmetry_space_group_name_H-M "P 21/M"
_symmetry_group_IT_number 11
_symmetry_cell_setting 'monoclinic'
loop_
_space_group_symop_operation_xyz
x,y,z
-x,1/2+y,-z
-x,-y,-z
x,1/2-y,z
loop_
_atom_site_type_symbol
_atom_site_label
_atom_site_fract_x
_atom_site_fract_y
_atom_site_fract_z
Si Si1 0.815563 0.924358 0.824784
Si Si2 0.646236 0.930677 0.827758
Si Si3 0.904974 0.068008 0.064697
Si Si4 0.972157 0.569797 0.622045
Si Si5 0.673287 0.572236 0.354645
Si Si6 0.339542 0.425986 0.395584
Si Si7 0.937827 0.430989 0.723936
Si Si8 0.130368 0.070407 0.622173
O O1 0.839531 0.750000 0.851748
O O2 0.725178 0.979808 0.820197
O O3 0.718818 0.938289 0.705796
O O4 0.975878 0.980863 0.906495
O O5 0.648135 0.750000 0.831838
O O6 0.476753 0.987961 0.724585
O O7 0.748092 0.003821 0.942172
O O8 0.906865 0.250000 0.069525
O O9 0.957750 0.999244 0.158460
O O10 0.987728 0.750000 0.635842
O O11 0.813805 0.539413 0.487296
O O12 0.971566 0.496933 0.683762
O O13 0.099378 0.501845 0.663056
O O14 0.647987 0.750000 0.341478
O O15 0.726261 0.539717 0.324825
O O16 0.500000 0.500000 0.500000
O O17 0.342625 0.250000 0.411767
O O18 0.225065 0.511165 0.361955
O O19 0.944824 0.250000 0.728075
O O20 0.116663 0.250000 0.617253
O O21 0.000000 0.000000 0.500000
#
# Coordination Sequence:
#
# PCOD9167986 Si02
#       8
#     4   4   4   4   4   4   4   4
#     4   8  18  34  51  73 101 136 179 223 265 311
#     4  11  21  33  53  80 107 137 178 226 268 317
#     4  10  20  38  57  73 102 141 181 227 273 316
#     4  10  20  35  56  82 111 141 178 220 265 325
#     4   9  20  35  51  78 112 143 174 212 264 319
#     4  10  20  35  51  73 107 145 180 220 270 318
#     4  11  22  36  55  79 105 139 182 223 266 320
#     4   9  17  32  53  77 108 143 178 216 263 320
#
# _framework density 16.460905
#
# number of rings (size 3 to 8) (size 9 to 14) (size 15 to 20)
#    0.000    2.250    0.000    4.875    1.750    3.000 
#    0.000    6.250    0.000    0.750    0.000    0.000 
#    0.000    0.000    0.000    0.000    0.000    0.000 
#
# Total GULP energy -178278.630215 kJ/mol
# GULP energy per Si atom -5571.207194 kJ/mol
# Density = 1.642344 g / cm^3
# Si number density = 16.460905 Si / 1000 Ang^3
#
#
#
# Elastic Constant Matrix: (Units=GPa)
#
#
# Indices 1 2 3 4 5 6 
#
# 1 153.8979 51.2471 40.9463 0.0000 -13.2810 0.0000
# 2 51.2471 102.8487 30.2756 0.0000 -3.3474 0.0000
# 3 40.9463 30.2756 59.9938 0.0000 5.2717 0.0000
# 4 0.0000 0.0000 0.0000 28.0606 0.0000 1.5227
# 5 -13.2810 -3.3474 5.2717 0.0000 22.9935 0.0000
# 6 0.0000 0.0000 0.0000 1.5227 0.0000 36.4075
#
#
#
# Elastic Compliance Matrix: (Units=1/GPa)
#
#
# Indices 1 2 3 4 5 6 
#
# 1 0.009488 -0.002879 -0.005580 0.000000 0.006341 0.000000
# 2 -0.002879 0.012506 -0.004450 0.000000 0.001178 0.000000
# 3 -0.005580 -0.004450 0.023537 0.000000 -0.009267 0.000000
# 4 0.000000 0.000000 0.000000 0.035718 0.000000 -0.001494
# 5 0.006341 0.001178 -0.009267 0.000000 0.049449 0.000000
# 6 0.000000 0.000000 0.000000 -0.001494 0.000000 0.027529
#
#
# Mechanical properties :
#
#
# Convention : Reuss Voigt Hill
#
# Bulk Modulus (GPa) = 50.72701 62.40874 56.56788
# Shear Modulus (GPa) = 26.23074 30.44372 28.33723
#
# Velocity S-wave (km/s) = 3.99622 4.30520 4.15358
# Velocity P-wave (km/s) = 7.22334 7.91887 7.57909
#
# Compressibility (1/GPa) = 0.01971336
#
# Stress axis : x y z
#
# Youngs Moduli (GPa) = 105.39275 79.96403 42.48671
#
# Poissons Ratio (x) = 0.23020 0.23709
# Poissons Ratio (y) = 0.30340 0.18905
# Poissons Ratio (z) = 0.58812 0.35581
#
# Static dielectric constant tensor:
#      x y z
#    x 1.569850 0.000000 0.005880 
#    y 0.000000 1.556210 0.000000 
#    z 0.005880 0.000000 1.567050 
# 
# From -- ./inp_files/69452.got.cif
#   From: 2010.05.17/outbox.ucp.g08.bks.cvg/sg11_35_cif.got.tgz:69452.got - 2010.06.11 11:38:39.
