data_PCOD9167979
_publ_section_title
;
Structure prediction by ZEFSAII (Michael W. Deem and Ramdas Pophale) SiO2 
 PCOD9167979
Probable space group: P 21/M
;
_chemical_formula_sum "Si O2"
_cell_formula_units_Z 28
_cell_length_a 21.000000
_cell_length_b 9.000000
_cell_length_c 15.000000
_cell_angle_alpha 90.000000
_cell_angle_beta 150.000000
_cell_angle_gamma 90.000000
_cell_volume 1417.500000
_symmetry_space_group_name_H-M "P 21/M"
_symmetry_group_IT_number 11
_symmetry_cell_setting 'monoclinic'
loop_
_space_group_symop_operation_xyz
x,y,z
-x,1/2+y,-z
-x,-y,-z
x,1/2-y,z
loop_
_atom_site_type_symbol
_atom_site_label
_atom_site_fract_x
_atom_site_fract_y
_atom_site_fract_z
Si Si1 0.634961 0.928517 0.692328
Si Si2 0.915204 0.570959 0.974924
Si Si3 0.900044 0.416099 0.640402
Si Si4 0.290450 0.921771 0.033974
Si Si5 0.688601 0.926077 0.287754
Si Si6 0.059396 0.418172 0.656273
Si Si7 0.404493 0.922444 0.985288
O O1 0.624557 0.750000 0.674288
O O2 0.765560 0.973560 0.797577
O O3 0.500000 0.000000 0.500000
O O4 0.666573 0.980336 0.830990
O O5 0.916062 0.750000 0.967708
O O6 0.000000 0.500000 0.000000
O O7 0.989918 0.534158 0.157797
O O8 0.860026 0.250000 0.620369
O O9 0.781214 0.521043 0.478374
O O10 0.956500 0.405586 0.609940
O O11 0.272747 0.750000 0.040141
O O12 0.388459 0.927964 0.071385
O O13 0.167027 0.985856 0.835168
O O14 0.694906 0.750000 0.289621
O O15 0.699217 0.991249 0.200122
O O16 0.546590 0.977783 0.140094
O O17 0.102089 0.250000 0.685784
O O18 0.000000 0.500000 0.500000
O O19 0.394281 0.750000 0.945508
#
# Coordination Sequence:
#
# PCOD9167979 Si02
#       7
#     4   4   4   4   4   4   4
#     4  11  24  45  68  94 128 165 210 268 328 389
#     4  10  23  44  67  92 124 163 208 264 325 385
#     4  10  21  39  58  80 118 158 191 240 307 364
#     4  11  22  38  61  88 119 158 203 251 310 373
#     4  10  20  34  55  84 116 155 204 248 293 358
#     4  11  22  37  57  86 124 161 200 247 302 365
#     4   9  20  37  54  79 120 161 197 245 303 359
#
# _framework density 19.753086
#
# number of rings (size 3 to 8) (size 9 to 14) (size 15 to 20)
#    0.000    1.714    1.429    2.571    0.000    9.143 
#    0.000    4.286    0.000    0.000    0.000    0.000 
#    0.000    0.000    0.000    0.000    0.000    0.000 
#
# Total GULP energy -156069.406073 kJ/mol
# GULP energy per Si atom -5573.907360 kJ/mol
# Density = 1.970813 g / cm^3
# Si number density = 19.753086 Si / 1000 Ang^3
#
#
#
# Elastic Constant Matrix: (Units=GPa)
#
#
# Indices 1 2 3 4 5 6 
#
# 1 65.9795 36.2520 58.5816 0.0000 -2.1788 0.0000
# 2 36.2520 46.1042 42.5471 0.0000 3.5352 0.0000
# 3 58.5816 42.5471 154.3506 0.0000 0.4200 0.0000
# 4 0.0000 0.0000 0.0000 40.1579 0.0000 -5.5937
# 5 -2.1788 3.5352 0.4200 0.0000 27.2637 0.0000
# 6 0.0000 0.0000 0.0000 -5.5937 0.0000 25.0013
#
#
#
# Elastic Compliance Matrix: (Units=1/GPa)
#
#
# Indices 1 2 3 4 5 6 
#
# 1 0.031960 -0.019203 -0.006850 0.000000 0.005150 0.000000
# 2 -0.019203 0.040996 -0.003994 0.000000 -0.006789 0.000000
# 3 -0.006850 -0.003994 0.010180 0.000000 -0.000186 0.000000
# 4 0.000000 0.000000 0.000000 0.025703 0.000000 0.005751
# 5 0.005150 -0.006789 -0.000186 0.000000 0.037973 0.000000
# 6 0.000000 0.000000 0.000000 0.005751 0.000000 0.041285
#
#
# Mechanical properties :
#
#
# Convention : Reuss Voigt Hill
#
# Bulk Modulus (GPa) = 43.40118 60.13286 51.76702
# Shear Modulus (GPa) = 19.54110 27.08817 23.31464
#
# Velocity S-wave (km/s) = 3.14868 3.70718 3.43928
# Velocity P-wave (km/s) = 5.93620 6.98803 6.48348
#
# Compressibility (1/GPa) = 0.02304085
#
# Stress axis : x y z
#
# Youngs Moduli (GPa) = 31.28952 24.39285 98.22997
#
# Poissons Ratio (x) = 0.46841 0.67292
# Poissons Ratio (y) = 0.60085 0.39232
# Poissons Ratio (z) = 0.21435 0.09742
#
# Static dielectric constant tensor:
#      x y z
#    x 1.802970 0.000000 0.069070 
#    y 0.000000 1.706430 0.000000 
#    z 0.069070 0.000000 1.691020 
# 
# From -- ./inp_files/54602.got.cif
#   From: 2010.05.17/outbox.ucp.g08.bks.cvg/sg11_28_cif.got.tgz:54602.got - 2010.06.11 11:38:39.
