data_PCOD9167279
_publ_section_title
;
Structure prediction by ZEFSAII (Michael W. Deem and Ramdas Pophale) SiO2 
 PCOD9167279
Probable space group: P 21/M
;
_chemical_formula_sum "Si O2"
_cell_formula_units_Z 28
_cell_length_a 11.599270
_cell_length_b 8.741972
_cell_length_c 15.077369
_cell_angle_alpha 90.000000
_cell_angle_beta 113.274628
_cell_angle_gamma 90.000000
_cell_volume 1404.436844
_symmetry_space_group_name_H-M "P 21/M"
_symmetry_group_IT_number 11
_symmetry_cell_setting 'monoclinic'
loop_
_space_group_symop_operation_xyz
x,y,z
-x,1/2+y,-z
-x,-y,-z
x,1/2-y,z
loop_
_atom_site_type_symbol
_atom_site_label
_atom_site_fract_x
_atom_site_fract_y
_atom_site_fract_z
Si Si1 0.303449 0.933965 0.460933
Si Si2 0.860372 0.068236 0.204789
Si Si3 0.317402 0.933161 0.149903
Si Si4 0.980013 0.433883 0.591483
Si Si5 0.637570 0.567936 0.028357
Si Si6 0.510644 0.434256 0.641191
Si Si7 0.058839 0.432307 0.107792
O O1 0.305362 0.750000 0.463350
O O2 0.158931 0.983001 0.417255
O O3 0.383816 0.982775 0.399202
O O4 0.380339 0.995373 0.568989
O O5 0.844949 0.250000 0.209600
O O6 0.963795 0.039821 0.159359
O O7 0.732278 0.994791 0.131126
O O8 0.914696 0.996492 0.310479
O O9 0.316003 0.750000 0.138425
O O10 0.437075 0.976426 0.246336
O O11 0.191733 0.985729 0.161777
O O12 0.316991 0.011472 0.054278
O O13 0.983709 0.250000 0.590813
O O14 0.000000 0.500000 0.500000
O O15 0.634521 0.750000 0.030375
O O16 0.500000 0.500000 0.000000
O O17 0.501418 0.250000 0.635048
O O18 0.076190 0.250000 0.103517
O O19 0.000000 0.500000 0.000000
#
# Coordination Sequence:
#
# PCOD9167279 Si02
#       7
#     4   4   4   4   4   4   4
#     4   9  19  37  59  86 119 156 198 248 303 360
#     4  11  24  43  66  94 126 162 208 261 315 375
#     4  11  22  38  60  90 127 163 206 253 305 374
#     4  11  24  42  64  90 123 164 210 260 314 372
#     4  12  26  44  65  88 121 163 207 254 310 372
#     4   9  19  35  59  88 119 156 195 245 303 361
#     4  11  22  36  61  93 127 163 203 255 314 374
#
# _framework density 19.936817999999999
#
# number of rings (size 3 to 8) (size 9 to 14) (size 15 to 20)
#    0.000    1.429    1.429    3.857    0.000    6.286 
#    0.000    5.714    0.000    0.000    0.000    0.000 
#    0.000    0.000    0.000    0.000    0.000    0.000 
#
# Total GULP energy -156582.665683 kJ/mol
# GULP energy per Si atom -5592.238060 kJ/mol
# Density = 1.989144 g / cm^3
# Si number density = 19.936818 Si / 1000 Ang^3
#
#
#
# Elastic Constant Matrix: (Units=GPa)
#
#
# Indices 1 2 3 4 5 6 
#
# 1 79.1033 43.3097 44.0733 0.0000 24.4732 0.0000
# 2 43.3097 78.4515 55.6038 0.0000 4.8040 0.0000
# 3 44.0733 55.6038 168.6850 0.0000 24.9228 0.0000
# 4 0.0000 0.0000 0.0000 34.9921 0.0000 5.0857
# 5 24.4732 4.8040 24.9228 0.0000 32.0407 0.0000
# 6 0.0000 0.0000 0.0000 5.0857 0.0000 30.4793
#
#
#
# Elastic Compliance Matrix: (Units=1/GPa)
#
#
# Indices 1 2 3 4 5 6 
#
# 1 0.024889 -0.012897 0.000307 0.000000 -0.017316 0.000000
# 2 -0.012897 0.023430 -0.005977 0.000000 0.010987 0.000000
# 3 0.000307 -0.005977 0.008723 0.000000 -0.006123 0.000000
# 4 0.000000 0.000000 0.000000 0.029288 0.000000 -0.004887
# 5 -0.017316 0.010987 -0.006123 0.000000 0.047552 0.000000
# 6 0.000000 0.000000 0.000000 -0.004887 0.000000 0.033625
#
#
# Mechanical properties :
#
#
# Convention : Reuss Voigt Hill
#
# Bulk Modulus (GPa) = 50.23249 68.02370 59.12810
# Shear Modulus (GPa) = 23.66544 31.71927 27.69235
#
# Velocity S-wave (km/s) = 3.44906 3.99305 3.73098
# Velocity P-wave (km/s) = 6.41185 7.44667 6.94855
#
# Compressibility (1/GPa) = 0.01990743
#
# Stress axis : x y z
#
# Youngs Moduli (GPa) = 40.17760 42.67978 114.64032
#
# Poissons Ratio (x) = 0.55046 -0.03517
# Poissons Ratio (y) = 0.51819 0.68519
# Poissons Ratio (z) = -0.01232 0.25509
#
# Static dielectric constant tensor:
#      x y z
#    x 1.708990 0.000000 -0.010830 
#    y 0.000000 1.650150 0.000000 
#    z -0.010830 0.000000 1.686860 
# 
# From -- ./inp_files/49466.got.cif
#   From: 2010.05.17/outbox.cif.g08.bks.cpg/sg11_25_cif.got.tgz:49466.got - 2010.06.03 12:22:45.
