data_PCOD9167639
_publ_section_title
;
Structure prediction by ZEFSAII (Michael W. Deem and Ramdas Pophale) SiO2 
 PCOD9167639
Probable space group: P 21/M
;
_chemical_formula_sum "Si O2"
_cell_formula_units_Z 28
_cell_length_a 10.187101
_cell_length_b 7.563277
_cell_length_c 31.577247
_cell_angle_alpha 90.000000
_cell_angle_beta 143.673969
_cell_angle_gamma 90.000000
_cell_volume 1441.234789
_symmetry_space_group_name_H-M "P 21/M"
_symmetry_group_IT_number 11
_symmetry_cell_setting 'monoclinic'
loop_
_space_group_symop_operation_xyz
x,y,z
-x,1/2+y,-z
-x,-y,-z
x,1/2-y,z
loop_
_atom_site_type_symbol
_atom_site_label
_atom_site_fract_x
_atom_site_fract_y
_atom_site_fract_z
Si Si1 0.051038 0.538467 0.061654
Si Si2 0.843390 0.465707 0.777167
Si Si3 0.665669 0.959435 0.504104
Si Si4 0.276154 0.532787 0.348050
Si Si5 0.757396 0.961709 0.062174
Si Si6 0.952211 0.956609 0.338579
Si Si7 0.457431 0.966333 0.222367
O O1 0.054698 0.750000 0.066458
O O2 0.288608 0.477236 0.141351
O O3 0.864052 0.472148 0.045846
O O4 0.000000 0.500000 0.000000
O O5 0.844370 0.250000 0.776340
O O6 0.791165 0.525013 0.716205
O O7 0.657873 0.518259 0.763358
O O8 0.080316 0.523754 0.857888
O O9 0.692566 0.750000 0.507362
O O10 0.523345 0.023000 0.426901
O O11 0.500000 0.000000 0.500000
O O12 0.900745 0.031641 0.580554
O O13 0.276712 0.750000 0.349135
O O14 0.100156 0.471624 0.338075
O O15 0.777485 0.750000 0.067144
O O16 0.500000 0.000000 0.000000
O O17 0.923875 0.750000 0.321391
O O18 0.706929 0.031360 0.280739
O O19 0.462809 0.750000 0.224146
#
# Coordination Sequence:
#
# PCOD9167639 Si02
#       7
#     4   4   4   4   4   4   4
#     4   9  18  32  48  69  94 121 154 191 229 274
#     4   8  14  27  45  64  85 113 146 181 216 255
#     4   9  16  27  43  64  89 115 142 178 218 257
#     4   8  14  24  41  63  84 107 142 179 210 248
#     4   9  18  31  48  69  93 119 151 189 229 272
#     4   9  16  27  44  66  87 111 144 181 216 257
#     4   8  15  28  45  63  87 116 147 181 218 261
#
# _framework density 19.427783999999999
#
# number of rings (size 3 to 8) (size 9 to 14) (size 15 to 20)
#    0.000    3.429    0.000    3.000    0.000    1.714 
#    0.000    4.286    0.000    6.857    0.000    0.000 
#    0.000    0.000    0.000    0.000    0.000    0.000 
#
# Total GULP energy -155937.061641 kJ/mol
# GULP energy per Si atom -5569.180773 kJ/mol
# Density = 1.938357 g / cm^3
# Si number density = 19.427784 Si / 1000 Ang^3
#
#
#
# Elastic Constant Matrix: (Units=GPa)
#
#
# Indices 1 2 3 4 5 6 
#
# 1 104.9939 2.3313 125.6317 0.0000 -1.5184 0.0000
# 2 2.3313 39.2820 -0.9781 0.0000 0.7612 0.0000
# 3 125.6317 -0.9781 208.6772 0.0000 -1.1994 0.0000
# 4 0.0000 0.0000 0.0000 20.3191 0.0000 -0.3197
# 5 -1.5184 0.7612 -1.1994 0.0000 40.3219 0.0000
# 6 0.0000 0.0000 0.0000 -0.3197 0.0000 9.4015
#
#
#
# Elastic Compliance Matrix: (Units=1/GPa)
#
#
# Indices 1 2 3 4 5 6 
#
# 1 0.034336 -0.002567 -0.020680 0.000000 0.000726 0.000000
# 2 -0.002567 0.025661 0.001663 0.000000 -0.000532 0.000000
# 3 -0.020680 0.001663 0.017248 0.000000 -0.000297 0.000000
# 4 0.000000 0.000000 0.000000 0.049241 0.000000 0.001674
# 5 0.000726 -0.000532 -0.000297 0.000000 0.024829 0.000000
# 6 0.000000 0.000000 0.000000 0.001674 0.000000 0.106423
#
#
# Mechanical properties :
#
#
# Convention : Reuss Voigt Hill
#
# Bulk Modulus (GPa) = 29.34481 67.43588 48.39035
# Shear Modulus (GPa) = 16.01200 29.07305 22.54253
#
# Velocity S-wave (km/s) = 2.87397 3.87262 3.41005
# Velocity P-wave (km/s) = 5.11373 7.40153 6.36132
#
# Compressibility (1/GPa) = 0.03407758
#
# Stress axis : x y z
#
# Youngs Moduli (GPa) = 29.12369 38.96971 57.97739
#
# Poissons Ratio (x) = 0.10003 1.19895
# Poissons Ratio (y) = 0.07475 -0.09639
# Poissons Ratio (z) = 0.60227 -0.06479
#
# Static dielectric constant tensor:
#      x y z
#    x 1.664330 0.000000 0.001710 
#    y 0.000000 1.749260 0.000000 
#    z 0.001710 0.000000 1.693520 
# 
# From -- ./inp_files/49019.got.cif
#   From: 2010.05.17/outbox.cif.g08.bks.cpg/sg11_25_cif.got.tgz:49019.got - 2010.06.03 12:22:45.
