data_PCOD9167787
_publ_section_title
;
Structure prediction by ZEFSAII (Michael W. Deem and Ramdas Pophale) SiO2 
 PCOD9167787
Probable space group: P 21/M
;
_chemical_formula_sum "Si O2"
_cell_formula_units_Z 32
_cell_length_a 21.000000
_cell_length_b 9.000000
_cell_length_c 21.000000
_cell_angle_alpha 90.000000
_cell_angle_beta 30.000000
_cell_angle_gamma 90.000000
_cell_volume 1984.500000
_symmetry_space_group_name_H-M "P 21/M"
_symmetry_group_IT_number 11
_symmetry_cell_setting 'monoclinic'
loop_
_space_group_symop_operation_xyz
x,y,z
-x,1/2+y,-z
-x,-y,-z
x,1/2-y,z
loop_
_atom_site_type_symbol
_atom_site_label
_atom_site_fract_x
_atom_site_fract_y
_atom_site_fract_z
Si Si1 0.247644 0.929538 0.042259
Si Si2 0.615832 0.420966 0.817483
Si Si3 0.094542 0.928907 0.865031
Si Si4 0.635628 0.929231 0.404378
Si Si5 0.539772 0.570843 0.752981
Si Si6 0.012145 0.928121 0.789644
Si Si7 0.279970 0.428233 0.523212
Si Si8 0.316771 0.078661 0.114534
O O1 0.238730 0.750000 0.049435
O O2 0.387191 0.969770 0.889438
O O3 0.255425 0.989732 0.108449
O O4 0.121317 0.998608 0.118307
O O5 0.657650 0.250000 0.774666
O O6 0.609061 0.502411 0.755171
O O7 0.692378 0.502727 0.807966
O O8 0.467975 0.419026 0.967934
O O9 0.104070 0.750000 0.866242
O O10 0.035615 0.954904 0.845162
O O11 0.237781 0.000271 0.739140
O O12 0.000000 0.000000 0.000000
O O13 0.633664 0.750000 0.396108
O O14 0.657921 0.956998 0.460877
O O15 0.500000 0.000000 0.500000
O O16 0.542795 0.750000 0.754905
O O17 0.620592 0.528724 0.619461
O O18 0.006259 0.750000 0.784805
O O19 0.140378 0.993555 0.644599
O O20 0.259826 0.250000 0.535695
O O21 0.272590 0.250000 0.154045
#
# Coordination Sequence:
#
# PCOD9167787 Si02
#       8
#     4   4   4   4   4   4   4   4
#     4  10  19  31  50  76 104 134 169 210 253 298
#     4   9  16  26  43  69  99 130 164 204 252 301
#     4  10  21  37  56  78 104 135 172 214 259 309
#     4  10  20  35  55  79 106 137 173 213 257 306
#     4   9  18  32  50  74 101 130 168 210 250 295
#     4  10  21  36  53  75 103 135 170 207 251 303
#     4   9  19  36  55  74 100 136 173 206 247 302
#     4   9  16  27  44  67  98 133 167 207 251 295
#
# _framework density 16.124969
#
# number of rings (size 3 to 8) (size 9 to 14) (size 15 to 20)
#    0.000    2.500    0.000    2.250    0.000    7.000 
#    0.000    1.250    0.000    0.750    0.000    0.000 
#    0.000    0.000    0.000    0.000    0.000    0.000 
#
# Total GULP energy -178288.786366 kJ/mol
# GULP energy per Si atom -5571.524574 kJ/mol
# Density = 1.608827 g / cm^3
# Si number density = 16.124969 Si / 1000 Ang^3
#
#
#
# Elastic Constant Matrix: (Units=GPa)
#
#
# Indices 1 2 3 4 5 6 
#
# 1 114.9625 59.2415 77.2585 0.0000 -7.0227 0.0000
# 2 59.2415 99.8840 59.7319 0.0000 -4.2099 0.0000
# 3 77.2585 59.7319 137.3244 0.0000 1.7444 0.0000
# 4 0.0000 0.0000 0.0000 29.3668 0.0000 -2.7182
# 5 -7.0227 -4.2099 1.7444 0.0000 29.9593 0.0000
# 6 0.0000 0.0000 0.0000 -2.7182 0.0000 34.2054
#
#
#
# Elastic Compliance Matrix: (Units=1/GPa)
#
#
# Indices 1 2 3 4 5 6 
#
# 1 0.016321 -0.005429 -0.006865 0.000000 0.003463 0.000000
# 2 -0.005429 0.015490 -0.003698 0.000000 0.001119 0.000000
# 3 -0.006865 -0.003698 0.012789 0.000000 -0.002873 0.000000
# 4 0.000000 0.000000 0.000000 0.034304 0.000000 0.002726
# 5 0.003463 0.001119 -0.002873 0.000000 0.034515 0.000000
# 6 0.000000 0.000000 0.000000 0.002726 0.000000 0.029452
#
#
# Mechanical properties :
#
#
# Convention : Reuss Voigt Hill
#
# Bulk Modulus (GPa) = 79.25553 82.73721 80.99637
# Shear Modulus (GPa) = 27.92381 29.10223 28.51302
#
# Velocity S-wave (km/s) = 4.16590 4.25289 4.20962
# Velocity P-wave (km/s) = 8.50865 8.69123 8.60043
#
# Compressibility (1/GPa) = 0.01261742
#
# Stress axis : x y z
#
# Youngs Moduli (GPa) = 61.27139 64.55840 78.19269
#
# Poissons Ratio (x) = 0.35048 0.53677
# Poissons Ratio (y) = 0.33263 0.28912
# Poissons Ratio (z) = 0.42061 0.23871
#
# Static dielectric constant tensor:
#      x y z
#    x 1.535180 0.000000 0.010050 
#    y 0.000000 1.552440 0.000000 
#    z 0.010050 0.000000 1.528710 
# 
# From -- ./inp_files/66409.got.cif
#   From: 2010.05.17/outbox.ucp.g08.bks.cvg/sg11_34_cif.got.tgz:66409.got - 2010.06.11 11:38:39.
