data_PCOD9167474
_publ_section_title
;
Structure prediction by ZEFSAII (Michael W. Deem and Ramdas Pophale) SiO2 
 PCOD9167474
Probable space group: P 21/M
;
_chemical_formula_sum "Si O2"
_cell_formula_units_Z 24
_cell_length_a 9.491085
_cell_length_b 13.490012
_cell_length_c 9.624711
_cell_angle_alpha 90.000000
_cell_angle_beta 73.928198
_cell_angle_gamma 90.000000
_cell_volume 1184.134688
_symmetry_space_group_name_H-M "P 21/M"
_symmetry_group_IT_number 11
_symmetry_cell_setting 'monoclinic'
loop_
_space_group_symop_operation_xyz
x,y,z
-x,1/2+y,-z
-x,-y,-z
x,1/2-y,z
loop_
_atom_site_type_symbol
_atom_site_label
_atom_site_fract_x
_atom_site_fract_y
_atom_site_fract_z
Si Si1 0.586493 0.250000 0.773690
Si Si2 0.309150 0.921258 0.664418
Si Si3 0.633193 0.580205 0.585537
Si Si4 0.632849 0.463606 0.868621
Si Si5 0.166582 0.466741 0.957881
Si Si6 0.146110 0.250000 0.518046
Si Si7 0.761708 0.750000 0.182666
Si Si8 0.172342 0.750000 0.533763
O O1 0.620981 0.346362 0.855484
O O2 0.416826 0.250000 0.769752
O O3 0.694865 0.250000 0.612980
O O4 0.471003 0.872511 0.624095
O O5 0.195452 0.846458 0.624089
O O6 0.334087 0.017160 0.560898
O O7 0.255354 0.963374 0.825612
O O8 0.624697 0.506049 0.716573
O O9 0.764644 0.656387 0.564210
O O10 0.500000 0.500000 0.000000
O O11 0.773542 0.507630 0.906405
O O12 0.190140 0.351970 0.907224
O O13 0.000000 0.500000 0.000000
O O14 0.171533 0.250000 0.678984
O O15 0.979720 0.250000 0.509741
#
# Coordination Sequence:
#
# PCOD9167474 Si02
#       8
#     2   4   4   4   4   2   2   2
#     4  12  24  46  78 101 144 189 244 295 360 433
#     4  11  23  46  71 105 136 189 236 294 347 426
#     4  11  23  44  76 100 140 181 247 288 346 424
#     4  12  25  46  72 113 140 188 238 296 358 428
#     4  12  29  46  75 107 156 184 233 303 365 431
#     4  12  28  42  72 106 142 191 240 295 357 426
#     4  12  24  50  74 102 140 199 238 289 375 422
#     4  12  28  42  72 107 142 187 242 295 360 423
#
# _framework density 20.267965
#
# number of rings (size 3 to 8) (size 9 to 14) (size 15 to 20)
#    0.000    0.333    6.667    1.500    4.667    3.333 
#    0.000    0.000    0.000    0.000    0.000    0.000 
#    0.000    0.000    0.000    0.000    0.000    0.000 
#
# Total GULP energy -134198.936063 kJ/mol
# GULP energy per Si atom -5591.622336 kJ/mol
# Density = 2.022183 g / cm^3
# Si number density = 20.267965 Si / 1000 Ang^3
#
#
#
# Elastic Constant Matrix: (Units=GPa)
#
#
# Indices 1 2 3 4 5 6 
#
# 1 155.3008 36.8765 5.1197 0.0000 7.2955 0.0000
# 2 36.8765 127.9036 16.8405 0.0000 1.5485 0.0000
# 3 5.1197 16.8405 59.4319 0.0000 1.6713 0.0000
# 4 0.0000 0.0000 0.0000 25.4256 0.0000 7.2242
# 5 7.2955 1.5485 1.6713 0.0000 30.2071 0.0000
# 6 0.0000 0.0000 0.0000 7.2242 0.0000 19.1290
#
#
#
# Elastic Compliance Matrix: (Units=1/GPa)
#
#
# Indices 1 2 3 4 5 6 
#
# 1 0.006987 -0.001996 0.000008 0.000000 -0.001586 0.000000
# 2 -0.001996 0.008694 -0.002296 0.000000 0.000164 0.000000
# 3 0.000008 -0.002296 0.017500 0.000000 -0.000853 0.000000
# 4 0.000000 0.000000 0.000000 0.044058 0.000000 -0.016639
# 5 -0.001586 0.000164 -0.000853 0.000000 0.033527 0.000000
# 6 0.000000 0.000000 0.000000 -0.016639 0.000000 0.058560
#
#
# Mechanical properties :
#
#
# Convention : Reuss Voigt Hill
#
# Bulk Modulus (GPa) = 40.62892 51.14552 45.88722
# Shear Modulus (GPa) = 26.86735 33.87232 30.36984
#
# Velocity S-wave (km/s) = 3.64484 4.09250 3.87514
# Velocity P-wave (km/s) = 6.14838 6.90078 6.53542
#
# Compressibility (1/GPa) = 0.02461301
#
# Stress axis : x y z
#
# Youngs Moduli (GPa) = 143.11476 115.01714 57.14320
#
# Poissons Ratio (x) = 0.22963 -0.00048
# Poissons Ratio (y) = 0.28573 0.13121
# Poissons Ratio (z) = -0.00120 0.26411
#
# Static dielectric constant tensor:
#      x y z
#    x 2.291140 0.000000 0.311740 
#    y 0.000000 1.714620 0.000000 
#    z 0.311740 0.000000 1.838750 
# 
# From -- ./inp_files/12498.got.cif
#   From: 2010.05.17/outbox.cif.g08.bks.cpg/sg11_7_cif.got.tgz:12498.got - 2010.06.03 12:22:45.
