data_PCOD9167904
_publ_section_title
;
Structure prediction by ZEFSAII (Michael W. Deem and Ramdas Pophale) SiO2 
 PCOD9167904
Probable space group: P 21/M
;
_chemical_formula_sum "Si O2"
_cell_formula_units_Z 32
_cell_length_a 21.000000
_cell_length_b 9.000000
_cell_length_c 27.000000
_cell_angle_alpha 90.000000
_cell_angle_beta 20.000000
_cell_angle_gamma 90.000000
_cell_volume 1745.328791
_symmetry_space_group_name_H-M "P 21/M"
_symmetry_group_IT_number 11
_symmetry_cell_setting 'monoclinic'
loop_
_space_group_symop_operation_xyz
x,y,z
-x,1/2+y,-z
-x,-y,-z
x,1/2-y,z
loop_
_atom_site_type_symbol
_atom_site_label
_atom_site_fract_x
_atom_site_fract_y
_atom_site_fract_z
Si Si1 0.999081 0.570814 0.845297
Si Si2 0.381624 0.070157 0.935863
Si Si3 0.386566 0.919907 0.039835
Si Si4 0.695439 0.080588 0.631480
Si Si5 0.431577 0.081125 0.727582
Si Si6 0.232085 0.927020 0.582254
Si Si7 0.046229 0.417179 0.624824
Si Si8 0.059059 0.923692 0.008231
O O1 0.998690 0.750000 0.851835
O O2 0.159991 0.526616 0.688697
O O3 0.018671 0.496653 0.884536
O O4 0.803742 0.530848 0.960474
O O5 0.380931 0.250000 0.939862
O O6 0.563882 0.024319 0.771451
O O7 0.386859 0.001118 0.986476
O O8 0.450872 0.750000 0.986465
O O9 0.174206 0.917436 0.213297
O O10 0.500000 0.000000 0.000000
O O11 0.749267 0.250000 0.603349
O O12 0.567259 0.083842 0.675709
O O13 0.871595 0.988696 0.484848
O O14 0.353147 0.250000 0.780826
O O15 0.554613 0.046942 0.589256
O O16 0.277965 0.959665 0.849890
O O17 0.203234 0.750000 0.600187
O O18 0.111837 0.998596 0.626354
O O19 0.119182 0.250000 0.575196
O O20 0.017929 0.750000 0.037310
O O21 0.000000 0.000000 0.000000
#
# Coordination Sequence:
#
# PCOD9167904 Si02
#       8
#     4   4   4   4   4   4   4   4
#     4  10  19  36  60  86 114 145 185 231 277 330
#     4  10  19  35  60  86 113 145 186 232 277 330
#     4  11  24  39  56  81 114 151 190 232 281 335
#     4   9  18  33  56  84 112 146 183 224 276 333
#     4   9  17  34  56  83 114 144 184 226 272 331
#     4   9  18  33  58  85 111 146 182 222 277 334
#     4  10  20  33  52  82 115 144 182 233 277 323
#     4  12  25  39  57  81 113 153 190 230 280 332
#
# _framework density 18.334654
#
# number of rings (size 3 to 8) (size 9 to 14) (size 15 to 20)
#    0.000    2.000    2.500    2.625    0.000    5.000 
#    0.000    1.250    0.000    0.000    0.000    0.000 
#    0.000    0.000    0.000    0.000    0.000    0.000 
#
# Total GULP energy -178408.352946 kJ/mol
# GULP energy per Si atom -5575.261030 kJ/mol
# Density = 1.829292 g / cm^3
# Si number density = 18.334654 Si / 1000 Ang^3
#
#
#
# Elastic Constant Matrix: (Units=GPa)
#
#
# Indices 1 2 3 4 5 6 
#
# 1 54.1825 13.0550 10.0957 0.0000 19.8987 0.0000
# 2 13.0550 27.4950 20.9495 0.0000 13.2461 0.0000
# 3 10.0957 20.9495 65.2757 0.0000 37.7147 0.0000
# 4 0.0000 0.0000 0.0000 22.5687 0.0000 4.8283
# 5 19.8987 13.2461 37.7147 0.0000 27.1935 0.0000
# 6 0.0000 0.0000 0.0000 4.8283 0.0000 21.1222
#
#
#
# Elastic Compliance Matrix: (Units=1/GPa)
#
#
# Indices 1 2 3 4 5 6 
#
# 1 0.072867 -0.024283 0.103160 0.000000 -0.184563 0.000000
# 2 -0.024283 0.056802 -0.044062 0.000000 0.051211 0.000000
# 3 0.103160 -0.044062 0.225076 0.000000 -0.366181 0.000000
# 4 0.000000 0.000000 0.000000 0.046587 0.000000 -0.010649
# 5 -0.184563 0.051211 -0.366181 0.000000 0.654736 0.000000
# 6 0.000000 0.000000 0.000000 -0.010649 0.000000 0.049778
#
#
# Mechanical properties :
#
#
# Convention : Reuss Voigt Hill
#
# Bulk Modulus (GPa) = 2.35642 26.12817 14.24229
# Shear Modulus (GPa) = 4.24565 21.03377 12.63971
#
# Velocity S-wave (km/s) = 1.52337 3.39073 2.62847
# Velocity P-wave (km/s) = 2.09338 5.44160 4.12270
#
# Compressibility (1/GPa) = 0.42437223
#
# Stress axis : x y z
#
# Youngs Moduli (GPa) = 13.72367 17.60515 4.44294
#
# Poissons Ratio (x) = 0.42751 -0.45833
# Poissons Ratio (y) = 0.33326 0.19577
# Poissons Ratio (z) = -1.41573 0.77573
#
# Static dielectric constant tensor:
#      x y z
#    x 1.607380 0.000000 -0.003820 
#    y 0.000000 1.646360 0.000000 
#    z -0.003820 0.000000 1.680910 
# 
# From -- ./inp_files/72047.got.cif
#   From: 2010.05.17/outbox.ucp.g08.bks.cvg/sg11_37_cif.got.tgz:72047.got - 2010.06.11 11:38:39.
