data_PCOD9167106
_publ_section_title
;
Structure prediction by ZEFSAII (Michael W. Deem and Ramdas Pophale) SiO2 
 PCOD9167106
Probable space group: P 21/M
;
_chemical_formula_sum "Si O2"
_cell_formula_units_Z 32
_cell_length_a 11.588482
_cell_length_b 14.437232
_cell_length_c 17.784452
_cell_angle_alpha 90.000000
_cell_angle_beta 149.582870
_cell_angle_gamma 90.000000
_cell_volume 1506.439537
_symmetry_space_group_name_H-M "P 21/M"
_symmetry_group_IT_number 11
_symmetry_cell_setting 'monoclinic'
loop_
_space_group_symop_operation_xyz
x,y,z
-x,1/2+y,-z
-x,-y,-z
x,1/2-y,z
loop_
_atom_site_type_symbol
_atom_site_label
_atom_site_fract_x
_atom_site_fract_y
_atom_site_fract_z
Si Si1 0.320426 0.151326 0.995897
Si Si2 0.277397 0.398716 0.804161
Si Si3 0.209349 0.359428 0.236728
Si Si4 0.300848 0.353444 0.458981
Si Si5 0.478665 0.502465 0.678640
Si Si6 0.898714 0.146866 0.477133
Si Si7 0.849406 0.389506 0.280947
Si Si8 0.714132 0.447784 0.962322
O O1 0.246254 0.250000 0.987838
O O2 0.244850 0.145452 0.866869
O O3 0.595758 0.149948 0.146278
O O4 0.247856 0.056584 0.995636
O O5 0.191016 0.503871 0.760532
O O6 0.539472 0.405441 0.925451
O O7 0.123262 0.353957 0.653752
O O8 0.224150 0.250000 0.227844
O O9 0.321914 0.373924 0.382474
O O10 0.339480 0.424878 0.251740
O O11 0.948092 0.392701 0.092237
O O12 0.392562 0.250000 0.525894
O O13 0.404544 0.430873 0.572022
O O14 0.029482 0.351263 0.323534
O O15 0.269758 0.566565 0.589455
O O16 0.584191 0.449798 0.809533
O O17 0.793984 0.250000 0.422595
O O18 0.957103 0.125217 0.423758
#
# Coordination Sequence:
#
# PCOD9167106 Si02
#       8
#     4   4   4   4   4   4   4   4
#     4  11  22  37  60  96 135 172 214 259 323 393
#     4  11  21  38  60  94 133 168 205 266 325 384
#     4  11  26  47  68  92 123 175 228 270 321 382
#     4  11  23  41  67  96 128 169 218 266 323 386
#     4  12  24  44  67  93 134 170 217 271 322 380
#     4  12  23  37  63  98 130 168 208 259 332 396
#     4  11  20  38  62  91 131 170 209 259 325 393
#     4  11  24  41  68  93 129 170 220 269 327 376
#
# _framework density 21.242139999999999
#
# number of rings (size 3 to 8) (size 9 to 14) (size 15 to 20)
#    0.000    0.750    3.750    6.750    0.000    3.000 
#    0.000    0.625    0.000    0.000    0.000    0.000 
#    0.000    0.000    0.000    0.000    0.000    0.000 
#
# Total GULP energy -178985.074291 kJ/mol
# GULP energy per Si atom -5593.283572 kJ/mol
# Density = 2.119379 g / cm^3
# Si number density = 21.242140 Si / 1000 Ang^3
#
#
#
# Elastic Constant Matrix: (Units=GPa)
#
#
# Indices 1 2 3 4 5 6 
#
# 1 34.2130 -5.8397 -1.8298 0.0000 1.0732 0.0000
# 2 -5.8397 104.2977 18.0033 0.0000 -0.0731 0.0000
# 3 -1.8298 18.0033 63.9606 0.0000 -12.6507 0.0000
# 4 0.0000 0.0000 0.0000 18.5640 0.0000 -14.0375
# 5 1.0732 -0.0731 -12.6507 0.0000 20.1017 0.0000
# 6 0.0000 0.0000 0.0000 -14.0375 0.0000 70.7253
#
#
#
# Elastic Compliance Matrix: (Units=1/GPa)
#
#
# Indices 1 2 3 4 5 6 
#
# 1 0.029561 0.001640 0.000084 0.000000 -0.001520 0.000000
# 2 0.001640 0.010239 -0.003250 0.000000 -0.002095 0.000000
# 3 0.000084 -0.003250 0.018901 0.000000 0.011879 0.000000
# 4 0.000000 0.000000 0.000000 0.063380 0.000000 0.012580
# 5 -0.001520 -0.002095 0.011879 0.000000 0.057296 0.000000
# 6 0.000000 0.000000 0.000000 0.012580 0.000000 0.016636
#
#
# Mechanical properties :
#
#
# Convention : Reuss Voigt Hill
#
# Bulk Modulus (GPa) = 17.97002 24.79323 21.38163
# Shear Modulus (GPa) = 22.97630 34.68737 28.83184
#
# Velocity S-wave (km/s) = 3.29239 4.04536 3.68814
# Velocity P-wave (km/s) = 4.78865 5.78939 5.31263
#
# Compressibility (1/GPa) = 0.05564823
#
# Stress axis : x y z
#
# Youngs Moduli (GPa) = 33.82879 97.66381 52.90667
#
# Poissons Ratio (x) = -0.16013 -0.00442
# Poissons Ratio (y) = -0.05547 0.17193
# Poissons Ratio (z) = -0.00283 0.31737
#
# Static dielectric constant tensor:
#      x y z
#    x 1.734840 0.000000 -0.006200 
#    y 0.000000 1.679150 0.000000 
#    z -0.006200 0.000000 1.771320 
# 
# From -- ./inp_files/59511.got.cif
#   From: 2010.05.17/outbox.cif.g08.bks.cpg/sg11_30_cif.got.tgz:59511.got - 2010.06.03 12:22:45.
