data_PCOD9167141
_publ_section_title
;
Structure prediction by ZEFSAII (Michael W. Deem and Ramdas Pophale) SiO2 
 PCOD9167141
Probable space group: P 21/M
;
_chemical_formula_sum "Si O2"
_cell_formula_units_Z 24
_cell_length_a 16.426993
_cell_length_b 8.547097
_cell_length_c 10.089394
_cell_angle_alpha 90.000000
_cell_angle_beta 121.232546
_cell_angle_gamma 90.000000
_cell_volume 1211.276768
_symmetry_space_group_name_H-M "P 21/M"
_symmetry_group_IT_number 11
_symmetry_cell_setting 'monoclinic'
loop_
_space_group_symop_operation_xyz
x,y,z
-x,1/2+y,-z
-x,-y,-z
x,1/2-y,z
loop_
_atom_site_type_symbol
_atom_site_label
_atom_site_fract_x
_atom_site_fract_y
_atom_site_fract_z
Si Si1 0.943615 0.933918 0.110444
Si Si2 0.210075 0.440483 0.207018
Si Si3 0.600251 0.432888 0.131947
Si Si4 0.735560 0.932097 0.027638
Si Si5 0.930619 0.438505 0.554100
Si Si6 0.733760 0.936912 0.454729
O O1 0.963063 0.750000 0.103562
O O2 0.850707 0.942163 0.130469
O O3 0.028468 0.000737 0.269792
O O4 0.894017 0.999611 0.934365
O O5 0.202581 0.250000 0.205156
O O6 0.248963 0.495450 0.380051
O O7 0.278928 0.475003 0.140028
O O8 0.591633 0.250000 0.145559
O O9 0.677348 0.468304 0.081980
O O10 0.639803 0.508776 0.300235
O O11 0.500000 0.500000 0.000000
O O12 0.709999 0.750000 0.026681
O O13 0.931648 0.250000 0.556312
O O14 0.824163 0.499563 0.449935
O O15 0.000000 0.500000 0.500000
O O16 0.736317 0.750000 0.458344
#
# Coordination Sequence:
#
# PCOD9167141 Si02
#       6
#     4   4   4   4   4   4
#     4   7  14  30  54  79 110 150 188 225 272 324
#     4   7  15  33  59  85 113 152 192 230 283 337
#     4  12  25  41  61  86 112 145 190 238 291 349
#     4   8  15  35  62  85 111 148 189 233 283 334
#     4  11  21  33  52  83 120 158 200 240 283 333
#     4  11  22  38  59  85 118 152 190 239 288 341
#
# _framework density 19.813804000000001
#
# number of rings (size 3 to 8) (size 9 to 14) (size 15 to 20)
#    1.000    1.667    0.000    3.500    0.000    2.000 
#    0.000    3.333    0.000    0.000    0.000    0.000 
#    0.000    0.000    0.000    0.000    0.000    0.000 
#
# Total GULP energy -133673.926293 kJ/mol
# GULP energy per Si atom -5569.746929 kJ/mol
# Density = 1.976871 g / cm^3
# Si number density = 19.813804 Si / 1000 Ang^3
#
#
#
# Elastic Constant Matrix: (Units=GPa)
#
#
# Indices 1 2 3 4 5 6 
#
# 1 24.3285 6.8420 34.9636 0.0000 -4.5890 0.0000
# 2 6.8420 53.6320 28.6985 0.0000 2.7108 0.0000
# 3 34.9636 28.6985 169.6925 0.0000 1.6231 0.0000
# 4 0.0000 0.0000 0.0000 25.4725 0.0000 2.0516
# 5 -4.5890 2.7108 1.6231 0.0000 24.0663 0.0000
# 6 0.0000 0.0000 0.0000 2.0516 0.0000 20.7654
#
#
#
# Elastic Compliance Matrix: (Units=1/GPa)
#
#
# Indices 1 2 3 4 5 6 
#
# 1 0.062210 -0.001830 -0.012632 0.000000 0.012920 0.000000
# 2 -0.001830 0.020659 -0.003093 0.000000 -0.002467 0.000000
# 3 -0.012632 -0.003093 0.009044 0.000000 -0.002670 0.000000
# 4 0.000000 0.000000 0.000000 0.039573 0.000000 -0.003910
# 5 0.012920 -0.002467 -0.002670 0.000000 0.044474 0.000000
# 6 0.000000 0.000000 0.000000 -0.003910 0.000000 0.048543
#
#
# Mechanical properties :
#
#
# Convention : Reuss Voigt Hill
#
# Bulk Modulus (GPa) = 17.60472 43.18458 30.39465
# Shear Modulus (GPa) = 17.95028 25.87077 21.91052
#
# Velocity S-wave (km/s) = 3.01316 3.61736 3.32900
# Velocity P-wave (km/s) = 4.58366 6.26814 5.49088
#
# Compressibility (1/GPa) = 0.05680294
#
# Stress axis : x y z
#
# Youngs Moduli (GPa) = 16.07465 48.40524 110.56618
#
# Poissons Ratio (x) = 0.08858 1.39666
# Poissons Ratio (y) = 0.02942 0.34200
# Poissons Ratio (z) = 0.20305 0.14973
#
# Static dielectric constant tensor:
#      x y z
#    x 1.725520 0.000000 -0.030750 
#    y 0.000000 1.660990 0.000000 
#    z -0.030750 0.000000 1.757020 
# 
# From -- ./inp_files/40811.got.cif
#   From: 2010.05.17/outbox.cif.g08.bks.cpg/sg11_21_cif.got.tgz:40811.got - 2010.06.03 12:22:45.
