data_PCOD9167674
_publ_section_title
;
Structure prediction by ZEFSAII (Michael W. Deem and Ramdas Pophale) SiO2 
 PCOD9167674
Probable space group: P 21/M
;
_chemical_formula_sum "Si O2"
_cell_formula_units_Z 32
_cell_length_a 14.007202
_cell_length_b 9.361776
_cell_length_c 18.865105
_cell_angle_alpha 90.000000
_cell_angle_beta 68.207494
_cell_angle_gamma 90.000000
_cell_volume 2297.031010
_symmetry_space_group_name_H-M "P 21/M"
_symmetry_group_IT_number 11
_symmetry_cell_setting 'monoclinic'
loop_
_space_group_symop_operation_xyz
x,y,z
-x,1/2+y,-z
-x,-y,-z
x,1/2-y,z
loop_
_atom_site_type_symbol
_atom_site_label
_atom_site_fract_x
_atom_site_fract_y
_atom_site_fract_z
Si Si1 0.027467 0.579040 0.884019
Si Si2 0.619969 0.921234 0.039926
Si Si3 0.588514 0.579040 0.884019
Si Si4 0.227246 0.079572 0.271601
Si Si5 0.078636 0.085414 0.575135
Si Si6 0.840104 0.578766 0.039926
Si Si7 0.001153 0.079572 0.271601
Si Si8 0.846229 0.085414 0.575135
O O1 0.042430 0.750000 0.884147
O O2 0.115947 0.499273 0.903172
O O3 0.020254 0.539579 0.803630
O O4 0.920418 0.546689 0.954168
O O5 0.608584 0.750000 0.049842
O O6 0.725590 0.963898 0.048821
O O7 0.519120 0.999273 0.096827
O O8 0.625415 0.953311 0.954168
O O9 0.573423 0.750000 0.884147
O O10 0.676115 0.539579 0.803630
O O11 0.231141 0.250000 0.284513
O O12 0.120832 0.053226 0.258335
O O13 0.220086 0.994107 0.346869
O O14 0.110275 0.250000 0.573682
O O15 0.963148 0.084853 0.573703
O O16 0.148174 1.000000 0.500000
O O17 0.066954 0.005893 0.653131
O O18 0.841574 0.750000 0.049842
O O19 0.984347 0.250000 0.284513
O O20 0.816043 0.250000 0.573682
#
# Coordination Sequence:
#
# PCOD9167674 Si02
#       8
#     4   4   4   4   4   4   4   4
#     4   9  17  28  42  60  80 104 136 170 202 238
#     4   9  17  29  43  58  79 107 136 167 204 242
#     4   9  17  28  42  60  80 104 136 170 202 238
#     4   9  16  26  40  57  79 107 136 166 200 237
#     4   9  16  25  37  54  77 105 135 164 195 233
#     4   9  17  29  43  58  79 107 136 167 204 242
#     4   9  16  26  40  57  79 107 136 166 200 237
#     4   9  16  25  37  54  77 105 135 164 195 233
#
# _framework density 13.931025999999999
#
# number of rings (size 3 to 8) (size 9 to 14) (size 15 to 20)
#    0.000    3.000    0.000    1.500    0.000    7.500 
#    0.000    0.000    0.000    4.500    0.000    0.000 
#    0.000    1.000    0.000    3.250    0.000    4.750 
#
# Total GULP energy -178223.148435 kJ/mol
# GULP energy per Si atom -5569.473389 kJ/mol
# Density = 1.389932 g / cm^3
# Si number density = 13.931026 Si / 1000 Ang^3
#
#
#
# Elastic Constant Matrix: (Units=GPa)
#
#
# Indices 1 2 3 4 5 6 
#
# 1 83.2751 42.1347 59.1753 0.0000 -0.5685 0.0000
# 2 42.1347 54.4723 68.7045 0.0000 -1.0022 0.0000
# 3 59.1753 68.7045 144.1872 0.0000 -1.7292 0.0000
# 4 0.0000 0.0000 0.0000 25.8645 0.0000 -0.2339
# 5 -0.5685 -1.0022 -1.7292 0.0000 19.6288 0.0000
# 6 0.0000 0.0000 0.0000 -0.2339 0.0000 19.6643
#
#
#
# Elastic Compliance Matrix: (Units=1/GPa)
#
#
# Indices 1 2 3 4 5 6 
#
# 1 0.019981 -0.012815 -0.002097 0.000000 -0.000260 0.000000
# 2 -0.012815 0.054232 -0.020575 0.000000 0.000585 0.000000
# 3 -0.002097 -0.020575 0.017605 0.000000 0.000440 0.000000
# 4 0.000000 0.000000 0.000000 0.038667 0.000000 0.000460
# 5 -0.000260 0.000585 0.000440 0.000000 0.051007 0.000000
# 6 0.000000 0.000000 0.000000 0.000460 0.000000 0.050859
#
#
# Mechanical properties :
#
#
# Convention : Reuss Voigt Hill
#
# Bulk Modulus (GPa) = 47.97586 69.10705 58.54146
# Shear Modulus (GPa) = 16.11489 20.49288 18.30389
#
# Velocity S-wave (km/s) = 3.40481 3.83955 3.62870
# Velocity P-wave (km/s) = 7.06894 8.32890 7.72465
#
# Compressibility (1/GPa) = 0.02084382
#
# Stress axis : x y z
#
# Youngs Moduli (GPa) = 50.04790 18.43939 56.80185
#
# Poissons Ratio (x) = 0.23631 0.11911
# Poissons Ratio (y) = 0.64138 1.16868
# Poissons Ratio (z) = 0.10495 0.37938
#
# Static dielectric constant tensor:
#      x y z
#    x 1.428210 0.000000 -0.000750 
#    y 0.000000 1.465380 0.000000 
#    z -0.000750 0.000000 1.448020 
# 
# From -- ./inp_files/52914.got.cif
#   From: 2010.05.17/outbox.cif.g08.bks.cpg/sg11_27_cif.got.tgz:52914.got - 2010.06.03 12:22:45.
