data_PCOD9167470
_publ_section_title
;
Structure prediction by ZEFSAII (Michael W. Deem and Ramdas Pophale) SiO2 
 PCOD9167470
Probable space group: P 21/M
;
_chemical_formula_sum "Si O2"
_cell_formula_units_Z 24
_cell_length_a 5.559885
_cell_length_b 17.655886
_cell_length_c 10.939080
_cell_angle_alpha 90.000000
_cell_angle_beta 74.800493
_cell_angle_gamma 90.000000
_cell_volume 1036.267494
_symmetry_space_group_name_H-M "P 21/M"
_symmetry_group_IT_number 11
_symmetry_cell_setting 'monoclinic'
loop_
_space_group_symop_operation_xyz
x,y,z
-x,1/2+y,-z
-x,-y,-z
x,1/2-y,z
loop_
_atom_site_type_symbol
_atom_site_label
_atom_site_fract_x
_atom_site_fract_y
_atom_site_fract_z
Si Si1 0.329110 0.522187 0.371517
Si Si2 0.690817 0.250000 0.132807
Si Si3 0.138359 0.380469 0.487295
Si Si4 0.752930 0.517826 0.893683
Si Si5 0.656910 0.669377 0.291113
Si Si6 0.004607 0.373026 0.970326
Si Si7 0.884471 0.750000 0.710233
O O1 0.360932 0.443511 0.442460
O O2 0.263455 0.486829 0.248350
O O3 0.519375 0.588732 0.311383
O O4 0.107812 0.569464 0.463350
O O5 0.397338 0.250000 0.197779
O O6 0.881852 0.250000 0.225346
O O7 0.772369 0.323071 0.043066
O O8 0.182486 0.335569 0.606631
O O9 0.107944 0.323275 0.379615
O O10 0.930881 0.449168 0.909456
O O11 0.500000 0.500000 0.000000
O O12 0.855750 0.597398 0.927797
O O13 0.511841 0.750000 0.315055
O O14 0.818563 0.669814 0.146872
#
# Coordination Sequence:
#
# PCOD9167470 Si02
#       7
#     4   2   4   4   4   4   2
#     4  11  25  44  73 101 142 195 250 308 364 448
#     4  12  30  49  73 112 144 200 236 311 376 449
#     4  11  26  46  69 105 143 197 251 299 372 436
#     4  11  23  43  70 104 140 189 243 307 371 435
#     4  12  24  44  69 106 142 190 241 311 368 443
#     4  11  25  44  71 103 146 182 247 304 377 445
#     4  12  30  51  77 106 158 196 250 311 374 447
#
# _framework density 23.160045
#
# number of rings (size 3 to 8) (size 9 to 14) (size 15 to 20)
#    0.000    0.667    5.000    1.500    8.167    0.000 
#    1.500    0.000    0.000    0.000    0.000    0.000 
#    0.000    0.000    0.000    0.000    0.000    0.000 
#
# Total GULP energy -134073.896494 kJ/mol
# GULP energy per Si atom -5586.412354 kJ/mol
# Density = 2.310733 g / cm^3
# Si number density = 23.160045 Si / 1000 Ang^3
#
#
#
# Elastic Constant Matrix: (Units=GPa)
#
#
# Indices 1 2 3 4 5 6 
#
# 1 41.4874 13.7537 14.3030 0.0000 -8.2450 0.0000
# 2 13.7537 130.0766 56.8467 0.0000 4.9940 0.0000
# 3 14.3030 56.8467 108.4687 0.0000 -6.9663 0.0000
# 4 0.0000 0.0000 0.0000 32.7188 0.0000 -10.6077
# 5 -8.2450 4.9940 -6.9663 0.0000 31.8721 0.0000
# 6 0.0000 0.0000 0.0000 -10.6077 0.0000 28.8762
#
#
#
# Elastic Compliance Matrix: (Units=1/GPa)
#
#
# Indices 1 2 3 4 5 6 
#
# 1 0.026886 -0.002272 -0.001912 0.000000 0.006893 0.000000
# 2 -0.002272 0.010406 -0.005372 0.000000 -0.003392 0.000000
# 3 -0.001912 -0.005372 0.012484 0.000000 0.003076 0.000000
# 4 0.000000 0.000000 0.000000 0.034696 0.000000 0.012745
# 5 0.006893 -0.003392 0.003076 0.000000 0.034362 0.000000
# 6 0.000000 0.000000 0.000000 0.012745 0.000000 0.039313
#
#
# Mechanical properties :
#
#
# Convention : Reuss Voigt Hill
#
# Bulk Modulus (GPa) = 32.61072 49.98215 41.29644
# Shear Modulus (GPa) = 26.66958 31.70204 29.18581
#
# Velocity S-wave (km/s) = 3.39711 3.70378 3.55375
# Velocity P-wave (km/s) = 5.43123 6.31812 5.89139
#
# Compressibility (1/GPa) = 0.03066476
#
# Stress axis : x y z
#
# Youngs Moduli (GPa) = 37.19417 96.09976 80.10138
#
# Poissons Ratio (x) = 0.21833 0.15314
# Poissons Ratio (y) = 0.08450 0.43029
# Poissons Ratio (z) = 0.07111 0.51623
#
# Static dielectric constant tensor:
#      x y z
#    x 1.936930 0.000000 0.027220 
#    y 0.000000 1.882840 0.000000 
#    z 0.027220 0.000000 1.847670 
# 
# From -- ./inp_files/29759.got.cif
#   From: 2010.05.17/outbox.cif.g08.bks.cpg/sg11_15_cif.got.tgz:29759.got - 2010.06.03 12:22:45.
