data_PCOD9167439
_publ_section_title
;
Structure prediction by ZEFSAII (Michael W. Deem and Ramdas Pophale) SiO2 
 PCOD9167439
Probable space group: P 21/M
;
_chemical_formula_sum "Si O2"
_cell_formula_units_Z 24
_cell_length_a 5.452836
_cell_length_b 18.386519
_cell_length_c 11.792244
_cell_angle_alpha 90.000000
_cell_angle_beta 114.115702
_cell_angle_gamma 90.000000
_cell_volume 1079.088441
_symmetry_space_group_name_H-M "P 21/M"
_symmetry_group_IT_number 11
_symmetry_cell_setting 'monoclinic'
loop_
_space_group_symop_operation_xyz
x,y,z
-x,1/2+y,-z
-x,-y,-z
x,1/2-y,z
loop_
_atom_site_type_symbol
_atom_site_label
_atom_site_fract_x
_atom_site_fract_y
_atom_site_fract_z
Si Si1 0.288905 0.105223 0.731376
Si Si2 0.676912 0.335085 0.610840
Si Si3 0.373278 0.665090 0.665438
Si Si4 0.974402 0.034849 0.372084
Si Si5 0.805014 0.945585 0.810298
Si Si6 0.668871 0.438609 0.968236
O O1 0.460046 0.129784 0.654781
O O2 0.466237 0.120326 0.876765
O O3 0.984070 0.135034 0.676472
O O4 0.254064 0.017610 0.722543
O O5 0.688488 0.250000 0.640969
O O6 0.583763 0.341676 0.462423
O O7 0.357425 0.750000 0.690487
O O8 0.103754 0.618681 0.634278
O O9 0.592966 0.619576 0.777361
O O10 0.206180 0.029687 0.323272
O O11 0.000000 0.000000 0.500000
O O12 0.791082 0.018473 0.882889
O O13 0.094096 0.913654 0.904202
O O14 0.500000 0.500000 0.000000
#
# Coordination Sequence:
#
# PCOD9167439 Si02
#       6
#     4   4   4   4   4   4
#     4  12  23  42  73 101 136 185 237 298 351 422
#     4  11  26  45  68 103 145 187 233 295 369 433
#     4  11  25  42  65  98 145 188 228 293 370 434
#     4  12  23  39  69 106 136 175 238 296 353 430
#     4  11  23  42  65 102 138 180 235 290 361 421
#     4  11  23  40  70 100 133 178 236 304 345 415
#
# _framework density 22.240994000000001
#
# number of rings (size 3 to 8) (size 9 to 14) (size 15 to 20)
#    0.000    0.667    5.000    2.500    2.333    2.000 
#    0.000    1.667    0.000    0.000    0.000    0.000 
#    0.000    0.000    0.000    0.000    0.000    0.000 
#
# Total GULP energy -133967.002654 kJ/mol
# GULP energy per Si atom -5581.958444 kJ/mol
# Density = 2.219037 g / cm^3
# Si number density = 22.240994 Si / 1000 Ang^3
#
#
#
# Elastic Constant Matrix: (Units=GPa)
#
#
# Indices 1 2 3 4 5 6 
#
# 1 87.8709 36.7160 7.7904 0.0000 -1.4697 0.0000
# 2 36.7160 121.6709 15.7416 0.0000 -0.1380 0.0000
# 3 7.7904 15.7416 69.3531 0.0000 7.9986 0.0000
# 4 0.0000 0.0000 0.0000 22.1455 0.0000 2.3777
# 5 -1.4697 -0.1380 7.9986 0.0000 52.2180 0.0000
# 6 0.0000 0.0000 0.0000 2.3777 0.0000 27.1518
#
#
#
# Elastic Compliance Matrix: (Units=1/GPa)
#
#
# Indices 1 2 3 4 5 6 
#
# 1 0.013056 -0.003856 -0.000644 0.000000 0.000456 0.000000
# 2 -0.003856 0.009612 -0.001770 0.000000 0.000188 0.000000
# 3 -0.000644 -0.001770 0.015164 0.000000 -0.002346 0.000000
# 4 0.000000 0.000000 0.000000 0.045584 0.000000 -0.003992
# 5 0.000456 0.000188 -0.002346 0.000000 0.019523 0.000000
# 6 0.000000 0.000000 0.000000 -0.003992 0.000000 0.037180
#
#
# Mechanical properties :
#
#
# Convention : Reuss Voigt Hill
#
# Bulk Modulus (GPa) = 39.53943 44.37676 41.95810
# Shear Modulus (GPa) = 31.03862 34.87952 32.95907
#
# Velocity S-wave (km/s) = 3.73977 3.96441 3.85373
# Velocity P-wave (km/s) = 6.03856 6.39933 6.22156
#
# Compressibility (1/GPa) = 0.02529121
#
# Stress axis : x y z
#
# Youngs Moduli (GPa) = 76.59152 104.03915 65.94736
#
# Poissons Ratio (x) = 0.40119 0.04247
# Poissons Ratio (y) = 0.29534 0.11674
# Poissons Ratio (z) = 0.04932 0.18417
#
# Static dielectric constant tensor:
#      x y z
#    x 1.981030 0.000000 0.035680 
#    y 0.000000 1.802080 0.000000 
#    z 0.035680 0.000000 1.939190 
# 
# From -- ./inp_files/29797.got.cif
#   From: 2010.05.17/outbox.cif.g08.bks.cpg/sg11_15_cif.got.tgz:29797.got - 2010.06.03 12:22:45.
