data_PCOD9167128
_publ_section_title
;
Structure prediction by ZEFSAII (Michael W. Deem and Ramdas Pophale) SiO2 
 PCOD9167128
Probable space group: P 21/M
;
_chemical_formula_sum "Si O2"
_cell_formula_units_Z 32
_cell_length_a 23.724727
_cell_length_b 7.915569
_cell_length_c 6.859999
_cell_angle_alpha 90.000000
_cell_angle_beta 70.100442
_cell_angle_gamma 90.000000
_cell_volume 1211.349823
_symmetry_space_group_name_H-M "P 21/M"
_symmetry_group_IT_number 11
_symmetry_cell_setting 'monoclinic'
loop_
_space_group_symop_operation_xyz
x,y,z
-x,1/2+y,-z
-x,-y,-z
x,1/2-y,z
loop_
_atom_site_type_symbol
_atom_site_label
_atom_site_fract_x
_atom_site_fract_y
_atom_site_fract_z
Si Si1 0.390089 0.457460 0.315543
Si Si2 0.733152 0.558461 0.654073
Si Si3 0.241033 0.941421 0.784119
Si Si4 0.986311 0.450340 0.290947
Si Si5 0.516763 0.048285 0.256655
Si Si6 0.861049 0.556806 0.545827
Si Si7 0.890849 0.554035 0.966070
Si Si8 0.355671 0.449612 0.799327
O O1 0.389478 0.250000 0.306990
O O2 0.333525 0.516536 0.253229
O O3 0.458445 0.516539 0.205933
O O4 0.374446 0.507788 0.557908
O O5 0.731786 0.750000 0.737687
O O6 0.741269 0.566489 0.409561
O O7 0.796080 0.469581 0.629028
O O8 0.251595 0.750000 0.709084
O O9 0.288070 0.977550 0.904388
O O10 0.170269 0.965250 0.897726
O O11 0.991596 0.250000 0.270013
O O12 0.916126 0.494882 0.348485
O O13 0.000000 0.500000 0.500000
O O14 0.041964 0.523982 0.099315
O O15 0.517726 0.250000 0.240836
O O16 0.500000 0.000000 0.500000
O O17 0.584300 0.984582 0.147146
O O18 0.850183 0.750000 0.500310
O O19 0.882414 0.557925 0.741911
O O20 0.890243 0.750000 0.032526
O O21 0.349265 0.250000 0.805286
#
# Coordination Sequence:
#
# PCOD9167128 Si02
#       8
#     4   4   4   4   4   4   4   4
#     4   7  12  22  38  59  85 117 149 181 224 272
#     4   9  17  32  50  69  97 130 157 188 234 286
#     4  11  21  31  46  70  96 125 158 194 236 283
#     4   9  17  30  50  72  95 121 154 195 237 277
#     4   9  14  21  35  58  86 117 154 192 229 275
#     4   9  18  32  53  76  96 122 158 194 233 280
#     4   9  18  33  50  70  94 123 156 191 232 281
#     4   9  16  27  41  58  85 121 154 191 237 280
#
# _framework density 26.416812
#
# number of rings (size 3 to 8) (size 9 to 14) (size 15 to 20)
#    0.000    3.000    0.000    4.500    0.000    3.000 
#    0.000    1.250    0.000    0.000    0.000    0.875 
#    0.000    0.000    0.000    0.000    0.000    0.000 
#
# Total GULP energy -178595.308954 kJ/mol
# GULP energy per Si atom -5581.103405 kJ/mol
# Density = 2.635669 g / cm^3
# Si number density = 26.416812 Si / 1000 Ang^3
#
#
#
# Elastic Constant Matrix: (Units=GPa)
#
#
# Indices 1 2 3 4 5 6 
#
# 1 218.3151 6.7858 49.1746 0.0000 -67.0409 0.0000
# 2 6.7858 82.3198 4.2892 0.0000 -17.2148 0.0000
# 3 49.1746 4.2892 156.7567 0.0000 -56.3903 0.0000
# 4 0.0000 0.0000 0.0000 14.9195 0.0000 -13.7392
# 5 -67.0409 -17.2148 -56.3903 0.0000 66.5851 0.0000
# 6 0.0000 0.0000 0.0000 -13.7392 0.0000 29.3493
#
#
#
# Elastic Compliance Matrix: (Units=1/GPa)
#
#
# Indices 1 2 3 4 5 6 
#
# 1 0.006728 0.000986 0.000562 0.000000 0.007505 0.000000
# 2 0.000986 0.013149 0.001310 0.000000 0.005501 0.000000
# 3 0.000562 0.001310 0.009337 0.000000 0.008812 0.000000
# 4 0.000000 0.000000 0.000000 0.117816 0.000000 0.055153
# 5 0.007505 0.005501 0.008812 0.000000 0.031460 0.000000
# 6 0.000000 0.000000 0.000000 0.055153 0.000000 0.059891
#
#
# Mechanical properties :
#
#
# Convention : Reuss Voigt Hill
#
# Bulk Modulus (GPa) = 28.62928 64.21008 46.41968
# Shear Modulus (GPa) = 20.46592 48.64691 34.55642
#
# Velocity S-wave (km/s) = 2.78642 4.29594 3.62072
# Velocity P-wave (km/s) = 4.60578 6.99758 5.92365
#
# Compressibility (1/GPa) = 0.03492928
#
# Stress axis : x y z
#
# Youngs Moduli (GPa) = 148.63497 76.05339 107.09890
#
# Poissons Ratio (x) = -0.07495 -0.06022
# Poissons Ratio (y) = -0.14649 -0.14030
# Poissons Ratio (z) = -0.08357 -0.09963
#
# Static dielectric constant tensor:
#      x y z
#    x 2.253230 0.000000 -0.032190 
#    y 0.000000 1.955900 0.000000 
#    z -0.032190 0.000000 2.141220 
# 
# From -- ./inp_files/43771.got.cif
#   From: 2010.05.17/outbox.cif.g08.bks.cpg/sg11_22_cif.got.tgz:43771.got - 2010.06.03 12:22:45.
