data_PCOD9167308
_publ_section_title
;
Structure prediction by ZEFSAII (Michael W. Deem and Ramdas Pophale) SiO2 
 PCOD9167308
Probable space group: P 21/M
;
_chemical_formula_sum "Si O2"
_cell_formula_units_Z 32
_cell_length_a 23.112110
_cell_length_b 8.899221
_cell_length_c 14.953197
_cell_angle_alpha 90.000000
_cell_angle_beta 27.814338
_cell_angle_gamma 90.000000
_cell_volume 1435.085618
_symmetry_space_group_name_H-M "P 21/M"
_symmetry_group_IT_number 11
_symmetry_cell_setting 'monoclinic'
loop_
_space_group_symop_operation_xyz
x,y,z
-x,1/2+y,-z
-x,-y,-z
x,1/2-y,z
loop_
_atom_site_type_symbol
_atom_site_label
_atom_site_fract_x
_atom_site_fract_y
_atom_site_fract_z
Si Si1 0.519552 0.927754 0.570506
Si Si2 0.720362 0.928004 0.039037
Si Si3 0.197740 0.427114 0.749170
Si Si4 0.125270 0.923496 0.021292
Si Si5 0.874730 0.923496 0.478708
Si Si6 0.197740 0.927114 0.249170
Si Si7 0.480448 0.572246 0.929494
Si Si8 0.720362 0.071996 0.539037
O O1 0.494895 0.750000 0.600385
O O2 0.660064 0.948030 0.411102
O O3 0.500000 0.000000 0.500000
O O4 0.417503 0.004004 0.773229
O O5 0.717363 0.750000 0.034360
O O6 0.778479 0.976664 0.054218
O O7 0.801635 0.001176 0.849511
O O8 0.170148 0.250000 0.783081
O O9 0.198365 0.498824 0.650489
O O10 0.114807 0.510284 0.936269
O O11 0.167178 0.750000 0.959390
O O12 1.000000 0.928249 0.250000
O O13 0.832822 0.750000 0.540610
O O14 0.885193 0.989716 0.563731
O O15 0.778479 0.023336 0.554218
O O16 0.170148 0.750000 0.283081
O O17 0.339936 0.948030 0.088898
O O18 0.505104 0.750000 0.899615
O O19 0.582497 0.495996 0.726771
O O20 0.500000 0.500000 0.000000
O O21 0.717363 0.250000 0.534361
#
# Coordination Sequence:
#
# PCOD9167308 Si02
#       8
#     4   4   4   4   4   4   4   4
#     4  11  22  38  64  96 131 168 209 258 315 377
#     4  12  25  41  65  96 130 171 211 258 316 377
#     4  11  24  42  66  96 129 168 211 260 316 377
#     4  11  25  45  68  93 124 165 214 268 320 374
#     4  11  25  45  68  93 124 165 214 268 320 374
#     4  11  24  42  66  96 129 168 211 260 316 377
#     4  11  22  38  64  96 131 168 209 258 315 377
#     4  12  25  41  65  96 130 171 211 258 316 377
#
# _framework density 22.298321000000001
#
# number of rings (size 3 to 8) (size 9 to 14) (size 15 to 20)
#    0.000    0.750    2.500    5.250    0.000    9.000 
#    0.000    0.000    0.000    0.000    0.000    0.000 
#    0.000    0.000    0.000    0.000    0.000    0.000 
#
# Total GULP energy -179281.927880 kJ/mol
# GULP energy per Si atom -5602.560246 kJ/mol
# Density = 2.224757 g / cm^3
# Si number density = 22.298321 Si / 1000 Ang^3
#
#
#
# Elastic Constant Matrix: (Units=GPa)
#
#
# Indices 1 2 3 4 5 6 
#
# 1 52.2391 10.2422 15.7127 0.0000 27.6163 0.0000
# 2 10.2422 111.0284 41.7162 0.0000 8.7275 0.0000
# 3 15.7127 41.7162 110.4892 0.0000 33.8595 0.0000
# 4 0.0000 0.0000 0.0000 35.2055 0.0000 11.5246
# 5 27.6163 8.7275 33.8595 0.0000 47.3549 0.0000
# 6 0.0000 0.0000 0.0000 11.5246 0.0000 29.2218
#
#
#
# Elastic Compliance Matrix: (Units=1/GPa)
#
#
# Indices 1 2 3 4 5 6 
#
# 1 0.028204 -0.002026 0.002151 0.000000 -0.017613 0.000000
# 2 -0.002026 0.010690 -0.004490 0.000000 0.002422 0.000000
# 3 0.002151 -0.004490 0.013537 0.000000 -0.010106 0.000000
# 4 0.000000 0.000000 0.000000 0.032615 0.000000 -0.012863
# 5 -0.017613 0.002422 -0.010106 0.000000 0.038168 0.000000
# 6 0.000000 0.000000 0.000000 -0.012863 0.000000 0.039294
#
#
# Mechanical properties :
#
#
# Convention : Reuss Voigt Hill
#
# Bulk Modulus (GPa) = 22.88209 45.45542 34.16876
# Shear Modulus (GPa) = 26.90983 36.09547 31.50265
#
# Velocity S-wave (km/s) = 3.47769 4.02774 3.76278
# Velocity P-wave (km/s) = 5.13905 6.48534 5.85104
#
# Compressibility (1/GPa) = 0.04370230
#
# Stress axis : x y z
#
# Youngs Moduli (GPa) = 35.45611 93.54254 73.87068
#
# Poissons Ratio (x) = 0.18948 -0.15892
# Poissons Ratio (y) = 0.07182 0.33170
# Poissons Ratio (z) = -0.07628 0.42003
#
# Static dielectric constant tensor:
#      x y z
#    x 1.790250 0.000000 -0.046790 
#    y 0.000000 1.735800 0.000000 
#    z -0.046790 0.000000 1.816300 
# 
# From -- ./inp_files/55528.got.cif
#   From: 2010.05.17/outbox.cif.g08.bks.cpg/sg11_28_cif.got.tgz:55528.got - 2010.06.03 12:22:45.
