data_PCOD9167075
_publ_section_title
;
Structure prediction by ZEFSAII (Michael W. Deem and Ramdas Pophale) SiO2 
 PCOD9167075
Probable space group: P 21/M
;
_chemical_formula_sum "Si O2"
_cell_formula_units_Z 32
_cell_length_a 8.079894
_cell_length_b 20.186362
_cell_length_c 13.290536
_cell_angle_alpha 90.000000
_cell_angle_beta 127.440962
_cell_angle_gamma 90.000000
_cell_volume 1721.138757
_symmetry_space_group_name_H-M "P 21/M"
_symmetry_group_IT_number 11
_symmetry_cell_setting 'monoclinic'
loop_
_space_group_symop_operation_xyz
x,y,z
-x,1/2+y,-z
-x,-y,-z
x,1/2-y,z
loop_
_atom_site_type_symbol
_atom_site_label
_atom_site_fract_x
_atom_site_fract_y
_atom_site_fract_z
Si Si1 0.930057 0.176399 0.478400
Si Si2 0.679038 0.538587 0.124678
Si Si3 0.473257 0.676399 0.521600
Si Si4 0.425803 0.039429 0.374176
Si Si5 0.177451 0.960571 0.625824
Si Si6 0.821726 0.324095 0.773892
Si Si7 0.773943 0.824095 0.226109
Si Si8 0.929682 0.038587 0.875322
O O1 0.946892 0.250000 0.440049
O O2 0.726199 0.176403 0.476199
O O3 0.901797 0.115000 0.393911
O O4 0.124201 0.165851 0.625920
O O5 0.763526 0.496407 0.249724
O O6 0.632240 0.613276 0.145776
O O7 0.866470 0.545714 0.116470
O O8 0.500000 0.500000 0.000000
O O9 0.566794 0.750000 0.559951
O O10 0.613975 0.615000 0.606089
O O11 0.372361 0.665851 0.374080
O O12 0.617156 0.039962 0.367156
O O13 0.500000 0.000000 0.500000
O O14 0.235922 0.003593 0.249724
O O15 0.000000 0.000000 0.500000
O O16 0.806266 0.250000 0.812315
O O17 0.840688 0.386724 0.854224
O O18 0.026911 0.323818 0.776911
O O19 0.681635 0.750000 0.187685
O O20 0.000000 0.000000 0.000000
#
# Coordination Sequence:
#
# PCOD9167075 Si02
#       8
#     4   4   4   4   4   4   4   4
#     4   8  14  27  50  79 105 132 174 222 259 301
#     4  11  22  37  55  79 109 143 179 222 269 318
#     4   8  14  27  50  79 105 132 174 222 259 301
#     4  11  20  33  55  82 109 139 174 218 266 316
#     4  11  20  33  55  82 109 139 174 218 266 316
#     4   8  14  28  52  78 101 131 177 223 257 302
#     4   8  14  28  52  78 101 131 177 223 257 302
#     4  11  22  37  55  79 109 143 179 222 269 318
#
# _framework density 18.592341000000001
#
# number of rings (size 3 to 8) (size 9 to 14) (size 15 to 20)
#    0.000    2.500    2.500    3.000    0.000    0.000 
#    0.000    1.250    0.000   15.000    0.000    0.000 
#    0.000    0.000    0.000    0.000    0.000    0.000 
#
# Total GULP energy -178406.841547 kJ/mol
# GULP energy per Si atom -5575.213798 kJ/mol
# Density = 1.855002 g / cm^3
# Si number density = 18.592341 Si / 1000 Ang^3
#
#
#
# Elastic Constant Matrix: (Units=GPa)
#
#
# Indices 1 2 3 4 5 6 
#
# 1 15.8427 9.5955 4.4697 0.0000 2.7067 0.0000
# 2 9.5955 207.6540 84.7608 0.0000 4.6341 0.0000
# 3 4.4697 84.7608 109.9226 0.0000 3.0935 0.0000
# 4 0.0000 0.0000 0.0000 24.1692 0.0000 0.2405
# 5 2.7067 4.6341 3.0935 0.0000 27.6618 0.0000
# 6 0.0000 0.0000 0.0000 0.2405 0.0000 20.2685
#
#
#
# Elastic Compliance Matrix: (Units=1/GPa)
#
#
# Indices 1 2 3 4 5 6 
#
# 1 0.065914 -0.002754 -0.000389 0.000000 -0.005945 0.000000
# 2 -0.002754 0.007152 -0.005394 0.000000 -0.000325 0.000000
# 3 -0.000389 -0.005394 0.013287 0.000000 -0.000544 0.000000
# 4 0.000000 0.000000 0.000000 0.041380 0.000000 -0.000491
# 5 -0.005945 -0.000325 -0.000544 0.000000 0.036848 0.000000
# 6 0.000000 0.000000 0.000000 -0.000491 0.000000 0.049343
#
#
# Mechanical properties :
#
#
# Convention : Reuss Voigt Hill
#
# Bulk Modulus (GPa) = 14.43428 59.00791 36.72109
# Shear Modulus (GPa) = 19.67793 30.05947 24.86870
#
# Velocity S-wave (km/s) = 3.25682 4.02527 3.66126
# Velocity P-wave (km/s) = 4.68219 7.30824 6.13731
#
# Compressibility (1/GPa) = 0.06927951
#
# Stress axis : x y z
#
# Youngs Moduli (GPa) = 15.17123 139.82500 75.25932
#
# Poissons Ratio (x) = 0.38513 0.02928
# Poissons Ratio (y) = 0.04179 0.40592
# Poissons Ratio (z) = 0.00590 0.75415
#
# Static dielectric constant tensor:
#      x y z
#    x 1.674010 0.000000 -0.005460 
#    y 0.000000 1.702670 0.000000 
#    z -0.005460 0.000000 1.585460 
# 
# From -- ./inp_files/32841.got.cif
#   From: 2010.05.17/outbox.cif.g08.bks.cpg/sg11_17_cif.got.tgz:32841.got - 2010.06.03 12:22:45.
