data_PCOD9167924
_publ_section_title
;
Structure prediction by ZEFSAII (Michael W. Deem and Ramdas Pophale) SiO2 
 PCOD9167924
Probable space group: P 21/M
;
_chemical_formula_sum "Si O2"
_cell_formula_units_Z 32
_cell_length_a 27.000000
_cell_length_b 9.000000
_cell_length_c 21.000000
_cell_angle_alpha 90.000000
_cell_angle_beta 160.000000
_cell_angle_gamma 90.000000
_cell_volume 1745.328791
_symmetry_space_group_name_H-M "P 21/M"
_symmetry_group_IT_number 11
_symmetry_cell_setting 'monoclinic'
loop_
_space_group_symop_operation_xyz
x,y,z
-x,1/2+y,-z
-x,-y,-z
x,1/2-y,z
loop_
_atom_site_type_symbol
_atom_site_label
_atom_site_fract_x
_atom_site_fract_y
_atom_site_fract_z
Si Si1 0.556806 0.429033 0.206238
Si Si2 0.264227 0.429135 0.212981
Si Si3 0.617954 0.071815 0.428374
Si Si4 0.878090 0.069095 0.579597
Si Si5 0.991739 0.071219 0.585634
Si Si6 0.942248 0.069374 0.800771
Si Si7 0.517619 0.072764 0.617786
Si Si8 0.238154 0.070392 0.785995
O O1 0.553933 0.250000 0.195300
O O2 0.571356 0.457566 0.299352
O O3 0.711945 0.481180 0.366531
O O4 0.404141 0.483072 0.993417
O O5 0.264178 0.250000 0.207013
O O6 0.343558 0.498921 0.247667
O O7 0.373276 0.468151 0.402224
O O8 0.096513 0.478504 0.016189
O O9 0.610868 0.250000 0.429521
O O10 0.786606 0.023747 0.641499
O O11 0.513412 0.989432 0.350241
O O12 0.873957 0.250000 0.576787
O O13 0.979768 0.024855 0.644394
O O14 0.932695 0.022481 0.715039
O O15 0.976944 0.250000 0.564282
O O16 0.142280 0.033413 0.732897
O O17 0.856934 0.000037 0.385078
O O18 0.941132 0.250000 0.801073
O O19 0.531974 0.250000 0.634028
O O20 0.239047 0.250000 0.780554
#
# Coordination Sequence:
#
# PCOD9167924 Si02
#       8
#     4   4   4   4   4   4   4   4
#     4   8  15  28  46  67  88 112 146 185 220 259
#     4   9  18  33  51  69  92 124 160 194 227 269
#     4   9  17  31  51  72  93 119 153 192 233 277
#     4   8  14  26  45  68  90 110 141 187 226 258
#     4   9  17  28  43  64  88 114 144 179 220 262
#     4   8  15  29  50  73  92 115 154 198 232 268
#     4  10  20  32  46  69  99 126 154 190 231 274
#     4   9  17  29  44  63  88 116 146 180 217 260
#
# _framework density 18.334654
#
# number of rings (size 3 to 8) (size 9 to 14) (size 15 to 20)
#    0.000    3.250    0.000    1.875    0.000    2.500 
#    0.000    5.000    0.000    6.750    0.000    0.000 
#    0.000    0.000    0.000    0.000    0.000    0.000 
#
# Total GULP energy -178179.230238 kJ/mol
# GULP energy per Si atom -5568.100945 kJ/mol
# Density = 1.829292 g / cm^3
# Si number density = 18.334654 Si / 1000 Ang^3
#
#
#
# Elastic Constant Matrix: (Units=GPa)
#
#
# Indices 1 2 3 4 5 6 
#
# 1 31.7842 -1.6644 -40.2630 0.0000 2.7757 0.0000
# 2 -1.6644 -3.6938 -4.7180 0.0000 0.0069 0.0000
# 3 -40.2630 -4.7180 41.1750 0.0000 4.0247 0.0000
# 4 0.0000 0.0000 0.0000 18.7758 0.0000 0.0920
# 5 2.7757 0.0069 4.0247 0.0000 7.6971 0.0000
# 6 0.0000 0.0000 0.0000 0.0920 0.0000 13.7492
#
#
#
# Elastic Compliance Matrix: (Units=1/GPa)
#
#
# Indices 1 2 3 4 5 6 
#
# 1 -0.312316 0.491278 -0.274079 0.000000 0.255495 0.000000
# 2 0.491278 -1.007287 0.402792 0.000000 -0.386869 0.000000
# 3 -0.274079 0.402792 -0.218353 0.000000 0.212648 0.000000
# 4 0.000000 0.000000 0.000000 0.053262 0.000000 -0.000357
# 5 0.255495 -0.386869 0.212648 0.000000 -0.073059 0.000000
# 6 0.000000 0.000000 0.000000 -0.000357 0.000000 0.072734
#
#
# Mechanical properties :
#
#
# Convention : Reuss Voigt Hill
#
# Bulk Modulus (GPa) = -3.35600 -2.66947 -3.01274
# Shear Modulus (GPa) = -1.77033 15.77183 7.00075
#
# Velocity S-wave (km/s) = -0.98370 2.93613 1.95617
# Velocity P-wave (km/s) = 1.76766 3.16786 1.85886
#
# Compressibility (1/GPa) = -0.29797363
#
# Stress axis : x y z
#
# Youngs Moduli (GPa) = -3.20189 -0.99277 -4.57974
#
# Poissons Ratio (x) = 0.48772 -1.25521
# Poissons Ratio (y) = 1.57302 1.84468
# Poissons Ratio (z) = -0.87757 0.39988
#
# Static dielectric constant tensor:
#      x y z
#    x 1.643220 0.000000 0.003840 
#    y 0.000000 1.607480 0.000000 
#    z 0.003840 0.000000 1.635630 
# 
# From -- ./inp_files/26392.got.cif
#   From: 2010.05.17/outbox.ucp.g08.bks.cvg/sg11_14_cif.got.tgz:26392.got - 2010.06.11 11:38:39.
