data_PCOD9167297
_publ_section_title
;
Structure prediction by ZEFSAII (Michael W. Deem and Ramdas Pophale) SiO2 
 PCOD9167297
Probable space group: P 21/M
;
_chemical_formula_sum "Si O2"
_cell_formula_units_Z 32
_cell_length_a 12.532055
_cell_length_b 14.935804
_cell_length_c 19.999920
_cell_angle_alpha 90.000000
_cell_angle_beta 152.428662
_cell_angle_gamma 90.000000
_cell_volume 1732.694185
_symmetry_space_group_name_H-M "P 21/M"
_symmetry_group_IT_number 11
_symmetry_cell_setting 'monoclinic'
loop_
_space_group_symop_operation_xyz
x,y,z
-x,1/2+y,-z
-x,-y,-z
x,1/2-y,z
loop_
_atom_site_type_symbol
_atom_site_label
_atom_site_fract_x
_atom_site_fract_y
_atom_site_fract_z
Si Si1 0.430137 0.359134 0.870805
Si Si2 0.634735 0.359444 0.124206
Si Si3 0.854797 0.857882 0.549333
Si Si4 0.146018 0.946515 0.134647
Si Si5 0.937297 0.355138 0.656281
Si Si6 0.551958 0.000254 0.450452
Si Si7 0.522587 0.856766 0.251939
Si Si8 0.166014 0.355643 0.928267
O O1 0.445669 0.250000 0.879828
O O2 0.497117 0.392453 0.834500
O O3 0.163092 0.379585 0.738490
O O4 0.582501 0.389501 0.018961
O O5 0.627448 0.250000 0.119391
O O6 0.883812 0.385413 0.289894
O O7 0.422286 0.389642 0.052559
O O8 0.838445 0.750000 0.547353
O O9 0.686321 0.908801 0.506574
O O10 0.756380 0.882841 0.421386
O O11 0.319932 0.002978 0.277954
O O12 0.313442 0.883306 0.184007
O O13 0.968735 0.899008 0.085924
O O14 0.000000 0.000000 0.000000
O O15 0.885988 0.250000 0.616657
O O16 0.721852 0.418985 0.525383
O O17 0.018839 0.365851 0.778462
O O18 0.500000 0.000000 0.500000
O O19 0.527570 0.750000 0.249206
O O20 0.185871 0.250000 0.952430
#
# Coordination Sequence:
#
# PCOD9167297 Si02
#       8
#     4   4   4   4   4   4   4   4
#     4   8  15  31  55  80 107 138 180 227 276 327
#     4   8  15  31  56  85 108 133 182 237 273 318
#     4   9  19  35  55  83 114 144 182 226 277 330
#     4  11  23  38  51  78 117 147 183 230 276 332
#     4   9  18  36  60  84 108 142 188 236 279 326
#     4  11  22  38  57  81 113 145 192 233 274 331
#     4   9  18  35  57  77 103 148 185 217 273 339
#     4   9  17  35  62  81 104 149 191 223 272 333
#
# _framework density 18.468349
#
# number of rings (size 3 to 8) (size 9 to 14) (size 15 to 20)
#    0.000    2.750    1.250    1.875    0.000    2.000 
#    4.500    3.750    0.000    0.000    0.000    0.000 
#    0.000    0.000    0.000    0.000    0.000    0.000 
#
# Total GULP energy -178415.952062 kJ/mol
# GULP energy per Si atom -5575.498502 kJ/mol
# Density = 1.842631 g / cm^3
# Si number density = 18.468349 Si / 1000 Ang^3
#
#
#
# Elastic Constant Matrix: (Units=GPa)
#
#
# Indices 1 2 3 4 5 6 
#
# 1 133.9592 18.3008 66.5130 0.0000 -9.7193 0.0000
# 2 18.3008 26.9394 28.2787 0.0000 -2.8890 0.0000
# 3 66.5130 28.2787 147.3936 0.0000 6.1139 0.0000
# 4 0.0000 0.0000 0.0000 19.8753 0.0000 -5.5270
# 5 -9.7193 -2.8890 6.1139 0.0000 16.1872 0.0000
# 6 0.0000 0.0000 0.0000 -5.5270 0.0000 -8.0257
#
#
#
# Elastic Compliance Matrix: (Units=1/GPa)
#
#
# Indices 1 2 3 4 5 6 
#
# 1 0.010650 -0.001227 -0.004903 0.000000 0.008027 0.000000
# 2 -0.001227 0.048973 -0.009320 0.000000 0.011524 0.000000
# 3 -0.004903 -0.009320 0.011151 0.000000 -0.008819 0.000000
# 4 0.000000 0.000000 0.000000 0.042227 0.000000 -0.029080
# 5 0.008027 0.011524 -0.008819 0.000000 0.071985 0.000000
# 6 0.000000 0.000000 0.000000 -0.029080 0.000000 -0.104574
#
#
# Mechanical properties :
#
#
# Convention : Reuss Voigt Hill
#
# Bulk Modulus (GPa) = 25.07939 59.38636 42.23288
# Shear Modulus (GPa) = 40.12691 18.62067 29.37379
#
# Velocity S-wave (km/s) = 4.66632 3.17874 3.99243
# Velocity P-wave (km/s) = 6.53008 6.76003 6.64605
#
# Compressibility (1/GPa) = 0.03987337
#
# Stress axis : x y z
#
# Youngs Moduli (GPa) = 93.90053 20.41924 89.67554
#
# Poissons Ratio (x) = 0.02505 0.43971
# Poissons Ratio (y) = 0.11518 0.83582
# Poissons Ratio (z) = 0.46043 0.19032
#
# Static dielectric constant tensor:
#      x y z
#    x 1.638780 0.000000 0.006670 
#    y 0.000000 1.647570 0.000000 
#    z 0.006670 0.000000 1.644820 
# 
# From -- ./inp_files/41638.got.cif
#   From: 2010.05.17/outbox.cif.g08.bks.cpg/sg11_21_cif.got.tgz:41638.got - 2010.06.03 12:22:45.
