data_PCOD9167777
_publ_section_title
;
Structure prediction by ZEFSAII (Michael W. Deem and Ramdas Pophale) SiO2 
 PCOD9167777
Probable space group: P 21/M
;
_chemical_formula_sum "Si O2"
_cell_formula_units_Z 28
_cell_length_a 30.000000
_cell_length_b 9.000000
_cell_length_c 30.000000
_cell_angle_alpha 90.000000
_cell_angle_beta 170.000000
_cell_angle_gamma 90.000000
_cell_volume 1406.550239
_symmetry_space_group_name_H-M "P 21/M"
_symmetry_group_IT_number 11
_symmetry_cell_setting 'monoclinic'
loop_
_space_group_symop_operation_xyz
x,y,z
-x,1/2+y,-z
-x,-y,-z
x,1/2-y,z
loop_
_atom_site_type_symbol
_atom_site_label
_atom_site_fract_x
_atom_site_fract_y
_atom_site_fract_z
Si Si1 0.892476 0.071898 0.135892
Si Si2 0.090532 0.429181 0.134874
Si Si3 0.748566 0.921502 0.083386
Si Si4 0.584620 0.931867 0.392373
Si Si5 0.260553 0.075562 0.740391
Si Si6 0.220945 0.922736 0.610541
Si Si7 0.563781 0.430234 0.656409
O O1 0.898145 0.250000 0.139004
O O2 0.156960 0.015232 0.376122
O O3 0.844980 0.024867 0.139257
O O4 0.656848 0.018948 0.874100
O O5 0.096136 0.250000 0.136331
O O6 0.368532 0.480720 0.425596
O O7 0.000000 0.500000 0.000000
O O8 0.860731 0.469561 0.942600
O O9 0.783315 0.750000 0.104103
O O10 0.938036 0.944479 0.311855
O O11 0.450203 0.943386 0.800928
O O12 0.588105 0.750000 0.396141
O O13 0.549234 0.980929 0.408067
O O14 0.257299 0.250000 0.746005
O O15 0.275053 0.037537 0.702731
O O16 0.000000 0.000000 0.500000
O O17 0.500000 0.000000 0.000000
O O18 0.239837 0.750000 0.644817
O O19 0.555558 0.250000 0.647912
#
# Coordination Sequence:
#
# PCOD9167777 Si02
#       7
#     4   4   4   4   4   4   4
#     4  10  19  31  51  76 101 129 166 214 261 304
#     4  10  19  31  49  71  95 126 161 202 248 300
#     4  10  21  36  55  78 109 146 181 220 270 327
#     4   9  17  30  49  74  99 126 165 212 254 299
#     4  12  25  42  65  93 124 159 198 245 297 350
#     4  10  21  38  58  81 110 148 190 230 273 326
#     4   9  17  30  49  71  95 126 165 203 247 302
#
# _framework density 19.906860999999999
#
# number of rings (size 3 to 8) (size 9 to 14) (size 15 to 20)
#    0.000    2.000    0.000    4.286    0.000    5.714 
#    0.000    0.000    0.000    5.143    0.000    0.000 
#    0.000    0.000    0.000    0.000    0.000    0.000 
#
# Total GULP energy -156268.212503 kJ/mol
# GULP energy per Si atom -5581.007589 kJ/mol
# Density = 1.986155 g / cm^3
# Si number density = 19.906861 Si / 1000 Ang^3
#
#
#
# Elastic Constant Matrix: (Units=GPa)
#
#
# Indices 1 2 3 4 5 6 
#
# 1 41.6174 21.6524 10.3324 0.0000 3.8309 0.0000
# 2 21.6524 31.1473 22.3329 0.0000 -0.7039 0.0000
# 3 10.3324 22.3329 95.2775 0.0000 2.1041 0.0000
# 4 0.0000 0.0000 0.0000 5.2500 0.0000 -0.5246
# 5 3.8309 -0.7039 2.1041 0.0000 28.6795 0.0000
# 6 0.0000 0.0000 0.0000 -0.5246 0.0000 11.1552
#
#
#
# Elastic Compliance Matrix: (Units=1/GPa)
#
#
# Indices 1 2 3 4 5 6 
#
# 1 0.039186 -0.029366 0.002770 0.000000 -0.006158 0.000000
# 2 -0.029366 0.060673 -0.011175 0.000000 0.006232 0.000000
# 3 0.002770 -0.011175 0.012850 0.000000 -0.001587 0.000000
# 4 0.000000 0.000000 0.000000 0.191376 0.000000 0.009000
# 5 -0.006158 0.006232 -0.001587 0.000000 0.035960 0.000000
# 6 0.000000 0.000000 0.000000 0.009000 0.000000 0.090068
#
#
# Mechanical properties :
#
#
# Convention : Reuss Voigt Hill
#
# Bulk Modulus (GPa) = 26.90556 30.74196 28.82376
# Shear Modulus (GPa) = 9.65173 16.59857 13.12515
#
# Velocity S-wave (km/s) = 2.20431 2.89071 2.57052
# Velocity P-wave (km/s) = 4.47478 5.15927 4.82917
#
# Compressibility (1/GPa) = 0.03716703
#
# Stress axis : x y z
#
# Youngs Moduli (GPa) = 25.51949 16.48192 77.82310
#
# Poissons Ratio (x) = 0.48400 -0.21555
# Poissons Ratio (y) = 0.74939 0.86964
# Poissons Ratio (z) = -0.07068 0.18418
#
# Static dielectric constant tensor:
#      x y z
#    x 1.714240 0.000000 0.003640 
#    y 0.000000 1.676320 0.000000 
#    z 0.003640 0.000000 1.694930 
# 
# From -- ./inp_files/9645.got.cif
#   From: 2010.05.17/outbox.ucp.g08.bks.cvg/sg11_5_cif.got.tgz:9645.got - 2010.06.11 11:38:39.
