data_PCOD9167253
_publ_section_title
;
Structure prediction by ZEFSAII (Michael W. Deem and Ramdas Pophale) SiO2 
 PCOD9167253
Probable space group: P 21/M
;
_chemical_formula_sum "Si O2"
_cell_formula_units_Z 32
_cell_length_a 20.062826
_cell_length_b 9.494632
_cell_length_c 25.181474
_cell_angle_alpha 90.000000
_cell_angle_beta 20.608996
_cell_angle_gamma 90.000000
_cell_volume 1688.418132
_symmetry_space_group_name_H-M "P 21/M"
_symmetry_group_IT_number 11
_symmetry_cell_setting 'monoclinic'
loop_
_space_group_symop_operation_xyz
x,y,z
-x,1/2+y,-z
-x,-y,-z
x,1/2-y,z
loop_
_atom_site_type_symbol
_atom_site_label
_atom_site_fract_x
_atom_site_fract_y
_atom_site_fract_z
Si Si1 0.405699 0.087470 0.934393
Si Si2 0.353582 0.092330 0.846544
Si Si3 0.791723 0.416285 0.501111
Si Si4 0.167220 0.919120 0.404373
Si Si5 0.962062 0.080052 0.769162
Si Si6 0.366266 0.590010 0.660303
Si Si7 0.208031 0.418064 0.687775
Si Si8 0.140307 0.908416 0.930230
O O1 0.384810 0.250000 0.968558
O O2 0.370334 0.088806 0.897300
O O3 0.626010 0.043809 0.774135
O O4 0.247539 0.986903 0.077212
O O5 0.292401 0.250000 0.875837
O O6 0.564372 0.067682 0.666549
O O7 0.208279 0.979151 0.933236
O O8 0.834144 0.250000 0.460523
O O9 0.835592 0.449494 0.530266
O O10 0.907104 0.511726 0.374092
O O11 0.148473 0.750000 0.413025
O O12 0.000000 0.000000 0.500000
O O13 0.958978 0.250000 0.767431
O O14 0.055002 0.042040 0.757351
O O15 0.345571 0.750000 0.655261
O O16 0.222044 0.494807 0.733972
O O17 0.583058 0.546175 0.491142
O O18 0.320351 0.593085 0.756396
O O19 0.196455 0.250000 0.703522
O O20 0.071872 0.750000 0.988687
O O21 0.000000 0.000000 0.000000
#
# Coordination Sequence:
#
# PCOD9167253 Si02
#       8
#     4   4   4   4   4   4   4   4
#     4   9  20  38  58  82 115 150 185 225 275 335
#     4   9  19  37  58  78 103 141 189 233 277 335
#     4   9  19  37  60  85 113 148 185 221 271 333
#     4   9  19  38  64  91 117 148 185 224 267 325
#     4  11  22  34  53  84 116 144 185 235 278 321
#     4   9  19  35  50  67  93 132 178 220 272 332
#     4   9  19  34  51  71  99 131 170 225 276 321
#     4  11  23  35  49  71 102 137 180 232 282 330
#
# _framework density 18.952650999999999
#
# number of rings (size 3 to 8) (size 9 to 14) (size 15 to 20)
#    0.000    2.500    0.000    3.000    1.750    5.000 
#    0.000    5.625    0.000    0.000    0.000    0.000 
#    0.000    0.000    0.000    0.000    0.000    0.000 
#
# Total GULP energy -178505.339628 kJ/mol
# GULP energy per Si atom -5578.291863 kJ/mol
# Density = 1.890951 g / cm^3
# Si number density = 18.952651 Si / 1000 Ang^3
#
#
#
# Elastic Constant Matrix: (Units=GPa)
#
#
# Indices 1 2 3 4 5 6 
#
# 1 47.9885 30.3924 14.1683 0.0000 -16.6396 0.0000
# 2 30.3924 76.0098 38.2147 0.0000 -15.8343 0.0000
# 3 14.1683 38.2147 83.5890 0.0000 -0.4720 0.0000
# 4 0.0000 0.0000 0.0000 25.8015 0.0000 -3.3659
# 5 -16.6396 -15.8343 -0.4720 0.0000 33.6109 0.0000
# 6 0.0000 0.0000 0.0000 -3.3659 0.0000 33.6869
#
#
#
# Elastic Compliance Matrix: (Units=1/GPa)
#
#
# Indices 1 2 3 4 5 6 
#
# 1 0.030962 -0.009793 -0.000711 0.000000 0.010705 0.000000
# 2 -0.009793 0.022598 -0.008639 0.000000 0.005677 0.000000
# 3 -0.000711 -0.008639 0.016010 0.000000 -0.004197 0.000000
# 4 0.000000 0.000000 0.000000 0.039269 0.000000 0.003924
# 5 0.010705 0.005677 -0.004197 0.000000 0.037667 0.000000
# 6 0.000000 0.000000 0.000000 0.003924 0.000000 0.030077
#
#
# Mechanical properties :
#
#
# Convention : Reuss Voigt Hill
#
# Bulk Modulus (GPa) = 31.96499 41.45979 36.71239
# Shear Modulus (GPa) = 22.19302 26.94067 24.56684
#
# Velocity S-wave (km/s) = 3.42566 3.77433 3.60421
# Velocity P-wave (km/s) = 5.70519 6.39664 6.06079
#
# Compressibility (1/GPa) = 0.03128423
#
# Stress axis : x y z
#
# Youngs Moduli (GPa) = 32.29776 44.25211 62.46241
#
# Poissons Ratio (x) = 0.43335 0.04438
# Poissons Ratio (y) = 0.31629 0.53962
# Poissons Ratio (z) = 0.02295 0.38230
#
# Static dielectric constant tensor:
#      x y z
#    x 1.637730 0.000000 0.023680 
#    y 0.000000 1.653950 0.000000 
#    z 0.023680 0.000000 1.701250 
# 
# From -- ./inp_files/72019.got.cif
#   From: 2010.05.17/outbox.cif.g08.bks.cpg/sg11_37_cif.got.tgz:72019.got - 2010.06.03 12:22:45.
