data_PCOD9167791
_publ_section_title
;
Structure prediction by ZEFSAII (Michael W. Deem and Ramdas Pophale) SiO2 
 PCOD9167791
Probable space group: P 21/M
;
_chemical_formula_sum "Si O2"
_cell_formula_units_Z 32
_cell_length_a 27.000000
_cell_length_b 9.000000
_cell_length_c 21.000000
_cell_angle_alpha 90.000000
_cell_angle_beta 160.000000
_cell_angle_gamma 90.000000
_cell_volume 1745.328791
_symmetry_space_group_name_H-M "P 21/M"
_symmetry_group_IT_number 11
_symmetry_cell_setting 'monoclinic'
loop_
_space_group_symop_operation_xyz
x,y,z
-x,1/2+y,-z
-x,-y,-z
x,1/2-y,z
loop_
_atom_site_type_symbol
_atom_site_label
_atom_site_fract_x
_atom_site_fract_y
_atom_site_fract_z
Si Si1 0.828149 0.081298 0.143803
Si Si2 0.610431 0.931206 0.080024
Si Si3 0.419765 0.930147 0.340167
Si Si4 0.910349 0.416201 0.094266
Si Si5 0.551325 0.925382 0.234287
Si Si6 0.458268 0.427347 0.247085
Si Si7 0.833669 0.084187 0.548512
Si Si8 0.093502 0.579294 0.513826
O O1 0.784021 0.250000 0.108950
O O2 0.886550 0.095739 0.141903
O O3 0.944566 0.015082 0.333760
O O4 0.697391 0.968322 0.972541
O O5 0.606543 0.750000 0.077467
O O6 0.770246 0.995161 0.289856
O O7 0.500000 0.000000 0.000000
O O8 0.556022 0.991011 0.945215
O O9 0.440501 0.750000 0.364385
O O10 0.500000 0.000000 0.500000
O O11 0.469528 0.000870 0.331824
O O12 0.243886 0.955240 0.124868
O O13 0.952798 0.250000 0.123286
O O14 0.037919 0.536895 0.248177
O O15 0.521839 0.750000 0.199374
O O16 0.554907 0.993770 0.309931
O O17 0.710987 0.960218 0.401754
O O18 0.477601 0.250000 0.274387
O O19 0.778588 0.250000 0.498145
O O20 0.879627 0.090837 0.530038
O O21 0.079741 0.750000 0.520897
#
# Coordination Sequence:
#
# PCOD9167791 Si02
#       8
#     4   4   4   4   4   4   4   4
#     4   9  17  32  53  77 106 141 182 226 275 327
#     4  12  23  36  53  77 108 143 186 235 283 330
#     4  10  20  36  60  90 119 147 182 221 269 321
#     4   8  16  30  50  78 111 142 178 221 264 315
#     4  12  24  38  56  77 108 148 187 229 280 333
#     4  11  22  38  58  82 113 146 184 226 273 330
#     4  10  19  31  51  78 108 141 184 229 272 322
#     4  10  19  32  52  78 107 140 183 233 282 327
#
# _framework density 18.334654
#
# number of rings (size 3 to 8) (size 9 to 14) (size 15 to 20)
#    0.000    1.750    1.250    5.625    0.000    4.500 
#    0.000    0.625    0.000    0.750    0.000    0.000 
#    0.000    0.000    0.000    0.000    0.000    0.000 
#
# Total GULP energy -178347.442371 kJ/mol
# GULP energy per Si atom -5573.357574 kJ/mol
# Density = 1.829292 g / cm^3
# Si number density = 18.334654 Si / 1000 Ang^3
#
#
#
# Elastic Constant Matrix: (Units=GPa)
#
#
# Indices 1 2 3 4 5 6 
#
# 1 49.2973 26.9035 7.0486 0.0000 -18.5445 0.0000
# 2 26.9035 155.2805 39.6773 0.0000 -15.0726 0.0000
# 3 7.0486 39.6773 97.7085 0.0000 -28.5839 0.0000
# 4 0.0000 0.0000 0.0000 31.3438 0.0000 -5.4665
# 5 -18.5445 -15.0726 -28.5839 0.0000 26.9090 0.0000
# 6 0.0000 0.0000 0.0000 -5.4665 0.0000 21.6512
#
#
#
# Elastic Compliance Matrix: (Units=1/GPa)
#
#
# Indices 1 2 3 4 5 6 
#
# 1 0.032290 -0.004886 0.007783 0.000000 0.027783 0.000000
# 2 -0.004886 0.007959 -0.003715 0.000000 -0.002855 0.000000
# 3 0.007783 -0.003715 0.017616 0.000000 0.021995 0.000000
# 4 0.000000 0.000000 0.000000 0.033374 0.000000 0.008426
# 5 0.027783 -0.002855 0.021995 0.000000 0.078074 0.000000
# 6 0.000000 0.000000 0.000000 0.008426 0.000000 0.048314
#
#
# Mechanical properties :
#
#
# Convention : Reuss Voigt Hill
#
# Bulk Modulus (GPa) = 17.78468 49.94945 33.86707
# Shear Modulus (GPa) = 21.00783 31.22461 26.11622
#
# Velocity S-wave (km/s) = 3.38864 4.13126 3.77824
# Velocity P-wave (km/s) = 5.00316 7.07522 6.12741
#
# Compressibility (1/GPa) = 0.05622817
#
# Stress axis : x y z
#
# Youngs Moduli (GPa) = 30.96907 125.65120 56.76624
#
# Poissons Ratio (x) = 0.61397 -0.44179
# Poissons Ratio (y) = 0.15132 0.21087
# Poissons Ratio (z) = -0.24102 0.46675
#
# Static dielectric constant tensor:
#      x y z
#    x 1.678300 0.000000 0.083490 
#    y 0.000000 1.646500 0.000000 
#    z 0.083490 0.000000 1.662810 
# 
# From -- ./inp_files/67140.got.cif
#   From: 2010.05.17/outbox.ucp.g08.bks.cvg/sg11_34_cif.got.tgz:67140.got - 2010.06.11 11:38:39.
