data_PCOD9167837
_publ_section_title
;
Structure prediction by ZEFSAII (Michael W. Deem and Ramdas Pophale) SiO2 
 PCOD9167837
Probable space group: P 21/M
;
_chemical_formula_sum "Si O2"
_cell_formula_units_Z 32
_cell_length_a 15.000000
_cell_length_b 9.000000
_cell_length_c 24.000000
_cell_angle_alpha 90.000000
_cell_angle_beta 30.000000
_cell_angle_gamma 90.000000
_cell_volume 1620.000000
_symmetry_space_group_name_H-M "P 21/M"
_symmetry_group_IT_number 11
_symmetry_cell_setting 'monoclinic'
loop_
_space_group_symop_operation_xyz
x,y,z
-x,1/2+y,-z
-x,-y,-z
x,1/2-y,z
loop_
_atom_site_type_symbol
_atom_site_label
_atom_site_fract_x
_atom_site_fract_y
_atom_site_fract_z
Si Si1 0.973596 0.570643 0.753531
Si Si2 0.046072 0.571148 0.116326
Si Si3 0.821350 0.427050 0.726198
Si Si4 0.859636 0.078931 0.513527
Si Si5 0.654584 0.080582 0.508048
Si Si6 0.743684 0.419291 0.107633
Si Si7 0.696733 0.070995 0.262545
Si Si8 0.347775 0.420540 0.274240
O O1 0.960506 0.750000 0.761427
O O2 0.913478 0.502462 0.845298
O O3 0.180407 0.536730 0.622174
O O4 0.855461 0.503226 0.767152
O O5 0.069586 0.750000 0.107301
O O6 0.844734 0.520503 0.215072
O O7 0.145321 0.516540 0.005246
O O8 0.826818 0.250000 0.727829
O O9 0.652918 0.485934 0.782521
O O10 0.975235 0.489001 0.601527
O O11 0.898603 0.250000 0.508464
O O12 0.732105 0.086607 0.528911
O O13 0.772543 0.993289 0.612125
O O14 0.600101 0.250000 0.522338
O O15 0.488732 0.971511 0.606831
O O16 0.812649 0.250000 0.076692
O O17 0.724160 0.476289 0.182083
O O18 0.543774 0.417084 0.193434
O O19 0.719449 0.250000 0.252807
O O20 0.295011 0.250000 0.291065
#
# Coordination Sequence:
#
# PCOD9167837 Si02
#       8
#     4   4   4   4   4   4   4   4
#     4  10  22  42  62  85 117 153 197 244 289 341
#     4  11  23  41  62  85 114 154 198 241 293 347
#     4  11  22  36  56  85 117 154 194 235 287 349
#     4  10  19  33  53  83 120 156 192 235 287 346
#     4   9  19  35  57  85 118 151 187 237 291 343
#     4   9  21  39  60  87 119 152 193 244 291 341
#     4  11  21  37  61  90 119 150 191 238 293 350
#     4  11  20  35  57  84 117 154 193 240 291 342
#
# _framework density 19.753086
#
# number of rings (size 3 to 8) (size 9 to 14) (size 15 to 20)
#    0.000    1.750    1.250    4.500    0.000    3.000 
#    0.000    5.000    0.000    0.000    0.000    0.000 
#    0.000    0.000    0.000    0.000    0.000    0.000 
#
# Total GULP energy -178350.731316 kJ/mol
# GULP energy per Si atom -5573.460354 kJ/mol
# Density = 1.970813 g / cm^3
# Si number density = 19.753086 Si / 1000 Ang^3
#
#
#
# Elastic Constant Matrix: (Units=GPa)
#
#
# Indices 1 2 3 4 5 6 
#
# 1 39.0115 12.8094 -5.2931 0.0000 0.7031 0.0000
# 2 12.8094 90.7950 -0.3890 0.0000 6.4248 0.0000
# 3 -5.2931 -0.3890 4.9713 0.0000 11.1678 0.0000
# 4 0.0000 0.0000 0.0000 21.7353 0.0000 7.1298
# 5 0.7031 6.4248 11.1678 0.0000 23.7980 0.0000
# 6 0.0000 0.0000 0.0000 7.1298 0.0000 29.6046
#
#
#
# Elastic Compliance Matrix: (Units=1/GPa)
#
#
# Indices 1 2 3 4 5 6 
#
# 1 0.009676 -0.006130 -0.124499 0.000000 0.059793 0.000000
# 2 -0.006130 0.011455 -0.016795 0.000000 0.004970 0.000000
# 3 -0.124499 -0.016795 -0.900980 0.000000 0.431021 0.000000
# 4 0.000000 0.000000 0.000000 0.049954 0.000000 -0.012031
# 5 0.059793 0.004970 0.431021 0.000000 -0.163356 0.000000
# 6 0.000000 0.000000 0.000000 -0.012031 0.000000 0.036676
#
#
# Mechanical properties :
#
#
# Convention : Reuss Voigt Hill
#
# Bulk Modulus (GPa) = -0.85129 16.55918 7.85395
# Shear Modulus (GPa) = -4.74702 23.53761 9.39529
#
# Velocity S-wave (km/s) = -1.55190 3.45569 2.18328
# Velocity P-wave (km/s) = 1.90869 4.93190 3.21563
#
# Compressibility (1/GPa) = -1.17469455
#
# Stress axis : x y z
#
# Youngs Moduli (GPa) = 103.34318 87.29851 -1.10990
#
# Poissons Ratio (x) = 0.53510 -0.13818
# Poissons Ratio (y) = 0.63344 -0.01864
# Poissons Ratio (z) = 12.86608 1.46617
#
# Static dielectric constant tensor:
#      x y z
#    x 1.749170 0.000000 -0.059340 
#    y 0.000000 1.698590 0.000000 
#    z -0.059340 0.000000 1.719320 
# 
# From -- ./inp_files/68982.got.cif
#   From: 2010.05.17/outbox.ucp.g08.bks.cvg/sg11_35_cif.got.tgz:68982.got - 2010.06.11 11:38:39.
