data_PCOD9167402
_publ_section_title
;
Structure prediction by ZEFSAII (Michael W. Deem and Ramdas Pophale) SiO2 
 PCOD9167402
Probable space group: P 21/M
;
_chemical_formula_sum "Si O2"
_cell_formula_units_Z 28
_cell_length_a 7.908777
_cell_length_b 7.738285
_cell_length_c 26.806066
_cell_angle_alpha 90.000000
_cell_angle_beta 141.060050
_cell_angle_gamma 90.000000
_cell_volume 1031.089217
_symmetry_space_group_name_H-M "P 21/M"
_symmetry_group_IT_number 11
_symmetry_cell_setting 'monoclinic'
loop_
_space_group_symop_operation_xyz
x,y,z
-x,1/2+y,-z
-x,-y,-z
x,1/2-y,z
loop_
_atom_site_type_symbol
_atom_site_label
_atom_site_fract_x
_atom_site_fract_y
_atom_site_fract_z
Si Si1 0.122877 0.449204 0.806601
Si Si2 0.238852 0.956782 0.482940
Si Si3 0.085665 0.551410 0.910320
Si Si4 0.301040 0.056822 0.055361
Si Si5 0.513032 0.539893 0.756097
Si Si6 0.077301 0.953908 0.341037
Si Si7 0.635370 0.458077 0.383214
O O1 0.045891 0.250000 0.795484
O O2 0.114640 0.542511 0.857646
O O3 0.951429 0.528768 0.721476
O O4 0.441828 0.452500 0.867362
O O5 0.268350 0.750000 0.486148
O O6 0.407421 0.023838 0.569850
O O7 0.240795 0.029641 0.426575
O O8 0.935515 0.991898 0.433590
O O9 0.110188 0.750000 0.931893
O O10 0.285956 0.448095 0.991333
O O11 0.778132 0.488053 0.846581
O O12 0.346335 0.250000 0.083823
O O13 0.000000 0.000000 0.000000
O O14 0.500626 0.750000 0.753876
O O15 0.232773 0.470126 0.711431
O O16 0.540291 0.484522 0.704189
O O17 0.132848 0.750000 0.350353
O O18 0.625514 0.250000 0.383866
#
# Coordination Sequence:
#
# PCOD9167402 Si02
#       7
#     4   4   4   4   4   4   4
#     4  11  23  39  57  79 108 142 179 217 262 313
#     4   8  13  23  41  67  98 130 165 208 257 305
#     4  11  23  39  57  79 108 142 179 217 262 313
#     4  12  25  42  63  86 110 136 170 212 259 310
#     4   9  18  31  50  76 104 135 173 216 261 310
#     4   9  18  31  50  76 104 135 173 216 261 310
#     4   8  13  23  41  67  98 130 165 208 257 305
#
# _framework density 27.155750999999999
#
# number of rings (size 3 to 8) (size 9 to 14) (size 15 to 20)
#    0.000    2.286    0.000    3.429    0.000    4.571 
#    0.000    0.000    0.000    0.857    0.000    0.000 
#    0.000    0.000    0.000    0.000    0.000    0.286 
#
# Total GULP energy -156669.750604 kJ/mol
# GULP energy per Si atom -5595.348236 kJ/mol
# Density = 2.709394 g / cm^3
# Si number density = 27.155751 Si / 1000 Ang^3
#
#
#
# Elastic Constant Matrix: (Units=GPa)
#
#
# Indices 1 2 3 4 5 6 
#
# 1 98.9764 8.3689 19.5632 0.0000 -34.2202 0.0000
# 2 8.3689 95.3345 11.0430 0.0000 8.4767 0.0000
# 3 19.5632 11.0430 214.5545 0.0000 -20.1764 0.0000
# 4 0.0000 0.0000 0.0000 22.7833 0.0000 5.5662
# 5 -34.2202 8.4767 -20.1764 0.0000 63.2953 0.0000
# 6 0.0000 0.0000 0.0000 5.5662 0.0000 38.5680
#
#
#
# Elastic Compliance Matrix: (Units=1/GPa)
#
#
# Indices 1 2 3 4 5 6 
#
# 1 0.012743 -0.001691 -0.000418 0.000000 0.006983 0.000000
# 2 -0.001691 0.010943 -0.000652 0.000000 -0.002588 0.000000
# 3 -0.000418 -0.000652 0.004865 0.000000 0.001412 0.000000
# 4 0.000000 0.000000 0.000000 0.045496 0.000000 -0.006566
# 5 0.006983 -0.002588 0.001412 0.000000 0.020371 0.000000
# 6 0.000000 0.000000 0.000000 -0.006566 0.000000 0.026876
#
#
# Mechanical properties :
#
#
# Convention : Reuss Voigt Hill
#
# Bulk Modulus (GPa) = 43.42427 54.09064 48.75746
# Shear Modulus (GPa) = 37.17628 49.58868 43.38248
#
# Velocity S-wave (km/s) = 3.70402 4.27791 4.00126
# Velocity P-wave (km/s) = 5.85820 6.66052 6.27220
#
# Compressibility (1/GPa) = 0.02302860
#
# Stress axis : x y z
#
# Youngs Moduli (GPa) = 78.47270 91.37846 205.53569
#
# Poissons Ratio (x) = 0.15453 0.08597
# Poissons Ratio (y) = 0.13270 0.13410
# Poissons Ratio (z) = 0.03282 0.05962
#
# Static dielectric constant tensor:
#      x y z
#    x 2.314670 0.000000 -0.020610 
#    y 0.000000 1.912220 0.000000 
#    z -0.020610 0.000000 2.131360 
# 
# From -- ./inp_files/70925.got.cif
#   From: 2010.05.17/outbox.cif.g08.bks.cpg/sg11_36_cif.got.tgz:70925.got - 2010.06.03 12:22:45.
