data_PCOD9167911
_publ_section_title
;
Structure prediction by ZEFSAII (Michael W. Deem and Ramdas Pophale) SiO2 
 PCOD9167911
Probable space group: P 21/M
;
_chemical_formula_sum "Si O2"
_cell_formula_units_Z 28
_cell_length_a 30.000000
_cell_length_b 9.000000
_cell_length_c 30.000000
_cell_angle_alpha 90.000000
_cell_angle_beta 170.000000
_cell_angle_gamma 90.000000
_cell_volume 1406.550239
_symmetry_space_group_name_H-M "P 21/M"
_symmetry_group_IT_number 11
_symmetry_cell_setting 'monoclinic'
loop_
_space_group_symop_operation_xyz
x,y,z
-x,1/2+y,-z
-x,-y,-z
x,1/2-y,z
loop_
_atom_site_type_symbol
_atom_site_label
_atom_site_fract_x
_atom_site_fract_y
_atom_site_fract_z
Si Si1 0.809178 0.067228 0.690799
Si Si2 0.905557 0.571571 0.594431
Si Si3 0.385813 0.076070 0.114172
Si Si4 0.332918 0.421714 0.167055
Si Si5 0.760808 0.928270 0.739191
Si Si6 0.475636 0.570485 0.024357
Si Si7 0.046262 0.571376 0.453745
O O1 0.806821 0.250000 0.693156
O O2 0.577672 0.014869 0.432025
O O3 0.785924 0.985730 0.714073
O O4 0.067944 0.014868 0.922294
O O5 0.908771 0.750000 0.591209
O O6 0.641053 0.513992 0.354405
O O7 0.928332 0.478903 0.571666
O O8 0.145583 0.513997 0.858936
O O9 0.393808 0.250000 0.106167
O O10 0.359270 0.078925 0.140719
O O11 0.325626 0.250000 0.174337
O O12 0.758689 0.750000 0.741311
O O13 0.500000 0.000000 0.500000
O O14 0.000000 0.000000 0.000000
O O15 0.475661 0.750000 0.024320
O O16 0.714554 0.504230 0.286338
O O17 0.500000 0.500000 0.000000
O O18 0.213659 0.504224 0.785443
O O19 0.043378 0.750000 0.456641
#
# Coordination Sequence:
#
# PCOD9167911 Si02
#       7
#     4   4   4   4   4   4   4
#     4  10  19  36  60  88 119 157 200 249 302 361
#     4  12  25  42  62  92 129 166 204 256 317 369
#     4  11  22  41  66  93 122 163 212 255 298 365
#     4   9  19  35  60  88 118 156 202 247 298 360
#     4  12  25  42  63  91 123 161 204 253 306 365
#     4  12  25  44  67  96 130 167 207 256 311 370
#     4  12  25  44  67  94 125 166 213 260 309 368
#
# _framework density 19.906860999999999
#
# number of rings (size 3 to 8) (size 9 to 14) (size 15 to 20)
#    0.000    0.857    0.000    8.571    0.000    3.429 
#    0.000    4.286    0.000    0.000    0.000    0.000 
#    0.000    0.000    0.000    0.000    0.000    0.000 
#
# Total GULP energy -156359.142466 kJ/mol
# GULP energy per Si atom -5584.255088 kJ/mol
# Density = 1.986155 g / cm^3
# Si number density = 19.906861 Si / 1000 Ang^3
#
#
#
# Elastic Constant Matrix: (Units=GPa)
#
#
# Indices 1 2 3 4 5 6 
#
# 1 77.7553 28.6766 80.4858 0.0000 6.8446 0.0000
# 2 28.6766 172.0284 71.4560 0.0000 3.7752 0.0000
# 3 80.4858 71.4560 222.7663 0.0000 5.9456 0.0000
# 4 0.0000 0.0000 0.0000 64.7318 0.0000 2.7626
# 5 6.8446 3.7752 5.9456 0.0000 37.3688 0.0000
# 6 0.0000 0.0000 0.0000 2.7626 0.0000 33.4312
#
#
#
# Elastic Compliance Matrix: (Units=1/GPa)
#
#
# Indices 1 2 3 4 5 6 
#
# 1 0.020817 -0.000367 -0.007334 0.000000 -0.002609 0.000000
# 2 -0.000367 0.006717 -0.002014 0.000000 -0.000291 0.000000
# 3 -0.007334 -0.002014 0.007777 0.000000 0.000310 0.000000
# 4 0.000000 0.000000 0.000000 0.015503 0.000000 -0.001281
# 5 -0.002609 -0.000291 0.000310 0.000000 0.027218 0.000000
# 6 0.000000 0.000000 0.000000 -0.001281 0.000000 0.030018
#
#
# Mechanical properties :
#
#
# Convention : Reuss Voigt Hill
#
# Bulk Modulus (GPa) = 62.96800 92.64299 77.80550
# Shear Modulus (GPa) = 37.65778 46.56848 42.11313
#
# Velocity S-wave (km/s) = 4.35408 4.84190 4.60446
# Velocity P-wave (km/s) = 7.54834 8.82598 8.21204
#
# Compressibility (1/GPa) = 0.01588108
#
# Stress axis : x y z
#
# Youngs Moduli (GPa) = 48.03678 148.87078 128.58828
#
# Poissons Ratio (x) = 0.05457 0.94308
# Poissons Ratio (y) = 0.01761 0.25904
# Poissons Ratio (z) = 0.35231 0.29990
#
# Static dielectric constant tensor:
#      x y z
#    x 1.788080 0.000000 -0.003950 
#    y 0.000000 1.655240 0.000000 
#    z -0.003950 0.000000 1.743200 
# 
# From -- ./inp_files/73876.got.cif
#   From: 2010.05.17/outbox.ucp.g08.bks.cvg/sg11_37_cif.got.tgz:73876.got - 2010.06.11 11:38:39.
