data_PCOD9167794
_publ_section_title
;
Structure prediction by ZEFSAII (Michael W. Deem and Ramdas Pophale) SiO2 
 PCOD9167794
Probable space group: P 21/M
;
_chemical_formula_sum "Si O2"
_cell_formula_units_Z 32
_cell_length_a 12.000000
_cell_length_b 9.000000
_cell_length_c 21.000000
_cell_angle_alpha 90.000000
_cell_angle_beta 130.000000
_cell_angle_gamma 90.000000
_cell_volume 1737.388797
_symmetry_space_group_name_H-M "P 21/M"
_symmetry_group_IT_number 11
_symmetry_cell_setting 'monoclinic'
loop_
_space_group_symop_operation_xyz
x,y,z
-x,1/2+y,-z
-x,-y,-z
x,1/2-y,z
loop_
_atom_site_type_symbol
_atom_site_label
_atom_site_fract_x
_atom_site_fract_y
_atom_site_fract_z
Si Si1 0.273779 0.921236 0.439769
Si Si2 0.424259 0.424235 0.377956
Si Si3 0.091970 0.070844 0.091033
Si Si4 0.994856 0.074082 0.321699
Si Si5 0.960646 0.927058 0.170060
Si Si6 0.677777 0.071061 0.235822
Si Si7 0.365062 0.425749 0.916792
Si Si8 0.419030 0.069898 0.231119
O O1 0.230224 0.750000 0.418469
O O2 0.410008 0.931846 0.537053
O O3 0.330407 0.981849 0.392831
O O4 0.138021 0.019770 0.409820
O O5 0.378676 0.250000 0.364191
O O6 0.415190 0.479898 0.302835
O O7 0.077022 0.250000 0.085978
O O8 0.262670 0.033683 0.143839
O O9 0.040562 0.006890 0.140697
O O10 0.000000 0.000000 0.000000
O O11 0.997191 0.250000 0.311152
O O12 0.848684 0.037670 0.307260
O O13 0.995648 0.993415 0.252872
O O14 0.989912 0.750000 0.179835
O O15 0.786192 0.950154 0.101193
O O16 0.664042 0.250000 0.226039
O O17 0.560084 0.018186 0.244095
O O18 0.645450 0.998833 0.156161
O O19 0.384506 0.250000 0.917943
O O20 0.500000 0.500000 0.000000
O O21 0.428473 0.250000 0.237015
#
# Coordination Sequence:
#
# PCOD9167794 Si02
#       8
#     4   4   4   4   4   4   4   4
#     4  10  19  31  53  83 114 141 175 226 273 319
#     4   9  18  34  56  82 108 142 184 223 269 322
#     4  11  23  37  55  80 110 143 180 223 274 331
#     4  10  19  33  55  80 107 140 178 221 268 323
#     4  10  21  37  55  77 106 137 177 225 272 320
#     4   9  19  36  56  77 101 138 184 223 266 320
#     4  10  21  35  54  78 104 135 174 224 274 321
#     4   9  19  37  58  76 103 142 181 222 269 322
#
# _framework density 18.418444999999998
#
# number of rings (size 3 to 8) (size 9 to 14) (size 15 to 20)
#    0.000    2.250    0.000    2.625    1.750    3.500 
#    0.000    2.500    0.000    0.000    0.000    0.000 
#    0.000    0.000    0.000    0.000    0.000    0.000 
#
# Total GULP energy -178523.752601 kJ/mol
# GULP energy per Si atom -5578.867269 kJ/mol
# Density = 1.837652 g / cm^3
# Si number density = 18.418445 Si / 1000 Ang^3
#
#
#
# Elastic Constant Matrix: (Units=GPa)
#
#
# Indices 1 2 3 4 5 6 
#
# 1 82.2718 26.6183 48.2026 0.0000 8.7517 0.0000
# 2 26.6183 41.4356 23.2556 0.0000 9.2679 0.0000
# 3 48.2026 23.2556 49.8040 0.0000 13.1172 0.0000
# 4 0.0000 0.0000 0.0000 23.4252 0.0000 7.2567
# 5 8.7517 9.2679 13.1172 0.0000 23.1705 0.0000
# 6 0.0000 0.0000 0.0000 7.2567 0.0000 22.4734
#
#
#
# Elastic Compliance Matrix: (Units=1/GPa)
#
#
# Indices 1 2 3 4 5 6 
#
# 1 0.029340 -0.004623 -0.027977 0.000000 0.006606 0.000000
# 2 -0.004623 0.033978 -0.009721 0.000000 -0.006341 0.000000
# 3 -0.027977 -0.009721 0.056280 0.000000 -0.017405 0.000000
# 4 0.000000 0.000000 0.000000 0.047434 0.000000 -0.015316
# 5 0.006606 -0.006341 -0.017405 0.000000 0.053053 0.000000
# 6 0.000000 0.000000 0.000000 -0.015316 0.000000 0.049443
#
#
# Mechanical properties :
#
#
# Convention : Reuss Voigt Hill
#
# Bulk Modulus (GPa) = 28.60885 41.07381 34.84133
# Shear Modulus (GPa) = 13.66787 18.84283 16.25535
#
# Velocity S-wave (km/s) = 2.72706 3.20197 2.97401
# Velocity P-wave (km/s) = 5.04800 6.00158 5.54532
#
# Compressibility (1/GPa) = 0.03495421
#
# Stress axis : x y z
#
# Youngs Moduli (GPa) = 34.08364 29.43073 17.76841
#
# Poissons Ratio (x) = 0.13606 0.49711
# Poissons Ratio (y) = 0.15757 0.17273
# Poissons Ratio (z) = 0.95356 0.28610
#
# Static dielectric constant tensor:
#      x y z
#    x 1.630450 0.000000 0.039730 
#    y 0.000000 1.616330 0.000000 
#    z 0.039730 0.000000 1.642680 
# 
# From -- ./inp_files/64435.got.cif
#   From: 2010.05.17/outbox.ucp.g08.bks.cvg/sg11_33_cif.got.tgz:64435.got - 2010.06.11 11:38:39.
