data_PCOD9167877
_publ_section_title
;
Structure prediction by ZEFSAII (Michael W. Deem and Ramdas Pophale) SiO2 
 PCOD9167877
Probable space group: P 21/M
;
_chemical_formula_sum "Si O2"
_cell_formula_units_Z 32
_cell_length_a 12.000000
_cell_length_b 15.000000
_cell_length_c 9.000000
_cell_angle_alpha 90.000000
_cell_angle_beta 90.000000
_cell_angle_gamma 90.000000
_cell_volume 1620.000000
_symmetry_space_group_name_H-M "P 21/M"
_symmetry_group_IT_number 11
_symmetry_cell_setting 'monoclinic'
loop_
_space_group_symop_operation_xyz
x,y,z
-x,1/2+y,-z
-x,-y,-z
x,1/2-y,z
loop_
_atom_site_type_symbol
_atom_site_label
_atom_site_fract_x
_atom_site_fract_y
_atom_site_fract_z
Si Si1 0.386274 0.391247 0.324082
Si Si2 0.866491 0.653110 0.693211
Si Si3 0.641478 0.151834 0.301642
Si Si4 0.100388 0.354550 0.661277
Si Si5 0.932027 0.471579 0.854629
Si Si6 0.734461 0.348745 0.969374
Si Si7 0.464192 0.945868 0.145574
Si Si8 0.668451 0.949809 0.351896
O O1 0.268208 0.347090 0.286702
O O2 0.506360 0.349531 0.283497
O O3 0.393165 0.487470 0.247845
O O4 0.377554 0.404291 0.499910
O O5 0.908486 0.750000 0.747614
O O6 0.901325 0.645295 0.519424
O O7 0.907698 0.564261 0.771769
O O8 0.670014 0.250000 0.366738
O O9 0.670426 0.057254 0.378439
O O10 0.704938 0.144394 0.144110
O O11 0.106462 0.250000 0.705717
O O12 0.213345 0.409572 0.693530
O O13 0.001220 0.405795 0.745518
O O14 0.821327 0.421345 0.911627
O O15 0.000000 0.500000 0.000000
O O16 0.778098 0.250000 0.938848
O O17 0.615003 0.364562 0.892814
O O18 0.578634 0.927221 0.227515
O O19 0.500000 0.000000 0.000000
#
# Coordination Sequence:
#
# PCOD9167877 Si02
#       8
#     4   4   4   4   4   4   4   4
#     4  10  19  36  61  89 123 157 197 252 299 357
#     4  10  22  41  67  93 118 159 210 252 306 369
#     4  10  19  34  56  86 125 165 196 231 294 363
#     4  10  23  44  67  89 120 162 206 258 308 361
#     4  12  25  42  66  89 125 161 205 261 312 361
#     4  11  23  38  58  89 124 162 199 244 302 364
#     4  11  19  35  60  84 126 163 197 239 305 360
#     4  10  21  37  62  92 121 155 202 253 303 355
#
# _framework density 19.753086
#
# number of rings (size 3 to 8) (size 9 to 14) (size 15 to 20)
#    0.000    1.500    3.750    3.375    0.000    2.000 
#    0.000    2.500    0.000    0.000    0.000    0.000 
#    0.000    0.000    0.000    0.000    0.000    0.000 
#
# Total GULP energy -178448.151468 kJ/mol
# GULP energy per Si atom -5576.504733 kJ/mol
# Density = 1.970813 g / cm^3
# Si number density = 19.753086 Si / 1000 Ang^3
#
#
#
# Elastic Constant Matrix: (Units=GPa)
#
#
# Indices 1 2 3 4 5 6 
#
# 1 93.8692 59.9485 43.4586 0.0000 -19.3658 0.0000
# 2 59.9485 144.7786 20.0610 0.0000 4.0338 0.0000
# 3 43.4586 20.0610 47.9289 0.0000 -6.0568 0.0000
# 4 0.0000 0.0000 0.0000 9.5910 0.0000 2.0779
# 5 -19.3658 4.0338 -6.0568 0.0000 31.0605 0.0000
# 6 0.0000 0.0000 0.0000 2.0779 0.0000 9.6199
#
#
#
# Elastic Compliance Matrix: (Units=1/GPa)
#
#
# Indices 1 2 3 4 5 6 
#
# 1 0.030065 -0.009973 -0.021074 0.000000 0.015931 0.000000
# 2 -0.009973 0.010718 0.003686 0.000000 -0.006891 0.000000
# 3 -0.021074 0.003686 0.037636 0.000000 -0.006279 0.000000
# 4 0.000000 0.000000 0.000000 0.109383 0.000000 -0.023627
# 5 0.015931 -0.006891 -0.006279 0.000000 0.041799 0.000000
# 6 0.000000 0.000000 0.000000 -0.023627 0.000000 0.109054
#
#
# Mechanical properties :
#
#
# Convention : Reuss Voigt Hill
#
# Bulk Modulus (GPa) = 42.19785 59.27922 50.73854
# Shear Modulus (GPa) = 12.46023 20.92820 16.69421
#
# Velocity S-wave (km/s) = 2.51430 3.25851 2.91029
# Velocity P-wave (km/s) = 5.46241 6.65075 6.08566
#
# Compressibility (1/GPa) = 0.02369789
#
# Stress axis : x y z
#
# Youngs Moduli (GPa) = 33.26076 93.30191 26.57021
#
# Poissons Ratio (x) = 0.93050 0.55993
# Poissons Ratio (y) = 0.33171 -0.09794
# Poissons Ratio (z) = 0.70093 -0.34390
#
# Static dielectric constant tensor:
#      x y z
#    x 1.691760 0.000000 0.033720 
#    y 0.000000 1.718310 0.000000 
#    z 0.033720 0.000000 1.724820 
# 
# From -- ./inp_files/18087.got.cif
#   From: 2010.05.17/outbox.ucp.g08.bks.cvg/sg11_10_cif.got.tgz:18087.got - 2010.06.11 11:38:39.
