data_PCOD9167720
_publ_section_title
;
Structure prediction by ZEFSAII (Michael W. Deem and Ramdas Pophale) SiO2 
 PCOD9167720
Probable space group: P 21/M
;
_chemical_formula_sum "Si O2"
_cell_formula_units_Z 28
_cell_length_a 9.000000
_cell_length_b 9.000000
_cell_length_c 27.000000
_cell_angle_alpha 90.000000
_cell_angle_beta 40.000000
_cell_angle_gamma 90.000000
_cell_volume 1405.776502
_symmetry_space_group_name_H-M "P 21/M"
_symmetry_group_IT_number 11
_symmetry_cell_setting 'monoclinic'
loop_
_space_group_symop_operation_xyz
x,y,z
-x,1/2+y,-z
-x,-y,-z
x,1/2-y,z
loop_
_atom_site_type_symbol
_atom_site_label
_atom_site_fract_x
_atom_site_fract_y
_atom_site_fract_z
Si Si1 0.120951 0.072051 0.516916
Si Si2 0.082971 0.921072 0.084551
Si Si3 0.677806 0.429702 0.686157
Si Si4 0.346737 0.925966 0.850163
Si Si5 0.564603 0.571026 0.073972
Si Si6 0.433012 0.928611 0.651492
Si Si7 0.953464 0.080411 0.787528
O O1 0.105039 0.250000 0.517071
O O2 0.392584 0.035555 0.439120
O O3 0.949879 0.032931 0.606335
O O4 0.000000 0.000000 0.500000
O O5 0.049023 0.750000 0.075206
O O6 0.059514 0.913343 0.149537
O O7 0.885190 0.037037 0.120497
O O8 0.321070 0.985697 0.001358
O O9 0.652258 0.250000 0.695971
O O10 0.558437 0.506155 0.763865
O O11 0.540374 0.490528 0.672746
O O12 0.375794 0.750000 0.850721
O O13 0.300994 0.016804 0.912111
O O14 0.566890 0.750000 0.065968
O O15 0.304894 0.524150 0.156236
O O16 0.435703 0.750000 0.658175
O O17 0.171322 0.986375 0.713504
O O18 0.977366 0.250000 0.762673
#
# Coordination Sequence:
#
# PCOD9167720 Si02
#       7
#     4   4   4   4   4   4   4
#     4   8  16  28  46  76 110 142 176 220 270 317
#     4  11  22  39  61  84 110 142 182 230 278 327
#     4  10  18  32  53  78 111 146 182 225 272 321
#     4  12  24  38  57  83 112 146 186 229 276 328
#     4  11  24  41  58  80 110 147 187 229 276 327
#     4  10  18  30  52  82 113 144 181 223 269 322
#     4  10  22  38  58  82 112 148 185 224 274 329
#
# _framework density 19.917818
#
# number of rings (size 3 to 8) (size 9 to 14) (size 15 to 20)
#    0.000    1.714    1.429    3.857    0.000    2.857 
#    0.000    0.000    0.000    0.857    0.000    0.000 
#    0.000    0.000    0.000    0.000    0.000    0.000 
#
# Total GULP energy -156098.756503 kJ/mol
# GULP energy per Si atom -5574.955589 kJ/mol
# Density = 1.987248 g / cm^3
# Si number density = 19.917818 Si / 1000 Ang^3
#
#
#
# Elastic Constant Matrix: (Units=GPa)
#
#
# Indices 1 2 3 4 5 6 
#
# 1 14.1750 -11.8496 6.7639 0.0000 -7.3697 0.0000
# 2 -11.8496 65.5380 40.8724 0.0000 -17.7894 0.0000
# 3 6.7639 40.8724 142.0466 0.0000 -23.8384 0.0000
# 4 0.0000 0.0000 0.0000 17.8321 0.0000 -10.0839
# 5 -7.3697 -17.7894 -23.8384 0.0000 10.8768 0.0000
# 6 0.0000 0.0000 0.0000 -10.0839 0.0000 12.3478
#
#
#
# Elastic Compliance Matrix: (Units=1/GPa)
#
#
# Indices 1 2 3 4 5 6 
#
# 1 -0.138167 -0.089976 -0.012557 0.000000 -0.268297 0.000000
# 2 -0.089976 -0.031123 -0.008754 0.000000 -0.131052 0.000000
# 3 -0.012557 -0.008754 0.010007 0.000000 -0.000894 0.000000
# 4 0.000000 0.000000 0.000000 0.104200 0.000000 0.085096
# 5 -0.268297 -0.131052 -0.000894 0.000000 -0.306150 0.000000
# 6 0.000000 0.000000 0.000000 0.085096 0.000000 0.150480
#
#
# Mechanical properties :
#
#
# Convention : Reuss Voigt Hill
#
# Bulk Modulus (GPa) = -2.61879 32.59256 14.98689
# Shear Modulus (GPa) = -43.30292 20.60954 -11.34669
#
# Velocity S-wave (km/s) = -4.66776 3.22021 -2.38938
# Velocity P-wave (km/s) = 5.51074 5.49776 0.26733
#
# Compressibility (1/GPa) = -0.38185588
#
# Stress axis : x y z
#
# Youngs Moduli (GPa) = -7.23763 -32.13062 99.93367
#
# Poissons Ratio (x) = -2.89097 1.25488
# Poissons Ratio (y) = -0.65121 0.87478
# Poissons Ratio (z) = -0.09088 -0.28126
#
# Static dielectric constant tensor:
#      x y z
#    x 1.741610 0.000000 -0.023940 
#    y 0.000000 1.664440 0.000000 
#    z -0.023940 0.000000 1.723670 
# 
# From -- ./inp_files/70793.got.cif
#   From: 2010.05.17/outbox.ucp.g08.bks.cvg/sg11_36_cif.got.tgz:70793.got - 2010.06.11 11:38:39.
