data_PCOD9167389
_publ_section_title
;
Structure prediction by ZEFSAII (Michael W. Deem and Ramdas Pophale) SiO2 
 PCOD9167389
Probable space group: P 21/M
;
_chemical_formula_sum "Si O2"
_cell_formula_units_Z 32
_cell_length_a 9.022107
_cell_length_b 20.733879
_cell_length_c 16.535139
_cell_angle_alpha 90.000000
_cell_angle_beta 28.938512
_cell_angle_gamma 90.000000
_cell_volume 1496.668894
_symmetry_space_group_name_H-M "P 21/M"
_symmetry_group_IT_number 11
_symmetry_cell_setting 'monoclinic'
loop_
_space_group_symop_operation_xyz
x,y,z
-x,1/2+y,-z
-x,-y,-z
x,1/2-y,z
loop_
_atom_site_type_symbol
_atom_site_label
_atom_site_fract_x
_atom_site_fract_y
_atom_site_fract_z
Si Si1 0.790816 0.857085 0.582890
Si Si2 0.304197 0.417214 0.812955
Si Si3 0.865342 0.474859 0.894252
Si Si4 0.898783 0.322165 0.112873
Si Si5 0.149315 0.425341 0.604040
Si Si6 0.264376 0.822747 0.486019
Si Si7 0.855184 0.395519 0.296257
Si Si8 0.712684 0.986532 0.722194
O O1 0.455051 0.826741 0.744635
O O2 0.891330 0.868226 0.441899
O O3 0.762642 0.927044 0.639080
O O4 0.031503 0.820298 0.522390
O O5 0.101236 0.465086 0.855776
O O6 0.460887 0.366740 0.677522
O O7 0.551068 0.456374 0.747850
O O8 0.088720 0.375807 0.974416
O O9 0.954557 0.425781 0.779558
O O10 0.921402 0.545899 0.831923
O O11 0.532075 0.468224 0.091799
O O12 0.017219 0.250000 0.042787
O O13 0.898695 0.341961 0.206596
O O14 0.509016 0.424642 0.453316
O O15 0.022118 0.487808 0.616453
O O16 0.353118 0.750000 0.467304
O O17 0.115653 0.861250 0.631685
#
# Coordination Sequence:
#
# PCOD9167389 Si02
#       8
#     4   4   4   4   4   4   4   4
#     4  11  24  41  66  97 126 164 215 267 323 385
#     4  12  23  43  65  96 131 170 220 262 328 384
#     4  12  23  40  64  97 134 165 207 268 331 387
#     4  11  23  44  66  88 127 176 221 263 313 386
#     4  11  23  37  62  95 128 161 196 263 329 371
#     4  12  26  45  67  92 128 172 219 265 313 389
#     4  11  24  41  66  97 126 164 215 267 323 385
#     4  12  23  40  64  97 134 165 207 268 331 387
#
# _framework density 21.380814999999998
#
# number of rings (size 3 to 8) (size 9 to 14) (size 15 to 20)
#    0.000    0.500    5.000    4.875    3.500    0.000 
#    0.000    0.000    0.000    0.000    0.000    0.000 
#    0.000    0.000    0.000    0.000    0.000    0.000 
#
# Total GULP energy -179074.530744 kJ/mol
# GULP energy per Si atom -5596.079086 kJ/mol
# Density = 2.133215 g / cm^3
# Si number density = 21.380815 Si / 1000 Ang^3
#
#
#
# Elastic Constant Matrix: (Units=GPa)
#
#
# Indices 1 2 3 4 5 6 
#
# 1 79.9321 11.6851 4.7414 0.0000 12.9797 0.0000
# 2 11.6851 90.8965 9.9398 0.0000 8.7598 0.0000
# 3 4.7414 9.9398 83.2635 0.0000 28.4355 0.0000
# 4 0.0000 0.0000 0.0000 17.4714 0.0000 4.4716
# 5 12.9797 8.7598 28.4355 0.0000 34.8635 0.0000
# 6 0.0000 0.0000 0.0000 4.4716 0.0000 14.6206
#
#
#
# Elastic Compliance Matrix: (Units=1/GPa)
#
#
# Indices 1 2 3 4 5 6 
#
# 1 0.013573 -0.001333 0.001383 0.000000 -0.005846 0.000000
# 2 -0.001333 0.011422 -0.000661 0.000000 -0.001835 0.000000
# 3 0.001383 -0.000661 0.016812 0.000000 -0.014061 0.000000
# 4 0.000000 0.000000 0.000000 0.062097 0.000000 -0.018992
# 5 -0.005846 -0.001835 -0.014061 0.000000 0.042789 0.000000
# 6 0.000000 0.000000 0.000000 -0.018992 0.000000 0.074205
#
#
# Mechanical properties :
#
#
# Convention : Reuss Voigt Hill
#
# Bulk Modulus (GPa) = 24.63973 34.09162 29.36567
# Shear Modulus (GPa) = 21.21795 28.57281 24.89538
#
# Velocity S-wave (km/s) = 3.15363 3.65961 3.41600
# Velocity P-wave (km/s) = 4.98094 5.81692 5.41509
#
# Compressibility (1/GPa) = 0.04058486
#
# Stress axis : x y z
#
# Youngs Moduli (GPa) = 73.67716 87.55086 59.48021
#
# Poissons Ratio (x) = 0.11667 -0.08224
# Poissons Ratio (y) = 0.09818 0.03932
# Poissons Ratio (z) = -0.10187 0.05788
#
# Static dielectric constant tensor:
#      x y z
#    x 1.799110 0.000000 0.008220 
#    y 0.000000 1.763230 0.000000 
#    z 0.008220 0.000000 1.764400 
# 
# From -- ./inp_files/48433.got.cif
#   From: 2010.05.17/outbox.cif.g08.bks.cpg/sg11_25_cif.got.tgz:48433.got - 2010.06.03 12:22:45.
