data_PCOD9167850
_publ_section_title
;
Structure prediction by ZEFSAII (Michael W. Deem and Ramdas Pophale) SiO2 
 PCOD9167850
Probable space group: P 21/M
;
_chemical_formula_sum "Si O2"
_cell_formula_units_Z 32
_cell_length_a 12.000000
_cell_length_b 9.000000
_cell_length_c 21.000000
_cell_angle_alpha 90.000000
_cell_angle_beta 50.000000
_cell_angle_gamma 90.000000
_cell_volume 1737.388797
_symmetry_space_group_name_H-M "P 21/M"
_symmetry_group_IT_number 11
_symmetry_cell_setting 'monoclinic'
loop_
_space_group_symop_operation_xyz
x,y,z
-x,1/2+y,-z
-x,-y,-z
x,1/2-y,z
loop_
_atom_site_type_symbol
_atom_site_label
_atom_site_fract_x
_atom_site_fract_y
_atom_site_fract_z
Si Si1 0.040919 0.573632 0.253433
Si Si2 0.662205 0.578188 0.044646
Si Si3 0.465238 0.577865 0.413742
Si Si4 0.045358 0.070916 0.117372
Si Si5 0.527700 0.925250 0.715274
Si Si6 0.282553 0.076406 0.586723
Si Si7 0.224253 0.422671 0.852283
Si Si8 0.648328 0.430064 0.796937
O O1 0.051229 0.750000 0.233526
O O2 0.013987 0.477155 0.200587
O O3 0.194041 0.532513 0.231363
O O4 0.890697 0.556457 0.347629
O O5 0.644530 0.750000 0.031683
O O6 0.739833 0.576079 0.085532
O O7 0.497472 0.518152 0.110610
O O8 0.789535 0.511959 0.954874
O O9 0.451897 0.750000 0.400037
O O10 0.418282 0.473046 0.373560
O O11 0.630958 0.554572 0.378182
O O12 0.360626 0.535927 0.510424
O O13 0.042092 0.250000 0.110305
O O14 0.925834 0.997833 0.114556
O O15 0.526919 0.750000 0.725406
O O16 0.363134 0.988736 0.775382
O O17 0.618914 0.002905 0.737977
O O18 0.312353 0.250000 0.558579
O O19 0.225150 0.250000 0.831310
O O20 0.640100 0.250000 0.795652
#
# Coordination Sequence:
#
# PCOD9167850 Si02
#       8
#     4   4   4   4   4   4   4   4
#     4  10  21  37  56  76 103 142 182 220 266 318
#     4   8  17  33  52  75 104 138 176 222 268 312
#     4  10  19  33  56  83 111 141 171 206 257 320
#     4  11  21  32  50  78 109 139 176 222 270 317
#     4  11  21  34  55  82 109 137 174 218 265 314
#     4   9  19  35  54  79 109 137 170 215 261 307
#     4  10  19  34  54  76 107 142 177 217 264 318
#     4   9  19  38  58  74 100 141 185 223 263 312
#
# _framework density 18.418444999999998
#
# number of rings (size 3 to 8) (size 9 to 14) (size 15 to 20)
#    0.000    2.250    0.000    4.125    0.000    3.000 
#    0.000    6.250    0.000    0.000    0.000    0.000 
#    0.000    0.000    0.000    0.000    0.000    0.000 
#
# Total GULP energy -178323.306394 kJ/mol
# GULP energy per Si atom -5572.603325 kJ/mol
# Density = 1.837652 g / cm^3
# Si number density = 18.418445 Si / 1000 Ang^3
#
#
#
# Elastic Constant Matrix: (Units=GPa)
#
#
# Indices 1 2 3 4 5 6 
#
# 1 70.5166 16.5617 17.2908 0.0000 -42.0291 0.0000
# 2 16.5617 49.7474 12.8204 0.0000 -10.5513 0.0000
# 3 17.2908 12.8204 38.0288 0.0000 -13.2121 0.0000
# 4 0.0000 0.0000 0.0000 18.7838 0.0000 -4.0609
# 5 -42.0291 -10.5513 -13.2121 0.0000 24.2338 0.0000
# 6 0.0000 0.0000 0.0000 -4.0609 0.0000 26.5897
#
#
#
# Elastic Compliance Matrix: (Units=1/GPa)
#
#
# Indices 1 2 3 4 5 6 
#
# 1 -0.293627 -0.003024 -0.052869 0.000000 -0.539382 0.000000
# 2 -0.003024 0.022940 -0.005811 0.000000 0.001575 0.000000
# 3 -0.052869 -0.005811 0.024129 0.000000 -0.081067 0.000000
# 4 0.000000 0.000000 0.000000 0.055055 0.000000 0.008408
# 5 -0.539382 0.001575 -0.081067 0.000000 -0.937708 0.000000
# 6 0.000000 0.000000 0.000000 0.008408 0.000000 0.038893
#
#
# Mechanical properties :
#
#
# Convention : Reuss Voigt Hill
#
# Bulk Modulus (GPa) = -2.70295 27.95984 12.62845
# Shear Modulus (GPa) = -4.58618 21.36278 8.38830
#
# Velocity S-wave (km/s) = -1.57968 3.40936 2.13639
# Velocity P-wave (km/s) = 2.19041 5.54181 3.59957
#
# Compressibility (1/GPa) = -0.36996661
#
# Stress axis : x y z
#
# Youngs Moduli (GPa) = -3.40568 43.59196 41.44418
#
# Poissons Ratio (x) = 0.13182 2.19111
# Poissons Ratio (y) = -0.01030 0.24085
# Poissons Ratio (z) = -0.18005 0.25333
#
# Static dielectric constant tensor:
#      x y z
#    x 1.605650 0.000000 0.005130 
#    y 0.000000 1.615780 0.000000 
#    z 0.005130 0.000000 1.706430 
# 
# From -- ./inp_files/64367.got.cif
#   From: 2010.05.17/outbox.ucp.g08.bks.cvg/sg11_33_cif.got.tgz:64367.got - 2010.06.11 11:38:39.
