data_PCOD9167671
_publ_section_title
;
Structure prediction by ZEFSAII (Michael W. Deem and Ramdas Pophale) SiO2 
 PCOD9167671
Probable space group: P 21/M
;
_chemical_formula_sum "Si O2"
_cell_formula_units_Z 24
_cell_length_a 7.073781
_cell_length_b 17.044941
_cell_length_c 6.972174
_cell_angle_alpha 90.000000
_cell_angle_beta 91.128977
_cell_angle_gamma 90.000000
_cell_volume 840.487026
_symmetry_space_group_name_H-M "P 21/M"
_symmetry_group_IT_number 11
_symmetry_cell_setting 'monoclinic'
loop_
_space_group_symop_operation_xyz
x,y,z
-x,1/2+y,-z
-x,-y,-z
x,1/2-y,z
loop_
_atom_site_type_symbol
_atom_site_label
_atom_site_fract_x
_atom_site_fract_y
_atom_site_fract_z
Si Si1 0.115229 0.914694 0.806214
Si Si2 0.627495 0.250000 0.759856
Si Si3 0.199192 0.250000 0.659606
Si Si4 0.451271 0.085652 0.269455
Si Si5 0.199196 0.750000 0.659604
Si Si6 0.548725 0.414348 0.730549
Si Si7 0.372501 0.250000 0.240147
Si Si8 0.884774 0.914694 0.193782
O O1 0.343811 0.918071 0.823837
O O2 0.089756 0.830156 0.703217
O O3 0.069757 0.000000 0.711329
O O4 0.000002 0.913102 0.999999
O O5 0.397690 0.250000 0.780500
O O6 0.717273 0.250000 0.550134
O O7 0.665147 0.340475 0.812031
O O8 0.282722 0.250000 0.449868
O O9 0.089753 0.330156 0.703221
O O10 0.499997 0.097802 0.500002
O O11 0.334849 0.159524 0.187972
O O12 0.360876 1.000000 0.250914
O O13 0.397693 0.750000 0.780500
O O14 0.343809 0.418071 0.823843
#
# Coordination Sequence:
#
# PCOD9167671 Si02
#       8
#     4   2   2   4   2   4   2   4
#     4   9  15  19  22  28  34  37  41  47  52  56
#     4   9  12  18  24  30  32  34  44  50  48  54
#     4   9  13  18  24  28  32  38  42  46  52  56
#     4   9  13  18  25  28  31  38  43  46  51  56
#     4   9  13  18  24  28  32  38  42  46  52  56
#     4   9  13  18  25  28  31  38  43  46  51  56
#     4   9  12  18  24  30  32  34  44  50  48  54
#     4   9  15  19  22  28  34  37  41  47  52  56
#
# _framework density 28.554872
#
# number of rings (size 3 to 8) (size 9 to 14) (size 15 to 20)
#    0.000    3.000    6.667    0.500    0.000    0.000 
#    0.000    0.000    0.000    0.000    0.000    0.000 
#    0.000    0.000    0.000    0.000    0.000    0.000 
#
# Total GULP energy -134010.926038 kJ/mol
# GULP energy per Si atom -5583.788585 kJ/mol
# Density = 2.848988 g / cm^3
# Si number density = 28.554872 Si / 1000 Ang^3
#
#
#
# Elastic Constant Matrix: (Units=GPa)
#
#
# Indices 1 2 3 4 5 6 
#
# 1 120.0461 39.8435 21.6964 0.0000 -23.8672 0.0000
# 2 39.8435 414.2239 92.0558 0.0000 -2.7762 0.0000
# 3 21.6964 92.0558 158.0215 0.0000 -30.3055 0.0000
# 4 0.0000 0.0000 0.0000 33.8529 0.0000 -22.5796
# 5 -23.8672 -2.7762 -30.3055 0.0000 41.8838 0.0000
# 6 0.0000 0.0000 0.0000 -22.5796 0.0000 -69.0555
#
#
#
# Elastic Compliance Matrix: (Units=1/GPa)
#
#
# Indices 1 2 3 4 5 6 
#
# 1 0.009730 -0.000970 0.000325 0.000000 0.005715 0.000000
# 2 -0.000970 0.002918 -0.001899 0.000000 -0.001733 0.000000
# 3 0.000325 -0.001899 0.008594 0.000000 0.006278 0.000000
# 4 0.000000 0.000000 0.000000 0.024251 0.000000 -0.007929
# 5 0.005715 -0.001733 0.006278 0.000000 0.031560 0.000000
# 6 0.000000 0.000000 0.000000 -0.007929 0.000000 -0.011888
#
#
# Mechanical properties :
#
#
# Convention : Reuss Voigt Hill
#
# Bulk Modulus (GPa) = 61.90478 111.05368 86.47923
# Shear Modulus (GPa) = 66.10664 37.24931 51.67798
#
# Velocity S-wave (km/s) = 4.81674 3.61568 4.25876
# Velocity P-wave (km/s) = 7.25679 7.51043 7.38470
#
# Compressibility (1/GPa) = 0.01615384
#
# Stress axis : x y z
#
# Youngs Moduli (GPa) = 102.77953 342.71613 116.36254
#
# Poissons Ratio (x) = 0.33238 -0.03784
# Poissons Ratio (y) = 0.09968 0.22098
# Poissons Ratio (z) = -0.03342 0.65084
#
# Static dielectric constant tensor:
#      x y z
#    x 2.211180 0.000000 0.105710 
#    y 0.000000 2.284680 0.000000 
#    z 0.105710 0.000000 2.180590 
# 
# From -- ./inp_files/18570.got.cif
#   From: 2010.05.17/outbox.cif.g08.bks.cpg/sg11_10_cif.got.tgz:18570.got - 2010.06.03 12:22:45.
