data_PCOD9167930
_publ_section_title
;
Structure prediction by ZEFSAII (Michael W. Deem and Ramdas Pophale) SiO2 
 PCOD9167930
Probable space group: P 21/M
;
_chemical_formula_sum "Si O2"
_cell_formula_units_Z 32
_cell_length_a 15.000000
_cell_length_b 21.000000
_cell_length_c 15.000000
_cell_angle_alpha 90.000000
_cell_angle_beta 160.000000
_cell_angle_gamma 90.000000
_cell_volume 1616.045177
_symmetry_space_group_name_H-M "P 21/M"
_symmetry_group_IT_number 11
_symmetry_cell_setting 'monoclinic'
loop_
_space_group_symop_operation_xyz
x,y,z
-x,1/2+y,-z
-x,-y,-z
x,1/2-y,z
loop_
_atom_site_type_symbol
_atom_site_label
_atom_site_fract_x
_atom_site_fract_y
_atom_site_fract_z
Si Si1 0.225635 0.567536 0.500390
Si Si2 0.094794 0.869121 0.912214
Si Si3 0.007842 0.576045 0.482127
Si Si4 0.267111 0.421731 0.292640
Si Si5 0.631498 0.678449 0.361038
Si Si6 0.280419 0.991085 0.003522
Si Si7 0.538677 0.395186 0.969091
Si Si8 0.812174 0.064761 0.730228
O O1 0.149802 0.596105 0.523950
O O2 0.180352 0.596129 0.360095
O O3 0.006902 0.511824 0.293922
O O4 0.523959 0.545290 0.781880
O O5 0.233822 0.937864 0.033974
O O6 0.899832 0.869311 0.811764
O O7 0.882169 0.860730 0.632609
O O8 0.354481 0.826549 0.153809
O O9 0.000000 0.500000 0.500000
O O10 0.706508 0.596041 0.196945
O O11 0.184622 0.610328 0.722959
O O12 0.258108 0.488829 0.338669
O O13 0.567481 0.407143 0.555058
O O14 0.092156 0.432416 0.040251
O O15 0.725066 0.750000 0.451745
O O16 0.541707 0.657326 0.178445
O O17 0.428847 0.958326 0.060886
#
# Coordination Sequence:
#
# PCOD9167930 Si02
#       8
#     4   4   4   4   4   4   4   4
#     4  12  21  30  47  68 110 143 186 216 245 295
#     4  11  21  35  57  77 104 141 182 213 271 323
#     4  12  21  33  48  76 106 146 186 217 253 315
#     4  10  20  33  49  71 101 141 186 210 242 316
#     4  11  24  40  59  81 107 135 177 234 286 329
#     4  11  19  30  47  72  99 143 181 212 251 300
#     4  11  21  35  50  73 104 142 179 220 265 322
#     4  10  21  31  45  72 106 144 181 212 244 288
#
# _framework density 19.801427
#
# number of rings (size 3 to 8) (size 9 to 14) (size 15 to 20)
#    0.000    1.000    3.750    6.000    3.500    0.000 
#    0.000    0.000    0.000    0.000    0.000    0.000 
#    0.000   20.000    0.000    0.000    0.000    0.000 
#
# Total GULP energy -178267.661313 kJ/mol
# GULP energy per Si atom -5570.864416 kJ/mol
# Density = 1.975636 g / cm^3
# Si number density = 19.801427 Si / 1000 Ang^3
#
#
#
# Elastic Constant Matrix: (Units=GPa)
#
#
# Indices 1 2 3 4 5 6 
#
# 1 92.7441 7.2952 18.5511 0.0000 6.2107 0.0000
# 2 7.2952 9.1544 -1.8768 0.0000 10.8596 0.0000
# 3 18.5511 -1.8768 72.8157 0.0000 14.3685 0.0000
# 4 0.0000 0.0000 0.0000 4.6736 0.0000 12.4580
# 5 6.2107 10.8596 14.3685 0.0000 30.7763 0.0000
# 6 0.0000 0.0000 0.0000 12.4580 0.0000 -4.0267
#
#
#
# Elastic Compliance Matrix: (Units=1/GPa)
#
#
# Indices 1 2 3 4 5 6 
#
# 1 0.012842 -0.018871 -0.005024 0.000000 0.006412 0.000000
# 2 -0.018871 0.245475 0.030263 0.000000 -0.096938 0.000000
# 3 -0.005024 0.030263 0.019496 0.000000 -0.018767 0.000000
# 4 0.000000 0.000000 0.000000 0.023139 0.000000 0.071589
# 5 0.006412 -0.096938 -0.018767 0.000000 0.074166 0.000000
# 6 0.000000 0.000000 0.000000 0.071589 0.000000 -0.026857
#
#
# Mechanical properties :
#
#
# Convention : Reuss Voigt Hill
#
# Bulk Modulus (GPa) = 3.44173 24.73924 14.09049
# Shear Modulus (GPa) = 11.56405 16.33428 13.94917
#
# Velocity S-wave (km/s) = 2.41923 2.87523 2.65703
# Velocity P-wave (km/s) = 3.08958 4.85215 4.06748
#
# Compressibility (1/GPa) = 0.29055182
#
# Stress axis : x y z
#
# Youngs Moduli (GPa) = 77.86861 4.07373 51.29137
#
# Poissons Ratio (x) = 0.07687 0.25766
# Poissons Ratio (y) = 1.46945 -1.55225
# Poissons Ratio (z) = 0.39117 -0.12329
#
# Static dielectric constant tensor:
#      x y z
#    x 1.833020 0.000000 -0.030900 
#    y 0.000000 1.736920 0.000000 
#    z -0.030900 0.000000 1.702450 
# 
# From -- ./inp_files/52724.got.cif
#   From: 2010.05.17/outbox.ucp.g08.bks.cvg/sg11_27_cif.got.tgz:52724.got - 2010.06.11 11:38:39.
