data_PCOD9167845
_publ_section_title
;
Structure prediction by ZEFSAII (Michael W. Deem and Ramdas Pophale) SiO2 
 PCOD9167845
Probable space group: P 21/M
;
_chemical_formula_sum "Si O2"
_cell_formula_units_Z 28
_cell_length_a 12.000000
_cell_length_b 9.000000
_cell_length_c 15.000000
_cell_angle_alpha 90.000000
_cell_angle_beta 70.000000
_cell_angle_gamma 90.000000
_cell_volume 1522.302046
_symmetry_space_group_name_H-M "P 21/M"
_symmetry_group_IT_number 11
_symmetry_cell_setting 'monoclinic'
loop_
_space_group_symop_operation_xyz
x,y,z
-x,1/2+y,-z
-x,-y,-z
x,1/2-y,z
loop_
_atom_site_type_symbol
_atom_site_label
_atom_site_fract_x
_atom_site_fract_y
_atom_site_fract_z
Si Si1 0.800111 0.422775 0.697893
Si Si2 0.288174 0.578587 0.579439
Si Si3 0.593227 0.920890 0.088400
Si Si4 0.373917 0.425097 0.726456
Si Si5 0.350922 0.080790 0.123174
Si Si6 0.378932 0.426386 0.385953
Si Si7 0.981605 0.422274 0.410231
O O1 0.801130 0.250000 0.673970
O O2 0.725529 0.460407 0.805105
O O3 0.734434 0.514375 0.637636
O O4 0.930363 0.487019 0.676374
O O5 0.328523 0.750000 0.562091
O O6 0.301157 0.518019 0.675046
O O7 0.362568 0.475564 0.492399
O O8 0.152886 0.571001 0.584583
O O9 0.544890 0.750000 0.107259
O O10 0.661736 0.946716 0.161131
O O11 0.486858 0.037496 0.106280
O O12 0.666526 0.927106 0.977720
O O13 0.370722 0.250000 0.706420
O O14 0.508101 0.486257 0.682850
O O15 0.326951 0.250000 0.160273
O O16 0.392042 0.250000 0.373797
O O17 0.016644 0.250000 0.406132
O O18 0.000000 0.500000 0.500000
#
# Coordination Sequence:
#
# PCOD9167845 Si02
#       7
#     4   4   4   4   4   4   4
#     4  12  23  36  56  83 116 148 184 232 282 333
#     4  11  24  40  57  80 112 149 189 231 276 331
#     4   9  19  34  54  81 114 147 183 227 276 330
#     4  11  22  37  57  82 116 152 186 227 277 333
#     4  10  19  33  55  83 112 146 185 227 278 333
#     4  12  23  36  56  82 113 150 189 228 277 333
#     4  11  23  39  60  82 109 146 189 234 277 326
#
# _framework density 18.393196
#
# number of rings (size 3 to 8) (size 9 to 14) (size 15 to 20)
#    0.000    1.143    2.857    4.714    0.000    2.857 
#    0.000    0.000    0.000    0.857    0.000    0.000 
#    0.000    0.000    0.000    0.000    0.000    0.000 
#
# Total GULP energy -156329.027047 kJ/mol
# GULP energy per Si atom -5583.179537 kJ/mol
# Density = 1.835133 g / cm^3
# Si number density = 18.393196 Si / 1000 Ang^3
#
#
#
# Elastic Constant Matrix: (Units=GPa)
#
#
# Indices 1 2 3 4 5 6 
#
# 1 28.9828 9.3857 18.5138 0.0000 6.4954 0.0000
# 2 9.3857 63.5625 10.3288 0.0000 4.3965 0.0000
# 3 18.5138 10.3288 74.7419 0.0000 23.4798 0.0000
# 4 0.0000 0.0000 0.0000 22.4174 0.0000 -0.9520
# 5 6.4954 4.3965 23.4798 0.0000 23.2358 0.0000
# 6 0.0000 0.0000 0.0000 -0.9520 0.0000 25.3722
#
#
#
# Elastic Compliance Matrix: (Units=1/GPa)
#
#
# Indices 1 2 3 4 5 6 
#
# 1 0.042324 -0.004623 -0.009381 0.000000 -0.001477 0.000000
# 2 -0.004623 0.016621 -0.000835 0.000000 -0.001009 0.000000
# 3 -0.009381 -0.000835 0.021896 0.000000 -0.019345 0.000000
# 4 0.000000 0.000000 0.000000 0.044679 0.000000 0.001677
# 5 -0.001477 -0.001009 -0.019345 0.000000 0.063189 0.000000
# 6 0.000000 0.000000 0.000000 0.001677 0.000000 0.039476
#
#
# Mechanical properties :
#
#
# Convention : Reuss Voigt Hill
#
# Bulk Modulus (GPa) = 19.54544 27.08265 23.31404
# Shear Modulus (GPa) = 18.18738 22.80903 20.49820
#
# Velocity S-wave (km/s) = 3.14795 3.52530 3.34195
# Velocity P-wave (km/s) = 4.88490 5.59701 5.25304
#
# Compressibility (1/GPa) = 0.05116284
#
# Stress axis : x y z
#
# Youngs Moduli (GPa) = 23.62741 60.16621 45.67127
#
# Poissons Ratio (x) = 0.27815 0.42843
# Poissons Ratio (y) = 0.10923 0.03812
# Poissons Ratio (z) = 0.22164 0.05022
#
# Static dielectric constant tensor:
#      x y z
#    x 1.585320 0.000000 0.043610 
#    y 0.000000 1.659260 0.000000 
#    z 0.043610 0.000000 1.634600 
# 
# From -- ./inp_files/37489.got.cif
#   From: 2010.05.17/outbox.ucp.g08.bks.cvg/sg11_19_cif.got.tgz:37489.got - 2010.06.11 11:38:39.
