data_PCOD9167020
_publ_section_title
;
Structure prediction by ZEFSAII (Michael W. Deem and Ramdas Pophale) SiO2 
 PCOD9167020
Probable space group: P 21/M
;
_chemical_formula_sum "Si O2"
_cell_formula_units_Z 32
_cell_length_a 12.687863
_cell_length_b 14.572122
_cell_length_c 8.637071
_cell_angle_alpha 90.000000
_cell_angle_beta 71.323715
_cell_angle_gamma 90.000000
_cell_volume 1512.812044
_symmetry_space_group_name_H-M "P 21/M"
_symmetry_group_IT_number 11
_symmetry_cell_setting 'monoclinic'
loop_
_space_group_symop_operation_xyz
x,y,z
-x,1/2+y,-z
-x,-y,-z
x,1/2-y,z
loop_
_atom_site_type_symbol
_atom_site_label
_atom_site_fract_x
_atom_site_fract_y
_atom_site_fract_z
Si Si1 0.083049 0.964385 0.092130
Si Si2 0.229489 0.544176 0.759690
Si Si3 0.229489 0.455824 0.259690
Si Si4 0.083050 0.035615 0.592130
Si Si5 0.663264 0.355273 0.780791
Si Si6 0.566787 0.644877 0.976175
Si Si7 0.433213 0.855123 0.523825
Si Si8 0.336736 0.355273 0.719209
O O1 0.141977 0.047863 0.159266
O O2 1.000000 0.913847 0.250000
O O3 0.179553 0.918430 0.943443
O O4 0.000000 0.000000 0.000000
O O5 0.141977 0.547863 0.659266
O O6 0.348834 0.586092 0.664694
O O7 0.245460 0.433953 0.760615
O O8 0.179553 0.418430 0.443443
O O9 0.245460 0.566047 0.260615
O O10 0.348834 0.413908 0.164694
O O11 0.000000 0.000000 0.500000
O O12 0.696989 0.250000 0.796473
O O13 0.562390 0.381672 0.945117
O O14 0.613608 0.356735 0.629989
O O15 0.569957 0.750000 0.920764
O O16 0.613608 0.643265 0.129990
O O17 0.430043 0.750000 0.579237
O O18 0.562390 0.881672 0.445117
O O19 0.303011 0.250000 0.703527
#
# Coordination Sequence:
#
# PCOD9167020 Si02
#       8
#     4   4   4   4   4   4   4   4
#     4   9  20  34  54  78 103 135 180 230 272 303
#     4  11  17  34  59  78 102 145 180 209 267 324
#     4  11  17  34  59  78 102 145 180 209 267 324
#     4   9  20  34  54  78 103 135 180 230 272 303
#     4   9  18  32  52  82 115 141 172 211 254 316
#     4   9  18  32  52  82 114 142 174 208 251 323
#     4   9  18  32  52  82 114 142 174 208 251 323
#     4   9  18  32  52  82 115 141 172 211 254 316
#
# _framework density 21.152659
#
# number of rings (size 3 to 8) (size 9 to 14) (size 15 to 20)
#    0.000    2.500    2.500    2.250    0.000    0.000 
#    0.000    1.250    0.000   33.000    0.000    0.000 
#    0.000    0.000    0.000    0.000    0.000    0.000 
#
# Total GULP energy -178174.576283 kJ/mol
# GULP energy per Si atom -5567.955509 kJ/mol
# Density = 2.110452 g / cm^3
# Si number density = 21.152659 Si / 1000 Ang^3
#
#
#
# Elastic Constant Matrix: (Units=GPa)
#
#
# Indices 1 2 3 4 5 6 
#
# 1 45.7341 22.1542 17.6869 0.0000 -11.7060 0.0000
# 2 22.1542 50.0287 33.1597 0.0000 -24.0681 0.0000
# 3 17.6869 33.1597 155.8409 0.0000 -39.4769 0.0000
# 4 0.0000 0.0000 0.0000 7.5920 0.0000 2.0237
# 5 -11.7060 -24.0681 -39.4769 0.0000 41.4070 0.0000
# 6 0.0000 0.0000 0.0000 2.0237 0.0000 6.6139
#
#
#
# Elastic Compliance Matrix: (Units=1/GPa)
#
#
# Indices 1 2 3 4 5 6 
#
# 1 0.027897 -0.011733 -0.000527 0.000000 0.000565 0.000000
# 2 -0.011733 0.033379 -0.002236 0.000000 0.013953 0.000000
# 3 -0.000527 -0.002236 0.008682 0.000000 0.006829 0.000000
# 4 0.000000 0.000000 0.000000 0.143414 0.000000 -0.043882
# 5 0.000565 0.013953 0.006829 0.000000 0.038931 0.000000
# 6 0.000000 0.000000 0.000000 -0.043882 0.000000 0.164624
#
#
# Mechanical properties :
#
#
# Convention : Reuss Voigt Hill
#
# Bulk Modulus (GPa) = 24.41000 44.17836 34.29418
# Shear Modulus (GPa) = 10.87962 23.02944 16.95453
#
# Velocity S-wave (km/s) = 2.27036 3.30316 2.83421
# Velocity P-wave (km/s) = 4.29391 5.95640 5.19213
#
# Compressibility (1/GPa) = 0.04096682
#
# Stress axis : x y z
#
# Youngs Moduli (GPa) = 35.84573 29.95899 115.17763
#
# Poissons Ratio (x) = 0.35151 0.06064
# Poissons Ratio (y) = 0.42058 0.25757
# Poissons Ratio (z) = 0.01887 0.06700
#
# Static dielectric constant tensor:
#      x y z
#    x 1.850190 0.000000 0.005570 
#    y 0.000000 1.733840 0.000000 
#    z 0.005570 0.000000 1.853340 
# 
# From -- ./inp_files/22192.got.cif
#   From: 2010.05.17/outbox.cif.g08.bks.cpg/sg11_12_cif.got.tgz:22192.got - 2010.06.03 12:22:45.
