data_PCOD9167179
_publ_section_title
;
Structure prediction by ZEFSAII (Michael W. Deem and Ramdas Pophale) SiO2 
 PCOD9167179
Probable space group: P 21/M
;
_chemical_formula_sum "Si O2"
_cell_formula_units_Z 32
_cell_length_a 8.352422
_cell_length_b 23.100201
_cell_length_c 14.426898
_cell_angle_alpha 90.000000
_cell_angle_beta 32.686146
_cell_angle_gamma 90.000000
_cell_volume 1503.226860
_symmetry_space_group_name_H-M "P 21/M"
_symmetry_group_IT_number 11
_symmetry_cell_setting 'monoclinic'
loop_
_space_group_symop_operation_xyz
x,y,z
-x,1/2+y,-z
-x,-y,-z
x,1/2-y,z
loop_
_atom_site_type_symbol
_atom_site_label
_atom_site_fract_x
_atom_site_fract_y
_atom_site_fract_z
Si Si1 0.384237 0.135786 0.561388
Si Si2 0.619049 0.600428 0.073403
Si Si3 0.975741 0.007828 0.899696
Si Si4 0.815011 0.314819 0.205557
Si Si5 0.382216 0.133065 0.270828
Si Si6 0.225155 0.871059 0.092212
Si Si7 0.385341 0.035650 0.414431
Si Si8 0.742909 0.089215 0.560389
O O1 0.630211 0.173158 0.388802
O O2 0.290201 0.084509 0.534333
O O3 0.549656 0.110597 0.569187
O O4 0.076561 0.164525 0.743494
O O5 0.390115 0.622551 0.109036
O O6 0.455902 0.592467 0.250714
O O7 0.734347 0.538057 0.984708
O O8 0.913129 0.640397 0.938555
O O9 0.296384 0.987641 0.707697
O O10 0.894933 0.069910 0.898496
O O11 0.000000 0.000000 0.000000
O O12 0.931349 0.250000 0.144912
O O13 0.560775 0.325277 0.252597
O O14 0.437466 0.069926 0.292353
O O15 0.028828 0.129632 0.434537
O O16 0.525919 0.146760 0.102303
O O17 0.187212 0.978705 0.495500
#
# Coordination Sequence:
#
# PCOD9167179 Si02
#       8
#     4   4   4   4   4   4   4   4
#     4  11  23  41  63  94 131 171 214 258 310 380
#     4  12  23  41  63  95 131 170 215 260 314 376
#     4  12  19  37  60  94 137 177 210 250 309 383
#     4  11  25  49  72  90 120 162 214 278 331 372
#     4  11  23  41  63  95 129 170 215 262 310 377
#     4  12  24  38  64  97 134 173 208 254 315 385
#     4  11  21  36  60  93 138 177 209 248 310 378
#     4  12  23  39  64  96 136 171 208 255 315 387
#
# _framework density 21.287538000000001
#
# number of rings (size 3 to 8) (size 9 to 14) (size 15 to 20)
#    0.000    0.500    6.250    4.125    0.000    1.000 
#    0.000    7.500    0.000    0.000    0.000    0.000 
#    0.000    0.000    0.000    0.000    0.000    0.000 
#
# Total GULP energy -178713.901794 kJ/mol
# GULP energy per Si atom -5584.809431 kJ/mol
# Density = 2.123909 g / cm^3
# Si number density = 21.287538 Si / 1000 Ang^3
#
#
#
# Elastic Constant Matrix: (Units=GPa)
#
#
# Indices 1 2 3 4 5 6 
#
# 1 98.9105 4.3510 17.9928 0.0000 -0.4228 0.0000
# 2 4.3510 27.8994 2.5889 0.0000 1.9143 0.0000
# 3 17.9928 2.5889 103.2800 0.0000 -12.9360 0.0000
# 4 0.0000 0.0000 0.0000 7.7188 0.0000 -2.1905
# 5 -0.4228 1.9143 -12.9360 0.0000 36.0762 0.0000
# 6 0.0000 0.0000 0.0000 -2.1905 0.0000 7.3838
#
#
#
# Elastic Compliance Matrix: (Units=1/GPa)
#
#
# Indices 1 2 3 4 5 6 
#
# 1 0.010508 -0.001435 -0.001853 0.000000 -0.000465 0.000000
# 2 -0.001435 0.036311 -0.000946 0.000000 -0.002283 0.000000
# 3 -0.001853 -0.000946 0.010504 0.000000 0.003795 0.000000
# 4 0.000000 0.000000 0.000000 0.141464 0.000000 0.041967
# 5 -0.000465 -0.002283 0.003795 0.000000 0.029196 0.000000
# 6 0.000000 0.000000 0.000000 0.041967 0.000000 0.147882
#
#
# Mechanical properties :
#
#
# Convention : Reuss Voigt Hill
#
# Bulk Modulus (GPa) = 20.46845 31.10617 25.78731
# Shear Modulus (GPa) = 12.48068 23.91289 18.19679
#
# Velocity S-wave (km/s) = 2.42397 3.35525 2.92688
# Velocity P-wave (km/s) = 4.17975 5.44558 4.85410
#
# Compressibility (1/GPa) = 0.04885569
#
# Stress axis : x y z
#
# Youngs Moduli (GPa) = 95.16231 27.53967 95.19918
#
# Poissons Ratio (x) = 0.03952 0.17640
# Poissons Ratio (y) = 0.13655 0.09007
# Poissons Ratio (z) = 0.17634 0.02606
#
# Static dielectric constant tensor:
#      x y z
#    x 1.780450 0.000000 0.029060 
#    y 0.000000 1.791350 0.000000 
#    z 0.029060 0.000000 1.841410 
# 
# From -- ./inp_files/48449.got.cif
#   From: 2010.05.17/outbox.cif.g08.bks.cpg/sg11_25_cif.got.tgz:48449.got - 2010.06.03 12:22:45.
