data_PCOD9167053
_publ_section_title
;
Structure prediction by ZEFSAII (Michael W. Deem and Ramdas Pophale) SiO2 
 PCOD9167053
Probable space group: P 21/M
;
_chemical_formula_sum "Si O2"
_cell_formula_units_Z 32
_cell_length_a 24.385078
_cell_length_b 8.630821
_cell_length_c 30.595347
_cell_angle_alpha 90.000000
_cell_angle_beta 16.509662
_cell_angle_gamma 90.000000
_cell_volume 1829.871583
_symmetry_space_group_name_H-M "P 21/M"
_symmetry_group_IT_number 11
_symmetry_cell_setting 'monoclinic'
loop_
_space_group_symop_operation_xyz
x,y,z
-x,1/2+y,-z
-x,-y,-z
x,1/2-y,z
loop_
_atom_site_type_symbol
_atom_site_label
_atom_site_fract_x
_atom_site_fract_y
_atom_site_fract_z
Si Si1 0.402432 0.064581 0.618810
Si Si2 0.374924 0.066042 0.853329
Si Si3 0.207136 0.062560 0.471926
Si Si4 0.396933 0.562373 0.934081
Si Si5 0.020314 0.063540 0.869292
Si Si6 0.756314 0.936425 0.391204
Si Si7 0.980362 0.061183 0.729029
Si Si8 0.168063 0.063568 0.401797
O O1 0.411543 0.250000 0.611086
O O2 0.177542 0.019930 0.786109
O O3 0.500000 0.000000 0.500000
O O4 0.540723 0.001789 0.550959
O O5 0.385094 0.250000 0.846594
O O6 0.578462 0.997930 0.681740
O O7 0.350661 0.001652 0.921304
O O8 0.188894 0.011491 0.968481
O O9 0.214866 0.250000 0.466083
O O10 0.057034 0.010338 0.623443
O O11 0.152574 0.013520 0.464404
O O12 0.391498 0.750000 0.935033
O O13 0.615868 0.516868 0.778167
O O14 0.232848 0.511832 0.093304
O O15 0.999612 0.250000 0.885026
O O16 0.118515 0.019807 0.747491
O O17 0.744971 0.750000 0.399677
O O18 0.869890 0.986714 0.347539
O O19 0.979376 0.250000 0.729587
O O20 0.159778 0.250000 0.407313
O O21 0.000000 0.000000 0.500000
#
# Coordination Sequence:
#
# PCOD9167053 Si02
#       8
#     4   4   4   4   4   4   4   4
#     4   9  17  27  40  62  94 129 163 204 248 294
#     4  11  20  29  46  73 101 129 162 208 255 290
#     4   9  19  35  54  74  97 131 168 200 241 295
#     4   9  17  33  54  75  98 128 167 202 238 290
#     4   9  16  28  45  65  93 128 167 206 244 291
#     4   9  16  27  46  70  95 124 157 203 254 295
#     4   9  16  31  55  76  96 126 168 208 242 293
#     4   9  18  32  53  76 101 133 164 198 235 280
#
# _framework density 17.487566999999999
#
# number of rings (size 3 to 8) (size 9 to 14) (size 15 to 20)
#    0.000    2.750    1.250    3.000    0.000    4.500 
#    0.000    1.875    0.000    0.750    0.000    0.000 
#    0.000    0.000    0.000    0.000    0.000    0.000 
#
# Total GULP energy -178295.111552 kJ/mol
# GULP energy per Si atom -5571.722236 kJ/mol
# Density = 1.744776 g / cm^3
# Si number density = 17.487567 Si / 1000 Ang^3
#
#
#
# Elastic Constant Matrix: (Units=GPa)
#
#
# Indices 1 2 3 4 5 6 
#
# 1 83.1718 16.6010 78.6665 0.0000 -17.5608 0.0000
# 2 16.6010 14.3203 22.9094 0.0000 -4.8360 0.0000
# 3 78.6665 22.9094 143.1252 0.0000 -11.9102 0.0000
# 4 0.0000 0.0000 0.0000 16.7822 0.0000 -11.7216
# 5 -17.5608 -4.8360 -11.9102 0.0000 34.5172 0.0000
# 6 0.0000 0.0000 0.0000 -11.7216 0.0000 20.1335
#
#
#
# Elastic Compliance Matrix: (Units=1/GPa)
#
#
# Indices 1 2 3 4 5 6 
#
# 1 0.028231 -0.008273 -0.013481 0.000000 0.008552 0.000000
# 2 -0.008273 0.098603 -0.010745 0.000000 0.005898 0.000000
# 3 -0.013481 -0.010745 0.015876 0.000000 -0.002886 0.000000
# 4 0.000000 0.000000 0.000000 0.100422 0.000000 0.058465
# 5 0.008552 0.005898 -0.002886 0.000000 0.033152 0.000000
# 6 0.000000 0.000000 0.000000 0.058465 0.000000 0.083706
#
#
# Mechanical properties :
#
#
# Convention : Reuss Voigt Hill
#
# Bulk Modulus (GPa) = 12.86793 52.99680 32.93236
# Shear Modulus (GPa) = 11.08913 22.44928 16.76921
#
# Velocity S-wave (km/s) = 2.52090 3.58680 3.10001
# Velocity P-wave (km/s) = 3.98090 6.89382 5.62904
#
# Compressibility (1/GPa) = 0.07771257
#
# Stress axis : x y z
#
# Youngs Moduli (GPa) = 35.42247 10.14171 62.98751
#
# Poissons Ratio (x) = 0.08390 0.84912
# Poissons Ratio (y) = 0.29304 0.67681
# Poissons Ratio (z) = 0.47752 0.10897
#
# Static dielectric constant tensor:
#      x y z
#    x 1.592750 0.000000 -0.009000 
#    y 0.000000 1.588280 0.000000 
#    z -0.009000 0.000000 1.610850 
# 
# From -- ./inp_files/72029.got.cif
#   From: 2010.05.17/outbox.cif.g08.bks.cpg/sg11_37_cif.got.tgz:72029.got - 2010.06.03 12:22:45.
