data_PCOD9167414
_publ_section_title
;
Structure prediction by ZEFSAII (Michael W. Deem and Ramdas Pophale) SiO2 
 PCOD9167414
Probable space group: P 21/M
;
_chemical_formula_sum "Si O2"
_cell_formula_units_Z 28
_cell_length_a 16.098261
_cell_length_b 8.887395
_cell_length_c 17.659147
_cell_angle_alpha 90.000000
_cell_angle_beta 145.427776
_cell_angle_gamma 90.000000
_cell_volume 1433.661636
_symmetry_space_group_name_H-M "P 21/M"
_symmetry_group_IT_number 11
_symmetry_cell_setting 'monoclinic'
loop_
_space_group_symop_operation_xyz
x,y,z
-x,1/2+y,-z
-x,-y,-z
x,1/2-y,z
loop_
_atom_site_type_symbol
_atom_site_label
_atom_site_fract_x
_atom_site_fract_y
_atom_site_fract_z
Si Si1 0.669534 0.071525 0.912224
Si Si2 0.150187 0.571202 0.804841
Si Si3 0.847465 0.929460 0.356771
Si Si4 0.850051 0.927842 0.916387
Si Si5 0.354736 0.928074 0.669183
Si Si6 0.660336 0.928021 0.624712
Si Si7 0.845982 0.428735 0.629552
O O1 0.651792 0.250000 0.887715
O O2 0.792380 0.009202 0.947848
O O3 0.518580 0.987267 0.782584
O O4 0.724111 0.045385 0.038731
O O5 0.136473 0.750000 0.781605
O O6 0.179720 0.488897 0.748115
O O7 0.998481 0.509119 0.725284
O O8 0.858874 0.750000 0.365563
O O9 0.723272 0.984759 0.321067
O O10 0.000000 0.000000 0.500000
O O11 0.869419 0.750000 0.944466
O O12 0.729698 0.947256 0.759896
O O13 0.000000 0.000000 0.000000
O O14 0.354382 0.750000 0.684787
O O15 0.261085 0.952185 0.522638
O O16 0.651151 0.750000 0.602125
O O17 0.500000 0.000000 0.500000
O O18 0.767446 0.004512 0.644244
O O19 0.869406 0.250000 0.656034
#
# Coordination Sequence:
#
# PCOD9167414 Si02
#       7
#     4   4   4   4   4   4   4
#     4  11  25  43  64  94 128 167 212 260 318 377
#     4  11  24  42  65  93 127 164 208 259 310 372
#     4  12  24  41  67  97 128 165 209 257 312 372
#     4  11  24  42  64  91 125 167 212 261 315 377
#     4  11  24  42  65  94 129 168 210 260 315 376
#     4  11  24  40  60  89 124 161 207 259 314 374
#     4  11  23  39  63  93 123 161 210 259 314 374
#
# _framework density 19.53041
#
# number of rings (size 3 to 8) (size 9 to 14) (size 15 to 20)
#    0.000    0.857    1.429    5.571    0.000   13.714 
#    0.000    0.000    0.000    0.000    0.000    0.000 
#    0.000    0.000    0.000    0.000    0.000    0.000 
#
# Total GULP energy -156760.531607 kJ/mol
# GULP energy per Si atom -5598.590415 kJ/mol
# Density = 1.948596 g / cm^3
# Si number density = 19.530410 Si / 1000 Ang^3
#
#
#
# Elastic Constant Matrix: (Units=GPa)
#
#
# Indices 1 2 3 4 5 6 
#
# 1 62.7616 10.3899 -10.3192 0.0000 -14.7206 0.0000
# 2 10.3899 101.1147 42.1247 0.0000 -15.9462 0.0000
# 3 -10.3192 42.1247 47.3949 0.0000 3.6684 0.0000
# 4 0.0000 0.0000 0.0000 31.8754 0.0000 0.1552
# 5 -14.7206 -15.9462 3.6684 0.0000 35.0183 0.0000
# 6 0.0000 0.0000 0.0000 0.1552 0.0000 41.4031
#
#
#
# Elastic Compliance Matrix: (Units=1/GPa)
#
#
# Indices 1 2 3 4 5 6 
#
# 1 0.019127 -0.004277 0.007556 0.000000 0.005301 0.000000
# 2 -0.004277 0.019805 -0.019249 0.000000 0.009237 0.000000
# 3 0.007556 -0.019249 0.040615 0.000000 -0.009844 0.000000
# 4 0.000000 0.000000 0.000000 0.031373 0.000000 -0.000118
# 5 0.005301 0.009237 -0.009844 0.000000 0.036022 0.000000
# 6 0.000000 0.000000 0.000000 -0.000118 0.000000 0.024153
#
#
# Mechanical properties :
#
#
# Convention : Reuss Voigt Hill
#
# Bulk Modulus (GPa) = 21.00568 32.85132 26.92850
# Shear Modulus (GPa) = 22.84090 32.93107 27.88599
#
# Velocity S-wave (km/s) = 3.42351 4.11072 3.78276
# Velocity P-wave (km/s) = 5.13867 6.27597 5.73558
#
# Compressibility (1/GPa) = 0.04760618
#
# Stress axis : x y z
#
# Youngs Moduli (GPa) = 52.28197 50.49170 24.62143
#
# Poissons Ratio (x) = 0.21595 -0.18603
# Poissons Ratio (y) = 0.22361 0.47394
# Poissons Ratio (z) = -0.39502 0.97192
#
# Static dielectric constant tensor:
#      x y z
#    x 1.653360 0.000000 -0.005770 
#    y 0.000000 1.650720 0.000000 
#    z -0.005770 0.000000 1.669610 
# 
# From -- ./inp_files/51954.got.cif
#   From: 2010.05.17/outbox.cif.g08.bks.cpg/sg11_26_cif.got.tgz:51954.got - 2010.06.03 12:22:45.
