data_PCOD9167750
_publ_section_title
;
Structure prediction by ZEFSAII (Michael W. Deem and Ramdas Pophale) SiO2 
 PCOD9167750
Probable space group: P 21/M
;
_chemical_formula_sum "Si O2"
_cell_formula_units_Z 24
_cell_length_a 15.000000
_cell_length_b 9.000000
_cell_length_c 15.000000
_cell_angle_alpha 90.000000
_cell_angle_beta 40.000000
_cell_angle_gamma 90.000000
_cell_volume 1301.644910
_symmetry_space_group_name_H-M "P 21/M"
_symmetry_group_IT_number 11
_symmetry_cell_setting 'monoclinic'
loop_
_space_group_symop_operation_xyz
x,y,z
-x,1/2+y,-z
-x,-y,-z
x,1/2-y,z
loop_
_atom_site_type_symbol
_atom_site_label
_atom_site_fract_x
_atom_site_fract_y
_atom_site_fract_z
Si Si1 0.271450 0.425839 0.922076
Si Si2 0.697521 0.415208 0.820427
Si Si3 0.497912 0.083352 0.144643
Si Si4 0.029445 0.075528 0.383437
Si Si5 0.968948 0.071139 0.237850
Si Si6 0.131749 0.074385 0.850888
O O1 0.292670 0.250000 0.923048
O O2 0.397181 0.520465 0.863226
O O3 0.252103 0.447911 0.831057
O O4 0.125341 0.466810 0.082840
O O5 0.758435 0.250000 0.763795
O O6 0.623441 0.469458 0.787208
O O7 0.810755 0.536801 0.758154
O O8 0.588322 0.407996 0.984402
O O9 0.447971 0.250000 0.202852
O O10 0.008295 0.250000 0.407485
O O11 0.951467 0.022992 0.353687
O O12 0.000000 0.000000 0.500000
O O13 0.959413 0.250000 0.240374
O O14 0.862580 0.998483 0.250260
O O15 0.108188 0.250000 0.860696
O O16 0.000000 0.000000 0.000000
#
# Coordination Sequence:
#
# PCOD9167750 Si02
#       6
#     4   4   4   4   4   4
#     4   9  16  28  44  67  97 128 157 192 240 287
#     4  10  20  33  48  69  96 128 164 200 243 289
#     4  10  19  29  47  72  97 128 161 197 241 290
#     4  11  22  36  52  71  97 129 168 207 244 286
#     4   9  18  31  46  65  94 128 160 200 242 282
#     4   9  17  27  42  65  94 126 159 194 237 288
#
# _framework density 18.438207999999999
#
# number of rings (size 3 to 8) (size 9 to 14) (size 15 to 20)
#    0.000    2.333    1.667    3.000    0.000    6.000 
#    0.000    0.000    0.000    0.000    0.000    1.167 
#    0.000    0.000    0.000    0.000    0.000    0.000 
#
# Total GULP energy -133670.479974 kJ/mol
# GULP energy per Si atom -5569.603332 kJ/mol
# Density = 1.839624 g / cm^3
# Si number density = 18.438208 Si / 1000 Ang^3
#
#
#
# Elastic Constant Matrix: (Units=GPa)
#
#
# Indices 1 2 3 4 5 6 
#
# 1 129.3873 55.6815 13.6225 0.0000 37.4203 0.0000
# 2 55.6815 27.4086 8.6993 0.0000 23.8734 0.0000
# 3 13.6225 8.6993 13.7526 0.0000 21.5188 0.0000
# 4 0.0000 0.0000 0.0000 17.9270 0.0000 4.2057
# 5 37.4203 23.8734 21.5188 0.0000 25.7170 0.0000
# 6 0.0000 0.0000 0.0000 4.2057 0.0000 30.2805
#
#
#
# Elastic Compliance Matrix: (Units=1/GPa)
#
#
# Indices 1 2 3 4 5 6 
#
# 1 0.057005 -0.110040 0.054674 0.000000 -0.026543 0.000000
# 2 -0.110040 0.240873 -0.180980 0.000000 0.087948 0.000000
# 3 0.054674 -0.180980 0.017341 0.000000 0.073941 0.000000
# 4 0.000000 0.000000 0.000000 0.057660 0.000000 -0.008008
# 5 -0.026543 0.087948 0.073941 0.000000 -0.066006 0.000000
# 6 0.000000 0.000000 0.000000 -0.008008 0.000000 0.034137
#
#
# Mechanical properties :
#
#
# Convention : Reuss Voigt Hill
#
# Bulk Modulus (GPa) = -6.35026 36.28388 14.96681
# Shear Modulus (GPa) = 6.56848 20.95459 13.76153
#
# Velocity S-wave (km/s) = 1.88949 3.37482 2.73492
# Velocity P-wave (km/s) = 1.14397 5.90824 4.25535
#
# Compressibility (1/GPa) = -0.15747379
#
# Stress axis : x y z
#
# Youngs Moduli (GPa) = 17.54247 4.15157 57.66613
#
# Poissons Ratio (x) = 0.45684 -3.15284
# Poissons Ratio (y) = 1.93038 10.43642
# Poissons Ratio (z) = -0.95912 0.75135
#
# Static dielectric constant tensor:
#      x y z
#    x 1.679880 0.000000 0.015100 
#    y 0.000000 1.638400 0.000000 
#    z 0.015100 0.000000 1.666420 
# 
# From -- ./inp_files/36969.got.cif
#   From: 2010.05.17/outbox.ucp.g08.bks.cvg/sg11_19_cif.got.tgz:36969.got - 2010.06.11 11:38:39.
