data_PCOD9167500
_publ_section_title
;
Structure prediction by ZEFSAII (Michael W. Deem and Ramdas Pophale) SiO2 
 PCOD9167500
Probable space group: P 21/M
;
_chemical_formula_sum "Si O2"
_cell_formula_units_Z 24
_cell_length_a 14.678135
_cell_length_b 13.797397
_cell_length_c 9.423534
_cell_angle_alpha 90.000000
_cell_angle_beta 35.808074
_cell_angle_gamma 90.000000
_cell_volume 1116.583297
_symmetry_space_group_name_H-M "P 21/M"
_symmetry_group_IT_number 11
_symmetry_cell_setting 'monoclinic'
loop_
_space_group_symop_operation_xyz
x,y,z
-x,1/2+y,-z
-x,-y,-z
x,1/2-y,z
loop_
_atom_site_type_symbol
_atom_site_label
_atom_site_fract_x
_atom_site_fract_y
_atom_site_fract_z
Si Si1 0.539810 0.487355 0.751451
Si Si2 0.661112 0.640088 0.795692
Si Si3 0.283121 0.644429 0.997941
Si Si4 0.981201 0.612413 0.555382
Si Si5 0.053298 0.138599 0.064835
Si Si6 0.774132 0.445914 0.230803
O O1 0.667226 0.556472 0.667717
O O2 0.609872 0.447443 0.518219
O O3 0.477665 0.400853 0.928931
O O4 0.397004 0.560184 0.906485
O O5 0.630454 0.750000 0.785289
O O6 0.821218 0.642296 0.681201
O O7 0.360125 0.750000 0.892917
O O8 0.136043 0.652112 0.287045
O O9 0.226817 0.612753 0.913700
O O10 0.971265 0.633103 0.734691
O O11 0.000000 0.500000 0.500000
O O12 0.091820 0.250000 0.978361
O O13 0.898227 0.103504 0.179431
O O14 0.178394 0.056890 0.863598
#
# Coordination Sequence:
#
# PCOD9167500 Si02
#       6
#     4   4   4   4   4   4
#     4  11  25  44  65  97 137 172 215 271 327 389
#     4  11  24  42  68  99 132 174 219 268 327 386
#     4  12  25  43  70  99 131 174 220 269 326 387
#     4  12  22  45  70  98 129 172 224 274 318 385
#     4  11  24  42  68  99 132 174 219 268 327 386
#     4  11  25  44  65  97 137 172 215 271 327 389
#
# _framework density 21.494140000000002
#
# number of rings (size 3 to 8) (size 9 to 14) (size 15 to 20)
#    0.000    0.667    3.333    4.000    4.667    2.667 
#    0.000    0.000    0.000    0.000    0.000    0.000 
#    0.000    0.000    0.000    0.000    0.000    0.000 
#
# Total GULP energy -134211.169798 kJ/mol
# GULP energy per Si atom -5592.132075 kJ/mol
# Density = 2.144522 g / cm^3
# Si number density = 21.494140 Si / 1000 Ang^3
#
#
#
# Elastic Constant Matrix: (Units=GPa)
#
#
# Indices 1 2 3 4 5 6 
#
# 1 103.0194 -16.1001 -1.2132 0.0000 7.5503 0.0000
# 2 -16.1001 95.6102 -25.4989 0.0000 -2.8227 0.0000
# 3 -1.2132 -25.4989 57.3369 0.0000 10.8576 0.0000
# 4 0.0000 0.0000 0.0000 -6.2129 0.0000 32.3333
# 5 7.5503 -2.8227 10.8576 0.0000 20.7615 0.0000
# 6 0.0000 0.0000 0.0000 32.3333 0.0000 -155.4801
#
#
#
# Elastic Compliance Matrix: (Units=1/GPa)
#
#
# Indices 1 2 3 4 5 6 
#
# 1 0.010403 0.002163 0.002045 0.000000 -0.004559 0.000000
# 2 0.002163 0.012347 0.005958 0.000000 -0.002223 0.000000
# 3 0.002045 0.005958 0.022333 0.000000 -0.011613 0.000000
# 4 0.000000 0.000000 0.000000 1.956805 0.000000 0.406933
# 5 -0.004559 -0.002223 -0.011613 0.000000 0.055595 0.000000
# 6 0.000000 0.000000 0.000000 0.406933 0.000000 0.078193
#
#
# Mechanical properties :
#
#
# Convention : Reuss Voigt Hill
#
# Bulk Modulus (GPa) = 15.28745 18.92689 17.10717
# Shear Modulus (GPa) = 2.33957 -8.26772 -2.96408
#
# Velocity S-wave (km/s) = 1.04443 -1.96338 -1.17559
# Velocity P-wave (km/s) = 2.92955 1.91961 2.47661
#
# Compressibility (1/GPa) = 0.06541312
#
# Stress axis : x y z
#
# Youngs Moduli (GPa) = 96.12524 80.99435 44.77755
#
# Poissons Ratio (x) = -0.17516 -0.09158
# Poissons Ratio (y) = -0.20789 -0.26677
# Poissons Ratio (z) = -0.19659 -0.48253
#
# Static dielectric constant tensor:
#      x y z
#    x 1.794460 0.000000 -0.009110 
#    y 0.000000 1.776980 0.000000 
#    z -0.009110 0.000000 1.745400 
# 
# From -- ./inp_files/21995.got.cif
#   From: 2010.05.17/outbox.cif.g08.bks.cpg/sg11_11_cif.got.tgz:21995.got - 2010.06.03 12:22:45.
