data_PCOD9167154
_publ_section_title
;
Structure prediction by ZEFSAII (Michael W. Deem and Ramdas Pophale) SiO2 
 PCOD9167154
Probable space group: P 21/M
;
_chemical_formula_sum "Si O2"
_cell_formula_units_Z 24
_cell_length_a 14.717439
_cell_length_b 15.286905
_cell_length_c 11.368301
_cell_angle_alpha 90.000000
_cell_angle_beta 28.549834
_cell_angle_gamma 90.000000
_cell_volume 1222.377247
_symmetry_space_group_name_H-M "P 21/M"
_symmetry_group_IT_number 11
_symmetry_cell_setting 'monoclinic'
loop_
_space_group_symop_operation_xyz
x,y,z
-x,1/2+y,-z
-x,-y,-z
x,1/2-y,z
loop_
_atom_site_type_symbol
_atom_site_label
_atom_site_fract_x
_atom_site_fract_y
_atom_site_fract_z
Si Si1 0.138895 0.856514 0.140796
Si Si2 0.441028 0.345398 0.060400
Si Si3 0.737529 0.849732 0.971398
Si Si4 0.861314 0.387674 0.579183
Si Si5 0.237583 0.451762 0.476161
Si Si6 0.549518 0.007005 0.307281
O O1 0.158810 0.750000 0.113815
O O2 0.112072 0.884729 0.309469
O O3 0.947204 0.890925 0.293452
O O4 0.316811 0.910394 0.883234
O O5 0.350015 0.250000 0.172790
O O6 0.351555 0.388128 0.047733
O O7 0.396393 0.395830 0.228172
O O8 0.662685 0.339887 0.788159
O O9 0.669515 0.750000 0.069127
O O10 0.959497 0.847525 0.690742
O O11 0.671602 0.919791 0.140318
O O12 0.827809 0.478037 0.547599
O O13 0.351775 0.490446 0.457139
O O14 0.500000 0.000000 0.500000
#
# Coordination Sequence:
#
# PCOD9167154 Si02
#       6
#     4   4   4   4   4   4
#     4  12  25  42  70 106 138 170 215 273 340 407
#     4  11  21  34  61 102 135 164 208 265 339 412
#     4  11  23  42  66  99 135 170 215 274 338 402
#     4  12  21  38  67 103 136 163 201 268 348 411
#     4  12  23  40  67  97 138 174 216 269 336 395
#     4  12  28  48  68  89 131 188 238 275 315 378
#
# _framework density 19.633872
#
# number of rings (size 3 to 8) (size 9 to 14) (size 15 to 20)
#    0.000    0.333    6.667    4.000    0.000    2.000 
#    0.000    0.000    0.000    0.000    0.000    0.000 
#    0.000    0.000    0.000    0.000    0.000    0.000 
#
# Total GULP energy -133860.842331 kJ/mol
# GULP energy per Si atom -5577.535097 kJ/mol
# Density = 1.958918 g / cm^3
# Si number density = 19.633872 Si / 1000 Ang^3
#
#
#
# Elastic Constant Matrix: (Units=GPa)
#
#
# Indices 1 2 3 4 5 6 
#
# 1 74.9947 50.2415 60.4148 0.0000 9.7869 0.0000
# 2 50.2415 109.5031 48.7961 0.0000 12.3484 0.0000
# 3 60.4148 48.7961 102.6085 0.0000 0.7522 0.0000
# 4 0.0000 0.0000 0.0000 12.0983 0.0000 -8.7868
# 5 9.7869 12.3484 0.7522 0.0000 41.9693 0.0000
# 6 0.0000 0.0000 0.0000 -8.7868 0.0000 23.1220
#
#
#
# Elastic Compliance Matrix: (Units=1/GPa)
#
#
# Indices 1 2 3 4 5 6 
#
# 1 0.030249 -0.006877 -0.014505 0.000000 -0.004770 0.000000
# 2 -0.006877 0.013630 -0.002416 0.000000 -0.002363 0.000000
# 3 -0.014505 -0.002416 0.019407 0.000000 0.003745 0.000000
# 4 0.000000 0.000000 0.000000 0.114167 0.000000 0.043386
# 5 -0.004770 -0.002363 0.003745 0.000000 0.025568 0.000000
# 6 0.000000 0.000000 0.000000 0.043386 0.000000 0.059737
#
#
# Mechanical properties :
#
#
# Convention : Reuss Voigt Hill
#
# Bulk Modulus (GPa) = 63.72784 67.33457 65.53120
# Shear Modulus (GPa) = 15.84366 23.94817 19.89591
#
# Velocity S-wave (km/s) = 2.84378 3.49626 3.18676
# Velocity P-wave (km/s) = 6.58113 7.11815 6.85490
#
# Compressibility (1/GPa) = 0.01569173
#
# Stress axis : x y z
#
# Youngs Moduli (GPa) = 33.05894 73.36555 51.52687
#
# Poissons Ratio (x) = 0.50454 0.74739
# Poissons Ratio (y) = 0.22735 0.12446
# Poissons Ratio (z) = 0.47952 0.17721
#
# Static dielectric constant tensor:
#      x y z
#    x 1.701720 0.000000 -0.034300 
#    y 0.000000 2.433820 0.000000 
#    z -0.034300 0.000000 1.694140 
# 
# From -- ./inp_files/39565.got.cif
#   From: 2010.05.17/outbox.cif.g08.bks.cpg/sg11_20_cif.got.tgz:39565.got - 2010.06.03 12:22:45.
