data_PCOD9167528
_publ_section_title
;
Structure prediction by ZEFSAII (Michael W. Deem and Ramdas Pophale) SiO2 
 PCOD9167528
Probable space group: P 21/M
;
_chemical_formula_sum "Si O2"
_cell_formula_units_Z 16
_cell_length_a 9.605045
_cell_length_b 9.859022
_cell_length_c 11.053673
_cell_angle_alpha 90.000000
_cell_angle_beta 139.941831
_cell_angle_gamma 90.000000
_cell_volume 673.646826
_symmetry_space_group_name_H-M "P 21/M"
_symmetry_group_IT_number 11
_symmetry_cell_setting 'monoclinic'
loop_
_space_group_symop_operation_xyz
x,y,z
-x,1/2+y,-z
-x,-y,-z
x,1/2-y,z
loop_
_atom_site_type_symbol
_atom_site_label
_atom_site_fract_x
_atom_site_fract_y
_atom_site_fract_z
Si Si1 0.017189 0.481758 0.154837
Si Si2 0.637621 0.956387 0.438278
Si Si3 0.089213 0.250000 0.528492
Si Si4 0.700801 0.250000 0.900842
Si Si5 0.611878 0.250000 0.306750
Si Si6 0.179805 0.250000 0.864415
O O1 0.951517 0.619263 0.178255
O O2 0.258514 0.444233 0.359493
O O3 0.842080 0.367070 0.065322
O O4 0.000000 0.500000 0.000000
O O5 0.826299 0.883815 0.483210
O O6 0.432615 0.867284 0.265093
O O7 0.607048 0.112038 0.380749
O O8 0.203273 0.250000 0.736150
O O9 0.836155 0.250000 0.383198
O O10 0.409658 0.250000 0.082453
#
# Coordination Sequence:
#
# PCOD9167528 Si02
#       6
#     4   4   2   2   2   2
#     4  12  26  49  72 102 144 185 235 290 343 413
#     4  11  25  47  71 105 138 185 230 288 356 412
#     4  11  25  44  72 103 141 185 226 299 346 413
#     4  11  24  45  71 104 141 181 234 285 345 416
#     4  12  23  45  71 103 142 177 237 286 351 425
#     4  12  26  44  72 104 138 185 239 284 352 410
#
# _framework density 23.751317
#
# number of rings (size 3 to 8) (size 9 to 14) (size 15 to 20)
#    0.000    0.500    5.000    3.000    0.000    6.000 
#    4.500    0.000    0.000    0.000    0.000    0.000 
#    0.000    0.000    0.000    0.000    0.000    0.000 
#
# Total GULP energy -89116.417849 kJ/mol
# GULP energy per Si atom -5569.776116 kJ/mol
# Density = 2.369726 g / cm^3
# Si number density = 23.751317 Si / 1000 Ang^3
#
#
#
# Elastic Constant Matrix: (Units=GPa)
#
#
# Indices 1 2 3 4 5 6 
#
# 1 45.0007 28.0088 16.1754 0.0000 -10.0256 0.0000
# 2 28.0088 225.5400 41.0244 0.0000 1.0541 0.0000
# 3 16.1754 41.0244 190.1851 0.0000 20.6509 0.0000
# 4 0.0000 0.0000 0.0000 52.6554 0.0000 45.0289
# 5 -10.0256 1.0541 20.6509 0.0000 48.9512 0.0000
# 6 0.0000 0.0000 0.0000 45.0289 0.0000 343.3772
#
#
#
# Elastic Compliance Matrix: (Units=1/GPa)
#
#
# Indices 1 2 3 4 5 6 
#
# 1 0.026270 -0.002872 -0.002312 0.000000 0.006417 0.000000
# 2 -0.002872 0.004934 -0.000780 0.000000 -0.000365 0.000000
# 3 -0.002312 -0.000780 0.005945 0.000000 -0.002965 0.000000
# 4 0.000000 0.000000 0.000000 0.021390 0.000000 -0.002805
# 5 0.006417 -0.000365 -0.002965 0.000000 0.023001 0.000000
# 6 0.000000 0.000000 0.000000 -0.002805 0.000000 0.003280
#
#
# Mechanical properties :
#
#
# Convention : Reuss Voigt Hill
#
# Bulk Modulus (GPa) = 39.64928 70.12699 54.88813
# Shear Modulus (GPa) = 47.54874 114.03123 80.78998
#
# Velocity S-wave (km/s) = 4.47916 6.93648 5.83856
# Velocity P-wave (km/s) = 6.59396 9.68207 8.28320
#
# Compressibility (1/GPa) = 0.02522114
#
# Stress axis : x y z
#
# Youngs Moduli (GPa) = 38.06636 202.67089 168.21186
#
# Poissons Ratio (x) = 0.58204 0.38884
# Poissons Ratio (y) = 0.10932 0.13128
# Poissons Ratio (z) = 0.08799 0.15817
#
# Static dielectric constant tensor:
#      x y z
#    x 1.960580 0.000000 0.019970 
#    y 0.000000 1.819440 0.000000 
#    z 0.019970 0.000000 1.859580 
# 
# From -- ./inp_files/33636.got.cif
#   From: 2010.05.17/outbox.cif.g08.bks.cpg/sg11_17_cif.got.tgz:33636.got - 2010.06.03 12:22:45.
