data_PCOD9167149
_publ_section_title
;
Structure prediction by ZEFSAII (Michael W. Deem and Ramdas Pophale) SiO2 
 PCOD9167149
Probable space group: P 21/M
;
_chemical_formula_sum "Si O2"
_cell_formula_units_Z 16
_cell_length_a 6.868248
_cell_length_b 13.543499
_cell_length_c 9.806933
_cell_angle_alpha 90.000000
_cell_angle_beta 117.105609
_cell_angle_gamma 90.000000
_cell_volume 812.048810
_symmetry_space_group_name_H-M "P 21/M"
_symmetry_group_IT_number 11
_symmetry_cell_setting 'monoclinic'
loop_
_space_group_symop_operation_xyz
x,y,z
-x,1/2+y,-z
-x,-y,-z
x,1/2-y,z
loop_
_atom_site_type_symbol
_atom_site_label
_atom_site_fract_x
_atom_site_fract_y
_atom_site_fract_z
Si Si1 0.690114 0.862227 0.347867
Si Si2 0.175969 0.045417 0.879736
Si Si3 0.299272 0.494500 0.214191
Si Si4 0.028029 0.136019 0.309998
O O1 0.615974 0.750000 0.349337
O O2 0.901357 0.878206 0.510946
O O3 0.747928 0.877857 0.208202
O O4 0.505617 0.942186 0.323665
O O5 0.922582 0.060899 0.844479
O O6 0.158554 0.938996 0.798269
O O7 0.313301 0.037337 0.061099
O O8 0.237556 0.401123 0.288285
O O9 0.978217 0.250000 0.269062
#
# Coordination Sequence:
#
# PCOD9167149 Si02
#       4
#     4   4   4   4
#     4  11  21  34  55  81 107 139 176 215 264 314
#     4   9  20  37  56  77 108 138 176 218 263 307
#     4   9  20  37  56  77 108 138 176 218 263 307
#     4   9  19  36  55  77 107 141 176 217 262 310
#
# _framework density 19.703247999999999
#
# number of rings (size 3 to 8) (size 9 to 14) (size 15 to 20)
#    1.500    1.000    0.000    2.250    0.000    3.000 
#    0.000    1.250    0.000    0.000    0.000    0.000 
#    0.000    0.000    0.000    0.000    0.000    0.000 
#
# Total GULP energy -89085.768272 kJ/mol
# GULP energy per Si atom -5567.860517 kJ/mol
# Density = 1.965840 g / cm^3
# Si number density = 19.703248 Si / 1000 Ang^3
#
#
#
# Elastic Constant Matrix: (Units=GPa)
#
#
# Indices 1 2 3 4 5 6 
#
# 1 32.9128 -1.8342 -7.4343 0.0000 2.2526 0.0000
# 2 -1.8342 52.4985 9.4888 0.0000 -3.4337 0.0000
# 3 -7.4343 9.4888 68.9661 0.0000 -8.3310 0.0000
# 4 0.0000 0.0000 0.0000 5.6298 0.0000 -9.5524
# 5 2.2526 -3.4337 -8.3310 0.0000 11.7797 0.0000
# 6 0.0000 0.0000 0.0000 -9.5524 0.0000 20.5327
#
#
#
# Elastic Compliance Matrix: (Units=1/GPa)
#
#
# Indices 1 2 3 4 5 6 
#
# 1 0.031313 0.000323 0.002864 0.000000 -0.003868 0.000000
# 2 0.000323 0.019724 -0.002178 0.000000 0.004147 0.000000
# 3 0.002864 -0.002178 0.016363 0.000000 0.010390 0.000000
# 4 0.000000 0.000000 0.000000 0.843363 0.000000 0.392357
# 5 -0.003868 0.004147 0.010390 0.000000 0.094189 0.000000
# 6 0.000000 0.000000 0.000000 0.392357 0.000000 0.231239
#
#
# Mechanical properties :
#
#
# Convention : Reuss Voigt Hill
#
# Bulk Modulus (GPa) = 14.40531 17.20200 15.80366
# Shear Modulus (GPa) = 3.97674 17.86558 10.92116
#
# Velocity S-wave (km/s) = 1.42222 3.01447 2.35687
# Velocity P-wave (km/s) = 3.16606 4.56788 3.92998
#
# Compressibility (1/GPa) = 0.06941882
#
# Stress axis : x y z
#
# Youngs Moduli (GPa) = 31.93567 50.69874 61.11212
#
# Poissons Ratio (x) = -0.01640 -0.17500
# Poissons Ratio (y) = -0.01033 0.13310
# Poissons Ratio (z) = -0.09145 0.11042
#
# Static dielectric constant tensor:
#      x y z
#    x 1.732530 0.000000 -0.010170 
#    y 0.000000 1.648720 0.000000 
#    z -0.010170 0.000000 1.685990 
# 
# From -- ./inp_files/3712.got.cif
#   From: 2010.05.17/outbox.cif.g08.bks.cpg/sg11_2_cif.got.tgz:3712.got - 2010.06.03 12:22:45.
