data_PCOD9167737
_publ_section_title
;
Structure prediction by ZEFSAII (Michael W. Deem and Ramdas Pophale) SiO2 
 PCOD9167737
Probable space group: P 21/M
;
_chemical_formula_sum "Si O2"
_cell_formula_units_Z 32
_cell_length_a 12.000000
_cell_length_b 9.000000
_cell_length_c 21.000000
_cell_angle_alpha 90.000000
_cell_angle_beta 130.000000
_cell_angle_gamma 90.000000
_cell_volume 1737.388797
_symmetry_space_group_name_H-M "P 21/M"
_symmetry_group_IT_number 11
_symmetry_cell_setting 'monoclinic'
loop_
_space_group_symop_operation_xyz
x,y,z
-x,1/2+y,-z
-x,-y,-z
x,1/2-y,z
loop_
_atom_site_type_symbol
_atom_site_label
_atom_site_fract_x
_atom_site_fract_y
_atom_site_fract_z
Si Si1 0.422093 0.579964 0.717044
Si Si2 0.176582 0.570010 0.815169
Si Si3 0.359690 0.428813 0.984704
Si Si4 0.859010 0.428429 0.685004
Si Si5 0.155713 0.077149 0.561801
Si Si6 0.333064 0.422468 0.495042
Si Si7 0.540574 0.576230 0.147324
Si Si8 0.607397 0.923156 0.656813
O O1 0.424822 0.750000 0.743207
O O2 0.258443 0.532339 0.639642
O O3 0.468528 0.452131 0.781927
O O4 0.528171 0.573492 0.695708
O O5 0.180247 0.750000 0.814210
O O6 0.307253 0.500740 0.819841
O O7 0.017632 0.505470 0.740907
O O8 0.222279 0.505520 0.901297
O O9 0.356216 0.250000 0.979279
O O10 0.401401 0.488218 0.068895
O O11 0.500000 0.500000 0.000000
O O12 0.872799 0.250000 0.689844
O O13 0.763498 0.488377 0.590887
O O14 0.757711 0.486642 0.705945
O O15 0.147089 0.250000 0.581605
O O16 0.236358 0.081047 0.523502
O O17 0.000000 0.000000 0.500000
O O18 0.359282 0.250000 0.487080
O O19 0.484791 0.504073 0.566167
O O20 0.541339 0.750000 0.129853
O O21 0.634350 0.750000 0.651699
#
# Coordination Sequence:
#
# PCOD9167737 Si02
#       8
#     4   4   4   4   4   4   4   4
#     4  10  21  37  57  80 107 142 185 227 271 323
#     4  11  22  37  56  82 115 146 181 224 275 327
#     4  10  18  33  55  81 113 146 180 218 268 325
#     4  12  24  37  56  81 110 144 184 231 278 326
#     4  10  21  35  52  74 107 145 181 224 275 328
#     4  10  21  37  55  77 105 143 187 229 275 324
#     4  11  21  35  57  85 115 147 183 221 268 327
#     4  10  21  39  59  79 106 143 187 232 277 324
#
# _framework density 18.418444999999998
#
# number of rings (size 3 to 8) (size 9 to 14) (size 15 to 20)
#    0.000    1.500    0.000    7.875    1.750    3.000 
#    0.000    0.000    0.000    0.750    0.000    0.000 
#    0.000    0.000    0.000    0.000    0.000    0.000 
#
# Total GULP energy -178448.538162 kJ/mol
# GULP energy per Si atom -5576.516818 kJ/mol
# Density = 1.837652 g / cm^3
# Si number density = 18.418445 Si / 1000 Ang^3
#
#
#
# Elastic Constant Matrix: (Units=GPa)
#
#
# Indices 1 2 3 4 5 6 
#
# 1 29.1457 28.7421 19.9366 0.0000 6.8505 0.0000
# 2 28.7421 188.1780 32.7123 0.0000 13.2506 0.0000
# 3 19.9366 32.7123 68.6338 0.0000 7.8174 0.0000
# 4 0.0000 0.0000 0.0000 31.5408 0.0000 3.6492
# 5 6.8505 13.2506 7.8174 0.0000 19.3688 0.0000
# 6 0.0000 0.0000 0.0000 3.6492 0.0000 30.8168
#
#
#
# Elastic Compliance Matrix: (Units=1/GPa)
#
#
# Indices 1 2 3 4 5 6 
#
# 1 0.048732 -0.004906 -0.010730 0.000000 -0.009549 0.000000
# 2 -0.004906 0.006458 -0.001412 0.000000 -0.002113 0.000000
# 3 -0.010730 -0.001412 0.018676 0.000000 -0.002777 0.000000
# 4 0.000000 0.000000 0.000000 0.032145 0.000000 -0.003806
# 5 -0.009549 -0.002113 -0.002777 0.000000 0.057573 0.000000
# 6 0.000000 0.000000 0.000000 -0.003806 0.000000 0.032901
#
#
# Mechanical properties :
#
#
# Convention : Reuss Voigt Hill
#
# Bulk Modulus (GPa) = 25.14422 49.85996 37.50209
# Shear Modulus (GPa) = 20.50550 29.98306 25.24428
#
# Velocity S-wave (km/s) = 3.34025 4.03908 3.70617
# Velocity P-wave (km/s) = 5.34394 6.99154 6.22251
#
# Compressibility (1/GPa) = 0.03977057
#
# Stress axis : x y z
#
# Youngs Moduli (GPa) = 20.52038 154.85467 53.54392
#
# Poissons Ratio (x) = 0.75966 0.57452
# Poissons Ratio (y) = 0.10067 0.07562
# Poissons Ratio (z) = 0.22018 0.21869
#
# Static dielectric constant tensor:
#      x y z
#    x 1.657880 0.000000 -0.082130 
#    y 0.000000 1.625270 0.000000 
#    z -0.082130 0.000000 1.755810 
# 
# From -- ./inp_files/64409.got.cif
#   From: 2010.05.17/outbox.ucp.g08.bks.cvg/sg11_33_cif.got.tgz:64409.got - 2010.06.11 11:38:39.
