data_PCOD9167034
_publ_section_title
;
Structure prediction by ZEFSAII (Michael W. Deem and Ramdas Pophale) SiO2 
 PCOD9167034
Probable space group: P 21/M
;
_chemical_formula_sum "Si O2"
_cell_formula_units_Z 28
_cell_length_a 9.795555
_cell_length_b 13.848755
_cell_length_c 11.597468
_cell_angle_alpha 90.000000
_cell_angle_beta 66.500079
_cell_angle_gamma 90.000000
_cell_volume 1442.782975
_symmetry_space_group_name_H-M "P 21/M"
_symmetry_group_IT_number 11
_symmetry_cell_setting 'monoclinic'
loop_
_space_group_symop_operation_xyz
x,y,z
-x,1/2+y,-z
-x,-y,-z
x,1/2-y,z
loop_
_atom_site_type_symbol
_atom_site_label
_atom_site_fract_x
_atom_site_fract_y
_atom_site_fract_z
Si Si1 0.873712 0.861613 0.242449
Si Si2 0.140900 0.500175 0.225093
Si Si3 0.915838 0.862315 0.960160
Si Si4 0.936955 0.140519 0.416507
Si Si5 0.237753 0.639450 0.768649
Si Si6 0.423438 0.036073 0.641769
Si Si7 0.316802 0.636555 0.306502
O O1 0.897637 0.750000 0.261570
O O2 0.720833 0.901854 0.343509
O O3 0.860924 0.872738 0.108350
O O4 0.010605 0.924418 0.239081
O O5 0.158935 0.431742 0.107796
O O6 0.281276 0.562986 0.215423
O O7 0.071946 0.432567 0.349363
O O8 0.898734 0.750000 0.930622
O O9 0.094411 0.881377 0.897047
O O10 0.994218 0.250000 0.404554
O O11 0.834464 0.134277 0.335636
O O12 0.826232 0.125121 0.560240
O O13 0.287840 0.750000 0.770799
O O14 0.362053 0.557571 0.731357
O O15 0.537543 0.100793 0.675513
O O16 0.500000 0.000000 0.500000
O O17 0.327994 0.750000 0.272171
#
# Coordination Sequence:
#
# PCOD9167034 Si02
#       7
#     4   4   4   4   4   4   4
#     4  11  22  36  60  88 114 147 199 245 279 334
#     4  11  19  35  57  86 111 149 195 238 287 340
#     4   9  19  37  63  88 110 144 194 252 294 326
#     4   9  17  33  56  79 109 149 191 234 282 335
#     4   9  17  33  58  83 106 142 193 241 283 327
#     4  12  22  37  57  84 114 156 191 228 280 344
#     4  11  23  36  51  79 124 159 182 227 295 347
#
# _framework density 19.406939000000001
#
# number of rings (size 3 to 8) (size 9 to 14) (size 15 to 20)
#    0.000    1.714    4.286    3.000    0.000    0.571 
#    0.000    2.143    0.000    0.000    0.000    0.000 
#    0.000    0.000    0.000    0.000    0.000    0.000 
#
# Total GULP energy -156361.987180 kJ/mol
# GULP energy per Si atom -5584.356685 kJ/mol
# Density = 1.936277 g / cm^3
# Si number density = 19.406939 Si / 1000 Ang^3
#
#
#
# Elastic Constant Matrix: (Units=GPa)
#
#
# Indices 1 2 3 4 5 6 
#
# 1 43.0775 19.2247 -8.3011 0.0000 8.4545 0.0000
# 2 19.2247 121.5799 7.7321 0.0000 -0.7898 0.0000
# 3 -8.3011 7.7321 43.5489 0.0000 -10.9846 0.0000
# 4 0.0000 0.0000 0.0000 29.3669 0.0000 -0.3121
# 5 8.4545 -0.7898 -10.9846 0.0000 9.5803 0.0000
# 6 0.0000 0.0000 0.0000 -0.3121 0.0000 30.7699
#
#
#
# Elastic Compliance Matrix: (Units=1/GPa)
#
#
# Indices 1 2 3 4 5 6 
#
# 1 0.030914 -0.005053 -0.000277 0.000000 -0.028015 0.000000
# 2 -0.005053 0.009158 -0.001792 0.000000 0.003159 0.000000
# 3 -0.000277 -0.001792 0.032714 0.000000 0.037605 0.000000
# 4 0.000000 0.000000 0.000000 0.034056 0.000000 0.000345
# 5 -0.028015 0.003159 0.037605 0.000000 0.172481 0.000000
# 6 0.000000 0.000000 0.000000 0.000345 0.000000 0.032503
#
#
# Mechanical properties :
#
#
# Convention : Reuss Voigt Hill
#
# Bulk Modulus (GPa) = 17.08158 27.27976 22.18067
# Shear Modulus (GPa) = 14.46833 26.58014 20.52423
#
# Velocity S-wave (km/s) = 2.73339 3.70485 3.25556
# Velocity P-wave (km/s) = 4.33391 5.69109 5.05822
#
# Compressibility (1/GPa) = 0.05854258
#
# Stress axis : x y z
#
# Youngs Moduli (GPa) = 32.34804 109.18825 30.56836
#
# Poissons Ratio (x) = 0.55169 0.00845
# Poissons Ratio (y) = 0.16344 0.05479
# Poissons Ratio (z) = 0.00895 0.19572
#
# Static dielectric constant tensor:
#      x y z
#    x 1.650970 0.000000 0.005280 
#    y 0.000000 1.709550 0.000000 
#    z 0.005280 0.000000 1.717340 
# 
# From -- ./inp_files/31670.got.cif
#   From: 2010.05.17/outbox.cif.g08.bks.cpg/sg11_16_cif.got.tgz:31670.got - 2010.06.03 12:22:45.
