data_PCOD9167091
_publ_section_title
;
Structure prediction by ZEFSAII (Michael W. Deem and Ramdas Pophale) SiO2 
 PCOD9167091
Probable space group: P 21/M
;
_chemical_formula_sum "Si O2"
_cell_formula_units_Z 30
_cell_length_a 9.880320
_cell_length_b 14.131200
_cell_length_c 9.487021
_cell_angle_alpha 90.000000
_cell_angle_beta 98.933969
_cell_angle_gamma 90.000000
_cell_volume 1308.515343
_symmetry_space_group_name_H-M "P 21/M"
_symmetry_group_IT_number 11
_symmetry_cell_setting 'monoclinic'
loop_
_space_group_symop_operation_xyz
x,y,z
-x,1/2+y,-z
-x,-y,-z
x,1/2-y,z
loop_
_atom_site_type_symbol
_atom_site_label
_atom_site_fract_x
_atom_site_fract_y
_atom_site_fract_z
Si Si1 0.118617 0.567086 0.081342
Si Si2 0.374078 0.634644 0.934158
Si Si3 0.695824 0.855579 0.495352
Si Si4 0.671925 0.026479 0.653644
Si Si5 0.446611 0.363625 0.793372
Si Si6 0.708578 0.141729 0.374651
Si Si7 0.001691 0.612581 0.518598
Si Si8 0.963493 0.250000 0.749552
O O1 0.198545 0.516207 0.223515
O O2 0.062232 0.665387 0.136921
O O3 0.240931 0.592023 0.990365
O O4 0.000000 0.500000 0.000000
O O5 0.361224 0.750000 0.932074
O O6 0.374594 0.604035 0.772147
O O7 0.513398 0.608343 0.041533
O O8 0.641990 0.750000 0.500931
O O9 0.683594 0.884117 0.326922
O O10 0.855065 0.859111 0.555622
O O11 0.620037 0.926224 0.587899
O O12 0.566612 0.091408 0.720023
O O13 0.704113 0.081440 0.515071
O O14 0.455238 0.250000 0.797776
O O15 0.669784 0.250000 0.399484
O O16 0.870016 0.139644 0.363327
O O17 0.018992 0.668522 0.373927
O O18 0.000000 0.500000 0.500000
#
# Coordination Sequence:
#
# PCOD9167091 Si02
#       8
#     4   4   4   4   4   4   4   2
#     4  11  23  38  60  91 127 171 206 259 323 388
#     4   9  20  36  57  89 121 157 205 255 311 371
#     4  11  22  38  59  90 123 162 208 257 316 386
#     4  11  21  38  63  91 122 156 217 263 312 378
#     4   9  20  39  63  87 119 167 209 254 314 379
#     4  11  20  34  61  93 119 155 205 268 313 367
#     4  12  22  37  62  95 124 166 211 263 325 387
#     4  12  22  42  60  88 138 174 218 262 328 390
#
# _framework density 22.926746999999999
#
# number of rings (size 3 to 8) (size 9 to 14) (size 15 to 20)
#    0.000    1.333    4.667    0.800    4.667    0.000 
#    1.200    0.667    0.000    1.600    0.000    0.000 
#    0.000    0.000    0.000    0.000    0.000    0.000 
#
# Total GULP energy -167045.872693 kJ/mol
# GULP energy per Si atom -5568.195756 kJ/mol
# Density = 2.287457 g / cm^3
# Si number density = 22.926747 Si / 1000 Ang^3
#
#
#
# Elastic Constant Matrix: (Units=GPa)
#
#
# Indices 1 2 3 4 5 6 
#
# 1 39.9194 -15.6718 20.3845 0.0000 11.9064 0.0000
# 2 -15.6718 109.4972 30.3362 0.0000 -0.9266 0.0000
# 3 20.3845 30.3362 146.3365 0.0000 15.9586 0.0000
# 4 0.0000 0.0000 0.0000 45.4853 0.0000 -7.4910
# 5 11.9064 -0.9266 15.9586 0.0000 33.4142 0.0000
# 6 0.0000 0.0000 0.0000 -7.4910 0.0000 14.1843
#
#
#
# Elastic Compliance Matrix: (Units=1/GPa)
#
#
# Indices 1 2 3 4 5 6 
#
# 1 0.032523 0.005894 -0.004754 0.000000 -0.009155 0.000000
# 2 0.005894 0.010811 -0.003023 0.000000 -0.000357 0.000000
# 3 -0.004754 -0.003023 0.008384 0.000000 -0.002394 0.000000
# 4 0.000000 0.000000 0.000000 0.024079 0.000000 0.012717
# 5 -0.009155 -0.000357 -0.002394 0.000000 0.034323 0.000000
# 6 0.000000 0.000000 0.000000 0.012717 0.000000 0.077216
#
#
# Mechanical properties :
#
#
# Convention : Reuss Voigt Hill
#
# Bulk Modulus (GPa) = 20.85445 40.65010 30.75228
# Shear Modulus (GPa) = 24.14464 35.99704 30.07084
#
# Velocity S-wave (km/s) = 3.24870 3.96673 3.62554
# Velocity P-wave (km/s) = 4.81539 6.22486 5.56493
#
# Compressibility (1/GPa) = 0.04795139
#
# Stress axis : x y z
#
# Youngs Moduli (GPa) = 30.74782 92.49935 119.28054
#
# Poissons Ratio (x) = -0.54523 0.56705
# Poissons Ratio (y) = -0.18124 0.36063
# Poissons Ratio (z) = 0.14617 0.27966
#
# Static dielectric constant tensor:
#      x y z
#    x 1.906520 0.000000 0.031590 
#    y 0.000000 1.904890 0.000000 
#    z 0.031590 0.000000 1.868760 
# 
# From -- ./inp_files/18121.got.cif
#   From: 2010.05.17/outbox.cif.g08.bks.cpg/sg11_10_cif.got.tgz:18121.got - 2010.06.03 12:22:45.
