data_PCOD9167641
_publ_section_title
;
Structure prediction by ZEFSAII (Michael W. Deem and Ramdas Pophale) SiO2 
 PCOD9167641
Probable space group: P 21/M
;
_chemical_formula_sum "Si O2"
_cell_formula_units_Z 32
_cell_length_a 27.149082
_cell_length_b 7.399604
_cell_length_c 13.899129
_cell_angle_alpha 90.000000
_cell_angle_beta 147.376353
_cell_angle_gamma 90.000000
_cell_volume 1505.342751
_symmetry_space_group_name_H-M "P 21/M"
_symmetry_group_IT_number 11
_symmetry_cell_setting 'monoclinic'
loop_
_space_group_symop_operation_xyz
x,y,z
-x,1/2+y,-z
-x,-y,-z
x,1/2-y,z
loop_
_atom_site_type_symbol
_atom_site_label
_atom_site_fract_x
_atom_site_fract_y
_atom_site_fract_z
Si Si1 0.222447 0.027277 0.363417
Si Si2 0.898236 0.459360 0.219564
Si Si3 0.862844 0.957931 0.577789
Si Si4 0.280915 0.529522 0.161981
Si Si5 0.556177 0.465517 0.690657
Si Si6 0.895070 0.969937 0.427094
Si Si7 0.393179 0.041363 0.539041
Si Si8 0.046550 0.463298 0.972859
O O1 0.220046 0.250000 0.358461
O O2 0.185387 0.965152 0.406416
O O3 0.324194 0.965539 0.505116
O O4 0.149312 0.969350 0.160939
O O5 0.908913 0.250000 0.211249
O O6 0.860357 0.469840 0.266306
O O7 0.999748 0.537102 0.391613
O O8 0.822286 0.535453 0.023273
O O9 0.833898 0.750000 0.527361
O O10 0.846148 0.033110 0.444078
O O11 0.972767 0.959976 0.777320
O O12 0.281725 0.750000 0.166426
O O13 0.342989 0.471683 0.172380
O O14 0.331150 0.463458 0.340190
O O15 0.500000 0.500000 0.500000
O O16 0.561395 0.250000 0.713250
O O17 0.491053 0.538480 0.668427
O O18 0.895275 0.750000 0.426652
O O19 0.409301 0.250000 0.591752
O O20 0.049548 0.250000 0.960447
O O21 0.000000 0.500000 0.000000
#
# Coordination Sequence:
#
# PCOD9167641 Si02
#       8
#     4   4   4   4   4   4   4   4
#     4   8  15  26  38  57  82 106 133 164 194 230
#     4   9  18  31  44  60  81 104 133 171 209 245
#     4   9  17  29  43  57  79 107 135 169 206 241
#     4   9  17  28  42  61  84 108 134 165 205 242
#     4   8  14  25  40  58  81 107 133 162 195 238
#     4   9  18  31  45  60  79 105 136 171 209 243
#     4   9  16  26  41  61  85 111 137 162 193 235
#     4   9  16  26  38  54  78 107 138 169 197 229
#
# _framework density 21.257618999999998
#
# number of rings (size 3 to 8) (size 9 to 14) (size 15 to 20)
#    0.000    3.250    0.000    1.125    1.750    1.000 
#    0.000    2.500    0.000    0.000    0.000    0.875 
#    0.000    0.000    0.000    0.000    0.000    0.000 
#
# Total GULP energy -178245.763891 kJ/mol
# GULP energy per Si atom -5570.180122 kJ/mol
# Density = 2.120924 g / cm^3
# Si number density = 21.257619 Si / 1000 Ang^3
#
#
#
# Elastic Constant Matrix: (Units=GPa)
#
#
# Indices 1 2 3 4 5 6 
#
# 1 106.4997 0.3383 -1.9626 0.0000 -1.4638 0.0000
# 2 0.3383 78.4290 -3.6292 0.0000 5.9896 0.0000
# 3 -1.9626 -3.6292 19.6683 0.0000 -1.4451 0.0000
# 4 0.0000 0.0000 0.0000 4.8807 0.0000 -3.0258
# 5 -1.4638 5.9896 -1.4451 0.0000 30.1021 0.0000
# 6 0.0000 0.0000 0.0000 -3.0258 0.0000 8.9243
#
#
#
# Elastic Compliance Matrix: (Units=1/GPa)
#
#
# Indices 1 2 3 4 5 6 
#
# 1 0.009415 -0.000035 0.000971 0.000000 0.000511 0.000000
# 2 -0.000035 0.013043 0.002220 0.000000 -0.002490 0.000000
# 3 0.000971 0.002220 0.051503 0.000000 0.002078 0.000000
# 4 0.000000 0.000000 0.000000 0.259414 0.000000 0.087954
# 5 0.000511 -0.002490 0.002078 0.000000 0.033840 0.000000
# 6 0.000000 0.000000 0.000000 0.087954 0.000000 0.141874
#
#
# Mechanical properties :
#
#
# Convention : Reuss Voigt Hill
#
# Bulk Modulus (GPa) = 12.45745 21.56555 17.01150
# Shear Modulus (GPa) = 9.44224 22.77146 16.10685
#
# Velocity S-wave (km/s) = 2.10985 3.27649 2.75562
# Velocity P-wave (km/s) = 3.43631 4.94780 4.25963
#
# Compressibility (1/GPa) = 0.08027322
#
# Stress axis : x y z
#
# Youngs Moduli (GPa) = 106.21660 76.66669 19.41650
#
# Poissons Ratio (x) = 0.00266 -0.01885
# Poissons Ratio (y) = 0.00369 -0.04311
# Poissons Ratio (z) = -0.10310 -0.17023
#
# Static dielectric constant tensor:
#      x y z
#    x 1.852030 0.000000 0.032460 
#    y 0.000000 1.785810 0.000000 
#    z 0.032460 0.000000 1.745100 
# 
# From -- ./inp_files/52962.got.cif
#   From: 2010.05.17/outbox.cif.g08.bks.cpg/sg11_27_cif.got.tgz:52962.got - 2010.06.03 12:22:45.
