data_PCOD9167457
_publ_section_title
;
Structure prediction by ZEFSAII (Michael W. Deem and Ramdas Pophale) SiO2 
 PCOD9167457
Probable space group: P 21/M
;
_chemical_formula_sum "Si O2"
_cell_formula_units_Z 18
_cell_length_a 6.635834
_cell_length_b 18.710276
_cell_length_c 7.171781
_cell_angle_alpha 90.000000
_cell_angle_beta 63.204997
_cell_angle_gamma 90.000000
_cell_volume 794.825588
_symmetry_space_group_name_H-M "P 21/M"
_symmetry_group_IT_number 11
_symmetry_cell_setting 'monoclinic'
loop_
_space_group_symop_operation_xyz
x,y,z
-x,1/2+y,-z
-x,-y,-z
x,1/2-y,z
loop_
_atom_site_type_symbol
_atom_site_label
_atom_site_fract_x
_atom_site_fract_y
_atom_site_fract_z
Si Si1 0.475793 0.750000 0.984088
Si Si2 0.033941 0.250000 0.210369
Si Si3 0.119018 0.633046 0.011953
Si Si4 0.452700 0.750000 0.431744
Si Si5 0.691377 0.894629 0.418972
Si Si6 0.453050 0.513802 0.804186
O O1 0.512861 0.750000 0.189809
O O2 0.724591 0.750000 0.794305
O O3 0.327644 0.681733 0.991260
O O4 0.009846 0.180279 0.088499
O O5 0.816370 0.250000 0.432319
O O6 0.225312 0.561132 0.885976
O O7 0.948659 0.618642 0.252529
O O8 0.557736 0.820421 0.479460
O O9 0.648348 0.940050 0.622784
O O10 0.583043 0.941861 0.297223
O O11 0.500000 0.500000 0.000000
#
# Coordination Sequence:
#
# PCOD9167457 Si02
#       6
#     2   2   4   2   4   4
#     4  11  24  41  69 107 134 182 251 287 350 431
#     4  11  23  41  72  96 140 184 231 297 352 408
#     4  11  23  45  68  99 145 185 233 299 349 415
#     4  12  21  44  69 101 132 184 238 292 358 411
#     4  11  24  45  72 103 145 185 234 299 350 418
#     4  11  25  44  70 106 145 188 238 281 359 432
#
# _framework density 22.646477999999998
#
# number of rings (size 3 to 8) (size 9 to 14) (size 15 to 20)
#    0.000    0.889    4.444    2.667    0.000    2.667 
#    0.000    0.000    0.000    0.000    0.000    0.000 
#    0.000    0.000    0.000    0.000    0.000    0.000 
#
# Total GULP energy -100862.552550 kJ/mol
# GULP energy per Si atom -5603.475142 kJ/mol
# Density = 2.259493 g / cm^3
# Si number density = 22.646478 Si / 1000 Ang^3
#
#
#
# Elastic Constant Matrix: (Units=GPa)
#
#
# Indices 1 2 3 4 5 6 
#
# 1 74.6570 45.3815 37.2729 0.0000 -13.5907 0.0000
# 2 45.3815 147.6551 47.8293 0.0000 -3.3656 0.0000
# 3 37.2729 47.8293 131.6435 0.0000 -21.5635 0.0000
# 4 0.0000 0.0000 0.0000 33.4136 0.0000 -3.7719
# 5 -13.5907 -3.3656 -21.5635 0.0000 64.5955 0.0000
# 6 0.0000 0.0000 0.0000 -3.7719 0.0000 3.4982
#
#
#
# Elastic Compliance Matrix: (Units=1/GPa)
#
#
# Indices 1 2 3 4 5 6 
#
# 1 0.018144 -0.004522 -0.003076 0.000000 0.002555 0.000000
# 2 -0.004522 0.008822 -0.002122 0.000000 -0.001200 0.000000
# 3 -0.003076 -0.002122 0.009641 0.000000 0.002461 0.000000
# 4 0.000000 0.000000 0.000000 0.034075 0.000000 0.036741
# 5 0.002555 -0.001200 0.002461 0.000000 0.016777 0.000000
# 6 0.000000 0.000000 0.000000 0.036741 0.000000 0.325478
#
#
# Mechanical properties :
#
#
# Convention : Reuss Voigt Hill
#
# Bulk Modulus (GPa) = 58.24542 68.32480 63.28511
# Shear Modulus (GPa) = 11.41292 35.19959 23.30626
#
# Velocity S-wave (km/s) = 2.24734 3.94675 3.21149
# Velocity P-wave (km/s) = 5.70169 7.14176 6.46197
#
# Compressibility (1/GPa) = 0.01716873
#
# Stress axis : x y z
#
# Youngs Moduli (GPa) = 55.11442 113.34989 103.72356
#
# Poissons Ratio (x) = 0.51257 0.31903
# Poissons Ratio (y) = 0.24923 0.22006
# Poissons Ratio (z) = 0.16952 0.24048
#
# Static dielectric constant tensor:
#      x y z
#    x 1.803140 0.000000 -0.013680 
#    y 0.000000 1.862170 0.000000 
#    z -0.013680 0.000000 1.839140 
# 
# From -- ./inp_files/10041.got.cif
#   From: 2010.05.17/outbox.cif.g08.bks.cpg/sg11_6_cif.got.tgz:10041.got - 2010.06.03 12:22:45.
