data_PCOD9167250
_publ_section_title
;
Structure prediction by ZEFSAII (Michael W. Deem and Ramdas Pophale) SiO2 
 PCOD9167250
Probable space group: P 21/M
;
_chemical_formula_sum "Si O2"
_cell_formula_units_Z 32
_cell_length_a 16.604461
_cell_length_b 8.463395
_cell_length_c 12.525734
_cell_angle_alpha 90.000000
_cell_angle_beta 99.595204
_cell_angle_gamma 90.000000
_cell_volume 1735.616996
_symmetry_space_group_name_H-M "P 21/M"
_symmetry_group_IT_number 11
_symmetry_cell_setting 'monoclinic'
loop_
_space_group_symop_operation_xyz
x,y,z
-x,1/2+y,-z
-x,-y,-z
x,1/2-y,z
loop_
_atom_site_type_symbol
_atom_site_label
_atom_site_fract_x
_atom_site_fract_y
_atom_site_fract_z
Si Si1 0.051039 0.434395 0.609071
Si Si2 0.725120 0.559451 0.881940
Si Si3 0.214339 0.561470 0.554669
Si Si4 0.020090 0.431497 0.195738
Si Si5 0.408244 0.440185 0.980250
Si Si6 0.856871 0.560166 0.084246
Si Si7 0.279838 0.058805 0.771548
Si Si8 0.802982 0.062173 0.696670
O O1 0.034215 0.250000 0.629571
O O2 0.142491 0.459247 0.591390
O O3 0.000000 0.500000 0.500000
O O4 0.026204 0.541641 0.702363
O O5 0.725630 0.750000 0.880546
O O6 0.736273 0.497850 0.765646
O O7 0.645139 0.506592 0.929149
O O8 0.803797 0.509649 0.970353
O O9 0.196911 0.750000 0.554419
O O10 0.284289 0.522154 0.656496
O O11 0.216716 0.514773 0.430322
O O12 0.032997 0.250000 0.170835
O O13 0.108925 0.504421 0.239552
O O14 0.950037 0.501922 0.103416
O O15 0.408933 0.250000 0.982967
O O16 0.356016 0.485032 0.863966
O O17 0.500000 0.500000 0.000000
O O18 0.859464 0.750000 0.087675
O O19 0.800874 0.513816 0.174961
O O20 0.278180 0.250000 0.760107
O O21 0.805311 0.250000 0.697718
#
# Coordination Sequence:
#
# PCOD9167250 Si02
#       8
#     4   4   4   4   4   4   4   4
#     4  12  22  33  49  71 102 142 189 240 282 319
#     4   9  20  39  59  80 109 143 182 223 272 331
#     4  11  22  34  51  77 108 144 186 231 276 322
#     4  12  23  33  50  75 104 144 192 237 281 327
#     4   9  19  37  63  94 118 140 168 213 270 329
#     4   9  18  34  54  75 104 141 182 236 283 320
#     4   9  18  33  55  82 113 143 175 220 276 325
#     4  11  24  38  52  73 108 150 191 233 274 322
#
# _framework density 18.437245999999998
#
# number of rings (size 3 to 8) (size 9 to 14) (size 15 to 20)
#    0.000    1.750    2.500    4.500    0.000    3.500 
#    0.000    2.500    0.000    0.750    0.000    0.000 
#    0.000    0.000    0.000    0.000    0.000    0.000 
#
# Total GULP energy -178440.040182 kJ/mol
# GULP energy per Si atom -5576.251256 kJ/mol
# Density = 1.839528 g / cm^3
# Si number density = 18.437246 Si / 1000 Ang^3
#
#
#
# Elastic Constant Matrix: (Units=GPa)
#
#
# Indices 1 2 3 4 5 6 
#
# 1 102.0060 14.8489 64.0697 0.0000 4.6990 0.0000
# 2 14.8489 29.1457 15.7196 0.0000 1.5386 0.0000
# 3 64.0697 15.7196 107.6415 0.0000 -9.5604 0.0000
# 4 0.0000 0.0000 0.0000 26.5417 0.0000 2.6223
# 5 4.6990 1.5386 -9.5604 0.0000 18.6623 0.0000
# 6 0.0000 0.0000 0.0000 2.6223 0.0000 26.7809
#
#
#
# Elastic Compliance Matrix: (Units=1/GPa)
#
#
# Indices 1 2 3 4 5 6 
#
# 1 0.017461 -0.002504 -0.010896 0.000000 -0.009772 0.000000
# 2 -0.002504 0.038286 -0.004531 0.000000 -0.004847 0.000000
# 3 -0.010896 -0.004531 0.017511 0.000000 0.012087 0.000000
# 4 0.000000 0.000000 0.000000 0.038045 0.000000 -0.003725
# 5 -0.009772 -0.004847 0.012087 0.000000 0.062636 0.000000
# 6 0.000000 0.000000 0.000000 -0.003725 0.000000 0.037705
#
#
# Mechanical properties :
#
#
# Convention : Reuss Voigt Hill
#
# Bulk Modulus (GPa) = 26.74054 47.56330 37.15192
# Shear Modulus (GPa) = 19.23295 24.00730 21.62012
#
# Velocity S-wave (km/s) = 3.23330 3.61239 3.42809
# Velocity P-wave (km/s) = 5.33610 6.57667 5.98859
#
# Compressibility (1/GPa) = 0.03739641
#
# Stress axis : x y z
#
# Youngs Moduli (GPa) = 57.26899 26.11934 57.10825
#
# Poissons Ratio (x) = 0.06540 0.62223
# Poissons Ratio (y) = 0.14339 0.25878
# Poissons Ratio (z) = 0.62398 0.11836
#
# Static dielectric constant tensor:
#      x y z
#    x 1.637900 0.000000 0.018050 
#    y 0.000000 1.601820 0.000000 
#    z 0.018050 0.000000 1.686490 
# 
# From -- ./inp_files/38188.got.cif
#   From: 2010.05.17/outbox.cif.g08.bks.cpg/sg11_20_cif.got.tgz:38188.got - 2010.06.03 12:22:45.
