data_PCOD9167182
_publ_section_title
;
Structure prediction by ZEFSAII (Michael W. Deem and Ramdas Pophale) SiO2 
 PCOD9167182
Probable space group: P 21/M
;
_chemical_formula_sum "Si O2"
_cell_formula_units_Z 16
_cell_length_a 9.304637
_cell_length_b 12.956556
_cell_length_c 9.707623
_cell_angle_alpha 90.000000
_cell_angle_beta 41.011257
_cell_angle_gamma 90.000000
_cell_volume 767.967723
_symmetry_space_group_name_H-M "P 21/M"
_symmetry_group_IT_number 11
_symmetry_cell_setting 'monoclinic'
loop_
_space_group_symop_operation_xyz
x,y,z
-x,1/2+y,-z
-x,-y,-z
x,1/2-y,z
loop_
_atom_site_type_symbol
_atom_site_label
_atom_site_fract_x
_atom_site_fract_y
_atom_site_fract_z
Si Si1 0.458775 0.750000 0.551088
Si Si2 0.482729 0.429634 0.879586
Si Si3 0.731217 0.250000 0.593366
Si Si4 0.046551 0.250000 0.837463
Si Si5 0.855945 0.750000 0.901729
Si Si6 0.210095 0.570698 0.891581
O O1 0.458130 0.750000 0.386597
O O2 0.715782 0.750000 0.404641
O O3 0.329618 0.648123 0.697039
O O4 0.691508 0.355681 0.704026
O O5 0.405033 0.500979 0.809411
O O6 0.500000 0.500000 0.000000
O O7 0.284141 0.349539 0.034914
O O8 0.941033 0.250000 0.347084
O O9 0.083842 0.250000 0.978848
O O10 0.899886 0.149026 0.918460
O O11 0.000000 0.500000 0.000000
#
# Coordination Sequence:
#
# PCOD9167182 Si02
#       6
#     2   4   2   2   2   4
#     4  11  21  36  64  98 122 161 211 266 317 353
#     4  11  25  42  63  93 130 171 205 254 317 384
#     4  11  21  42  66  88 128 169 205 262 323 367
#     4  11  21  38  60  96 124 159 205 273 304 364
#     4  11  21  44  62  88 130 163 207 261 320 362
#     4  11  21  39  64  92 124 159 213 260 306 372
#
# _framework density 20.834209999999999
#
# number of rings (size 3 to 8) (size 9 to 14) (size 15 to 20)
#    0.000    1.000    7.500    0.000    0.000   11.000 
#    0.000    2.500    0.000    0.000    0.000    0.000 
#    0.000    0.000    0.000    0.000    0.000    0.000 
#
# Total GULP energy -89190.537056 kJ/mol
# GULP energy per Si atom -5574.408566 kJ/mol
# Density = 2.078679 g / cm^3
# Si number density = 20.834210 Si / 1000 Ang^3
#
#
#
# Elastic Constant Matrix: (Units=GPa)
#
#
# Indices 1 2 3 4 5 6 
#
# 1 32.4628 26.7265 14.7448 0.0000 11.8527 0.0000
# 2 26.7265 147.2692 39.8431 0.0000 13.3988 0.0000
# 3 14.7448 39.8431 108.1466 0.0000 -13.8398 0.0000
# 4 0.0000 0.0000 0.0000 18.8348 0.0000 11.9594
# 5 11.8527 13.3988 -13.8398 0.0000 30.4298 0.0000
# 6 0.0000 0.0000 0.0000 11.9594 0.0000 23.8259
#
#
#
# Elastic Compliance Matrix: (Units=1/GPa)
#
#
# Indices 1 2 3 4 5 6 
#
# 1 0.044276 -0.004560 -0.006696 0.000000 -0.018284 0.000000
# 2 -0.004560 0.008758 -0.003049 0.000000 -0.003467 0.000000
# 3 -0.006696 -0.003049 0.012517 0.000000 0.009643 0.000000
# 4 0.000000 0.000000 0.000000 0.077932 0.000000 -0.039118
# 5 -0.018284 -0.003467 0.009643 0.000000 0.045897 0.000000
# 6 0.000000 0.000000 0.000000 -0.039118 0.000000 0.061606
#
#
# Mechanical properties :
#
#
# Convention : Reuss Voigt Hill
#
# Bulk Modulus (GPa) = 27.07028 50.05638 38.56333
# Shear Modulus (GPa) = 17.12863 28.38904 22.75883
#
# Velocity S-wave (km/s) = 2.87041 3.69537 3.30870
# Velocity P-wave (km/s) = 4.89970 6.50276 5.75730
#
# Compressibility (1/GPa) = 0.03694089
#
# Stress axis : x y z
#
# Youngs Moduli (GPa) = 22.58566 114.18122 79.89183
#
# Poissons Ratio (x) = 0.52067 0.53499
# Poissons Ratio (y) = 0.10299 0.24355
# Poissons Ratio (z) = 0.15124 0.34808
#
# Static dielectric constant tensor:
#      x y z
#    x 1.775280 0.000000 -0.021110 
#    y 0.000000 1.867610 0.000000 
#    z -0.021110 0.000000 1.755470 
# 
# From -- ./inp_files/11671.got.cif
#   From: 2010.05.17/outbox.cif.g08.bks.cpg/sg11_6_cif.got.tgz:11671.got - 2010.06.03 12:22:45.
