data_PCOD9167512
_publ_section_title
;
Structure prediction by ZEFSAII (Michael W. Deem and Ramdas Pophale) SiO2 
 PCOD9167512
Probable space group: P 21/M
;
_chemical_formula_sum "Si O2"
_cell_formula_units_Z 20
_cell_length_a 5.135241
_cell_length_b 28.065563
_cell_length_c 5.587608
_cell_angle_alpha 90.000000
_cell_angle_beta 84.626271
_cell_angle_gamma 90.000000
_cell_volume 801.765921
_symmetry_space_group_name_H-M "P 21/M"
_symmetry_group_IT_number 11
_symmetry_cell_setting 'monoclinic'
loop_
_space_group_symop_operation_xyz
x,y,z
-x,1/2+y,-z
-x,-y,-z
x,1/2-y,z
loop_
_atom_site_type_symbol
_atom_site_label
_atom_site_fract_x
_atom_site_fract_y
_atom_site_fract_z
Si Si1 0.120177 0.447821 0.470395
Si Si2 0.877434 0.750000 0.358768
Si Si3 0.607914 0.351547 0.113658
Si Si4 0.601845 0.552516 0.054498
Si Si5 0.077702 0.150620 0.395857
Si Si6 0.396664 0.750000 0.106733
O O1 0.187785 0.442524 0.181367
O O2 0.975005 0.397521 0.531348
O O3 0.000000 0.500000 0.500000
O O4 0.323478 0.448616 0.673368
O O5 0.957590 0.701298 0.479800
O O6 0.568453 0.750000 0.335386
O O7 0.082006 0.750000 0.123222
O O8 0.570845 0.400357 0.972096
O O9 0.389628 0.356343 0.341517
O O10 0.904914 0.347379 0.172222
O O11 0.525010 0.301001 0.008109
O O12 0.500000 0.500000 0.000000
#
# Coordination Sequence:
#
# PCOD9167512 Si02
#       6
#     4   2   4   4   4   2
#     4  11  24  43  69 103 140 184 232 287 347 413
#     4  12  24  40  66 100 136 182 231 288 347 412
#     4  11  24  44  67  97 136 184 231 285 346 414
#     4  11  24  43  69 103 140 184 232 287 347 413
#     4  11  24  44  67  97 136 184 231 285 346 414
#     4  12  24  40  66 100 136 182 231 288 347 412
#
# _framework density 24.944939000000002
#
# number of rings (size 3 to 8) (size 9 to 14) (size 15 to 20)
#    0.000    0.800    0.000    7.200    0.000    8.000 
#    0.000    0.000    0.000    0.000    0.000    0.000 
#    0.000    0.000    0.000    0.000    0.000    0.000 
#
# Total GULP energy -111481.776354 kJ/mol
# GULP energy per Si atom -5574.088818 kJ/mol
# Density = 2.488816 g / cm^3
# Si number density = 24.944939 Si / 1000 Ang^3
#
#
#
# Elastic Constant Matrix: (Units=GPa)
#
#
# Indices 1 2 3 4 5 6 
#
# 1 64.2004 21.2995 23.3983 0.0000 1.0978 0.0000
# 2 21.2995 285.9366 34.7061 0.0000 23.5321 0.0000
# 3 23.3983 34.7061 52.7915 0.0000 10.9162 0.0000
# 4 0.0000 0.0000 0.0000 53.2753 0.0000 14.2257
# 5 1.0978 23.5321 10.9162 0.0000 48.5907 0.0000
# 6 0.0000 0.0000 0.0000 14.2257 0.0000 33.2017
#
#
#
# Elastic Compliance Matrix: (Units=1/GPa)
#
#
# Indices 1 2 3 4 5 6 
#
# 1 0.018753 -0.000527 -0.008317 0.000000 0.001700 0.000000
# 2 -0.000527 0.003901 -0.002037 0.000000 -0.001419 0.000000
# 3 -0.008317 -0.002037 0.024881 0.000000 -0.004415 0.000000
# 4 0.000000 0.000000 0.000000 0.021195 0.000000 -0.009081
# 5 0.001700 -0.001419 -0.004415 0.000000 0.022221 0.000000
# 6 0.000000 0.000000 0.000000 -0.009081 0.000000 0.034010
#
#
# Mechanical properties :
#
#
# Convention : Reuss Voigt Hill
#
# Bulk Modulus (GPa) = 38.80127 62.41513 50.60820
# Shear Modulus (GPa) = 32.19287 48.58184 40.38735
#
# Velocity S-wave (km/s) = 3.59633 4.41791 4.02812
# Velocity P-wave (km/s) = 5.73004 7.14838 6.47814
#
# Compressibility (1/GPa) = 0.02577235
#
# Stress axis : x y z
#
# Youngs Moduli (GPa) = 53.32426 256.36809 40.19175
#
# Poissons Ratio (x) = 0.13521 0.33426
# Poissons Ratio (y) = 0.02812 0.08187
# Poissons Ratio (z) = 0.44348 0.52224
#
# Static dielectric constant tensor:
#      x y z
#    x 2.037220 0.000000 -0.059190 
#    y 0.000000 2.039520 0.000000 
#    z -0.059190 0.000000 2.028890 
# 
# From -- ./inp_files/862.got.cif
#   From: 2010.05.17/outbox.cif.g08.bks.cpg/sg11_1_cif.got.tgz:862.got - 2010.06.03 12:22:45.
