data_PCOD9167916
_publ_section_title
;
Structure prediction by ZEFSAII (Michael W. Deem and Ramdas Pophale) SiO2 
 PCOD9167916
Probable space group: P 21/M
;
_chemical_formula_sum "Si O2"
_cell_formula_units_Z 32
_cell_length_a 12.000000
_cell_length_b 18.000000
_cell_length_c 15.000000
_cell_angle_alpha 90.000000
_cell_angle_beta 30.000000
_cell_angle_gamma 90.000000
_cell_volume 1620.000000
_symmetry_space_group_name_H-M "P 21/M"
_symmetry_group_IT_number 11
_symmetry_cell_setting 'monoclinic'
loop_
_space_group_symop_operation_xyz
x,y,z
-x,1/2+y,-z
-x,-y,-z
x,1/2-y,z
loop_
_atom_site_type_symbol
_atom_site_label
_atom_site_fract_x
_atom_site_fract_y
_atom_site_fract_z
Si Si1 0.425327 0.838965 0.902040
Si Si2 0.256462 0.161043 0.474524
Si Si3 0.005165 0.079268 0.188471
Si Si4 0.062674 0.404861 0.782119
Si Si5 0.833963 0.160604 0.641734
Si Si6 0.185762 0.162174 0.889722
Si Si7 0.430296 0.083755 0.024807
Si Si8 0.282863 0.662631 0.474350
O O1 0.419470 0.750000 0.915313
O O2 0.527541 0.857237 0.734348
O O3 0.575807 0.872013 0.877316
O O4 0.178171 0.871778 0.079266
O O5 0.252149 0.250000 0.493249
O O6 0.228274 0.120301 0.587974
O O7 0.050301 0.142888 0.551031
O O8 0.211488 0.084454 0.115283
O O9 0.803400 0.116991 0.381765
O O10 0.955801 0.993470 0.202466
O O11 0.064651 0.121720 0.055937
O O12 0.125640 0.372040 0.834988
O O13 0.805872 0.250000 0.663317
O O14 0.834957 0.138932 0.536842
O O15 0.625077 0.122241 0.832996
O O16 0.131323 0.250000 0.927018
O O17 0.451723 0.154639 0.720378
O O18 0.500000 0.000000 0.000000
O O19 0.233093 0.750000 0.522767
#
# Coordination Sequence:
#
# PCOD9167916 Si02
#       8
#     4   4   4   4   4   4   4   4
#     4  11  23  40  66  95 129 175 219 262 317 387
#     4  10  21  38  62  92 125 168 216 261 313 375
#     4  12  25  42  67  96 132 169 208 265 333 384
#     4  12  25  43  64  94 133 171 211 268 323 382
#     4  10  19  37  63  89 123 167 209 259 319 375
#     4  11  25  45  68  92 124 170 223 271 311 372
#     4  12  22  38  62  97 133 168 206 260 326 388
#     4  10  23  42  66  95 124 163 216 267 317 381
#
# _framework density 19.753086
#
# number of rings (size 3 to 8) (size 9 to 14) (size 15 to 20)
#    0.000    1.000    3.750    3.000    0.000    6.000 
#    0.000    3.750    0.000    0.000    0.000    0.000 
#    0.000    0.000    0.000    0.000    0.000    0.000 
#
# Total GULP energy -178984.281554 kJ/mol
# GULP energy per Si atom -5593.258799 kJ/mol
# Density = 1.970813 g / cm^3
# Si number density = 19.753086 Si / 1000 Ang^3
#
#
#
# Elastic Constant Matrix: (Units=GPa)
#
#
# Indices 1 2 3 4 5 6 
#
# 1 101.3846 38.9642 12.9230 0.0000 40.6913 0.0000
# 2 38.9642 94.5028 49.5099 0.0000 34.6215 0.0000
# 3 12.9230 49.5099 84.7022 0.0000 42.1645 0.0000
# 4 0.0000 0.0000 0.0000 -34.8197 0.0000 -0.9569
# 5 40.6913 34.6215 42.1645 0.0000 40.0851 0.0000
# 6 0.0000 0.0000 0.0000 -0.9569 0.0000 34.9912
#
#
#
# Elastic Compliance Matrix: (Units=1/GPa)
#
#
# Indices 1 2 3 4 5 6 
#
# 1 0.028631 -0.006411 0.023282 0.000000 -0.048016 0.000000
# 2 -0.006411 0.018005 -0.010589 0.000000 0.002096 0.000000
# 3 0.023282 -0.010589 0.045459 0.000000 -0.062304 0.000000
# 4 0.000000 0.000000 0.000000 -0.028698 0.000000 -0.000785
# 5 -0.048016 0.002096 -0.062304 0.000000 0.137415 0.000000
# 6 0.000000 0.000000 0.000000 -0.000785 0.000000 0.028557
#
#
# Mechanical properties :
#
#
# Convention : Reuss Voigt Hill
#
# Bulk Modulus (GPa) = 9.55505 53.70933 31.63219
# Shear Modulus (GPa) = 19.86545 19.99749 19.93147
#
# Velocity S-wave (km/s) = 3.17470 3.18523 3.17997
# Velocity P-wave (km/s) = 4.27622 6.38569 5.43429
#
# Compressibility (1/GPa) = 0.10465674
#
# Stress axis : x y z
#
# Youngs Moduli (GPa) = 34.92675 55.54012 21.99802
#
# Poissons Ratio (x) = 0.35608 -0.51215
# Poissons Ratio (y) = 0.22392 0.23295
# Poissons Ratio (z) = -0.81315 0.58814
#
# Static dielectric constant tensor:
#      x y z
#    x 1.678770 0.000000 -0.011100 
#    y 0.000000 1.667040 0.000000 
#    z -0.011100 0.000000 1.698350 
# 
# From -- ./inp_files/50640.got.cif
#   From: 2010.05.17/outbox.ucp.g08.bks.cvg/sg11_26_cif.got.tgz:50640.got - 2010.06.11 11:38:39.
