data_PCOD9167907
_publ_section_title
;
Structure prediction by ZEFSAII (Michael W. Deem and Ramdas Pophale) SiO2 
 PCOD9167907
Probable space group: P 21/M
;
_chemical_formula_sum "Si O2"
_cell_formula_units_Z 32
_cell_length_a 21.000000
_cell_length_b 9.000000
_cell_length_c 27.000000
_cell_angle_alpha 90.000000
_cell_angle_beta 160.000000
_cell_angle_gamma 90.000000
_cell_volume 1745.328791
_symmetry_space_group_name_H-M "P 21/M"
_symmetry_group_IT_number 11
_symmetry_cell_setting 'monoclinic'
loop_
_space_group_symop_operation_xyz
x,y,z
-x,1/2+y,-z
-x,-y,-z
x,1/2-y,z
loop_
_atom_site_type_symbol
_atom_site_label
_atom_site_fract_x
_atom_site_fract_y
_atom_site_fract_z
Si Si1 0.875377 0.424574 0.587973
Si Si2 0.995543 0.074417 0.567909
Si Si3 0.458118 0.420877 0.246166
Si Si4 0.524605 0.429801 0.464352
Si Si5 0.086945 0.426449 0.284811
Si Si6 0.313734 0.572005 0.043540
Si Si7 0.802275 0.578224 0.848790
Si Si8 0.691896 0.570943 0.277641
O O1 0.882511 0.250000 0.608726
O O2 0.994086 0.443670 0.625257
O O3 0.660953 0.456425 0.416404
O O4 0.940848 0.534109 0.678180
O O5 0.968058 0.250000 0.537364
O O6 0.187158 0.026567 0.681859
O O7 0.820099 0.989751 0.415974
O O8 0.469252 0.250000 0.236002
O O9 0.390947 0.524751 0.153178
O O10 0.309818 0.427669 0.181797
O O11 0.500000 0.500000 0.500000
O O12 0.527284 0.250000 0.466775
O O13 0.723107 0.489143 0.590248
O O14 0.347545 0.477836 0.301283
O O15 0.110988 0.250000 0.293964
O O16 0.897778 0.480445 0.119599
O O17 0.304025 0.750000 0.032651
O O18 0.478318 0.519717 0.126569
O O19 0.839963 0.750000 0.863718
O O20 0.000000 0.500000 0.000000
O O21 0.689402 0.750000 0.278101
#
# Coordination Sequence:
#
# PCOD9167907 Si02
#       8
#     4   4   4   4   4   4   4   4
#     4  10  19  36  58  82 111 146 189 236 282 333
#     4   9  17  30  53  81 110 144 185 233 284 337
#     4  10  20  37  59  83 111 144 186 233 281 330
#     4  11  24  44  64  86 117 151 188 230 277 335
#     4  11  24  40  58  82 114 153 193 231 277 334
#     4  10  22  37  54  82 117 150 187 234 283 332
#     4  10  23  41  60  85 115 144 180 230 278 328
#     4   9  17  31  51  79 113 147 183 230 286 336
#
# _framework density 18.334654
#
# number of rings (size 3 to 8) (size 9 to 14) (size 15 to 20)
#    0.000    2.000    2.500    0.750    1.750    3.500 
#    0.000    0.625    0.000    0.000    0.000    0.000 
#    0.000    0.000    0.000    0.000    0.000    0.000 
#
# Total GULP energy -178412.447814 kJ/mol
# GULP energy per Si atom -5575.388994 kJ/mol
# Density = 1.829292 g / cm^3
# Si number density = 18.334654 Si / 1000 Ang^3
#
#
#
# Elastic Constant Matrix: (Units=GPa)
#
#
# Indices 1 2 3 4 5 6 
#
# 1 46.8377 11.4297 24.9363 0.0000 4.6836 0.0000
# 2 11.4297 17.3508 21.8182 0.0000 3.3771 0.0000
# 3 24.9363 21.8182 106.1965 0.0000 7.1048 0.0000
# 4 0.0000 0.0000 0.0000 25.5240 0.0000 -2.3127
# 5 4.6836 3.3771 7.1048 0.0000 10.8881 0.0000
# 6 0.0000 0.0000 0.0000 -2.3127 0.0000 26.4924
#
#
#
# Elastic Compliance Matrix: (Units=1/GPa)
#
#
# Indices 1 2 3 4 5 6 
#
# 1 0.026691 -0.012266 -0.003381 0.000000 -0.005470 0.000000
# 2 -0.012266 0.085540 -0.013878 0.000000 -0.012199 0.000000
# 3 -0.003381 -0.013878 0.013255 0.000000 -0.002890 0.000000
# 4 0.000000 0.000000 0.000000 0.039491 0.000000 0.003447
# 5 -0.005470 -0.012199 -0.002890 0.000000 0.099866 0.000000
# 6 0.000000 0.000000 0.000000 0.003447 0.000000 0.038048
#
#
# Mechanical properties :
#
#
# Convention : Reuss Voigt Hill
#
# Bulk Modulus (GPa) = 15.05213 31.86149 23.45681
# Shear Modulus (GPa) = 13.01793 20.06097 16.53945
#
# Velocity S-wave (km/s) = 2.66751 3.31139 3.00673
# Velocity P-wave (km/s) = 4.20891 5.66002 4.98753
#
# Compressibility (1/GPa) = 0.06643578
#
# Stress axis : x y z
#
# Youngs Moduli (GPa) = 37.46623 11.69045 75.44267
#
# Poissons Ratio (x) = 0.14339 0.25510
# Poissons Ratio (y) = 0.45955 1.04699
# Poissons Ratio (z) = 0.12669 0.16224
#
# Static dielectric constant tensor:
#      x y z
#    x 1.678500 0.000000 0.023490 
#    y 0.000000 1.628130 0.000000 
#    z 0.023490 0.000000 1.623620 
# 
# From -- ./inp_files/72231.got.cif
#   From: 2010.05.17/outbox.ucp.g08.bks.cvg/sg11_37_cif.got.tgz:72231.got - 2010.06.11 11:38:39.
