data_PCOD9167816
_publ_section_title
;
Structure prediction by ZEFSAII (Michael W. Deem and Ramdas Pophale) SiO2 
 PCOD9167816
Probable space group: P 21/M
;
_chemical_formula_sum "Si O2"
_cell_formula_units_Z 32
_cell_length_a 12.000000
_cell_length_b 24.000000
_cell_length_c 18.000000
_cell_angle_alpha 90.000000
_cell_angle_beta 160.000000
_cell_angle_gamma 90.000000
_cell_volume 1773.032423
_symmetry_space_group_name_H-M "P 21/M"
_symmetry_group_IT_number 11
_symmetry_cell_setting 'monoclinic'
loop_
_space_group_symop_operation_xyz
x,y,z
-x,1/2+y,-z
-x,-y,-z
x,1/2-y,z
loop_
_atom_site_type_symbol
_atom_site_label
_atom_site_fract_x
_atom_site_fract_y
_atom_site_fract_z
Si Si1 0.292165 0.370311 0.320645
Si Si2 0.512231 0.638980 0.396664
Si Si3 0.812151 0.467815 0.075102
Si Si4 0.015374 0.452734 0.361585
Si Si5 0.821094 0.589615 0.380020
Si Si6 0.316787 0.925364 0.564368
Si Si7 0.039577 0.453724 0.958187
Si Si8 0.352843 0.813043 0.146185
O O1 0.440002 0.343241 0.488160
O O2 0.570989 0.392672 0.439336
O O3 0.086367 0.423364 0.221727
O O4 0.010513 0.334249 0.103548
O O5 0.832205 0.605826 0.570199
O O6 0.409499 0.683163 0.270382
O O7 0.249578 0.589747 0.223580
O O8 0.931166 0.522164 0.106329
O O9 0.780252 0.466673 0.144215
O O10 0.470924 0.452324 0.823712
O O11 0.971296 0.437897 0.421769
O O12 0.235951 0.509106 0.498921
O O13 0.622747 0.644732 0.281123
O O14 0.025941 0.597734 0.433214
O O15 0.631517 0.923350 0.813582
O O16 0.000000 0.500000 0.000000
O O17 0.396269 0.750000 0.147286
#
# Coordination Sequence:
#
# PCOD9167816 Si02
#       8
#     4   4   4   4   4   4   4   4
#     4  10  20  35  56  84 106 135 181 226 270 319
#     4  10  19  34  56  84 108 135 182 231 264 314
#     4  10  19  33  52  75 111 154 188 208 250 314
#     4  10  19  32  52  77 112 155 186 208 249 315
#     4  10  22  37  49  77 114 143 182 224 259 322
#     4  12  20  32  52  81 119 149 173 215 267 316
#     4  12  17  30  53  79 117 154 179 214 262 316
#     4  10  21  41  63  76  94 133 182 232 282 327
#
# _framework density 18.048175000000001
#
# number of rings (size 3 to 8) (size 9 to 14) (size 15 to 20)
#    0.000    1.500    5.000    1.875    0.000    3.000 
#    2.250    0.625    0.000    0.000    0.000    0.000 
#    0.000    0.000    0.000    0.000    0.000    0.000 
#
# Total GULP energy -178154.118799 kJ/mol
# GULP energy per Si atom -5567.316212 kJ/mol
# Density = 1.800710 g / cm^3
# Si number density = 18.048175 Si / 1000 Ang^3
#
#
#
# Elastic Constant Matrix: (Units=GPa)
#
#
# Indices 1 2 3 4 5 6 
#
# 1 107.0607 29.6201 30.5696 0.0000 -3.7628 0.0000
# 2 29.6201 55.4876 19.2559 0.0000 -2.4304 0.0000
# 3 30.5696 19.2559 3.5293 0.0000 -10.2910 0.0000
# 4 0.0000 0.0000 0.0000 7.9535 0.0000 -0.6764
# 5 -3.7628 -2.4304 -10.2910 0.0000 39.0410 0.0000
# 6 0.0000 0.0000 0.0000 -0.6764 0.0000 11.4615
#
#
#
# Elastic Compliance Matrix: (Units=1/GPa)
#
#
# Indices 1 2 3 4 5 6 
#
# 1 0.006161 -0.010767 0.022280 0.000000 0.005797 0.000000
# 2 -0.010767 0.016106 0.022840 0.000000 0.005985 0.000000
# 3 0.022280 0.022840 -0.103065 0.000000 -0.023598 0.000000
# 4 0.000000 0.000000 0.000000 0.126365 0.000000 0.007457
# 5 0.005797 0.005985 -0.023598 0.000000 0.020325 0.000000
# 6 0.000000 0.000000 0.000000 0.007457 0.000000 0.087688
#
#
# Mechanical properties :
#
#
# Convention : Reuss Voigt Hill
#
# Bulk Modulus (GPa) = -82.69794 36.10767 -23.29514
# Shear Modulus (GPa) = 61.84730 17.46667 39.65698
#
# Velocity S-wave (km/s) = 5.86023 3.11429 4.69261
# Velocity P-wave (km/s) = 0.36113 5.74295 4.05284
#
# Compressibility (1/GPa) = -0.01209220
#
# Stress axis : x y z
#
# Youngs Moduli (GPa) = 162.30401 62.08940 -9.70262
#
# Poissons Ratio (x) = 0.66852 0.21618
# Poissons Ratio (y) = 1.74754 0.22160
# Poissons Ratio (z) = -3.61620 -1.41809
#
# Static dielectric constant tensor:
#      x y z
#    x 1.692880 0.000000 0.018920 
#    y 0.000000 1.611690 0.000000 
#    z 0.018920 0.000000 1.683840 
# 
# From -- ./inp_files/25360.got.cif
#   From: 2010.05.17/outbox.ucp.g08.bks.cvg/sg11_13_cif.got.tgz:25360.got - 2010.06.11 11:38:39.
