data_PCOD9167582
_publ_section_title
;
Structure prediction by ZEFSAII (Michael W. Deem and Ramdas Pophale) SiO2 
 PCOD9167582
Probable space group: P 21/M
;
_chemical_formula_sum "Si O2"
_cell_formula_units_Z 20
_cell_length_a 10.502199
_cell_length_b 16.285173
_cell_length_c 7.179794
_cell_angle_alpha 90.000000
_cell_angle_beta 135.520662
_cell_angle_gamma 90.000000
_cell_volume 860.373397
_symmetry_space_group_name_H-M "P 21/M"
_symmetry_group_IT_number 11
_symmetry_cell_setting 'monoclinic'
loop_
_space_group_symop_operation_xyz
x,y,z
-x,1/2+y,-z
-x,-y,-z
x,1/2-y,z
loop_
_atom_site_type_symbol
_atom_site_label
_atom_site_fract_x
_atom_site_fract_y
_atom_site_fract_z
Si Si1 0.800488 0.098101 0.037555
Si Si2 0.693227 0.915242 0.041941
Si Si3 0.920986 0.417184 0.535778
Si Si4 0.512243 0.842968 0.536364
Si Si5 0.780218 0.561540 0.557887
O O1 0.679127 0.146007 0.765698
O O2 0.707281 0.008067 0.973790
O O3 0.814256 0.130661 0.265742
O O4 0.012922 0.093691 0.200193
O O5 0.535641 0.866262 0.776604
O O6 0.651345 0.904095 0.579192
O O7 0.893040 0.877043 0.205175
O O8 0.808295 0.463190 0.575437
O O9 0.000000 0.500000 0.500000
O O10 0.572841 0.750000 0.571790
O O11 0.688970 0.915908 0.262267
#
# Coordination Sequence:
#
# PCOD9167582 Si02
#       5
#     4   4   4   4   4
#     4   8  17  36  57  77 101 132 176 222 255 297
#     4   8  17  36  57  77 101 132 176 222 255 297
#     4   6  12  30  56  77  90 121 171 211 256 298
#     4  12  23  31  49  81 108 140 176 202 258 326
#     4   8  18  37  56  74 101 131 166 221 266 294
#
# _framework density 23.245719999999999
#
# number of rings (size 3 to 8) (size 9 to 14) (size 15 to 20)
#    0.000    4.800    0.000    1.200    0.000    8.000 
#    0.000    7.000    0.000    0.000    0.000    0.000 
#    0.000    0.000    0.000    0.000    0.000    0.000 
#
# Total GULP energy -111350.550839 kJ/mol
# GULP energy per Si atom -5567.527542 kJ/mol
# Density = 2.319281 g / cm^3
# Si number density = 23.245720 Si / 1000 Ang^3
#
#
#
# Elastic Constant Matrix: (Units=GPa)
#
#
# Indices 1 2 3 4 5 6 
#
# 1 58.6223 9.5831 19.0295 0.0000 5.7582 0.0000
# 2 9.5831 15.9762 29.2198 0.0000 -4.3845 0.0000
# 3 19.0295 29.2198 154.1762 0.0000 0.7624 0.0000
# 4 0.0000 0.0000 0.0000 0.4949 0.0000 3.2163
# 5 5.7582 -4.3845 0.7624 0.0000 27.0229 0.0000
# 6 0.0000 0.0000 0.0000 3.2163 0.0000 0.2540
#
#
#
# Elastic Compliance Matrix: (Units=1/GPa)
#
#
# Indices 1 2 3 4 5 6 
#
# 1 0.019948 -0.014274 0.000276 0.000000 -0.006574 0.000000
# 2 -0.014274 0.113527 -0.019863 0.000000 0.022022 0.000000
# 3 0.000276 -0.019863 0.010234 0.000000 -0.003570 0.000000
# 4 0.000000 0.000000 0.000000 -0.024852 0.000000 0.314736
# 5 -0.006574 0.022022 -0.003570 0.000000 0.042080 0.000000
# 6 0.000000 0.000000 0.000000 0.314736 0.000000 -0.048427
#
#
# Mechanical properties :
#
#
# Convention : Reuss Voigt Hill
#
# Bulk Modulus (GPa) = 13.16016 38.27104 25.71560
# Shear Modulus (GPa) = 24.32350 16.95051 20.63701
#
# Velocity S-wave (km/s) = 3.23827 2.70328 2.98279
# Velocity P-wave (km/s) = 4.43344 5.12280 4.79054
#
# Compressibility (1/GPa) = 0.07598695
#
# Stress axis : x y z
#
# Youngs Moduli (GPa) = 50.13033 8.80847 97.71158
#
# Poissons Ratio (x) = 0.12573 -0.02693
# Poissons Ratio (y) = 0.71555 1.94085
# Poissons Ratio (z) = -0.01382 0.17496
#
# Static dielectric constant tensor:
#      x y z
#    x 2.018120 0.000000 0.001740 
#    y 0.000000 1.963160 0.000000 
#    z 0.001740 0.000000 1.993730 
# 
# From -- ./inp_files/18739.got.cif
#   From: 2010.05.17/outbox.cif.g08.bks.cpg/sg11_10_cif.got.tgz:18739.got - 2010.06.03 12:22:45.
