data_PCOD9167655
_publ_section_title
;
Structure prediction by ZEFSAII (Michael W. Deem and Ramdas Pophale) SiO2 
 PCOD9167655
Probable space group: P 21/M
;
_chemical_formula_sum "Si O2"
_cell_formula_units_Z 16
_cell_length_a 7.283433
_cell_length_b 11.667973
_cell_length_c 10.973216
_cell_angle_alpha 90.000000
_cell_angle_beta 139.684912
_cell_angle_gamma 90.000000
_cell_volume 603.341836
_symmetry_space_group_name_H-M "P 21/M"
_symmetry_group_IT_number 11
_symmetry_cell_setting 'monoclinic'
loop_
_space_group_symop_operation_xyz
x,y,z
-x,1/2+y,-z
-x,-y,-z
x,1/2-y,z
loop_
_atom_site_type_symbol
_atom_site_label
_atom_site_fract_x
_atom_site_fract_y
_atom_site_fract_z
Si Si1 0.369087 0.374727 0.725005
Si Si2 0.382431 0.876817 0.723288
Si Si3 0.193378 0.004532 0.409140
Si Si4 0.008227 0.375123 0.093423
O O1 0.315288 0.250000 0.754965
O O2 0.320478 0.501677 0.760184
O O3 0.214119 0.390904 0.516907
O O4 0.708999 0.375177 0.873694
O O5 0.340289 0.750000 0.754197
O O6 0.712859 0.882687 0.849034
O O7 0.203125 0.895103 0.505776
O O8 0.003412 0.031086 0.196813
O O9 0.500000 0.000000 0.500000
O O10 0.033038 0.250000 0.166569
#
# Coordination Sequence:
#
# PCOD9167655 Si02
#       4
#     4   4   4   4
#     4   9  16  22  30  36  40  47  54  60  67  71
#     4   8  15  23  27  33  44  48  52  60  66  73
#     4   8  15  21  29  33  43  46  55  57  68  69
#     4   9  14  22  29  36  41  46  54  61  66  73
#
# _framework density 26.518962999999999
#
# number of rings (size 3 to 8) (size 9 to 14) (size 15 to 20)
#    1.500    2.000    0.000    1.500    0.000    1.000 
#    0.000    1.250    0.000    0.000    0.000    0.000 
#    0.000    0.000    0.000    0.000    0.000    0.000 
#
# Total GULP energy -89070.073517 kJ/mol
# GULP energy per Si atom -5566.879595 kJ/mol
# Density = 2.645860 g / cm^3
# Si number density = 26.518963 Si / 1000 Ang^3
#
#
#
# Elastic Constant Matrix: (Units=GPa)
#
#
# Indices 1 2 3 4 5 6 
#
# 1 83.5401 41.5232 6.9271 0.0000 -2.8373 0.0000
# 2 41.5232 237.9104 22.9247 0.0000 6.8801 0.0000
# 3 6.9271 22.9247 115.7547 0.0000 23.6663 0.0000
# 4 0.0000 0.0000 0.0000 30.5197 0.0000 11.6811
# 5 -2.8373 6.8801 23.6663 0.0000 31.6411 0.0000
# 6 0.0000 0.0000 0.0000 11.6811 0.0000 31.1229
#
#
#
# Elastic Compliance Matrix: (Units=1/GPa)
#
#
# Indices 1 2 3 4 5 6 
#
# 1 0.013260 -0.002303 -0.000806 0.000000 0.002293 0.000000
# 2 -0.002303 0.004688 -0.000638 0.000000 -0.000749 0.000000
# 3 -0.000806 -0.000638 0.010389 0.000000 -0.007704 0.000000
# 4 0.000000 0.000000 0.000000 0.038262 0.000000 -0.014360
# 5 0.002293 -0.000749 -0.007704 0.000000 0.037735 0.000000
# 6 0.000000 0.000000 0.000000 -0.014360 0.000000 0.037520
#
#
# Mechanical properties :
#
#
# Convention : Reuss Voigt Hill
#
# Bulk Modulus (GPa) = 47.97701 64.43946 56.20824
# Shear Modulus (GPa) = 31.99080 43.04543 37.51812
#
# Velocity S-wave (km/s) = 3.47700 4.03326 3.76542
# Velocity P-wave (km/s) = 5.85237 6.78540 6.33609
#
# Compressibility (1/GPa) = 0.02084332
#
# Stress axis : x y z
#
# Youngs Moduli (GPa) = 75.41681 213.29766 96.25992
#
# Poissons Ratio (x) = 0.49120 0.07760
# Poissons Ratio (y) = 0.17367 0.06137
# Poissons Ratio (z) = 0.06080 0.13598
#
# Static dielectric constant tensor:
#      x y z
#    x 2.205120 0.000000 0.174550 
#    y 0.000000 2.110710 0.000000 
#    z 0.174550 0.000000 2.022490 
# 
# From -- ./inp_files/30884.got.cif
#   From: 2010.05.17/outbox.cif.g08.bks.cpg/sg11_16_cif.got.tgz:30884.got - 2010.06.03 12:22:45.
