data_PCOD9167868
_publ_section_title
;
Structure prediction by ZEFSAII (Michael W. Deem and Ramdas Pophale) SiO2 
 PCOD9167868
Probable space group: P 21/M
;
_chemical_formula_sum "Si O2"
_cell_formula_units_Z 32
_cell_length_a 21.000000
_cell_length_b 9.000000
_cell_length_c 27.000000
_cell_angle_alpha 90.000000
_cell_angle_beta 160.000000
_cell_angle_gamma 90.000000
_cell_volume 1745.328791
_symmetry_space_group_name_H-M "P 21/M"
_symmetry_group_IT_number 11
_symmetry_cell_setting 'monoclinic'
loop_
_space_group_symop_operation_xyz
x,y,z
-x,1/2+y,-z
-x,-y,-z
x,1/2-y,z
loop_
_atom_site_type_symbol
_atom_site_label
_atom_site_fract_x
_atom_site_fract_y
_atom_site_fract_z
Si Si1 0.359933 0.573195 0.435084
Si Si2 0.179937 0.081055 0.654149
Si Si3 0.594816 0.926333 0.427473
Si Si4 0.130087 0.923622 0.711435
Si Si5 0.697256 0.917243 0.361549
Si Si6 0.034807 0.928031 0.746944
Si Si7 0.384893 0.075913 0.186510
Si Si8 0.069316 0.428998 0.877968
O O1 0.500000 0.500000 0.500000
O O2 0.370869 0.750000 0.441710
O O3 0.418542 0.513027 0.531226
O O4 0.145183 0.531518 0.267031
O O5 0.126847 0.250000 0.625772
O O6 0.318637 0.079761 0.709381
O O7 0.240519 0.006388 0.749185
O O8 0.000000 0.000000 0.500000
O O9 0.574275 0.750000 0.418835
O O10 0.813802 0.953822 0.573980
O O11 0.441484 0.986403 0.277121
O O12 0.176392 0.750000 0.744560
O O13 0.142756 0.979712 0.776715
O O14 0.911634 0.934231 0.535150
O O15 0.640442 0.750000 0.337321
O O16 0.569182 0.044969 0.288970
O O17 0.055151 0.750000 0.766389
O O18 0.098037 0.002411 0.844282
O O19 0.360505 0.250000 0.179703
O O20 0.212352 0.024544 0.025850
O O21 0.083642 0.250000 0.884567
#
# Coordination Sequence:
#
# PCOD9167868 Si02
#       8
#     4   4   4   4   4   4   4   4
#     4  10  20  38  61  84 109 138 171 207 250 297
#     4   9  17  27  40  63  95 130 168 212 260 308
#     4  10  19  34  55  80 108 137 172 212 253 298
#     4   9  16  28  45  69  99 127 165 217 263 306
#     4   9  17  30  45  66 100 135 168 212 261 307
#     4   9  17  31  51  74 100 132 171 214 259 307
#     4  11  21  33  51  77 107 138 172 211 256 305
#     4   9  21  37  52  76 109 137 167 210 254 301
#
# _framework density 18.334654
#
# number of rings (size 3 to 8) (size 9 to 14) (size 15 to 20)
#    0.000    2.500    1.250    2.250    0.000    5.000 
#    0.000    0.625    0.000    0.750    0.000    0.000 
#    0.000    0.000    0.000    0.000    0.000    0.000 
#
# Total GULP energy -178180.952126 kJ/mol
# GULP energy per Si atom -5568.154754 kJ/mol
# Density = 1.829292 g / cm^3
# Si number density = 18.334654 Si / 1000 Ang^3
#
#
#
# Elastic Constant Matrix: (Units=GPa)
#
#
# Indices 1 2 3 4 5 6 
#
# 1 8.2528 0.3029 -17.3450 0.0000 -0.0595 0.0000
# 2 0.3029 30.9731 8.9435 0.0000 -2.5301 0.0000
# 3 -17.3450 8.9435 43.0889 0.0000 -26.7444 0.0000
# 4 0.0000 0.0000 0.0000 21.0031 0.0000 -6.4105
# 5 -0.0595 -2.5301 -26.7444 0.0000 15.4077 0.0000
# 6 0.0000 0.0000 0.0000 -6.4105 0.0000 31.9860
#
#
#
# Elastic Compliance Matrix: (Units=1/GPa)
#
#
# Indices 1 2 3 4 5 6 
#
# 1 0.011831 0.007571 -0.051589 0.000000 -0.088258 0.000000
# 2 0.007571 0.032039 0.004119 0.000000 0.012440 0.000000
# 3 -0.051589 0.004119 -0.024331 0.000000 -0.041756 0.000000
# 4 0.000000 0.000000 0.000000 0.050714 0.000000 0.010164
# 5 -0.088258 0.012440 -0.041756 0.000000 -0.005875 0.000000
# 6 0.000000 0.000000 0.000000 0.010164 0.000000 0.033301
#
#
# Mechanical properties :
#
#
# Convention : Reuss Voigt Hill
#
# Bulk Modulus (GPa) = -16.59506 7.34641 -4.62432
# Shear Modulus (GPa) = 31.76822 19.70691 25.73756
#
# Velocity S-wave (km/s) = 4.16707 3.28204 3.75075
# Velocity P-wave (km/s) = 3.75257 4.28695 4.02863
#
# Compressibility (1/GPa) = -0.06025891
#
# Stress axis : x y z
#
# Youngs Moduli (GPa) = 84.52284 31.21211 -41.09972
#
# Poissons Ratio (x) = -0.23631 -2.12030
# Poissons Ratio (y) = -0.63992 0.16930
# Poissons Ratio (z) = 4.36046 -0.12857
#
# Static dielectric constant tensor:
#      x y z
#    x 1.658430 0.000000 0.006050 
#    y 0.000000 1.623570 0.000000 
#    z 0.006050 0.000000 1.614850 
# 
# From -- ./inp_files/72151.got.cif
#   From: 2010.05.17/outbox.ucp.g08.bks.cvg/sg11_37_cif.got.tgz:72151.got - 2010.06.11 11:38:39.
