data_PCOD9167122
_publ_section_title
;
Structure prediction by ZEFSAII (Michael W. Deem and Ramdas Pophale) SiO2 
 PCOD9167122
Probable space group: P 21/M
;
_chemical_formula_sum "Si O2"
_cell_formula_units_Z 20
_cell_length_a 12.831821
_cell_length_b 14.403294
_cell_length_c 9.504942
_cell_angle_alpha 90.000000
_cell_angle_beta 31.406128
_cell_angle_gamma 90.000000
_cell_volume 915.422176
_symmetry_space_group_name_H-M "P 21/M"
_symmetry_group_IT_number 11
_symmetry_cell_setting 'monoclinic'
loop_
_space_group_symop_operation_xyz
x,y,z
-x,1/2+y,-z
-x,-y,-z
x,1/2-y,z
loop_
_atom_site_type_symbol
_atom_site_label
_atom_site_fract_x
_atom_site_fract_y
_atom_site_fract_z
Si Si1 0.814558 0.398929 0.380759
Si Si2 0.003801 0.451781 0.648098
Si Si3 0.410789 0.250000 0.438315
Si Si4 0.517191 0.750000 0.187165
Si Si5 0.856078 0.750000 0.011354
Si Si6 0.657399 0.072834 0.257127
Si Si7 0.188573 0.250000 0.410936
O O1 0.626398 0.339274 0.651299
O O2 0.793853 0.405541 0.236231
O O3 0.836017 0.495482 0.436794
O O4 0.013193 0.338681 0.180993
O O5 0.000000 0.500000 0.500000
O O6 0.058058 0.343434 0.572514
O O7 0.795221 0.462310 0.971547
O O8 0.536370 0.160851 0.340464
O O9 0.356261 0.250000 0.338594
O O10 0.196132 0.250000 0.764291
O O11 0.639924 0.750000 0.190061
O O12 0.688096 0.750000 0.874834
O O13 0.500000 0.000000 0.500000
#
# Coordination Sequence:
#
# PCOD9167122 Si02
#       7
#     4   4   2   2   2   4   2
#     4  11  24  45  75 107 146 193 250 298 366 433
#     4  12  28  47  73 106 152 195 243 308 373 442
#     4  12  23  43  73 104 148 186 241 305 358 437
#     4  11  25  44  75 108 142 195 242 300 363 446
#     4  11  20  45  74 108 141 189 242 299 354 431
#     4  12  25  45  74 110 143 195 250 299 364 439
#     4  12  28  46  68 104 151 190 241 304 385 424
#
# _framework density 21.847843999999998
#
# number of rings (size 3 to 8) (size 9 to 14) (size 15 to 20)
#    0.000    0.400    2.000    6.600    5.600    1.600 
#    0.000    0.000    0.000    0.000    0.000    0.000 
#    0.000    0.000    0.000    0.000    0.000    0.000 
#
# Total GULP energy -112002.265931 kJ/mol
# GULP energy per Si atom -5600.113297 kJ/mol
# Density = 2.179812 g / cm^3
# Si number density = 21.847844 Si / 1000 Ang^3
#
#
#
# Elastic Constant Matrix: (Units=GPa)
#
#
# Indices 1 2 3 4 5 6 
#
# 1 87.3314 43.6874 20.1158 0.0000 9.3429 0.0000
# 2 43.6874 151.4844 49.0599 0.0000 -4.9224 0.0000
# 3 20.1158 49.0599 137.2155 0.0000 11.6985 0.0000
# 4 0.0000 0.0000 0.0000 11.7092 0.0000 8.1972
# 5 9.3429 -4.9224 11.6985 0.0000 42.3556 0.0000
# 6 0.0000 0.0000 0.0000 8.1972 0.0000 31.0258
#
#
#
# Elastic Compliance Matrix: (Units=1/GPa)
#
#
# Indices 1 2 3 4 5 6 
#
# 1 0.013902 -0.004022 -0.000306 0.000000 -0.003450 0.000000
# 2 -0.004022 0.008743 -0.002764 0.000000 0.002667 0.000000
# 3 -0.000306 -0.002764 0.008544 0.000000 -0.002613 0.000000
# 4 0.000000 0.000000 0.000000 0.104784 0.000000 -0.027685
# 5 -0.003450 0.002667 -0.002613 0.000000 0.025402 0.000000
# 6 0.000000 0.000000 0.000000 -0.027685 0.000000 0.039546
#
#
# Mechanical properties :
#
#
# Convention : Reuss Voigt Hill
#
# Bulk Modulus (GPa) = 58.80555 66.86195 62.83375
# Shear Modulus (GPa) = 22.64767 34.56267 28.60517
#
# Velocity S-wave (km/s) = 3.22313 3.98172 3.62234
# Velocity P-wave (km/s) = 6.38951 7.19782 6.80568
#
# Compressibility (1/GPa) = 0.01700520
#
# Stress axis : x y z
#
# Youngs Moduli (GPa) = 71.93044 114.37628 117.04721
#
# Poissons Ratio (x) = 0.46007 0.03579
# Poissons Ratio (y) = 0.28933 0.32348
# Poissons Ratio (z) = 0.02200 0.31610
#
# Static dielectric constant tensor:
#      x y z
#    x 1.798400 0.000000 -0.015680 
#    y 0.000000 1.823020 0.000000 
#    z -0.015680 0.000000 1.766980 
# 
# From -- ./inp_files/18788.got.cif
#   From: 2010.05.17/outbox.cif.g08.bks.cpg/sg11_10_cif.got.tgz:18788.got - 2010.06.03 12:22:45.
