data_PCOD9167298
_publ_section_title
;
Structure prediction by ZEFSAII (Michael W. Deem and Ramdas Pophale) SiO2 
 PCOD9167298
Probable space group: P 21/M
;
_chemical_formula_sum "Si O2"
_cell_formula_units_Z 32
_cell_length_a 11.180278
_cell_length_b 19.643670
_cell_length_c 20.011753
_cell_angle_alpha 90.000000
_cell_angle_beta 24.216061
_cell_angle_gamma 90.000000
_cell_volume 1802.741561
_symmetry_space_group_name_H-M "P 21/M"
_symmetry_group_IT_number 11
_symmetry_cell_setting 'monoclinic'
loop_
_space_group_symop_operation_xyz
x,y,z
-x,1/2+y,-z
-x,-y,-z
x,1/2-y,z
loop_
_atom_site_type_symbol
_atom_site_label
_atom_site_fract_x
_atom_site_fract_y
_atom_site_fract_z
Si Si1 0.776057 0.038675 0.442339
Si Si2 0.541807 0.326863 0.632138
Si Si3 0.284639 0.826046 0.300035
Si Si4 0.121690 0.674843 0.986062
Si Si5 0.842933 0.028964 0.645148
Si Si6 0.186236 0.959997 0.734919
Si Si7 0.206902 0.523893 0.956574
Si Si8 0.052259 0.175733 0.081016
O O1 0.670081 0.112401 0.522676
O O2 0.841958 0.037890 0.330317
O O3 0.508455 0.986049 0.589701
O O4 0.046217 0.013413 0.348398
O O5 0.612918 0.250000 0.572538
O O6 0.654372 0.332587 0.651413
O O7 0.190641 0.331778 0.817564
O O8 0.166033 0.750000 0.348437
O O9 0.096125 0.890987 0.376195
O O10 0.596909 0.830817 0.103328
O O11 0.247011 0.750000 0.939073
O O12 0.285032 0.603882 0.914226
O O13 0.050945 0.675297 0.943317
O O14 0.499949 0.019676 0.806903
O O15 0.000000 0.000000 0.500000
O O16 0.104154 0.885061 0.801798
O O17 0.966896 0.008495 0.887171
O O18 0.000000 0.500000 0.000000
O O19 0.985068 0.250000 0.144270
#
# Coordination Sequence:
#
# PCOD9167298 Si02
#       8
#     4   4   4   4   4   4   4   4
#     4  11  24  37  53  87 119 148 194 232 283 330
#     4   9  16  32  56  81 113 148 185 227 283 340
#     4   9  17  33  57  84 111 144 185 231 287 341
#     4   9  17  30  56  87 109 140 190 237 277 334
#     4  12  23  36  59  90 114 145 186 239 281 336
#     4  11  22  38  58  80 115 154 190 238 274 338
#     4  12  20  36  63  83 109 151 188 231 285 333
#     4   9  17  32  57  86 107 142 193 235 279 335
#
# _framework density 17.750741999999999
#
# number of rings (size 3 to 8) (size 9 to 14) (size 15 to 20)
#    0.000    1.750    5.000    3.000    0.000    1.000 
#    0.000    1.875    0.000    1.500    0.000    0.000 
#    0.000    0.000    0.000    0.000    0.000    0.000 
#
# Total GULP energy -178431.253218 kJ/mol
# GULP energy per Si atom -5575.976663 kJ/mol
# Density = 1.771034 g / cm^3
# Si number density = 17.750742 Si / 1000 Ang^3
#
#
#
# Elastic Constant Matrix: (Units=GPa)
#
#
# Indices 1 2 3 4 5 6 
#
# 1 52.9944 23.8085 28.1609 0.0000 1.2262 0.0000
# 2 23.8085 159.2598 20.7444 0.0000 8.8864 0.0000
# 3 28.1609 20.7444 55.3744 0.0000 13.3887 0.0000
# 4 0.0000 0.0000 0.0000 29.4920 0.0000 1.3746
# 5 1.2262 8.8864 13.3887 0.0000 18.4648 0.0000
# 6 0.0000 0.0000 0.0000 1.3746 0.0000 16.1742
#
#
#
# Elastic Compliance Matrix: (Units=1/GPa)
#
#
# Indices 1 2 3 4 5 6 
#
# 1 0.028413 -0.002771 -0.016101 0.000000 0.011121 0.000000
# 2 -0.002771 0.006915 -0.000511 0.000000 -0.002773 0.000000
# 3 -0.016101 -0.000511 0.031673 0.000000 -0.021651 0.000000
# 4 0.000000 0.000000 0.000000 0.034042 0.000000 -0.002893
# 5 0.011121 -0.002773 -0.021651 0.000000 0.070452 0.000000
# 6 0.000000 0.000000 0.000000 -0.002893 0.000000 0.062073
#
#
# Mechanical properties :
#
#
# Convention : Reuss Voigt Hill
#
# Bulk Modulus (GPa) = 35.41491 45.89514 40.65503
# Shear Modulus (GPa) = 17.74655 25.82051 21.78353
#
# Velocity S-wave (km/s) = 3.16533 3.81808 3.50693
# Velocity P-wave (km/s) = 5.77526 6.73413 6.27304
#
# Compressibility (1/GPa) = 0.02823669
#
# Stress axis : x y z
#
# Youngs Moduli (GPa) = 35.19484 144.62254 31.57254
#
# Poissons Ratio (x) = 0.40075 0.50834
# Poissons Ratio (y) = 0.09752 0.01612
# Poissons Ratio (z) = 0.56666 0.07384
#
# Static dielectric constant tensor:
#      x y z
#    x 1.578890 0.000000 -0.012880 
#    y 0.000000 1.665510 0.000000 
#    z -0.012880 0.000000 1.599760 
# 
# From -- ./inp_files/64920.got.cif
#   From: 2010.05.17/outbox.cif.g08.bks.cpg/sg11_33_cif.got.tgz:64920.got - 2010.06.03 12:22:45.
