data_PCOD9167526
_publ_section_title
;
Structure prediction by ZEFSAII (Michael W. Deem and Ramdas Pophale) SiO2 
 PCOD9167526
Probable space group: P 21/M
;
_chemical_formula_sum "Si O2"
_cell_formula_units_Z 22
_cell_length_a 8.536173
_cell_length_b 18.436825
_cell_length_c 9.582982
_cell_angle_alpha 90.000000
_cell_angle_beta 141.412088
_cell_angle_gamma 90.000000
_cell_volume 940.667187
_symmetry_space_group_name_H-M "P 21/M"
_symmetry_group_IT_number 11
_symmetry_cell_setting 'monoclinic'
loop_
_space_group_symop_operation_xyz
x,y,z
-x,1/2+y,-z
-x,-y,-z
x,1/2-y,z
loop_
_atom_site_type_symbol
_atom_site_label
_atom_site_fract_x
_atom_site_fract_y
_atom_site_fract_z
Si Si1 0.632602 0.130706 0.090309
Si Si2 0.217469 0.250000 0.756016
Si Si3 0.634461 0.460957 0.814282
Si Si4 0.964550 0.897608 0.093316
Si Si5 0.945221 0.750000 0.659780
Si Si6 0.768294 0.750000 0.842059
Si Si7 0.822818 0.044227 0.479628
O O1 0.670142 0.095389 0.267579
O O2 0.873586 0.180180 0.219225
O O3 0.390507 0.181565 0.920714
O O4 0.612815 0.070547 0.955391
O O5 0.228292 0.250000 0.594370
O O6 0.937206 0.250000 0.608767
O O7 0.777541 0.403564 0.817057
O O8 0.359831 0.485347 0.574713
O O9 0.794293 0.534800 0.927144
O O10 0.034609 0.913911 0.300515
O O11 0.829974 0.822993 0.954182
O O12 0.787980 0.750000 0.694707
O O13 0.000000 0.000000 0.500000
#
# Coordination Sequence:
#
# PCOD9167526 Si02
#       7
#     4   2   4   4   2   2   4
#     4  11  24  46  67 105 142 184 246 301 357 441
#     4  11  27  45  74 100 148 193 242 302 366 447
#     4  11  24  45  70 104 146 184 246 299 362 436
#     4  11  25  46  71 104 147 190 242 309 362 447
#     4  11  25  49  72 100 146 193 235 296 384 427
#     4  12  24  48  74 106 142 188 247 302 362 444
#     4  12  25  41  74 104 143 194 240 303 373 424
#
# _framework density 23.387656
#
# number of rings (size 3 to 8) (size 9 to 14) (size 15 to 20)
#    0.000    0.727    3.636    3.273    5.091    0.727 
#    6.545    2.727    0.000    0.000    0.000    0.000 
#    0.000    0.000    0.000    0.000    0.000    0.000 
#
# Total GULP energy -122515.313746 kJ/mol
# GULP energy per Si atom -5568.877898 kJ/mol
# Density = 2.333442 g / cm^3
# Si number density = 23.387656 Si / 1000 Ang^3
#
#
#
# Elastic Constant Matrix: (Units=GPa)
#
#
# Indices 1 2 3 4 5 6 
#
# 1 68.9512 0.6571 5.6413 0.0000 -16.3429 0.0000
# 2 0.6571 86.9038 8.5230 0.0000 -1.2820 0.0000
# 3 5.6413 8.5230 66.4342 0.0000 -23.0443 0.0000
# 4 0.0000 0.0000 0.0000 38.7858 0.0000 1.3133
# 5 -16.3429 -1.2820 -23.0443 0.0000 31.8461 0.0000
# 6 0.0000 0.0000 0.0000 1.3133 0.0000 -60.3710
#
#
#
# Elastic Compliance Matrix: (Units=1/GPa)
#
#
# Indices 1 2 3 4 5 6 
#
# 1 0.016727 -0.000184 0.002107 0.000000 0.010101 0.000000
# 2 -0.000184 0.011672 -0.001804 0.000000 -0.000930 0.000000
# 3 0.002107 -0.001804 0.020634 0.000000 0.015940 0.000000
# 4 0.000000 0.000000 0.000000 0.025764 0.000000 0.000560
# 5 0.010101 -0.000930 0.015940 0.000000 0.048082 0.000000
# 6 0.000000 0.000000 0.000000 0.000560 0.000000 -0.016552
#
#
# Mechanical properties :
#
#
# Convention : Reuss Voigt Hill
#
# Bulk Modulus (GPa) = 20.29657 27.99244 24.14450
# Shear Modulus (GPa) = 40.81238 15.88334 28.34786
#
# Velocity S-wave (km/s) = 4.18190 2.60885 3.48528
# Velocity P-wave (km/s) = 5.65817 4.59017 5.15192
#
# Compressibility (1/GPa) = 0.04926942
#
# Stress axis : x y z
#
# Youngs Moduli (GPa) = 59.78520 85.67792 48.46318
#
# Poissons Ratio (x) = 0.01578 -0.10212
# Poissons Ratio (y) = 0.01101 0.08745
# Poissons Ratio (z) = -0.12597 0.15460
#
# Static dielectric constant tensor:
#      x y z
#    x 2.241300 0.000000 0.077850 
#    y 0.000000 2.155300 0.000000 
#    z 0.077850 0.000000 2.164070 
# 
# From -- ./inp_files/2455.got.cif
#   From: 2010.05.17/outbox.cif.g08.bks.cpg/sg11_2_cif.got.tgz:2455.got - 2010.06.03 12:22:45.
