data_PCOD9167605
_publ_section_title
;
Structure prediction by ZEFSAII (Michael W. Deem and Ramdas Pophale) SiO2 
 PCOD9167605
Probable space group: P 21/M
;
_chemical_formula_sum "Si O2"
_cell_formula_units_Z 20
_cell_length_a 5.978481
_cell_length_b 21.649921
_cell_length_c 9.359954
_cell_angle_alpha 90.000000
_cell_angle_beta 49.247499
_cell_angle_gamma 90.000000
_cell_volume 917.750101
_symmetry_space_group_name_H-M "P 21/M"
_symmetry_group_IT_number 11
_symmetry_cell_setting 'monoclinic'
loop_
_space_group_symop_operation_xyz
x,y,z
-x,1/2+y,-z
-x,-y,-z
x,1/2-y,z
loop_
_atom_site_type_symbol
_atom_site_label
_atom_site_fract_x
_atom_site_fract_y
_atom_site_fract_z
Si Si1 0.320288 0.750000 0.533100
Si Si2 0.417415 0.136307 0.748384
Si Si3 0.398074 0.250000 0.256801
Si Si4 0.961170 0.043212 0.880140
Si Si5 0.582286 0.875028 0.916740
Si Si6 0.889199 0.045560 0.425848
O O1 0.466576 0.692387 0.392039
O O2 0.451967 0.750000 0.643732
O O3 0.963967 0.750000 0.636614
O O4 0.625505 0.080389 0.612654
O O5 0.100251 0.110983 0.837585
O O6 0.412724 0.145967 0.920187
O O7 0.499680 0.314806 0.142929
O O8 0.624233 0.063754 0.998735
O O9 0.135161 0.003021 0.691877
O O10 0.000000 0.000000 0.000000
O O11 0.889717 0.901752 0.726410
O O12 0.000000 0.000000 0.500000
#
# Coordination Sequence:
#
# PCOD9167605 Si02
#       6
#     2   4   2   4   4   4
#     4  12  31  53  82 113 148 212 264 324 389 458
#     4  12  27  49  77 106 154 202 259 313 391 456
#     4  12  31  53  82 111 156 202 270 324 389 456
#     4  12  26  44  76 113 152 198 253 316 389 463
#     4  12  27  50  75 109 155 202 257 323 383 462
#     4  12  24  46  74 107 156 196 248 315 382 462
#
# _framework density 21.792422999999999
#
# number of rings (size 3 to 8) (size 9 to 14) (size 15 to 20)
#    0.000    0.000    6.000    3.000   11.200    0.800 
#    0.000    0.000    0.000    0.000    0.000    0.000 
#    0.000    0.000    0.000    0.000    0.000    0.000 
#
# Total GULP energy -111449.958491 kJ/mol
# GULP energy per Si atom -5572.497925 kJ/mol
# Density = 2.174282 g / cm^3
# Si number density = 21.792423 Si / 1000 Ang^3
#
#
#
# Elastic Constant Matrix: (Units=GPa)
#
#
# Indices 1 2 3 4 5 6 
#
# 1 57.2121 31.4653 50.2198 0.0000 14.7411 0.0000
# 2 31.4653 134.4174 31.0767 0.0000 15.6095 0.0000
# 3 50.2198 31.0767 135.2257 0.0000 33.0707 0.0000
# 4 0.0000 0.0000 0.0000 55.8373 0.0000 6.9564
# 5 14.7411 15.6095 33.0707 0.0000 49.2398 0.0000
# 6 0.0000 0.0000 0.0000 6.9564 0.0000 34.1522
#
#
#
# Elastic Compliance Matrix: (Units=1/GPa)
#
#
# Indices 1 2 3 4 5 6 
#
# 1 0.028243 -0.004369 -0.009280 0.000000 -0.000838 0.000000
# 2 -0.004369 0.008630 -0.000014 0.000000 -0.001419 0.000000
# 3 -0.009280 -0.000014 0.012162 0.000000 -0.005385 0.000000
# 4 0.000000 0.000000 0.000000 0.018375 0.000000 -0.003743
# 5 -0.000838 -0.001419 -0.005385 0.000000 0.024626 0.000000
# 6 0.000000 0.000000 0.000000 -0.003743 0.000000 0.030043
#
#
# Mechanical properties :
#
#
# Convention : Reuss Voigt Hill
#
# Bulk Modulus (GPa) = 46.06230 61.37543 53.71887
# Shear Modulus (GPa) = 31.91999 42.11875 37.01937
#
# Velocity S-wave (km/s) = 3.83133 4.40105 4.12603
# Velocity P-wave (km/s) = 6.38395 7.35190 6.88496
#
# Compressibility (1/GPa) = 0.02170973
#
# Stress axis : x y z
#
# Youngs Moduli (GPa) = 35.40683 115.87338 82.22504
#
# Poissons Ratio (x) = 0.50620 0.76305
# Poissons Ratio (y) = 0.15468 0.00115
# Poissons Ratio (z) = 0.32858 0.00162
#
# Static dielectric constant tensor:
#      x y z
#    x 1.911260 0.000000 -0.073090 
#    y 0.000000 1.686820 0.000000 
#    z -0.073090 0.000000 1.767660 
# 
# From -- ./inp_files/2659.got.cif
#   From: 2010.05.17/outbox.cif.g08.bks.cpg/sg11_2_cif.got.tgz:2659.got - 2010.06.03 12:22:45.
