data_PCOD9167472
_publ_section_title
;
Structure prediction by ZEFSAII (Michael W. Deem and Ramdas Pophale) SiO2 
 PCOD9167472
Probable space group: P 21/M
;
_chemical_formula_sum "Si O2"
_cell_formula_units_Z 14
_cell_length_a 11.784324
_cell_length_b 9.991245
_cell_length_c 9.156321
_cell_angle_alpha 90.000000
_cell_angle_beta 37.812434
_cell_angle_gamma 90.000000
_cell_volume 660.939015
_symmetry_space_group_name_H-M "P 21/M"
_symmetry_group_IT_number 11
_symmetry_cell_setting 'monoclinic'
loop_
_space_group_symop_operation_xyz
x,y,z
-x,1/2+y,-z
-x,-y,-z
x,1/2-y,z
loop_
_atom_site_type_symbol
_atom_site_label
_atom_site_fract_x
_atom_site_fract_y
_atom_site_fract_z
Si Si1 0.363839 0.750000 0.925986
Si Si2 0.805263 0.964841 0.271125
Si Si3 0.632716 0.750000 0.926926
Si Si4 0.445199 0.451325 0.741611
Si Si5 0.076257 0.250000 0.613921
O O1 0.143990 0.750000 0.171758
O O2 0.474260 0.750000 0.965476
O O3 0.417595 0.611711 0.790203
O O4 0.684659 0.906215 0.259653
O O5 0.854508 0.873724 0.358854
O O6 0.659785 0.073282 0.482233
O O7 0.000000 0.000000 0.000000
O O8 0.823496 0.750000 0.643422
O O9 0.611305 0.877364 0.053767
#
# Coordination Sequence:
#
# PCOD9167472 Si02
#       5
#     2   4   2   4   2
#     4  12  24  43  69  99 137 183 225 274 345 405
#     4  11  23  43  72  99 133 176 235 282 337 400
#     4  12  27  45  67 102 144 178 229 277 347 410
#     4  11  25  45  72 100 137 182 225 287 343 402
#     4  12  25  42  70 101 141 177 230 287 340 407
#
# _framework density 21.181985999999998
#
# number of rings (size 3 to 8) (size 9 to 14) (size 15 to 20)
#    0.000    0.571    5.714    1.714    0.000    8.000 
#    0.000    0.000    0.000    0.000    0.000    0.000 
#    0.000    0.000    0.000    0.000    0.000    0.000 
#
# Total GULP energy -78204.922560 kJ/mol
# GULP energy per Si atom -5586.065897 kJ/mol
# Density = 2.113377 g / cm^3
# Si number density = 21.181986 Si / 1000 Ang^3
#
#
#
# Elastic Constant Matrix: (Units=GPa)
#
#
# Indices 1 2 3 4 5 6 
#
# 1 79.6452 11.2930 53.3634 0.0000 -7.0123 0.0000
# 2 11.2930 97.6265 44.6604 0.0000 9.6598 0.0000
# 3 53.3634 44.6604 218.3826 0.0000 -13.7502 0.0000
# 4 0.0000 0.0000 0.0000 37.7316 0.0000 17.8343
# 5 -7.0123 9.6598 -13.7502 0.0000 56.9876 0.0000
# 6 0.0000 0.0000 0.0000 17.8343 0.0000 25.2625
#
#
#
# Elastic Compliance Matrix: (Units=1/GPa)
#
#
# Indices 1 2 3 4 5 6 
#
# 1 0.015071 -0.000209 -0.003575 0.000000 0.001027 0.000000
# 2 -0.000209 0.011669 -0.002499 0.000000 -0.002607 0.000000
# 3 -0.003575 -0.002499 0.006055 0.000000 0.001445 0.000000
# 4 0.000000 0.000000 0.000000 0.039775 0.000000 -0.028080
# 5 0.001027 -0.002607 0.001445 0.000000 0.018465 0.000000
# 6 0.000000 0.000000 0.000000 -0.028080 0.000000 0.059407
#
#
# Mechanical properties :
#
#
# Convention : Reuss Voigt Hill
#
# Bulk Modulus (GPa) = 49.43943 68.25420 58.84682
# Shear Modulus (GPa) = 29.45476 43.08551 36.27014
#
# Velocity S-wave (km/s) = 3.73306 4.51495 4.14250
# Velocity P-wave (km/s) = 6.47858 7.71184 7.12195
#
# Compressibility (1/GPa) = 0.02022677
#
# Stress axis : x y z
#
# Youngs Moduli (GPa) = 66.35124 85.70023 165.15764
#
# Poissons Ratio (x) = 0.01795 0.59048
# Poissons Ratio (y) = 0.01390 0.41277
# Poissons Ratio (z) = 0.23722 0.21418
#
# Static dielectric constant tensor:
#      x y z
#    x 1.714050 0.000000 -0.011370 
#    y 0.000000 1.809280 0.000000 
#    z -0.011370 0.000000 1.768720 
# 
# From -- ./inp_files/15806.got.cif
#   From: 2010.05.17/outbox.cif.g08.bks.cpg/sg11_8_cif.got.tgz:15806.got - 2010.06.03 12:22:45.
