data_PCOD9167355
_publ_section_title
;
Structure prediction by ZEFSAII (Michael W. Deem and Ramdas Pophale) SiO2 
 PCOD9167355
Probable space group: P 21/M
;
_chemical_formula_sum "Si O2"
_cell_formula_units_Z 28
_cell_length_a 7.961564
_cell_length_b 13.912310
_cell_length_c 10.788311
_cell_angle_alpha 90.000000
_cell_angle_beta 76.348115
_cell_angle_gamma 90.000000
_cell_volume 1161.193512
_symmetry_space_group_name_H-M "P 21/M"
_symmetry_group_IT_number 11
_symmetry_cell_setting 'monoclinic'
loop_
_space_group_symop_operation_xyz
x,y,z
-x,1/2+y,-z
-x,-y,-z
x,1/2-y,z
loop_
_atom_site_type_symbol
_atom_site_label
_atom_site_fract_x
_atom_site_fract_y
_atom_site_fract_z
Si Si1 0.466887 0.139836 0.449851
Si Si2 0.229577 0.147972 0.710481
Si Si3 0.265843 0.645145 0.203018
Si Si4 0.860966 0.962311 0.624871
Si Si5 0.180309 0.950584 0.991012
Si Si6 0.347715 0.145639 0.967833
Si Si7 0.173536 0.567443 0.710835
O O1 0.481871 0.250000 0.406753
O O2 0.410802 0.139363 0.604253
O O3 0.654741 0.093593 0.395912
O O4 0.302475 0.093381 0.407014
O O5 0.153195 0.250000 0.679590
O O6 0.254239 0.151805 0.851881
O O7 0.142918 0.046898 0.702962
O O8 0.244996 0.750000 0.265169
O O9 0.223297 0.556027 0.296924
O O10 0.454580 0.640609 0.108547
O O11 0.156145 0.631364 0.096471
O O12 0.000000 0.000000 0.500000
O O13 0.985703 0.897850 0.694658
O O14 0.227433 0.913649 0.845016
O O15 0.294224 0.040136 0.025674
O O16 0.000000 0.000000 0.000000
O O17 0.319503 0.250000 0.038083
#
# Coordination Sequence:
#
# PCOD9167355 Si02
#       7
#     4   4   4   4   4   4   4
#     4  11  25  43  64  95 140 186 226 275 339 408
#     4   9  18  36  64  97 132 173 220 269 328 400
#     4  11  25  45  69  99 131 176 229 280 336 407
#     4  12  25  42  71 104 139 174 225 286 342 403
#     4  11  22  42  64  94 133 173 220 281 338 395
#     4   9  20  38  66  98 130 174 227 277 334 400
#     4  11  23  42  69  96 136 179 225 276 342 400
#
# _framework density 24.113122000000001
#
# number of rings (size 3 to 8) (size 9 to 14) (size 15 to 20)
#    0.000    1.429    2.857    2.571    2.000    2.857 
#    0.000    2.143    0.000    0.000    0.000    0.000 
#    0.000    0.000    0.000    0.000    0.000    0.000 
#
# Total GULP energy -156180.235571 kJ/mol
# GULP energy per Si atom -5577.865556 kJ/mol
# Density = 2.405824 g / cm^3
# Si number density = 24.113122 Si / 1000 Ang^3
#
#
#
# Elastic Constant Matrix: (Units=GPa)
#
#
# Indices 1 2 3 4 5 6 
#
# 1 112.3776 35.7802 -17.8865 0.0000 -14.3044 0.0000
# 2 35.7802 118.3125 20.4720 0.0000 3.9396 0.0000
# 3 -17.8865 20.4720 51.3444 0.0000 -5.1506 0.0000
# 4 0.0000 0.0000 0.0000 12.3578 0.0000 33.0638
# 5 -14.3044 3.9396 -5.1506 0.0000 33.1178 0.0000
# 6 0.0000 0.0000 0.0000 33.0638 0.0000 -45.2490
#
#
#
# Elastic Compliance Matrix: (Units=1/GPa)
#
#
# Indices 1 2 3 4 5 6 
#
# 1 0.012674 -0.005331 0.007267 0.000000 0.007239 0.000000
# 2 -0.005331 0.011413 -0.006882 0.000000 -0.004731 0.000000
# 3 0.007267 -0.006882 0.025548 0.000000 0.007931 0.000000
# 4 0.000000 0.000000 0.000000 0.027384 0.000000 0.020010
# 5 0.007239 -0.004731 0.007931 0.000000 0.035118 0.000000
# 6 0.000000 0.000000 0.000000 0.020010 0.000000 -0.007479
#
#
# Mechanical properties :
#
#
# Convention : Reuss Voigt Hill
#
# Bulk Modulus (GPa) = 25.16278 39.86286 32.51282
# Shear Modulus (GPa) = 39.12414 16.28991 27.70703
#
# Velocity S-wave (km/s) = 4.03243 2.60198 3.39343
# Velocity P-wave (km/s) = 5.66909 5.05911 5.37276
#
# Compressibility (1/GPa) = 0.03974124
#
# Stress axis : x y z
#
# Youngs Moduli (GPa) = 78.90097 87.61990 39.14260
#
# Poissons Ratio (x) = 0.46714 -0.28445
# Poissons Ratio (y) = 0.42065 0.26939
# Poissons Ratio (z) = -0.57338 0.60303
#
# Static dielectric constant tensor:
#      x y z
#    x 2.101760 0.000000 0.052370 
#    y 0.000000 1.991900 0.000000 
#    z 0.052370 0.000000 2.024710 
# 
# From -- ./inp_files/31675.got.cif
#   From: 2010.05.17/outbox.cif.g08.bks.cpg/sg11_16_cif.got.tgz:31675.got - 2010.06.03 12:22:45.
