data_PCOD9167347
_publ_section_title
;
Structure prediction by ZEFSAII (Michael W. Deem and Ramdas Pophale) SiO2 
 PCOD9167347
Probable space group: P 21/M
;
_chemical_formula_sum "Si O2"
_cell_formula_units_Z 22
_cell_length_a 4.868770
_cell_length_b 22.151723
_cell_length_c 7.932298
_cell_angle_alpha 90.000000
_cell_angle_beta 91.168170
_cell_angle_gamma 90.000000
_cell_volume 855.333577
_symmetry_space_group_name_H-M "P 21/M"
_symmetry_group_IT_number 11
_symmetry_cell_setting 'monoclinic'
loop_
_space_group_symop_operation_xyz
x,y,z
-x,1/2+y,-z
-x,-y,-z
x,1/2-y,z
loop_
_atom_site_type_symbol
_atom_site_label
_atom_site_fract_x
_atom_site_fract_y
_atom_site_fract_z
Si Si1 0.912339 0.497542 0.300730
Si Si2 0.606284 0.074782 0.728699
Si Si3 0.769870 0.679412 0.147453
Si Si4 0.595875 0.152929 0.410199
Si Si5 0.927965 0.635619 0.801051
Si Si6 0.777482 0.750000 0.400276
O O1 0.100381 0.549158 0.214226
O O2 0.970151 0.432773 0.220127
O O3 0.000000 0.500000 0.500000
O O4 0.602546 0.518780 0.273669
O O5 0.457819 0.128430 0.829638
O O6 0.630855 0.097363 0.536781
O O7 0.649141 0.750000 0.159776
O O8 0.960069 0.693403 0.311470
O O9 0.934543 0.666417 0.982533
O O10 0.388758 0.136562 0.256458
O O11 0.420743 0.199347 0.514260
O O12 0.878901 0.172369 0.326453
#
# Coordination Sequence:
#
# PCOD9167347 Si02
#       6
#     4   4   4   4   4   2
#     4  12  22  38  70 100 131 167 220 274 312 389
#     4  11  22  44  66  94 130 175 214 256 332 388
#     4   9  24  46  64  95 134 173 214 276 325 389
#     4  11  22  41  66  97 122 173 214 264 321 389
#     4  12  25  40  68 101 132 164 219 272 328 372
#     4   8  22  42  68  86 132 172 220 260 326 396
#
# _framework density 25.720960999999999
#
# number of rings (size 3 to 8) (size 9 to 14) (size 15 to 20)
#    0.545    0.727    3.636    1.636    2.545    2.909 
#    0.000    8.182    0.000    0.000    0.000    0.000 
#    0.000    0.000    0.000    0.000    0.000    0.000 
#
# Total GULP energy -122604.459348 kJ/mol
# GULP energy per Si atom -5572.929970 kJ/mol
# Density = 2.566242 g / cm^3
# Si number density = 25.720961 Si / 1000 Ang^3
#
#
#
# Elastic Constant Matrix: (Units=GPa)
#
#
# Indices 1 2 3 4 5 6 
#
# 1 91.5498 -0.9317 17.7021 0.0000 -13.3527 0.0000
# 2 -0.9317 114.8789 39.3850 0.0000 0.5005 0.0000
# 3 17.7021 39.3850 149.7669 0.0000 -29.1204 0.0000
# 4 0.0000 0.0000 0.0000 38.0712 0.0000 -27.8132
# 5 -13.3527 0.5005 -29.1204 0.0000 22.7199 0.0000
# 6 0.0000 0.0000 0.0000 -27.8132 0.0000 97.0439
#
#
#
# Elastic Compliance Matrix: (Units=1/GPa)
#
#
# Indices 1 2 3 4 5 6 
#
# 1 0.011949 0.000101 -0.000098 0.000000 0.006894 0.000000
# 2 0.000101 0.009939 -0.003539 0.000000 -0.004695 0.000000
# 3 -0.000098 -0.003539 0.010154 0.000000 0.013034 0.000000
# 4 0.000000 0.000000 0.000000 0.033223 0.000000 0.009522
# 5 0.006894 -0.004695 0.013034 0.000000 0.064876 0.000000
# 6 0.000000 0.000000 0.000000 0.009522 0.000000 0.013034
#
#
# Mechanical properties :
#
#
# Convention : Reuss Voigt Hill
#
# Bulk Modulus (GPa) = 40.05008 52.05628 46.05318
# Shear Modulus (GPa) = 31.53205 51.56968 41.55087
#
# Velocity S-wave (km/s) = 3.50512 4.48254 4.02362
# Velocity P-wave (km/s) = 5.65562 6.86103 6.28728
#
# Compressibility (1/GPa) = 0.02496874
#
# Stress axis : x y z
#
# Youngs Moduli (GPa) = 83.69212 100.61106 98.48759
#
# Poissons Ratio (x) = -0.01012 0.00968
# Poissons Ratio (y) = -0.00842 0.34851
# Poissons Ratio (z) = 0.00822 0.35602
#
# Static dielectric constant tensor:
#      x y z
#    x 2.078040 0.000000 0.197260 
#    y 0.000000 2.097420 0.000000 
#    z 0.197260 0.000000 2.221250 
# 
# From -- ./inp_files/10418.got.cif
#   From: 2010.05.17/outbox.cif.g08.bks.cpg/sg11_6_cif.got.tgz:10418.got - 2010.06.03 12:22:45.
