data_PCOD9167507
_publ_section_title
;
Structure prediction by ZEFSAII (Michael W. Deem and Ramdas Pophale) SiO2 
 PCOD9167507
Probable space group: P 21/M
;
_chemical_formula_sum "Si O2"
_cell_formula_units_Z 16
_cell_length_a 16.764615
_cell_length_b 9.765942
_cell_length_c 5.067901
_cell_angle_alpha 90.000000
_cell_angle_beta 61.020521
_cell_angle_gamma 90.000000
_cell_volume 725.840656
_symmetry_space_group_name_H-M "P 21/M"
_symmetry_group_IT_number 11
_symmetry_cell_setting 'monoclinic'
loop_
_space_group_symop_operation_xyz
x,y,z
-x,1/2+y,-z
-x,-y,-z
x,1/2-y,z
loop_
_atom_site_type_symbol
_atom_site_label
_atom_site_fract_x
_atom_site_fract_y
_atom_site_fract_z
Si Si1 0.158415 0.543812 0.709485
Si Si2 0.982793 0.888492 0.309475
Si Si3 0.279671 0.905610 0.022200
Si Si4 0.544756 0.579259 0.177772
O O1 0.206355 0.602262 0.374227
O O2 0.113465 0.403553 0.682018
O O3 0.065590 0.609745 0.970177
O O4 0.229785 0.553103 0.831678
O O5 0.984887 0.750000 0.463708
O O6 0.000000 0.000000 0.500000
O O7 0.319181 0.750000 0.928667
O O8 0.351461 0.023823 0.980039
O O9 0.500000 0.500000 0.500000
O O10 0.536800 0.750000 0.188876
O O11 0.500000 0.500000 0.000000
#
# Coordination Sequence:
#
# PCOD9167507 Si02
#       4
#     4   4   4   4
#     4  11  25  42  65 101 137 185 232 288 346 412
#     4  11  24  43  67  96 137 187 238 291 346 407
#     4  12  24  43  72 103 139 183 234 290 349 421
#     4  12  27  50  78 111 147 187 234 293 362 436
#
# _framework density 22.043405
#
# number of rings (size 3 to 8) (size 9 to 14) (size 15 to 20)
#    0.000    0.500    2.500    6.000    0.000    7.000 
#    0.000    0.000    0.000    0.000    0.000    0.000 
#    0.000    0.000    0.000    0.000    0.000    0.000 
#
# Total GULP energy -89140.107488 kJ/mol
# GULP energy per Si atom -5571.256718 kJ/mol
# Density = 2.199323 g / cm^3
# Si number density = 22.043405 Si / 1000 Ang^3
#
#
#
# Elastic Constant Matrix: (Units=GPa)
#
#
# Indices 1 2 3 4 5 6 
#
# 1 98.1913 64.7070 20.3064 0.0000 20.8395 0.0000
# 2 64.7070 233.1529 53.3926 0.0000 7.7200 0.0000
# 3 20.3064 53.3926 110.7374 0.0000 22.0855 0.0000
# 4 0.0000 0.0000 0.0000 66.5520 0.0000 7.2127
# 5 20.8395 7.7200 22.0855 0.0000 45.0424 0.0000
# 6 0.0000 0.0000 0.0000 7.2127 0.0000 12.0180
#
#
#
# Elastic Compliance Matrix: (Units=1/GPa)
#
#
# Indices 1 2 3 4 5 6 
#
# 1 0.013826 -0.003745 0.000464 0.000000 -0.005982 0.000000
# 2 -0.003745 0.005841 -0.002522 0.000000 0.001968 0.000000
# 3 0.000464 -0.002522 0.011215 0.000000 -0.005281 0.000000
# 4 0.000000 0.000000 0.000000 0.016071 0.000000 -0.009645
# 5 -0.005982 0.001968 -0.005281 0.000000 0.027221 0.000000
# 6 0.000000 0.000000 0.000000 -0.009645 0.000000 0.088997
#
#
# Mechanical properties :
#
#
# Convention : Reuss Voigt Hill
#
# Bulk Modulus (GPa) = 51.88302 79.87707 65.88004
# Shear Modulus (GPa) = 27.59339 44.96753 36.28046
#
# Velocity S-wave (km/s) = 3.54188 4.52148 4.06133
# Velocity P-wave (km/s) = 6.34936 7.97329 7.20721
#
# Compressibility (1/GPa) = 0.01927413
#
# Stress axis : x y z
#
# Youngs Moduli (GPa) = 72.32749 171.20945 89.16954
#
# Poissons Ratio (x) = 0.64121 -0.04133
# Poissons Ratio (y) = 0.27088 0.22488
# Poissons Ratio (z) = -0.03353 0.43178
#
# Static dielectric constant tensor:
#      x y z
#    x 1.825180 0.000000 -0.026580 
#    y 0.000000 2.037520 0.000000 
#    z -0.026580 0.000000 1.801220 
# 
# From -- ./inp_files/7419.got.cif
#   From: 2010.05.17/outbox.cif.g08.bks.cpg/sg11_4_cif.got.tgz:7419.got - 2010.06.03 12:22:45.
