data_PCOD9167301
_publ_section_title
;
Structure prediction by ZEFSAII (Michael W. Deem and Ramdas Pophale) SiO2 
 PCOD9167301
Probable space group: P 21/M
;
_chemical_formula_sum "Si O2"
_cell_formula_units_Z 24
_cell_length_a 12.455912
_cell_length_b 17.714819
_cell_length_c 9.852302
_cell_angle_alpha 90.000000
_cell_angle_beta 37.723377
_cell_angle_gamma 90.000000
_cell_volume 1330.132172
_symmetry_space_group_name_H-M "P 21/M"
_symmetry_group_IT_number 11
_symmetry_cell_setting 'monoclinic'
loop_
_space_group_symop_operation_xyz
x,y,z
-x,1/2+y,-z
-x,-y,-z
x,1/2-y,z
loop_
_atom_site_type_symbol
_atom_site_label
_atom_site_fract_x
_atom_site_fract_y
_atom_site_fract_z
Si Si1 0.250000 0.841767 0.255051
Si Si2 0.957436 0.588498 0.046626
Si Si3 0.750000 0.159429 0.434074
Si Si4 0.453675 0.159437 0.250201
Si Si5 0.457436 0.088498 0.538503
Si Si6 0.953675 0.840563 0.342449
O O1 0.250000 0.750000 0.259891
O O2 0.250000 0.867855 0.409999
O O3 0.080510 0.864643 0.337150
O O4 0.419491 0.864643 0.998169
O O5 0.750000 0.600925 0.230187
O O6 0.999509 0.620536 0.154281
O O7 0.000000 0.500000 0.000000
O O8 0.079611 0.629470 0.815304
O O9 0.750000 0.250000 0.432066
O O10 0.579612 0.129470 0.525472
O O11 0.472426 0.250000 0.249065
O O12 0.499509 0.120536 0.346701
O O13 0.250000 0.143549 0.423513
O O14 0.500000 0.000000 0.500000
O O15 0.972427 0.750000 0.306082
#
# Coordination Sequence:
#
# PCOD9167301 Si02
#       6
#     4   4   4   4   4   4
#     4   9  19  35  57  85 117 149 188 239 290 344
#     4  11  22  38  61  85 121 156 196 245 295 342
#     4  11  23  39  61  91 120 151 194 243 295 350
#     4   9  18  34  58  83 108 148 198 239 284 346
#     4  11  22  38  61  85 121 156 196 245 295 342
#     4   9  18  34  58  83 108 148 198 239 284 346
#
# _framework density 18.043319
#
# number of rings (size 3 to 8) (size 9 to 14) (size 15 to 20)
#    0.000    2.000    1.667    2.000    0.000    4.667 
#    0.000    5.000    0.000    0.000    0.000    0.000 
#    0.000    0.000    0.000    0.000    0.000    0.000 
#
# Total GULP energy -134000.716799 kJ/mol
# GULP energy per Si atom -5583.363200 kJ/mol
# Density = 1.800225 g / cm^3
# Si number density = 18.043319 Si / 1000 Ang^3
#
#
#
# Elastic Constant Matrix: (Units=GPa)
#
#
# Indices 1 2 3 4 5 6 
#
# 1 147.7548 49.0710 131.5429 0.0000 20.3244 0.0000
# 2 49.0710 54.6943 46.7075 0.0000 7.9111 0.0000
# 3 131.5429 46.7075 137.0448 0.0000 15.5232 0.0000
# 4 0.0000 0.0000 0.0000 6.0934 0.0000 -16.6933
# 5 20.3244 7.9111 15.5232 0.0000 21.1385 0.0000
# 6 0.0000 0.0000 0.0000 -16.6933 0.0000 1.1057
#
#
#
# Elastic Compliance Matrix: (Units=1/GPa)
#
#
# Indices 1 2 3 4 5 6 
#
# 1 0.050878 -0.004642 -0.045711 0.000000 -0.013613 0.000000
# 2 -0.004642 0.026451 -0.004302 0.000000 -0.002277 0.000000
# 3 -0.045711 -0.004302 0.051786 0.000000 0.007531 0.000000
# 4 0.000000 0.000000 0.000000 -0.004066 0.000000 -0.061388
# 5 -0.013613 -0.002277 0.007531 0.000000 0.055717 0.000000
# 6 0.000000 0.000000 0.000000 -0.061388 0.000000 -0.022408
#
#
# Mechanical properties :
#
#
# Convention : Reuss Voigt Hill
#
# Bulk Modulus (GPa) = 50.49141 88.23741 69.36441
# Shear Modulus (GPa) = 18.23031 13.14570 15.68801
#
# Velocity S-wave (km/s) = 3.18207 2.70212 2.95187
# Velocity P-wave (km/s) = 6.44554 7.66450 7.08129
#
# Compressibility (1/GPa) = 0.01980535
#
# Stress axis : x y z
#
# Youngs Moduli (GPa) = 19.65494 37.80603 19.31021
#
# Poissons Ratio (x) = 0.17548 0.88270
# Poissons Ratio (y) = 0.09123 0.08307
# Poissons Ratio (z) = 0.89845 0.16263
#
# Static dielectric constant tensor:
#      x y z
#    x 1.596510 0.000000 -0.008360 
#    y 0.000000 1.591020 0.000000 
#    z -0.008360 0.000000 1.599010 
# 
# From -- ./inp_files/19072.got.cif
#   From: 2010.05.17/outbox.cif.g08.bks.cpg/sg11_10_cif.got.tgz:19072.got - 2010.06.03 12:22:45.
