data_PCOD9167278
_publ_section_title
;
Structure prediction by ZEFSAII (Michael W. Deem and Ramdas Pophale) SiO2 
 PCOD9167278
Probable space group: P 21/M
;
_chemical_formula_sum "Si O2"
_cell_formula_units_Z 20
_cell_length_a 20.019890
_cell_length_b 8.711732
_cell_length_c 8.240627
_cell_angle_alpha 90.000000
_cell_angle_beta 38.679324
_cell_angle_gamma 90.000000
_cell_volume 898.213043
_symmetry_space_group_name_H-M "P 21/M"
_symmetry_group_IT_number 11
_symmetry_cell_setting 'monoclinic'
loop_
_space_group_symop_operation_xyz
x,y,z
-x,1/2+y,-z
-x,-y,-z
x,1/2-y,z
loop_
_atom_site_type_symbol
_atom_site_label
_atom_site_fract_x
_atom_site_fract_y
_atom_site_fract_z
Si Si1 0.454870 0.922230 0.429568
Si Si2 0.607591 0.923760 0.861116
Si Si3 0.229336 0.432153 0.831852
Si Si4 0.170397 0.570095 0.611721
Si Si5 0.109436 0.564825 0.364911
O O1 0.412152 0.750000 0.530438
O O2 0.565254 0.908871 0.122188
O O3 0.500000 0.000000 0.500000
O O4 0.352648 0.019390 0.562132
O O5 0.631940 0.750000 0.755731
O O6 0.500000 0.000000 0.000000
O O7 0.705046 0.038182 0.660935
O O8 0.219203 0.250000 0.863857
O O9 0.158025 0.488997 0.811750
O O10 0.195996 0.505651 0.068265
O O11 0.147159 0.750000 0.676088
O O12 0.119283 0.515577 0.536822
O O13 0.111605 0.750000 0.361438
O O14 0.000000 0.500000 0.500000
#
# Coordination Sequence:
#
# PCOD9167278 Si02
#       5
#     4   4   4   4   4
#     4  11  23  38  59  90 130 173 219 268 321 386
#     4  11  22  36  59  90 128 171 213 259 313 379
#     4  12  25  42  68  98 132 174 221 272 331 396
#     4  11  24  43  68  98 134 176 222 273 329 392
#     4  11  26  48  73  99 131 169 218 279 339 399
#
# _framework density 22.266432999999999
#
# number of rings (size 3 to 8) (size 9 to 14) (size 15 to 20)
#    0.000    0.800    2.000    5.400    0.000    9.600 
#    0.000    0.000    0.000    0.000    0.000    0.000 
#    0.000    0.000    0.000    0.000    0.000    0.000 
#
# Total GULP energy -111502.373741 kJ/mol
# GULP energy per Si atom -5575.118687 kJ/mol
# Density = 2.221575 g / cm^3
# Si number density = 22.266433 Si / 1000 Ang^3
#
#
#
# Elastic Constant Matrix: (Units=GPa)
#
#
# Indices 1 2 3 4 5 6 
#
# 1 128.3866 14.1672 -7.4958 0.0000 20.1064 0.0000
# 2 14.1672 81.1591 -4.4450 0.0000 27.6715 0.0000
# 3 -7.4958 -4.4450 42.2792 0.0000 5.4504 0.0000
# 4 0.0000 0.0000 0.0000 35.3788 0.0000 4.5133
# 5 20.1064 27.6715 5.4504 0.0000 36.3278 0.0000
# 6 0.0000 0.0000 0.0000 4.5133 0.0000 33.1488
#
#
#
# Elastic Compliance Matrix: (Units=1/GPa)
#
#
# Indices 1 2 3 4 5 6 
#
# 1 0.008741 0.000499 0.002320 0.000000 -0.005566 0.000000
# 2 0.000499 0.017182 0.003689 0.000000 -0.013917 0.000000
# 3 0.002320 0.003689 0.025472 0.000000 -0.007915 0.000000
# 4 0.000000 0.000000 0.000000 0.028765 0.000000 -0.003916
# 5 -0.005566 -0.013917 -0.007915 0.000000 0.042396 0.000000
# 6 0.000000 0.000000 0.000000 -0.003916 0.000000 0.030700
#
#
# Mechanical properties :
#
#
# Convention : Reuss Voigt Hill
#
# Bulk Modulus (GPa) = 15.52564 28.47531 22.00047
# Shear Modulus (GPa) = 30.91944 37.61098 34.26521
#
# Velocity S-wave (km/s) = 3.73045 4.11437 3.92710
# Velocity P-wave (km/s) = 5.05399 5.94869 5.51950
#
# Compressibility (1/GPa) = 0.06440959
#
# Stress axis : x y z
#
# Youngs Moduli (GPa) = 114.40297 58.20213 39.25905
#
# Poissons Ratio (x) = -0.02904 -0.09107
# Poissons Ratio (y) = -0.05708 -0.14482
# Poissons Ratio (z) = -0.26538 -0.21470
#
# Static dielectric constant tensor:
#      x y z
#    x 1.904520 0.000000 0.090900 
#    y 0.000000 1.863130 0.000000 
#    z 0.090900 0.000000 1.876080 
# 
# From -- ./inp_files/23899.got.cif
#   From: 2010.05.17/outbox.cif.g08.bks.cpg/sg11_12_cif.got.tgz:23899.got - 2010.06.03 12:22:45.
