data_PCOD9167650
_publ_section_title
;
Structure prediction by ZEFSAII (Michael W. Deem and Ramdas Pophale) SiO2 
 PCOD9167650
Probable space group: P 21/M
;
_chemical_formula_sum "Si O2"
_cell_formula_units_Z 28
_cell_length_a 19.631439
_cell_length_b 16.036307
_cell_length_c 11.788253
_cell_angle_alpha 90.000000
_cell_angle_beta 161.675281
_cell_angle_gamma 90.000000
_cell_volume 1166.786227
_symmetry_space_group_name_H-M "P 21/M"
_symmetry_group_IT_number 11
_symmetry_cell_setting 'monoclinic'
loop_
_space_group_symop_operation_xyz
x,y,z
-x,1/2+y,-z
-x,-y,-z
x,1/2-y,z
loop_
_atom_site_type_symbol
_atom_site_label
_atom_site_fract_x
_atom_site_fract_y
_atom_site_fract_z
Si Si1 0.267905 0.349664 0.605572
Si Si2 0.671860 0.412949 0.808924
Si Si3 0.047105 0.433955 0.721544
Si Si4 0.868303 0.896295 0.380033
Si Si5 0.790953 0.350772 0.774401
Si Si6 0.407486 0.154635 0.594912
Si Si7 0.907715 0.155495 0.724645
O O1 0.263553 0.250000 0.586548
O O2 0.296776 0.367724 0.784099
O O3 0.423461 0.378556 0.749439
O O4 0.027001 0.382024 0.191738
O O5 0.626545 0.378350 0.612009
O O6 0.513564 0.397109 0.662278
O O7 0.750622 0.508167 0.922105
O O8 0.894301 0.366691 0.202278
O O9 0.131109 0.376330 0.751846
O O10 0.879365 0.502660 0.406246
O O11 0.935682 0.391468 0.651524
O O12 0.794112 0.250000 0.774297
O O13 0.770822 0.381398 0.613279
O O14 0.492133 0.250000 0.723987
O O15 0.151780 0.159321 0.161513
O O16 0.832070 0.250000 0.582485
#
# Coordination Sequence:
#
# PCOD9167650 Si02
#       7
#     4   4   4   4   4   4   4
#     4   8  14  27  46  67  88 117 153 185 219 265
#     4   9  16  28  47  69  91 117 143 190 229 258
#     4   9  18  31  47  64  95 117 155 185 220 269
#     4   8  17  32  46  66  91 118 151 194 217 256
#     4   8  14  26  44  66  88 113 149 184 222 265
#     4   9  17  29  46  69  94 114 144 188 229 267
#     4   9  18  31  46  64  90 122 149 180 225 276
#
# _framework density 23.997541999999999
#
# number of rings (size 3 to 8) (size 9 to 14) (size 15 to 20)
#    0.857    2.571    0.000    2.143    0.000    2.286 
#    0.000    0.714    0.000    0.000    0.000    2.000 
#    0.000    0.000    0.000    0.000    0.000    0.000 
#
# Total GULP energy -155985.147508 kJ/mol
# GULP energy per Si atom -5570.898125 kJ/mol
# Density = 2.394292 g / cm^3
# Si number density = 23.997542 Si / 1000 Ang^3
#
#
#
# Elastic Constant Matrix: (Units=GPa)
#
#
# Indices 1 2 3 4 5 6 
#
# 1 287.2964 47.7745 15.7144 0.0000 -0.1268 0.0000
# 2 47.7745 22.7924 -1.9173 0.0000 1.8790 0.0000
# 3 15.7144 -1.9173 52.3717 0.0000 8.6533 0.0000
# 4 0.0000 0.0000 0.0000 63.3802 0.0000 37.5406
# 5 -0.1268 1.8790 8.6533 0.0000 16.1930 0.0000
# 6 0.0000 0.0000 0.0000 37.5406 0.0000 69.1000
#
#
#
# Elastic Compliance Matrix: (Units=1/GPa)
#
#
# Indices 1 2 3 4 5 6 
#
# 1 0.005684 -0.012373 -0.002636 0.000000 0.002889 0.000000
# 2 -0.012373 0.071588 0.008470 0.000000 -0.012930 0.000000
# 3 -0.002636 0.008470 0.022333 0.000000 -0.012938 0.000000
# 4 0.000000 0.000000 0.000000 0.023264 0.000000 -0.012639
# 5 0.002889 -0.012930 -0.012938 0.000000 0.070192 0.000000
# 6 0.000000 0.000000 0.000000 -0.012639 0.000000 0.021338
#
#
# Mechanical properties :
#
#
# Convention : Reuss Voigt Hill
#
# Bulk Modulus (GPa) = 11.55722 53.95597 32.75660
# Shear Modulus (GPa) = 19.50699 49.79392 34.65045
#
# Velocity S-wave (km/s) = 2.85419 4.56011 3.80401
# Velocity P-wave (km/s) = 3.96085 7.08935 5.74227
#
# Compressibility (1/GPa) = 0.08652601
#
# Stress axis : x y z
#
# Youngs Moduli (GPa) = 175.94104 13.96885 44.77702
#
# Poissons Ratio (x) = 0.17284 0.11802
# Poissons Ratio (y) = 2.17697 -0.37925
# Poissons Ratio (z) = 0.46373 -0.11831
#
# Static dielectric constant tensor:
#      x y z
#    x 1.973880 0.000000 -0.022690 
#    y 0.000000 1.901960 0.000000 
#    z -0.022690 0.000000 2.038110 
# 
# From -- ./inp_files/41786.got.cif
#   From: 2010.05.17/outbox.cif.g08.bks.cpg/sg11_21_cif.got.tgz:41786.got - 2010.06.03 12:22:45.
