data_PCOD9167228
_publ_section_title
;
Structure prediction by ZEFSAII (Michael W. Deem and Ramdas Pophale) SiO2 
 PCOD9167228
Probable space group: P 21/M
;
_chemical_formula_sum "Si O2"
_cell_formula_units_Z 18
_cell_length_a 6.742645
_cell_length_b 18.115312
_cell_length_c 6.179586
_cell_angle_alpha 90.000000
_cell_angle_beta 74.904098
_cell_angle_gamma 90.000000
_cell_volume 728.758848
_symmetry_space_group_name_H-M "P 21/M"
_symmetry_group_IT_number 11
_symmetry_cell_setting 'monoclinic'
loop_
_space_group_symop_operation_xyz
x,y,z
-x,1/2+y,-z
-x,-y,-z
x,1/2-y,z
loop_
_atom_site_type_symbol
_atom_site_label
_atom_site_fract_x
_atom_site_fract_y
_atom_site_fract_z
Si Si1 0.436459 0.750000 0.146491
Si Si2 0.222080 0.018244 0.842064
Si Si3 0.506819 0.612501 0.889654
Si Si4 0.899245 0.750000 0.081557
Si Si5 0.143893 0.365181 0.531562
Si Si6 0.146649 0.750000 0.602783
O O1 0.374963 0.672878 0.056362
O O2 0.679222 0.750000 0.031760
O O3 0.362436 0.750000 0.415979
O O4 0.360495 0.945160 0.809566
O O5 0.177268 0.052639 0.617387
O O6 0.347967 0.071681 0.973041
O O7 0.000000 0.000000 0.000000
O O8 0.653233 0.648052 0.667247
O O9 0.089664 0.750000 0.868645
O O10 0.884665 0.819735 0.240990
O O11 0.963409 0.326759 0.443992
#
# Coordination Sequence:
#
# PCOD9167228 Si02
#       6
#     2   4   4   2   4   2
#     4  12  21  46  67  99 134 182 226 291 349 400
#     4  11  24  43  67 104 140 185 233 280 351 420
#     4  11  24  45  70 100 144 179 233 291 343 416
#     4  11  22  45  65  99 142 176 232 291 342 409
#     4  11  21  44  65  95 142 184 227 290 345 408
#     4  11  23  39  70 100 136 186 238 288 345 419
#
# _framework density 24.699528000000001
#
# number of rings (size 3 to 8) (size 9 to 14) (size 15 to 20)
#    0.000    0.889    4.444    2.667    0.000    0.889 
#   16.000    0.000    0.000    0.000    0.000    0.000 
#    0.000    0.000    0.000    0.000    0.000    0.000 
#
# Total GULP energy -100519.893810 kJ/mol
# GULP energy per Si atom -5584.438545 kJ/mol
# Density = 2.464331 g / cm^3
# Si number density = 24.699528 Si / 1000 Ang^3
#
#
#
# Elastic Constant Matrix: (Units=GPa)
#
#
# Indices 1 2 3 4 5 6 
#
# 1 104.8617 38.4688 28.5844 0.0000 -4.7801 0.0000
# 2 38.4688 84.3541 38.5460 0.0000 0.0522 0.0000
# 3 28.5844 38.5460 165.6317 0.0000 -34.4924 0.0000
# 4 0.0000 0.0000 0.0000 39.8627 0.0000 10.3140
# 5 -4.7801 0.0522 -34.4924 0.0000 39.4802 0.0000
# 6 0.0000 0.0000 0.0000 10.3140 0.0000 13.9508
#
#
#
# Elastic Compliance Matrix: (Units=1/GPa)
#
#
# Indices 1 2 3 4 5 6 
#
# 1 0.011582 -0.004977 -0.000669 0.000000 0.000824 0.000000
# 2 -0.004977 0.015769 -0.003595 0.000000 -0.003764 0.000000
# 3 -0.000669 -0.003595 0.008525 0.000000 0.007371 0.000000
# 4 0.000000 0.000000 0.000000 0.031020 0.000000 -0.022933
# 5 0.000824 -0.003764 0.007371 0.000000 0.031874 0.000000
# 6 0.000000 0.000000 0.000000 -0.022933 0.000000 0.088635
#
#
# Mechanical properties :
#
#
# Convention : Reuss Voigt Hill
#
# Bulk Modulus (GPa) = 57.48772 62.89399 60.19086
# Shear Modulus (GPa) = 23.62005 35.27529 29.44767
#
# Velocity S-wave (km/s) = 3.09576 3.78322 3.45662
# Velocity P-wave (km/s) = 6.00863 6.67852 6.35241
#
# Compressibility (1/GPa) = 0.01739502
#
# Stress axis : x y z
#
# Youngs Moduli (GPa) = 86.34073 63.41403 117.30743
#
# Poissons Ratio (x) = 0.31559 0.07847
# Poissons Ratio (y) = 0.42969 0.42170
# Poissons Ratio (z) = 0.05776 0.22796
#
# Static dielectric constant tensor:
#      x y z
#    x 1.996340 0.000000 0.082330 
#    y 0.000000 2.169850 0.000000 
#    z 0.082330 0.000000 1.943610 
# 
# From -- ./inp_files/2117.got.cif
#   From: 2010.05.17/outbox.cif.g08.bks.cpg/sg11_2_cif.got.tgz:2117.got - 2010.06.03 12:22:45.
