data_PCOD9167786
_publ_section_title
;
Structure prediction by ZEFSAII (Michael W. Deem and Ramdas Pophale) SiO2 
 PCOD9167786
Probable space group: P 21/M
;
_chemical_formula_sum "Si O2"
_cell_formula_units_Z 32
_cell_length_a 21.000000
_cell_length_b 9.000000
_cell_length_c 15.000000
_cell_angle_alpha 90.000000
_cell_angle_beta 140.000000
_cell_angle_gamma 90.000000
_cell_volume 1822.302873
_symmetry_space_group_name_H-M "P 21/M"
_symmetry_group_IT_number 11
_symmetry_cell_setting 'monoclinic'
loop_
_space_group_symop_operation_xyz
x,y,z
-x,1/2+y,-z
-x,-y,-z
x,1/2-y,z
loop_
_atom_site_type_symbol
_atom_site_label
_atom_site_fract_x
_atom_site_fract_y
_atom_site_fract_z
Si Si1 0.143902 0.079734 0.680780
Si Si2 0.089672 0.424383 0.980042
Si Si3 0.708464 0.075816 0.469027
Si Si4 0.379476 0.420194 0.922869
Si Si5 0.456810 0.073717 0.811336
Si Si6 0.077258 0.923654 0.788402
Si Si7 0.110505 0.577163 0.464092
Si Si8 0.140872 0.926993 0.214529
O O1 0.109402 0.250000 0.629664
O O2 0.262317 0.079161 0.803666
O O3 0.114756 0.017808 0.745040
O O4 0.107205 0.972409 0.562892
O O5 0.105852 0.250000 0.982946
O O6 0.120590 0.517586 0.927217
O O7 0.971170 0.446118 0.868572
O O8 0.143458 0.482529 0.125999
O O9 0.687537 0.250000 0.458289
O O10 0.781141 0.060831 0.461674
O O11 0.775508 0.026961 0.624770
O O12 0.607960 0.992243 0.337666
O O13 0.415322 0.250000 0.969254
O O14 0.408018 0.473524 0.854130
O O15 0.432381 0.514659 0.056136
O O16 0.454233 0.250000 0.803535
O O17 0.093060 0.750000 0.792742
O O18 0.961282 0.965973 0.664644
O O19 0.081014 0.750000 0.419978
O O20 0.151924 0.750000 0.210273
#
# Coordination Sequence:
#
# PCOD9167786 Si02
#       8
#     4   4   4   4   4   4   4   4
#     4  11  22  37  53  72 100 135 176 216 251 298
#     4  10  19  34  52  74 100 131 169 211 255 297
#     4  10  19  32  51  74 104 137 168 204 250 302
#     4   9  19  34  50  71  98 132 168 207 255 299
#     4  10  19  31  50  75 101 129 167 209 252 300
#     4  12  24  36  51  72 100 138 177 213 252 298
#     4  11  21  35  51  72 102 138 176 212 248 293
#     4   9  18  33  51  74 101 132 167 206 254 302
#
# _framework density 17.560198
#
# number of rings (size 3 to 8) (size 9 to 14) (size 15 to 20)
#    0.000    1.750    2.500    3.000    0.000    3.000 
#    0.000    0.000    0.000    0.000    0.000    0.875 
#    0.000    0.000    0.000    0.000    0.000    0.000 
#
# Total GULP energy -178480.693556 kJ/mol
# GULP energy per Si atom -5577.521674 kJ/mol
# Density = 1.752023 g / cm^3
# Si number density = 17.560198 Si / 1000 Ang^3
#
#
#
# Elastic Constant Matrix: (Units=GPa)
#
#
# Indices 1 2 3 4 5 6 
#
# 1 18.9698 10.4771 4.8172 0.0000 -11.6799 0.0000
# 2 10.4771 40.0030 27.8977 0.0000 -9.9972 0.0000
# 3 4.8172 27.8977 98.7001 0.0000 -17.5852 0.0000
# 4 0.0000 0.0000 0.0000 31.3304 0.0000 -3.3560
# 5 -11.6799 -9.9972 -17.5852 0.0000 20.4280 0.0000
# 6 0.0000 0.0000 0.0000 -3.3560 0.0000 17.0835
#
#
#
# Elastic Compliance Matrix: (Units=1/GPa)
#
#
# Indices 1 2 3 4 5 6 
#
# 1 0.092586 -0.018031 0.009966 0.000000 0.052692 0.000000
# 2 -0.018031 0.036131 -0.009471 0.000000 -0.000781 0.000000
# 3 0.009966 -0.009471 0.014778 0.000000 0.013785 0.000000
# 4 0.000000 0.000000 0.000000 0.032604 0.000000 0.006405
# 5 0.052692 -0.000781 0.013785 0.000000 0.090564 0.000000
# 6 0.000000 0.000000 0.000000 0.006405 0.000000 0.059794
#
#
# Mechanical properties :
#
#
# Convention : Reuss Voigt Hill
#
# Bulk Modulus (GPa) = 9.22319 27.11741 18.17030
# Shear Modulus (GPa) = 12.57319 21.40045 16.98682
#
# Velocity S-wave (km/s) = 2.67873 3.49476 3.11360
# Velocity P-wave (km/s) = 3.85113 5.63565 4.82658
#
# Compressibility (1/GPa) = 0.10842231
#
# Stress axis : x y z
#
# Youngs Moduli (GPa) = 10.80073 27.67723 67.66630
#
# Poissons Ratio (x) = 0.49904 -0.67434
# Poissons Ratio (y) = 0.19475 0.64090
# Poissons Ratio (z) = -0.10764 0.26214
#
# Static dielectric constant tensor:
#      x y z
#    x 1.612320 0.000000 0.011310 
#    y 0.000000 1.597220 0.000000 
#    z 0.011310 0.000000 1.618030 
# 
# From -- ./inp_files/54334.got.cif
#   From: 2010.05.17/outbox.ucp.g08.bks.cvg/sg11_28_cif.got.tgz:54334.got - 2010.06.11 11:38:39.
