data_PCOD9167792
_publ_section_title
;
Structure prediction by ZEFSAII (Michael W. Deem and Ramdas Pophale) SiO2 
 PCOD9167792
Probable space group: P 21/M
;
_chemical_formula_sum "Si O2"
_cell_formula_units_Z 28
_cell_length_a 15.000000
_cell_length_b 9.000000
_cell_length_c 12.000000
_cell_angle_alpha 90.000000
_cell_angle_beta 60.000000
_cell_angle_gamma 90.000000
_cell_volume 1402.961154
_symmetry_space_group_name_H-M "P 21/M"
_symmetry_group_IT_number 11
_symmetry_cell_setting 'monoclinic'
loop_
_space_group_symop_operation_xyz
x,y,z
-x,1/2+y,-z
-x,-y,-z
x,1/2-y,z
loop_
_atom_site_type_symbol
_atom_site_label
_atom_site_fract_x
_atom_site_fract_y
_atom_site_fract_z
Si Si1 0.117927 0.571558 0.666725
Si Si2 0.890796 0.571567 0.872712
Si Si3 0.803938 0.574340 0.158272
Si Si4 0.725276 0.071627 0.602125
Si Si5 0.698026 0.071513 0.869470
Si Si6 0.443830 0.079103 0.432563
Si Si7 0.620890 0.078948 0.144790
O O1 0.125028 0.750000 0.671529
O O2 0.175742 0.504947 0.737956
O O3 0.163352 0.530057 0.517492
O O4 0.999841 0.528529 0.754847
O O5 0.875315 0.750000 0.871932
O O6 0.801740 0.487112 0.862557
O O7 0.884469 0.537191 0.008689
O O8 0.804506 0.750000 0.175996
O O9 0.698035 0.523480 0.166467
O O10 0.717449 0.250000 0.610431
O O11 0.695426 0.014219 0.743896
O O12 0.652961 0.011565 0.549643
O O13 0.698340 0.250000 0.860667
O O14 0.615023 0.032683 0.018381
O O15 0.419622 0.250000 0.476773
O O16 0.516811 0.078551 0.278554
O O17 0.500000 0.000000 0.500000
O O18 0.660570 0.250000 0.122379
#
# Coordination Sequence:
#
# PCOD9167792 Si02
#       7
#     4   4   4   4   4   4   4
#     4  10  20  34  51  73 106 144 174 208 261 312
#     4   9  19  34  52  76 106 138 173 215 259 304
#     4  10  19  31  51  80 107 133 173 219 258 302
#     4  10  22  38  55  77 106 139 174 213 256 305
#     4   9  19  37  57  77 103 136 175 214 254 305
#     4  11  23  38  57  81 107 136 170 210 259 311
#     4   9  19  36  56  76 103 139 172 208 260 313
#
# _framework density 19.957787
#
# number of rings (size 3 to 8) (size 9 to 14) (size 15 to 20)
#    0.000    2.286    0.000    2.143    0.000    8.000 
#    0.000    0.000    0.000    0.000    0.000    0.000 
#    0.000    0.000    0.000    0.000    0.000    0.000 
#
# Total GULP energy -156059.409927 kJ/mol
# GULP energy per Si atom -5573.550355 kJ/mol
# Density = 1.991236 g / cm^3
# Si number density = 19.957787 Si / 1000 Ang^3
#
#
#
# Elastic Constant Matrix: (Units=GPa)
#
#
# Indices 1 2 3 4 5 6 
#
# 1 25.2098 -8.0480 22.7015 0.0000 9.7087 0.0000
# 2 -8.0480 -13.9199 17.5263 0.0000 0.2769 0.0000
# 3 22.7015 17.5263 116.7296 0.0000 8.7651 0.0000
# 4 0.0000 0.0000 0.0000 19.7941 0.0000 3.5983
# 5 9.7087 0.2769 8.7651 0.0000 27.4250 0.0000
# 6 0.0000 0.0000 0.0000 3.5983 0.0000 24.4837
#
#
#
# Elastic Compliance Matrix: (Units=1/GPa)
#
#
# Indices 1 2 3 4 5 6 
#
# 1 0.038627 -0.025948 -0.002673 0.000000 -0.012558 0.000000
# 2 -0.025948 -0.042840 0.011021 0.000000 0.006096 0.000000
# 3 -0.002673 0.011021 0.007550 0.000000 -0.001578 0.000000
# 4 0.000000 0.000000 0.000000 0.051907 0.000000 -0.007629
# 5 -0.012558 0.006096 -0.001578 0.000000 0.041352 0.000000
# 6 0.000000 0.000000 0.000000 -0.007629 0.000000 0.041965
#
#
# Mechanical properties :
#
#
# Convention : Reuss Voigt Hill
#
# Bulk Modulus (GPa) = -31.38377 21.37547 -5.00415
# Shear Modulus (GPa) = 30.64837 20.72985 25.68911
#
# Velocity S-wave (km/s) = 3.92300 3.22636 3.59161
# Velocity P-wave (km/s) = 2.18190 4.96113 3.83233
#
# Compressibility (1/GPa) = -0.03186360
#
# Stress axis : x y z
#
# Youngs Moduli (GPa) = 25.88865 -23.34275 132.44219
#
# Poissons Ratio (x) = -0.60570 0.35404
# Poissons Ratio (y) = 0.67176 -1.45962
# Poissons Ratio (z) = 0.06921 0.25726
#
# Static dielectric constant tensor:
#      x y z
#    x 1.690580 0.000000 -0.064540 
#    y 0.000000 1.678260 0.000000 
#    z -0.064540 0.000000 1.787860 
# 
# From -- ./inp_files/37467.got.cif
#   From: 2010.05.17/outbox.ucp.g08.bks.cvg/sg11_19_cif.got.tgz:37467.got - 2010.06.11 11:38:39.
