data_PCOD9167766
_publ_section_title
;
Structure prediction by ZEFSAII (Michael W. Deem and Ramdas Pophale) SiO2 
 PCOD9167766
Probable space group: P 21/M
;
_chemical_formula_sum "Si O2"
_cell_formula_units_Z 28
_cell_length_a 27.000000
_cell_length_b 9.000000
_cell_length_c 12.000000
_cell_angle_alpha 90.000000
_cell_angle_beta 150.000000
_cell_angle_gamma 90.000000
_cell_volume 1458.000000
_symmetry_space_group_name_H-M "P 21/M"
_symmetry_group_IT_number 11
_symmetry_cell_setting 'monoclinic'
loop_
_space_group_symop_operation_xyz
x,y,z
-x,1/2+y,-z
-x,-y,-z
x,1/2-y,z
loop_
_atom_site_type_symbol
_atom_site_label
_atom_site_fract_x
_atom_site_fract_y
_atom_site_fract_z
Si Si1 0.016177 0.417082 0.744709
Si Si2 0.312535 0.575915 0.335542
Si Si3 0.811668 0.581674 0.736460
Si Si4 0.477427 0.426721 0.339192
Si Si5 0.141154 0.072987 0.410496
Si Si6 0.730674 0.569354 0.151096
Si Si7 0.829766 0.569793 0.121678
O O1 0.978020 0.250000 0.650223
O O2 0.067880 0.480888 0.735198
O O3 0.939996 0.514861 0.663043
O O4 0.106460 0.406544 0.008367
O O5 0.292518 0.750000 0.280460
O O6 0.270951 0.520702 0.371429
O O7 0.428617 0.548275 0.554946
O O8 0.258015 0.488895 0.128892
O O9 0.774659 0.750000 0.643050
O O10 0.859135 0.519041 0.716147
O O11 0.500000 0.500000 0.500000
O O12 0.466765 0.250000 0.335225
O O13 0.376028 0.485759 0.092004
O O14 0.130909 0.250000 0.385782
O O15 0.240962 0.028547 0.668927
O O16 0.731069 0.750000 0.148880
O O17 0.807569 0.522287 0.204287
O O18 0.830199 0.750000 0.117296
#
# Coordination Sequence:
#
# PCOD9167766 Si02
#       7
#     4   4   4   4   4   4   4
#     4   9  18  31  49  73  99 130 168 209 253 292
#     4  10  19  30  50  80 103 123 163 213 252 285
#     4   9  19  35  53  72  98 134 172 205 245 299
#     4  10  19  32  53  78 102 130 163 202 247 296
#     4  10  20  34  52  73  97 134 177 206 239 295
#     4   9  18  33  52  73 102 136 166 200 245 300
#     4   9  17  32  52  73 101 136 165 195 250 308
#
# _framework density 19.20439
#
# number of rings (size 3 to 8) (size 9 to 14) (size 15 to 20)
#    0.000    2.571    1.429    1.714    0.000    4.000 
#    0.000    2.143    0.000    0.000    0.000    0.000 
#    0.000    0.000    0.000    0.000    0.000    0.000 
#
# Total GULP energy -155875.066972 kJ/mol
# GULP energy per Si atom -5566.966678 kJ/mol
# Density = 1.916068 g / cm^3
# Si number density = 19.204390 Si / 1000 Ang^3
#
#
#
# Elastic Constant Matrix: (Units=GPa)
#
#
# Indices 1 2 3 4 5 6 
#
# 1 73.4198 31.0279 37.6506 0.0000 3.8775 0.0000
# 2 31.0279 -3.3952 11.3635 0.0000 6.8512 0.0000
# 3 37.6506 11.3635 33.3029 0.0000 -0.5545 0.0000
# 4 0.0000 0.0000 0.0000 7.8664 0.0000 2.9069
# 5 3.8775 6.8512 -0.5545 0.0000 13.9552 0.0000
# 6 0.0000 0.0000 0.0000 2.9069 0.0000 20.8479
#
#
#
# Elastic Compliance Matrix: (Units=1/GPa)
#
#
# Indices 1 2 3 4 5 6 
#
# 1 0.018950 0.027842 -0.031260 0.000000 -0.020176 0.000000
# 2 0.027842 -0.051457 -0.013636 0.000000 0.016985 0.000000
# 3 -0.031260 -0.013636 0.070324 0.000000 0.018175 0.000000
# 4 0.000000 0.000000 0.000000 0.134030 0.000000 -0.018688
# 5 -0.020176 0.016985 0.018175 0.000000 0.069648 0.000000
# 6 0.000000 0.000000 0.000000 -0.018688 0.000000 0.050572
#
#
# Mechanical properties :
#
#
# Convention : Reuss Voigt Hill
#
# Bulk Modulus (GPa) = 269.62936 29.26795 149.44866
# Shear Modulus (GPa) = 15.27125 10.08625 12.67875
#
# Velocity S-wave (km/s) = 2.82298 2.29422 2.57222
# Velocity P-wave (km/s) = 12.30164 4.72136 9.31723
#
# Compressibility (1/GPa) = 0.00370879
#
# Stress axis : x y z
#
# Youngs Moduli (GPa) = 52.76951 -19.43368 14.21982
#
# Poissons Ratio (x) = 0.54107 0.44452
# Poissons Ratio (y) = -1.46921 0.19390
# Poissons Ratio (z) = 1.64960 -0.26500
#
# Static dielectric constant tensor:
#      x y z
#    x 1.680600 0.000000 0.027740 
#    y 0.000000 1.686070 0.000000 
#    z 0.027740 0.000000 1.710900 
# 
# From -- ./inp_files/44661.got.cif
#   From: 2010.05.17/outbox.ucp.g08.bks.cvg/sg11_23_cif.got.tgz:44661.got - 2010.06.11 11:38:39.
