data_PCOD9167482
_publ_section_title
;
Structure prediction by ZEFSAII (Michael W. Deem and Ramdas Pophale) SiO2 
 PCOD9167482
Probable space group: P 21/M
;
_chemical_formula_sum "Si O2"
_cell_formula_units_Z 16
_cell_length_a 5.003725
_cell_length_b 21.898786
_cell_length_c 6.203377
_cell_angle_alpha 90.000000
_cell_angle_beta 93.506244
_cell_angle_gamma 90.000000
_cell_volume 678.465780
_symmetry_space_group_name_H-M "P 21/M"
_symmetry_group_IT_number 11
_symmetry_cell_setting 'monoclinic'
loop_
_space_group_symop_operation_xyz
x,y,z
-x,1/2+y,-z
-x,-y,-z
x,1/2-y,z
loop_
_atom_site_type_symbol
_atom_site_label
_atom_site_fract_x
_atom_site_fract_y
_atom_site_fract_z
Si Si1 0.703140 0.517724 0.199614
Si Si2 0.019438 0.868191 0.151030
Si Si3 0.365167 0.904302 0.529902
Si Si4 0.512754 0.820770 0.901322
O O1 0.942516 0.560086 0.126438
O O2 0.775204 0.457131 0.335376
O O3 0.542975 0.561141 0.360184
O O4 0.500000 0.500000 0.000000
O O5 0.148219 0.863669 0.393830
O O6 0.751307 0.832123 0.081491
O O7 0.241665 0.844618 0.997732
O O8 0.546140 0.863322 0.694376
O O9 0.494659 0.750000 0.845002
#
# Coordination Sequence:
#
# PCOD9167482 Si02
#       4
#     4   4   4   4
#     4  11  23  47  76 115 151 183 240 308 378 439
#     4  12  25  50  73 108 145 188 244 302 367 429
#     4  11  25  45  77 111 147 193 239 303 374 443
#     4  12  29  49  72 103 147 198 251 302 354 434
#
# _framework density 23.582621
#
# number of rings (size 3 to 8) (size 9 to 14) (size 15 to 20)
#    0.000    0.500    5.000    1.500    3.500    6.000 
#    0.000    0.000    0.000    0.000    0.000    0.000 
#    0.000    0.000    0.000    0.000    0.000    0.000 
#
# Total GULP energy -89672.646948 kJ/mol
# GULP energy per Si atom -5604.540434 kJ/mol
# Density = 2.352895 g / cm^3
# Si number density = 23.582621 Si / 1000 Ang^3
#
#
#
# Elastic Constant Matrix: (Units=GPa)
#
#
# Indices 1 2 3 4 5 6 
#
# 1 95.2335 22.5903 11.9223 0.0000 -0.1803 0.0000
# 2 22.5903 132.0524 50.9579 0.0000 -5.6794 0.0000
# 3 11.9223 50.9579 95.9691 0.0000 6.3985 0.0000
# 4 0.0000 0.0000 0.0000 24.0730 0.0000 4.3261
# 5 -0.1803 -5.6794 6.3985 0.0000 33.7937 0.0000
# 6 0.0000 0.0000 0.0000 4.3261 0.0000 26.2330
#
#
#
# Elastic Compliance Matrix: (Units=1/GPa)
#
#
# Indices 1 2 3 4 5 6 
#
# 1 0.010961 -0.001710 -0.000444 0.000000 -0.000145 0.000000
# 2 -0.001710 0.010020 -0.005287 0.000000 0.002676 0.000000
# 3 -0.000444 -0.005287 0.013512 0.000000 -0.003449 0.000000
# 4 0.000000 0.000000 0.000000 0.042809 0.000000 -0.007060
# 5 -0.000145 0.002676 -0.003449 0.000000 0.030693 0.000000
# 6 0.000000 0.000000 0.000000 -0.007060 0.000000 0.039284
#
#
# Mechanical properties :
#
#
# Convention : Reuss Voigt Hill
#
# Bulk Modulus (GPa) = 50.98756 54.91067 52.94911
# Shear Modulus (GPa) = 29.63843 32.67223 31.15533
#
# Velocity S-wave (km/s) = 3.54897 3.72618 3.63866
# Velocity P-wave (km/s) = 6.20172 6.46897 6.33675
#
# Compressibility (1/GPa) = 0.01961263
#
# Stress axis : x y z
#
# Youngs Moduli (GPa) = 91.22862 99.79590 74.00676
#
# Poissons Ratio (x) = 0.17066 0.03287
# Poissons Ratio (y) = 0.15601 0.39125
# Poissons Ratio (z) = 0.04051 0.52759
#
# Static dielectric constant tensor:
#      x y z
#    x 1.914480 0.000000 -0.030000 
#    y 0.000000 1.870470 0.000000 
#    z -0.030000 0.000000 1.901940 
# 
# From -- ./inp_files/438.got.cif
#   From: 2010.05.17/outbox.cif.g08.bks.cpg/sg11_1_cif.got.tgz:438.got - 2010.06.03 12:22:45.
