data_PCOD9167411
_publ_section_title
;
Structure prediction by ZEFSAII (Michael W. Deem and Ramdas Pophale) SiO2 
 PCOD9167411
Probable space group: P 21/M
;
_chemical_formula_sum "Si O2"
_cell_formula_units_Z 32
_cell_length_a 14.695612
_cell_length_b 8.765519
_cell_length_c 12.081196
_cell_angle_alpha 90.000000
_cell_angle_beta 86.692216
_cell_angle_gamma 90.000000
_cell_volume 1553.642522
_symmetry_space_group_name_H-M "P 21/M"
_symmetry_group_IT_number 11
_symmetry_cell_setting 'monoclinic'
loop_
_space_group_symop_operation_xyz
x,y,z
-x,1/2+y,-z
-x,-y,-z
x,1/2-y,z
loop_
_atom_site_type_symbol
_atom_site_label
_atom_site_fract_x
_atom_site_fract_y
_atom_site_fract_z
Si Si1 0.208898 0.569032 0.974536
Si Si2 0.530373 0.929938 0.311294
Si Si3 0.838826 0.570037 0.795199
Si Si4 0.315655 0.571362 0.565339
Si Si5 0.987484 0.428763 0.622319
Si Si6 0.334653 0.428061 0.339591
Si Si7 0.176478 0.072314 0.741825
Si Si8 0.420441 0.933056 0.928295
O O1 0.198901 0.750000 0.959932
O O2 0.173469 0.483530 0.868041
O O3 0.317762 0.536561 0.977837
O O4 0.157889 0.515182 0.088267
O O5 0.544734 0.750000 0.323211
O O6 0.584300 0.019886 0.402538
O O7 0.424127 0.970572 0.320018
O O8 0.569119 0.988996 0.191796
O O9 0.852892 0.750000 0.810695
O O10 0.909693 0.509024 0.699991
O O11 0.738239 0.547072 0.751264
O O12 0.312819 0.750000 0.541623
O O13 0.289883 0.474934 0.459223
O O14 0.249043 0.528326 0.669966
O O15 0.965575 0.250000 0.611579
O O16 0.000000 0.500000 0.500000
O O17 0.080781 0.442535 0.685461
O O18 0.360580 0.250000 0.339376
O O19 0.204577 0.250000 0.736077
O O20 0.431578 0.750000 0.917657
O O21 0.500000 0.000000 0.000000
#
# Coordination Sequence:
#
# PCOD9167411 Si02
#       8
#     4   4   4   4   4   4   4   4
#     4  11  24  42  66  95 130 171 218 268 323 385
#     4  12  24  39  61  90 126 169 216 268 325 385
#     4  11  25  44  68  96 130 171 215 265 323 385
#     4  12  24  40  63  93 129 169 215 267 326 388
#     4  11  25  45  71 102 134 169 213 266 324 391
#     4  11  24  42  63  91 128 169 217 269 324 388
#     4  11  24  43  68  97 130 171 218 267 326 389
#     4  11  23  39  61  91 127 171 222 270 323 384
#
# _framework density 20.59676
#
# number of rings (size 3 to 8) (size 9 to 14) (size 15 to 20)
#    0.000    0.750    1.250    6.375    0.000   11.000 
#    0.000    0.000    0.000    0.000    0.000    0.000 
#    0.000    0.000    0.000    0.000    0.000    0.000 
#
# Total GULP energy -179173.676390 kJ/mol
# GULP energy per Si atom -5599.177387 kJ/mol
# Density = 2.054988 g / cm^3
# Si number density = 20.596760 Si / 1000 Ang^3
#
#
#
# Elastic Constant Matrix: (Units=GPa)
#
#
# Indices 1 2 3 4 5 6 
#
# 1 42.0654 29.8753 9.2855 0.0000 -5.1731 0.0000
# 2 29.8753 63.1221 16.7972 0.0000 9.1976 0.0000
# 3 9.2855 16.7972 104.3226 0.0000 -8.2587 0.0000
# 4 0.0000 0.0000 0.0000 36.4599 0.0000 -4.6209
# 5 -5.1731 9.1976 -8.2587 0.0000 32.5130 0.0000
# 6 0.0000 0.0000 0.0000 -4.6209 0.0000 27.5603
#
#
#
# Elastic Compliance Matrix: (Units=1/GPa)
#
#
# Indices 1 2 3 4 5 6 
#
# 1 0.040039 -0.020988 0.000806 0.000000 0.012513 0.000000
# 2 -0.020988 0.028564 -0.003710 0.000000 -0.012362 0.000000
# 3 0.000806 -0.003710 0.010414 0.000000 0.003823 0.000000
# 4 0.000000 0.000000 0.000000 0.028023 0.000000 0.004699
# 5 0.012513 -0.012362 0.003823 0.000000 0.037216 0.000000
# 6 0.000000 0.000000 0.000000 0.004699 0.000000 0.037072
#
#
# Mechanical properties :
#
#
# Convention : Reuss Voigt Hill
#
# Bulk Modulus (GPa) = 32.01639 35.71400 33.86519
# Shear Modulus (GPa) = 20.87477 29.54344 25.20911
#
# Velocity S-wave (km/s) = 3.18700 3.79142 3.50227
# Velocity P-wave (km/s) = 5.39637 6.04514 5.72994
#
# Compressibility (1/GPa) = 0.03123401
#
# Stress axis : x y z
#
# Youngs Moduli (GPa) = 24.97541 35.00855 96.02587
#
# Poissons Ratio (x) = 0.73477 -0.07741
# Poissons Ratio (y) = 0.52419 0.35623
# Poissons Ratio (z) = -0.02013 0.12987
#
# Static dielectric constant tensor:
#      x y z
#    x 1.744380 0.000000 -0.001140 
#    y 0.000000 1.684240 0.000000 
#    z -0.001140 0.000000 1.726670 
# 
# From -- ./inp_files/38298.got.cif
#   From: 2010.05.17/outbox.cif.g08.bks.cpg/sg11_20_cif.got.tgz:38298.got - 2010.06.03 12:22:45.
