data_PCOD9167559
_publ_section_title
;
Structure prediction by ZEFSAII (Michael W. Deem and Ramdas Pophale) SiO2 
 PCOD9167559
Probable space group: P 21/M
;
_chemical_formula_sum "Si O2"
_cell_formula_units_Z 20
_cell_length_a 9.663996
_cell_length_b 18.065107
_cell_length_c 5.383242
_cell_angle_alpha 90.000000
_cell_angle_beta 74.882036
_cell_angle_gamma 90.000000
_cell_volume 907.286372
_symmetry_space_group_name_H-M "P 21/M"
_symmetry_group_IT_number 11
_symmetry_cell_setting 'monoclinic'
loop_
_space_group_symop_operation_xyz
x,y,z
-x,1/2+y,-z
-x,-y,-z
x,1/2-y,z
loop_
_atom_site_type_symbol
_atom_site_label
_atom_site_fract_x
_atom_site_fract_y
_atom_site_fract_z
Si Si1 0.984755 0.169522 0.994028
Si Si2 0.101577 0.450692 0.277742
Si Si3 0.265549 0.166579 0.527596
Si Si4 0.269828 0.589864 0.064240
Si Si5 0.548967 0.415110 0.514822
O O1 0.961511 0.250000 0.120824
O O2 0.136308 0.169664 0.784324
O O3 0.857645 0.149605 0.865801
O O4 0.995776 0.102405 0.178225
O O5 0.212175 0.395563 0.360440
O O6 0.195406 0.509012 0.079321
O O7 0.000000 0.500000 0.500000
O O8 0.282153 0.250000 0.415254
O O9 0.411027 0.137869 0.582070
O O10 0.362979 0.590606 0.270789
O O11 0.359512 0.604398 0.773292
O O12 0.500000 0.500000 0.500000
#
# Coordination Sequence:
#
# PCOD9167559 Si02
#       5
#     4   4   4   4   4
#     4  11  26  46  71 105 145 191 242 305 372 438
#     4  12  23  44  75 109 140 187 254 306 365 434
#     4  11  26  45  71 104 146 191 240 305 371 435
#     4  12  26  45  76 104 142 188 243 298 357 433
#     4  12  26  46  70 107 142 189 239 298 362 434
#
# _framework density 22.043755000000001
#
# number of rings (size 3 to 8) (size 9 to 14) (size 15 to 20)
#    0.000    0.400    4.000    4.200    2.800    1.600 
#    0.000    0.000    0.000    0.000    0.000    0.000 
#    0.000    0.000    0.000    0.000    0.000    0.000 
#
# Total GULP energy -111949.544318 kJ/mol
# GULP energy per Si atom -5597.477216 kJ/mol
# Density = 2.199358 g / cm^3
# Si number density = 22.043755 Si / 1000 Ang^3
#
#
#
# Elastic Constant Matrix: (Units=GPa)
#
#
# Indices 1 2 3 4 5 6 
#
# 1 152.6845 70.8285 57.4600 0.0000 18.4079 0.0000
# 2 70.8285 139.7713 30.8495 0.0000 9.4828 0.0000
# 3 57.4600 30.8495 90.9673 0.0000 12.9067 0.0000
# 4 0.0000 0.0000 0.0000 -8.6124 0.0000 9.5858
# 5 18.4079 9.4828 12.9067 0.0000 44.3722 0.0000
# 6 0.0000 0.0000 0.0000 9.5858 0.0000 6.4493
#
#
#
# Elastic Compliance Matrix: (Units=1/GPa)
#
#
# Indices 1 2 3 4 5 6 
#
# 1 0.010593 -0.004125 -0.005000 0.000000 -0.002059 0.000000
# 2 -0.004125 0.009376 -0.000556 0.000000 -0.000131 0.000000
# 3 -0.005000 -0.000556 0.014633 0.000000 -0.002063 0.000000
# 4 0.000000 0.000000 0.000000 -0.043744 0.000000 0.065018
# 5 -0.002059 -0.000131 -0.002063 0.000000 0.024019 0.000000
# 6 0.000000 0.000000 0.000000 0.065018 0.000000 0.058416
#
#
# Mechanical properties :
#
#
# Convention : Reuss Voigt Hill
#
# Bulk Modulus (GPa) = 65.61493 77.96654 71.79074
# Shear Modulus (GPa) = 51.15974 23.39417 37.27695
#
# Velocity S-wave (km/s) = 4.82272 3.26123 4.11669
# Velocity P-wave (km/s) = 7.80012 7.04462 7.43198
#
# Compressibility (1/GPa) = 0.01524043
#
# Stress axis : x y z
#
# Youngs Moduli (GPa) = 94.40522 106.65297 68.34089
#
# Poissons Ratio (x) = 0.43989 0.34171
# Poissons Ratio (y) = 0.38938 0.03799
# Poissons Ratio (z) = 0.47203 0.05928
#
# Static dielectric constant tensor:
#      x y z
#    x 1.823640 0.000000 0.017130 
#    y 0.000000 1.792680 0.000000 
#    z 0.017130 0.000000 1.827700 
# 
# From -- ./inp_files/1951.got.cif
#   From: 2010.05.17/outbox.cif.g08.bks.cpg/sg11_1_cif.got.tgz:1951.got - 2010.06.03 12:22:45.
