data_PCOD9167243
_publ_section_title
;
Structure prediction by ZEFSAII (Michael W. Deem and Ramdas Pophale) SiO2 
 PCOD9167243
Probable space group: P 21/M
;
_chemical_formula_sum "Si O2"
_cell_formula_units_Z 32
_cell_length_a 22.993988
_cell_length_b 14.236476
_cell_length_c 10.376735
_cell_angle_alpha 90.000000
_cell_angle_beta 153.543829
_cell_angle_gamma 90.000000
_cell_volume 1513.345183
_symmetry_space_group_name_H-M "P 21/M"
_symmetry_group_IT_number 11
_symmetry_cell_setting 'monoclinic'
loop_
_space_group_symop_operation_xyz
x,y,z
-x,1/2+y,-z
-x,-y,-z
x,1/2-y,z
loop_
_atom_site_type_symbol
_atom_site_label
_atom_site_fract_x
_atom_site_fract_y
_atom_site_fract_z
Si Si1 0.869387 0.364873 0.233891
Si Si2 0.574217 0.364599 0.612683
Si Si3 0.631524 0.635190 0.585458
Si Si4 0.114675 0.856931 0.020210
Si Si5 0.077063 0.139207 0.849071
Si Si6 0.379364 0.364695 0.730894
Si Si7 0.080567 0.095447 0.155174
Si Si8 0.400560 0.635596 0.632630
O O1 0.871712 0.250000 0.245124
O O2 0.962113 0.399456 0.532002
O O3 0.718331 0.392549 0.945445
O O4 0.914681 0.395437 0.180273
O O5 0.570890 0.250000 0.607446
O O6 0.464086 0.397896 0.492390
O O7 0.559503 0.390754 0.433685
O O8 0.632001 0.750000 0.589846
O O9 0.592008 0.610096 0.361137
O O10 0.779388 0.600911 0.898097
O O11 0.152934 0.750000 0.068845
O O12 0.249378 0.897508 0.347527
O O13 0.993673 0.853669 0.875793
O O14 0.084304 0.250000 0.835698
O O15 0.058012 0.131266 0.964746
O O16 0.367677 0.250000 0.712741
O O17 0.236013 0.403201 0.483049
O O18 0.495133 0.395855 0.054764
O O19 0.000000 0.000000 0.000000
O O20 0.403759 0.750000 0.648887
#
# Coordination Sequence:
#
# PCOD9167243 Si02
#       8
#     4   4   4   4   4   4   4   4
#     4   8  15  27  47  73  97 118 149 193 242 289
#     4   8  13  23  40  69 100 117 137 184 241 291
#     4   8  14  23  38  61  91 118 141 175 226 276
#     4   9  17  32  52  74  97 124 157 198 244 292
#     4   9  17  31  49  71  95 121 156 200 241 283
#     4   9  17  31  49  71  95 121 156 200 241 283
#     4  11  22  34  47  68  98 135 171 203 239 283
#     4   8  15  27  47  73  97 118 149 193 242 289
#
# _framework density 21.145209000000001
#
# number of rings (size 3 to 8) (size 9 to 14) (size 15 to 20)
#    0.000    3.250    0.000    3.375    0.000    2.000 
#    0.000    8.750    0.000    0.000    0.000    8.750 
#    0.000    0.000    0.000    0.000    0.000    0.000 
#
# Total GULP energy -178446.706706 kJ/mol
# GULP energy per Si atom -5576.459585 kJ/mol
# Density = 2.109708 g / cm^3
# Si number density = 21.145209 Si / 1000 Ang^3
#
#
#
# Elastic Constant Matrix: (Units=GPa)
#
#
# Indices 1 2 3 4 5 6 
#
# 1 62.2210 -41.9779 -55.2363 0.0000 33.6813 0.0000
# 2 -41.9779 33.7136 -51.2076 0.0000 8.3540 0.0000
# 3 -55.2363 -51.2076 -30.6216 0.0000 8.1511 0.0000
# 4 0.0000 0.0000 0.0000 -5.5914 0.0000 21.5985
# 5 33.6813 8.3540 8.1511 0.0000 12.6911 0.0000
# 6 0.0000 0.0000 0.0000 21.5985 0.0000 -21.0552
#
#
#
# Elastic Compliance Matrix: (Units=1/GPa)
#
#
# Indices 1 2 3 4 5 6 
#
# 1 0.009104 -0.004428 -0.012532 0.000000 -0.013199 0.000000
# 2 -0.004428 0.010666 -0.007336 0.000000 0.009442 0.000000
# 3 -0.012532 -0.007336 0.010551 0.000000 0.031311 0.000000
# 4 0.000000 0.000000 0.000000 0.060370 0.000000 0.061928
# 5 -0.013199 0.009442 0.031311 0.000000 0.087499 0.000000
# 6 0.000000 0.000000 0.000000 0.061928 0.000000 0.016032
#
#
# Mechanical properties :
#
#
# Convention : Reuss Voigt Hill
#
# Bulk Modulus (GPa) = -54.73487 -25.72562 -40.23024
# Shear Modulus (GPa) = 21.12169 11.45790 16.28979
#
# Velocity S-wave (km/s) = 3.16395 2.33033 2.77858
# Velocity P-wave (km/s) = 3.54880 2.22531 2.96193
#
# Compressibility (1/GPa) = -0.01826989
#
# Stress axis : x y z
#
# Youngs Moduli (GPa) = 109.83772 93.75618 94.77698
#
# Poissons Ratio (x) = 0.41513 1.18772
# Poissons Ratio (y) = 0.48633 0.69530
# Poissons Ratio (z) = 1.37646 0.68781
#
# Static dielectric constant tensor:
#      x y z
#    x 1.628540 0.000000 0.006140 
#    y 0.000000 1.896420 0.000000 
#    z 0.006140 0.000000 1.741620 
# 
# From -- ./inp_files/27121.got.cif
#   From: 2010.05.17/outbox.cif.g08.bks.cpg/sg11_14_cif.got.tgz:27121.got - 2010.06.03 12:22:45.
