data_PCOD9167932
_publ_section_title
;
Structure prediction by ZEFSAII (Michael W. Deem and Ramdas Pophale) SiO2 
 PCOD9167932
Probable space group: P 21/M
;
_chemical_formula_sum "Si O2"
_cell_formula_units_Z 32
_cell_length_a 27.000000
_cell_length_b 9.000000
_cell_length_c 21.000000
_cell_angle_alpha 90.000000
_cell_angle_beta 20.000000
_cell_angle_gamma 90.000000
_cell_volume 1745.328791
_symmetry_space_group_name_H-M "P 21/M"
_symmetry_group_IT_number 11
_symmetry_cell_setting 'monoclinic'
loop_
_space_group_symop_operation_xyz
x,y,z
-x,1/2+y,-z
-x,-y,-z
x,1/2-y,z
loop_
_atom_site_type_symbol
_atom_site_label
_atom_site_fract_x
_atom_site_fract_y
_atom_site_fract_z
Si Si1 0.262899 0.572896 0.074712
Si Si2 0.258976 0.429337 0.892443
Si Si3 0.498452 0.929726 0.304637
Si Si4 0.600876 0.073726 0.958586
Si Si5 0.191541 0.427840 0.703374
Si Si6 0.887157 0.928670 0.055725
Si Si7 0.695053 0.428817 0.703207
Si Si8 0.977371 0.929865 0.717029
O O1 0.265315 0.750000 0.059024
O O2 0.288510 0.547485 0.118141
O O3 0.114312 0.501964 0.229262
O O4 0.397817 0.494896 0.875674
O O5 0.262205 0.250000 0.888775
O O6 0.409043 0.474894 0.743954
O O7 0.226150 0.478515 0.860911
O O8 0.120436 0.471395 0.103492
O O9 0.491987 0.750000 0.308138
O O10 0.337872 0.997229 0.500634
O O11 0.572592 0.250000 0.988869
O O12 0.669213 0.027464 0.808454
O O13 0.447423 0.995304 0.157598
O O14 0.197421 0.250000 0.687582
O O15 0.173153 0.460994 0.801161
O O16 0.042148 0.494607 0.856458
O O17 0.907873 0.750000 0.026649
O O18 0.689950 0.250000 0.704784
O O19 0.854069 0.475714 0.486784
O O20 0.973802 0.750000 0.715802
#
# Coordination Sequence:
#
# PCOD9167932 Si02
#       8
#     4   4   4   4   4   4   4   4
#     4  10  20  34  51  73 102 132 164 205 252 298
#     4   8  16  32  52  73  96 126 166 207 243 286
#     4  10  20  35  54  74  98 129 166 207 250 298
#     4   9  19  34  50  72 103 134 166 208 251 291
#     4  10  20  33  50  75 104 132 165 205 248 295
#     4   9  18  34  53  72 100 136 169 203 245 294
#     4   9  18  33  52  74 101 134 171 207 244 291
#     4   9  18  33  52  74 100 129 165 206 245 292
#
# _framework density 18.334654
#
# number of rings (size 3 to 8) (size 9 to 14) (size 15 to 20)
#    0.000    2.750    0.000    1.875    0.000    4.000 
#    0.000    4.375    0.000    0.000    0.000    0.000 
#    0.000    0.000    0.000    0.000    0.000    0.000 
#
# Total GULP energy -178343.443936 kJ/mol
# GULP energy per Si atom -5573.232623 kJ/mol
# Density = 1.829292 g / cm^3
# Si number density = 18.334654 Si / 1000 Ang^3
#
#
#
# Elastic Constant Matrix: (Units=GPa)
#
#
# Indices 1 2 3 4 5 6 
#
# 1 33.4528 -3.1562 -38.8191 0.0000 -2.7706 0.0000
# 2 -3.1562 21.2832 -3.6618 0.0000 1.8294 0.0000
# 3 -38.8191 -3.6618 35.4314 0.0000 -3.6735 0.0000
# 4 0.0000 0.0000 0.0000 28.3468 0.0000 -5.1576
# 5 -2.7706 1.8294 -3.6735 0.0000 8.0430 0.0000
# 6 0.0000 0.0000 0.0000 -5.1576 0.0000 21.5302
#
#
#
# Elastic Compliance Matrix: (Units=1/GPa)
#
#
# Indices 1 2 3 4 5 6 
#
# 1 -0.059588 -0.016990 -0.072188 0.000000 -0.049633 0.000000
# 2 -0.016990 0.043628 -0.016524 0.000000 -0.023323 0.000000
# 3 -0.072188 -0.016524 -0.057485 0.000000 -0.047364 0.000000
# 4 0.000000 0.000000 0.000000 0.036885 0.000000 0.008836
# 5 -0.049633 -0.023323 -0.047364 0.000000 0.090906 0.000000
# 6 0.000000 0.000000 0.000000 0.008836 0.000000 0.048563
#
#
# Mechanical properties :
#
#
# Convention : Reuss Voigt Hill
#
# Bulk Modulus (GPa) = -3.51062 -0.12297 -1.81679
# Shear Modulus (GPa) = 22.79323 20.63763 21.71543
#
# Velocity S-wave (km/s) = 3.52970 3.35865 3.44523
# Velocity P-wave (km/s) = 3.83312 3.86956 3.85138
#
# Compressibility (1/GPa) = -0.28485002
#
# Stress axis : x y z
#
# Youngs Moduli (GPa) = -16.78180 22.92131 -17.39598
#
# Poissons Ratio (x) = 0.38944 -1.25577
# Poissons Ratio (y) = -0.28513 -0.28746
# Poissons Ratio (z) = -1.21144 0.37876
#
# Static dielectric constant tensor:
#      x y z
#    x 1.670610 0.000000 0.009380 
#    y 0.000000 1.612990 0.000000 
#    z 0.009380 0.000000 1.590970 
# 
# From -- ./inp_files/66996.got.cif
#   From: 2010.05.17/outbox.ucp.g08.bks.cvg/sg11_34_cif.got.tgz:66996.got - 2010.06.11 11:38:39.
