data_PCOD9167314
_publ_section_title
;
Structure prediction by ZEFSAII (Michael W. Deem and Ramdas Pophale) SiO2 
 PCOD9167314
Probable space group: P 21/M
;
_chemical_formula_sum "Si O2"
_cell_formula_units_Z 14
_cell_length_a 7.898707
_cell_length_b 5.450886
_cell_length_c 18.469703
_cell_angle_alpha 90.000000
_cell_angle_beta 119.205371
_cell_angle_gamma 90.000000
_cell_volume 694.121885
_symmetry_space_group_name_H-M "P 21/M"
_symmetry_group_IT_number 11
_symmetry_cell_setting 'monoclinic'
loop_
_space_group_symop_operation_xyz
x,y,z
-x,1/2+y,-z
-x,-y,-z
x,1/2-y,z
loop_
_atom_site_type_symbol
_atom_site_label
_atom_site_fract_x
_atom_site_fract_y
_atom_site_fract_z
Si Si1 0.896341 0.250000 0.949896
Si Si2 0.609192 0.750000 0.539022
Si Si3 0.510482 0.750000 0.050058
Si Si4 0.935406 0.750000 0.710438
Si Si5 0.156721 0.750000 0.603038
Si Si6 0.814521 0.750000 0.435162
Si Si7 0.960609 0.750000 0.184474
O O1 0.673968 0.250000 0.933349
O O2 0.933865 0.250000 0.871580
O O3 0.000000 0.500000 0.000000
O O4 0.500000 0.500000 0.500000
O O5 0.712554 0.750000 0.637464
O O6 0.764038 0.750000 0.507719
O O7 0.726571 0.750000 0.128440
O O8 0.500000 0.500000 0.000000
O O9 0.980679 0.500121 0.762218
O O10 0.057261 0.750000 0.660962
O O11 0.259337 0.490242 0.619336
O O12 0.048220 0.750000 0.498623
#
# Coordination Sequence:
#
# PCOD9167314 Si02
#       7
#     2   2   2   2   2   2   2
#     4  12  23  43  71 103 135 180 230 281 334 414
#     4  11  22  39  61  88 121 172 232 273 332 406
#     4  12  23  43  71 103 131 173 232 275 325 415
#     4  11  24  41  61  91 132 178 213 283 354 403
#     4   9  17  33  55  79 109 147 206 254 317 377
#     4   9  17  31  55  82 104 145 207 270 301 371
#     4  12  24  42  68  98 144 175 220 280 353 398
#
# _framework density 20.169366
#
# number of rings (size 3 to 8) (size 9 to 14) (size 15 to 20)
#    0.000    1.143    2.857    4.286    0.000    4.571 
#    0.000    8.571    0.000    0.000    0.000    0.000 
#    0.000    0.000    0.000    0.000    0.000    0.000 
#
# Total GULP energy -77958.587666 kJ/mol
# GULP energy per Si atom -5568.470548 kJ/mol
# Density = 2.012346 g / cm^3
# Si number density = 20.169366 Si / 1000 Ang^3
#
#
#
# Elastic Constant Matrix: (Units=GPa)
#
#
# Indices 1 2 3 4 5 6 
#
# 1 114.3123 61.1502 69.8137 0.0000 -2.4602 0.0000
# 2 61.1502 256.9374 103.1345 0.0000 13.2841 0.0000
# 3 69.8137 103.1345 135.5414 0.0000 -5.8869 0.0000
# 4 0.0000 0.0000 0.0000 33.8485 0.0000 -13.1401
# 5 -2.4602 13.2841 -5.8869 0.0000 46.0131 0.0000
# 6 0.0000 0.0000 0.0000 -13.1401 0.0000 28.7605
#
#
#
# Elastic Compliance Matrix: (Units=1/GPa)
#
#
# Indices 1 2 3 4 5 6 
#
# 1 0.012822 -0.000583 -0.006157 0.000000 0.000066 0.000000
# 2 -0.000583 0.005855 -0.004253 0.000000 -0.002266 0.000000
# 3 -0.006157 -0.004253 0.013902 0.000000 0.002677 0.000000
# 4 0.000000 0.000000 0.000000 0.035913 0.000000 0.016408
# 5 0.000066 -0.002266 0.002677 0.000000 0.022733 0.000000
# 6 0.000000 0.000000 0.000000 0.016408 0.000000 0.042266
#
#
# Mechanical properties :
#
#
# Convention : Reuss Voigt Hill
#
# Bulk Modulus (GPa) = 94.41965 108.33201 101.37583
# Shear Modulus (GPa) = 31.44453 39.90393 35.67423
#
# Velocity S-wave (km/s) = 3.95273 4.45279 4.21019
# Velocity P-wave (km/s) = 8.23086 8.95903 8.60266
#
# Compressibility (1/GPa) = 0.01059102
#
# Stress axis : x y z
#
# Youngs Moduli (GPa) = 77.99082 170.78778 71.93238
#
# Poissons Ratio (x) = 0.09964 0.44292
# Poissons Ratio (y) = 0.04550 0.30594
# Poissons Ratio (z) = 0.48023 0.72639
#
# Static dielectric constant tensor:
#      x y z
#    x 1.280420 0.000000 -0.232280 
#    y 0.000000 2.186730 0.000000 
#    z -0.232280 0.000000 1.575350 
# 
# From -- ./inp_files/28878.got.cif
#   From: 2010.05.17/outbox.cif.g08.bks.cpg/sg11_15_cif.got.tgz:28878.got - 2010.06.03 12:22:45.
