data_PCOD9167983
_publ_section_title
;
Structure prediction by ZEFSAII (Michael W. Deem and Ramdas Pophale) SiO2 
 PCOD9167983
Probable space group: P 21/M
;
_chemical_formula_sum "Si O2"
_cell_formula_units_Z 24
_cell_length_a 9.000000
_cell_length_b 15.000000
_cell_length_c 15.000000
_cell_angle_alpha 90.000000
_cell_angle_beta 140.000000
_cell_angle_gamma 90.000000
_cell_volume 1301.644910
_symmetry_space_group_name_H-M "P 21/M"
_symmetry_group_IT_number 11
_symmetry_cell_setting 'monoclinic'
loop_
_space_group_symop_operation_xyz
x,y,z
-x,1/2+y,-z
-x,-y,-z
x,1/2-y,z
loop_
_atom_site_type_symbol
_atom_site_label
_atom_site_fract_x
_atom_site_fract_y
_atom_site_fract_z
Si Si1 0.822425 0.350264 0.022760
Si Si2 0.940901 0.354884 0.498307
Si Si3 0.236435 0.032175 0.504705
Si Si4 0.309410 0.854904 0.243307
Si Si5 0.016749 0.986656 0.221762
Si Si6 0.713660 0.650540 0.176714
O O1 0.917517 0.250000 0.084067
O O2 0.791578 0.361405 0.902677
O O3 0.559958 0.351839 0.937862
O O4 0.957491 0.431642 0.129750
O O5 0.870122 0.250000 0.453535
O O6 0.032676 0.406070 0.452920
O O7 0.152760 0.352263 0.666805
O O8 0.768431 0.430046 0.460034
O O9 0.462833 0.085566 0.637525
O O10 0.185699 0.022242 0.376965
O O11 0.353525 0.750000 0.281748
O O12 0.130438 0.902317 0.225840
O O13 0.796101 0.938656 0.165198
O O14 0.772586 0.750000 0.165515
#
# Coordination Sequence:
#
# PCOD9167983 Si02
#       6
#     4   4   4   4   4   4
#     4  10  21  37  57  78 107 148 184 220 272 327
#     4   9  17  33  57  83 111 144 184 224 267 324
#     4  10  20  34  57  84 109 143 185 225 274 318
#     4  11  22  39  59  78 108 151 187 216 269 339
#     4  11  22  35  55  86 113 138 178 236 275 309
#     4   9  17  34  58  82 107 143 187 222 263 323
#
# _framework density 18.438207999999999
#
# number of rings (size 3 to 8) (size 9 to 14) (size 15 to 20)
#    0.000    2.000    1.667    2.500    0.000    2.000 
#    0.000    0.833    0.000    1.000    0.000    0.000 
#    0.000    0.000    0.000    0.000    0.000    0.000 
#
# Total GULP energy -133688.665786 kJ/mol
# GULP energy per Si atom -5570.361074 kJ/mol
# Density = 1.839624 g / cm^3
# Si number density = 18.438208 Si / 1000 Ang^3
#
#
#
# Elastic Constant Matrix: (Units=GPa)
#
#
# Indices 1 2 3 4 5 6 
#
# 1 41.0077 27.7644 16.9736 0.0000 -11.3706 0.0000
# 2 27.7644 153.7185 26.6099 0.0000 -22.1467 0.0000
# 3 16.9736 26.6099 20.9583 0.0000 -21.2950 0.0000
# 4 0.0000 0.0000 0.0000 30.2882 0.0000 -3.4156
# 5 -11.3706 -22.1467 -21.2950 0.0000 13.0651 0.0000
# 6 0.0000 0.0000 0.0000 -3.4156 0.0000 30.5466
#
#
#
# Elastic Compliance Matrix: (Units=1/GPa)
#
#
# Indices 1 2 3 4 5 6 
#
# 1 0.032741 -0.002552 -0.001952 0.000000 0.020986 0.000000
# 2 -0.002552 0.008347 -0.005470 0.000000 0.003013 0.000000
# 3 -0.001952 -0.005470 -0.068728 0.000000 -0.122992 0.000000
# 4 0.000000 0.000000 0.000000 0.033438 0.000000 0.003739
# 5 0.020986 0.003013 -0.122992 0.000000 -0.100555 0.000000
# 6 0.000000 0.000000 0.000000 0.003739 0.000000 0.033155
#
#
# Mechanical properties :
#
#
# Convention : Reuss Voigt Hill
#
# Bulk Modulus (GPa) = -21.01360 39.82005 9.40323
# Shear Modulus (GPa) = -86.93221 24.40241 -31.26490
#
# Velocity S-wave (km/s) = -6.87388 3.64190 -4.12230
# Velocity P-wave (km/s) = 8.62681 6.27120 4.18891
#
# Compressibility (1/GPa) = -0.04758823
#
# Stress axis : x y z
#
# Youngs Moduli (GPa) = 30.54303 119.79868 -14.55015
#
# Poissons Ratio (x) = 0.30573 -0.02841
# Poissons Ratio (y) = 0.07795 -0.07959
# Poissons Ratio (z) = 0.05963 0.65528
#
# Static dielectric constant tensor:
#      x y z
#    x 1.721190 0.000000 0.014420 
#    y 0.000000 1.621460 0.000000 
#    z 0.014420 0.000000 1.606270 
# 
# From -- ./inp_files/12469.got.cif
#   From: 2010.05.17/outbox.ucp.g08.bks.cvg/sg11_7_cif.got.tgz:12469.got - 2010.06.11 11:38:39.
