data_PCOD9167865
_publ_section_title
;
Structure prediction by ZEFSAII (Michael W. Deem and Ramdas Pophale) SiO2 
 PCOD9167865
Probable space group: P 21/M
;
_chemical_formula_sum "Si O2"
_cell_formula_units_Z 28
_cell_length_a 30.000000
_cell_length_b 9.000000
_cell_length_c 30.000000
_cell_angle_alpha 90.000000
_cell_angle_beta 10.000000
_cell_angle_gamma 90.000000
_cell_volume 1406.550239
_symmetry_space_group_name_H-M "P 21/M"
_symmetry_group_IT_number 11
_symmetry_cell_setting 'monoclinic'
loop_
_space_group_symop_operation_xyz
x,y,z
-x,1/2+y,-z
-x,-y,-z
x,1/2-y,z
loop_
_atom_site_type_symbol
_atom_site_label
_atom_site_fract_x
_atom_site_fract_y
_atom_site_fract_z
Si Si1 0.094797 0.568374 0.285198
Si Si2 0.427119 0.568491 0.234688
Si Si3 0.455215 0.930548 0.496206
Si Si4 0.069062 0.429091 0.031768
Si Si5 0.195795 0.069350 0.007958
Si Si6 0.238687 0.068238 0.237806
Si Si7 0.711997 0.930856 0.532798
O O1 0.088247 0.750000 0.290760
O O2 0.206733 0.499902 0.220278
O O3 0.808422 0.499606 0.562319
O O4 0.297481 0.502460 0.049631
O O5 0.434193 0.750000 0.225525
O O6 0.353865 0.506651 0.355248
O O7 0.454866 0.750000 0.499435
O O8 0.682106 0.978849 0.240001
O O9 0.500000 0.000000 0.500000
O O10 0.187457 0.982719 0.739195
O O11 0.064781 0.250000 0.033327
O O12 0.088923 0.463104 0.064013
O O13 0.212464 0.250000 0.998251
O O14 0.475968 0.994195 0.735674
O O15 0.987229 0.994537 0.246026
O O16 0.239298 0.250000 0.237545
O O17 0.000000 0.000000 0.500000
O O18 0.500000 0.000000 0.000000
O O19 0.714051 0.750000 0.532654
#
# Coordination Sequence:
#
# PCOD9167865 Si02
#       7
#     4   4   4   4   4   4   4
#     4  12  25  44  67  96 130 167 207 259 318 370
#     4  12  25  44  67  94 125 166 213 256 301 368
#     4  10  19  34  54  80 110 146 187 236 291 350
#     4   9  19  35  57  80 109 147 193 240 289 347
#     4  11  22  41  66  90 116 160 211 252 295 364
#     4  12  25  44  67  96 130 170 214 261 312 371
#     4  12  25  42  62  92 129 162 196 252 316 366
#
# _framework density 19.906860999999999
#
# number of rings (size 3 to 8) (size 9 to 14) (size 15 to 20)
#    0.000    0.857    0.000    8.571    0.000    2.286 
#    0.000    4.286    0.000    0.000    0.000    0.000 
#    0.000    0.000    0.000    0.000    0.000    0.000 
#
# Total GULP energy -156508.290153 kJ/mol
# GULP energy per Si atom -5589.581791 kJ/mol
# Density = 1.986155 g / cm^3
# Si number density = 19.906861 Si / 1000 Ang^3
#
#
#
# Elastic Constant Matrix: (Units=GPa)
#
#
# Indices 1 2 3 4 5 6 
#
# 1 74.3506 9.8775 1.4118 0.0000 -5.0888 0.0000
# 2 9.8775 166.7354 24.2239 0.0000 -0.8838 0.0000
# 3 1.4118 24.2239 102.5818 0.0000 -2.7804 0.0000
# 4 0.0000 0.0000 0.0000 29.3668 0.0000 -4.7371
# 5 -5.0888 -0.8838 -2.7804 0.0000 49.5340 0.0000
# 6 0.0000 0.0000 0.0000 -4.7371 0.0000 33.0304
#
#
#
# Elastic Compliance Matrix: (Units=1/GPa)
#
#
# Indices 1 2 3 4 5 6 
#
# 1 0.013651 -0.000807 0.000040 0.000000 0.001390 0.000000
# 2 -0.000807 0.006258 -0.001468 0.000000 -0.000054 0.000000
# 3 0.000040 -0.001468 0.010109 0.000000 0.000545 0.000000
# 4 0.000000 0.000000 0.000000 0.034858 0.000000 0.004999
# 5 0.001390 -0.000054 0.000545 0.000000 0.020361 0.000000
# 6 0.000000 0.000000 0.000000 0.004999 0.000000 0.030992
#
#
# Mechanical properties :
#
#
# Convention : Reuss Voigt Hill
#
# Bulk Modulus (GPa) = 39.14043 46.07712 42.60877
# Shear Modulus (GPa) = 38.69471 42.92990 40.81231
#
# Velocity S-wave (km/s) = 4.41362 4.64889 4.53278
# Velocity P-wave (km/s) = 6.75854 7.21199 6.98895
#
# Compressibility (1/GPa) = 0.02554903
#
# Stress axis : x y z
#
# Youngs Moduli (GPa) = 73.25243 159.78609 98.91931
#
# Poissons Ratio (x) = 0.12898 -0.00400
# Poissons Ratio (y) = 0.05913 0.14523
# Poissons Ratio (z) = -0.00296 0.23460
#
# Static dielectric constant tensor:
#      x y z
#    x 1.777120 0.000000 -0.004180 
#    y 0.000000 1.651660 0.000000 
#    z -0.004180 0.000000 1.714820 
# 
# From -- ./inp_files/73830.got.cif
#   From: 2010.05.17/outbox.ucp.g08.bks.cvg/sg11_37_cif.got.tgz:73830.got - 2010.06.11 11:38:39.
