data_PCOD9167493
_publ_section_title
;
Structure prediction by ZEFSAII (Michael W. Deem and Ramdas Pophale) SiO2 
 PCOD9167493
Probable space group: P 21/M
;
_chemical_formula_sum "Si O2"
_cell_formula_units_Z 20
_cell_length_a 21.973324
_cell_length_b 8.527938
_cell_length_c 5.052363
_cell_angle_alpha 90.000000
_cell_angle_beta 83.385164
_cell_angle_gamma 90.000000
_cell_volume 940.445348
_symmetry_space_group_name_H-M "P 21/M"
_symmetry_group_IT_number 11
_symmetry_cell_setting 'monoclinic'
loop_
_space_group_symop_operation_xyz
x,y,z
-x,1/2+y,-z
-x,-y,-z
x,1/2-y,z
loop_
_atom_site_type_symbol
_atom_site_label
_atom_site_fract_x
_atom_site_fract_y
_atom_site_fract_z
Si Si1 0.436686 0.436226 0.412651
Si Si2 0.824541 0.061674 0.228677
Si Si3 0.370602 0.563984 0.943556
Si Si4 0.036350 0.562691 0.731527
Si Si5 0.757040 0.936548 0.766495
O O1 0.500000 0.500000 0.500000
O O2 0.439660 0.250000 0.373001
O O3 0.419731 0.516920 0.143983
O O4 0.386322 0.479077 0.660507
O O5 0.822208 0.250000 0.197849
O O6 0.892508 0.014589 0.288383
O O7 0.776848 0.008908 0.476923
O O8 0.807697 0.981993 0.959994
O O9 0.371211 0.750000 0.900151
O O10 0.305808 0.509173 0.092676
O O11 0.035778 0.750000 0.728973
O O12 0.000000 0.500000 0.500000
O O13 0.000000 0.500000 0.000000
O O14 0.750875 0.750000 0.745879
#
# Coordination Sequence:
#
# PCOD9167493 Si02
#       5
#     4   4   4   4   4
#     4  12  25  44  67  96 130 167 211 260 311 370
#     4  11  24  43  64  91 126 167 208 255 312 375
#     4  12  25  44  67  94 128 169 210 257 314 373
#     4  11  24  41  64  92 126 164 208 257 312 371
#     4  12  25  42  65  95 126 163 209 261 312 369
#
# _framework density 21.266524
#
# number of rings (size 3 to 8) (size 9 to 14) (size 15 to 20)
#    0.000    0.400    0.000    9.600    0.000    8.000 
#    0.000    0.000    0.000    0.000    0.000    0.000 
#    0.000    0.000    0.000    0.000    0.000    0.000 
#
# Total GULP energy -112106.036858 kJ/mol
# GULP energy per Si atom -5605.301843 kJ/mol
# Density = 2.121812 g / cm^3
# Si number density = 21.266524 Si / 1000 Ang^3
#
#
#
# Elastic Constant Matrix: (Units=GPa)
#
#
# Indices 1 2 3 4 5 6 
#
# 1 68.6079 5.2249 -20.4505 0.0000 1.0398 0.0000
# 2 5.2249 85.2345 -16.0393 0.0000 -0.4054 0.0000
# 3 -20.4505 -16.0393 75.7563 0.0000 1.0353 0.0000
# 4 0.0000 0.0000 0.0000 41.5048 0.0000 2.5050
# 5 1.0398 -0.4054 1.0353 0.0000 44.3443 0.0000
# 6 0.0000 0.0000 0.0000 2.5050 0.0000 38.5588
#
#
#
# Elastic Compliance Matrix: (Units=1/GPa)
#
#
# Indices 1 2 3 4 5 6 
#
# 1 0.015863 -0.000175 0.004252 0.000000 -0.000473 0.000000
# 2 -0.000175 0.012221 0.002540 0.000000 0.000057 0.000000
# 3 0.004252 0.002540 0.014891 0.000000 -0.000424 0.000000
# 4 0.000000 0.000000 0.000000 0.024188 0.000000 -0.001571
# 5 -0.000473 0.000057 -0.000424 0.000000 0.022572 0.000000
# 6 0.000000 0.000000 0.000000 -0.001571 0.000000 0.026036
#
#
# Mechanical properties :
#
#
# Convention : Reuss Voigt Hill
#
# Bulk Modulus (GPa) = 17.79049 18.56323 18.17686
# Shear Modulus (GPa) = 41.22819 42.27249 41.75034
#
# Velocity S-wave (km/s) = 4.40778 4.46325 4.43560
# Velocity P-wave (km/s) = 5.85562 5.94211 5.89902
#
# Compressibility (1/GPa) = 0.05620981
#
# Stress axis : x y z
#
# Youngs Moduli (GPa) = 63.03816 81.82495 67.15246
#
# Poissons Ratio (x) = 0.01428 -0.28552
# Poissons Ratio (y) = 0.01101 -0.17054
# Poissons Ratio (z) = -0.26803 -0.20780
#
# Static dielectric constant tensor:
#      x y z
#    x 1.793640 0.000000 -0.001790 
#    y 0.000000 1.692770 0.000000 
#    z -0.001790 0.000000 1.713460 
# 
# From -- ./inp_files/8496.got.cif
#   From: 2010.05.17/outbox.cif.g08.bks.cpg/sg11_5_cif.got.tgz:8496.got - 2010.06.03 12:22:45.
