data_PCOD9167503
_publ_section_title
;
Structure prediction by ZEFSAII (Michael W. Deem and Ramdas Pophale) SiO2 
 PCOD9167503
Probable space group: P 21/M
;
_chemical_formula_sum "Si O2"
_cell_formula_units_Z 28
_cell_length_a 11.782761
_cell_length_b 19.866235
_cell_length_c 11.507268
_cell_angle_alpha 90.000000
_cell_angle_beta 154.971467
_cell_angle_gamma 90.000000
_cell_volume 1139.584751
_symmetry_space_group_name_H-M "P 21/M"
_symmetry_group_IT_number 11
_symmetry_cell_setting 'monoclinic'
loop_
_space_group_symop_operation_xyz
x,y,z
-x,1/2+y,-z
-x,-y,-z
x,1/2-y,z
loop_
_atom_site_type_symbol
_atom_site_label
_atom_site_fract_x
_atom_site_fract_y
_atom_site_fract_z
Si Si1 0.229860 0.250000 0.500569
Si Si2 0.035253 0.389843 0.047474
Si Si3 0.829350 0.553894 0.274101
Si Si4 0.490816 0.634262 0.116240
Si Si5 0.394638 0.075417 0.165310
Si Si6 0.487273 0.939119 0.347062
Si Si7 0.798228 0.250000 0.907946
Si Si8 0.232661 0.826956 0.641658
O O1 0.279153 0.185040 0.625933
O O2 0.952427 0.250000 0.175079
O O3 0.480426 0.250000 0.640488
O O4 0.193872 0.395294 0.074170
O O5 0.260535 0.404952 0.354986
O O6 0.901921 0.316358 0.939052
O O7 0.781060 0.439813 0.823576
O O8 0.582117 0.569414 0.127995
O O9 0.000000 0.500000 0.500000
O O10 0.974007 0.626096 0.397820
O O11 0.766365 0.536742 0.084739
O O12 0.391372 0.605004 0.146494
O O13 0.326270 0.671772 0.863387
O O14 0.561438 0.132969 0.252574
O O15 0.560981 0.014809 0.377905
O O16 0.194300 0.750000 0.569669
#
# Coordination Sequence:
#
# PCOD9167503 Si02
#       8
#     2   4   4   4   4   4   2   4
#     4  12  24  42  71 104 149 182 240 302 362 430
#     4  12  27  46  75 108 148 191 244 302 368 443
#     4  11  26  46  75 105 144 195 249 305 367 435
#     4  11  24  42  72 105 143 182 244 303 367 421
#     4  11  28  47  71 102 148 191 245 298 366 442
#     4  12  26  47  77 110 142 190 245 308 367 431
#     4  12  24  46  67 112 143 196 238 298 374 434
#     4  11  26  45  70 104 145 196 245 299 369 443
#
# _framework density 24.570353000000001
#
# number of rings (size 3 to 8) (size 9 to 14) (size 15 to 20)
#    0.000    0.571    3.571    2.571   12.000    2.857 
#    0.000    0.000    0.000    0.000    0.000    0.000 
#    0.000    0.000    0.000    0.000    0.000    0.000 
#
# Total GULP energy -156764.947901 kJ/mol
# GULP energy per Si atom -5598.748139 kJ/mol
# Density = 2.451443 g / cm^3
# Si number density = 24.570353 Si / 1000 Ang^3
#
#
#
# Elastic Constant Matrix: (Units=GPa)
#
#
# Indices 1 2 3 4 5 6 
#
# 1 154.3998 44.8104 29.2422 0.0000 -4.8344 0.0000
# 2 44.8104 144.4968 20.6569 0.0000 -2.6654 0.0000
# 3 29.2422 20.6569 69.6307 0.0000 -2.4736 0.0000
# 4 0.0000 0.0000 0.0000 30.7024 0.0000 4.3108
# 5 -4.8344 -2.6654 -2.4736 0.0000 35.6105 0.0000
# 6 0.0000 0.0000 0.0000 4.3108 0.0000 40.0956
#
#
#
# Elastic Compliance Matrix: (Units=1/GPa)
#
#
# Indices 1 2 3 4 5 6 
#
# 1 0.007554 -0.001963 -0.002565 0.000000 0.000700 0.000000
# 2 -0.001963 0.007743 -0.001465 0.000000 0.000211 0.000000
# 3 -0.002565 -0.001465 0.015896 0.000000 0.000646 0.000000
# 4 0.000000 0.000000 0.000000 0.033070 0.000000 -0.003555
# 5 0.000700 0.000211 0.000646 0.000000 0.028237 0.000000
# 6 0.000000 0.000000 0.000000 -0.003555 0.000000 0.025323
#
#
# Mechanical properties :
#
#
# Convention : Reuss Voigt Hill
#
# Bulk Modulus (GPa) = 52.06549 61.99404 57.02977
# Shear Modulus (GPa) = 36.70749 39.53623 38.12186
#
# Velocity S-wave (km/s) = 3.86939 4.01571 3.94323
# Velocity P-wave (km/s) = 6.41867 6.84012 6.63274
#
# Compressibility (1/GPa) = 0.01920658
#
# Stress axis : x y z
#
# Youngs Moduli (GPa) = 132.37727 129.15449 62.90747
#
# Poissons Ratio (x) = 0.25353 0.16137
# Poissons Ratio (y) = 0.25986 0.09216
# Poissons Ratio (z) = 0.33958 0.18922
#
# Static dielectric constant tensor:
#      x y z
#    x 1.651870 0.000000 -0.259190 
#    y 0.000000 1.800820 0.000000 
#    z -0.259190 0.000000 1.695870 
# 
# From -- ./inp_files/36428.got.cif
#   From: 2010.05.17/outbox.cif.g08.bks.cpg/sg11_19_cif.got.tgz:36428.got - 2010.06.03 12:22:45.
