data_PCOD9167425
_publ_section_title
;
Structure prediction by ZEFSAII (Michael W. Deem and Ramdas Pophale) SiO2 
 PCOD9167425
Probable space group: P 21/M
;
_chemical_formula_sum "Si O2"
_cell_formula_units_Z 28
_cell_length_a 26.665729
_cell_length_b 8.897711
_cell_length_c 9.727399
_cell_angle_alpha 90.000000
_cell_angle_beta 38.755704
_cell_angle_gamma 90.000000
_cell_volume 1444.786217
_symmetry_space_group_name_H-M "P 21/M"
_symmetry_group_IT_number 11
_symmetry_cell_setting 'monoclinic'
loop_
_space_group_symop_operation_xyz
x,y,z
-x,1/2+y,-z
-x,-y,-z
x,1/2-y,z
loop_
_atom_site_type_symbol
_atom_site_label
_atom_site_fract_x
_atom_site_fract_y
_atom_site_fract_z
Si Si1 0.480931 0.928200 0.186759
Si Si2 0.975876 0.428950 0.905419
Si Si3 0.426141 0.071018 0.742068
Si Si4 0.688660 0.571458 0.404872
Si Si5 0.195986 0.570366 0.638393
Si Si6 0.736280 0.069529 0.025578
Si Si7 0.871605 0.430136 0.518737
O O1 0.467743 0.750000 0.201863
O O2 0.551527 0.951274 0.145946
O O3 0.400245 0.004204 0.415078
O O4 0.500000 0.000000 0.000000
O O5 0.984608 0.250000 0.892814
O O6 0.040821 0.495606 0.662560
O O7 0.000000 0.500000 0.000000
O O8 0.881375 0.461225 0.099062
O O9 0.421630 0.250000 0.724222
O O10 0.500000 0.000000 0.500000
O O11 0.343881 0.992223 0.875863
O O12 0.686113 0.750000 0.403288
O O13 0.729349 0.516678 0.458941
O O14 0.737715 0.503356 0.172586
O O15 0.210756 0.750000 0.608963
O O16 0.170882 0.528583 0.536243
O O17 0.731568 0.250000 0.047171
O O18 0.812795 0.030689 0.768663
O O19 0.881832 0.250000 0.492969
#
# Coordination Sequence:
#
# PCOD9167425 Si02
#       7
#     4   4   4   4   4   4   4
#     4  11  25  43  63  88 119 153 193 241 292 345
#     4   9  17  32  57  86 117 152 190 235 288 342
#     4  11  23  40  63  88 115 154 198 238 288 346
#     4  12  25  40  59  86 118 156 197 240 293 348
#     4   9  19  37  59  86 118 153 191 238 293 345
#     4  11  23  40  61  86 118 157 196 241 293 346
#     4   9  20  37  60  89 117 150 193 239 290 344
#
# _framework density 19.380030000000001
#
# number of rings (size 3 to 8) (size 9 to 14) (size 15 to 20)
#    0.000    1.714    1.429    3.857    2.000    5.714 
#    0.000    0.714    0.000    0.000    0.000    0.000 
#    0.000    0.000    0.000    0.000    0.000    0.000 
#
# Total GULP energy -156396.108103 kJ/mol
# GULP energy per Si atom -5585.575289 kJ/mol
# Density = 1.933592 g / cm^3
# Si number density = 19.380030 Si / 1000 Ang^3
#
#
#
# Elastic Constant Matrix: (Units=GPa)
#
#
# Indices 1 2 3 4 5 6 
#
# 1 34.9332 13.7034 -10.5243 0.0000 7.9548 0.0000
# 2 13.7034 54.5098 14.5208 0.0000 8.4999 0.0000
# 3 -10.5243 14.5208 77.6344 0.0000 13.7424 0.0000
# 4 0.0000 0.0000 0.0000 32.9962 0.0000 -1.9097
# 5 7.9548 8.4999 13.7424 0.0000 25.3934 0.0000
# 6 0.0000 0.0000 0.0000 -1.9097 0.0000 28.1829
#
#
#
# Elastic Compliance Matrix: (Units=1/GPa)
#
#
# Indices 1 2 3 4 5 6 
#
# 1 0.038647 -0.010101 0.009592 0.000000 -0.013916 0.000000
# 2 -0.010101 0.022535 -0.005319 0.000000 -0.001501 0.000000
# 3 0.009592 -0.005319 0.017024 0.000000 -0.010437 0.000000
# 4 0.000000 0.000000 0.000000 0.030426 0.000000 0.002062
# 5 -0.013916 -0.001501 -0.010437 0.000000 0.049891 0.000000
# 6 0.000000 0.000000 0.000000 0.002062 0.000000 0.035622
#
#
# Mechanical properties :
#
#
# Convention : Reuss Voigt Hill
#
# Bulk Modulus (GPa) = 15.02616 22.49748 18.76182
# Shear Modulus (GPa) = 21.93142 27.27298 24.60220
#
# Velocity S-wave (km/s) = 3.36765 3.75543 3.56682
# Velocity P-wave (km/s) = 4.78453 5.51708 5.16381
#
# Compressibility (1/GPa) = 0.06655061
#
# Stress axis : x y z
#
# Youngs Moduli (GPa) = 25.87526 44.37454 58.74229
#
# Poissons Ratio (x) = 0.44821 -0.56344
# Poissons Ratio (y) = 0.26136 0.31243
# Poissons Ratio (z) = -0.24819 0.23601
#
# Static dielectric constant tensor:
#      x y z
#    x 1.586150 0.000000 0.031410 
#    y 0.000000 1.643260 0.000000 
#    z 0.031410 0.000000 1.667060 
# 
# From -- ./inp_files/28402.got.cif
#   From: 2010.05.17/outbox.cif.g08.bks.cpg/sg11_15_cif.got.tgz:28402.got - 2010.06.03 12:22:45.
