data_PCOD9167849
_publ_section_title
;
Structure prediction by ZEFSAII (Michael W. Deem and Ramdas Pophale) SiO2 
 PCOD9167849
Probable space group: P 21/M
;
_chemical_formula_sum "Si O2"
_cell_formula_units_Z 28
_cell_length_a 18.000000
_cell_length_b 9.000000
_cell_length_c 15.000000
_cell_angle_alpha 90.000000
_cell_angle_beta 40.000000
_cell_angle_gamma 90.000000
_cell_volume 1561.973892
_symmetry_space_group_name_H-M "P 21/M"
_symmetry_group_IT_number 11
_symmetry_cell_setting 'monoclinic'
loop_
_space_group_symop_operation_xyz
x,y,z
-x,1/2+y,-z
-x,-y,-z
x,1/2-y,z
loop_
_atom_site_type_symbol
_atom_site_label
_atom_site_fract_x
_atom_site_fract_y
_atom_site_fract_z
Si Si1 0.148194 0.572165 0.101034
Si Si2 0.960893 0.418617 0.156408
Si Si3 0.182344 0.586723 0.527099
Si Si4 0.245562 0.073086 0.740448
Si Si5 0.635118 0.073842 0.201196
Si Si6 0.608912 0.424495 0.550792
Si Si7 0.998085 0.423304 0.596408
O O1 0.127433 0.750000 0.112305
O O2 0.096785 0.522746 0.243606
O O3 0.076030 0.490965 0.089831
O O4 0.282874 0.545699 0.959399
O O5 0.976990 0.250000 0.108593
O O6 0.880829 0.408758 0.318906
O O7 0.884795 0.520454 0.161645
O O8 0.165029 0.750000 0.501052
O O9 0.314468 0.563247 0.430542
O O10 0.120775 0.459980 0.528708
O O11 0.251373 0.250000 0.747607
O O12 0.292123 0.981998 0.781207
O O13 0.328995 0.022519 0.582283
O O14 0.613247 0.250000 0.227703
O O15 0.517613 0.983186 0.313327
O O16 0.609555 0.250000 0.523057
O O17 0.980188 0.250000 0.601317
O O18 0.000000 0.500000 0.500000
#
# Coordination Sequence:
#
# PCOD9167849 Si02
#       7
#     4   4   4   4   4   4   4
#     4   9  20  36  52  73 102 135 168 203 251 308
#     4   9  17  31  51  73  99 131 168 212 257 299
#     4   8  16  31  51  75 101 128 160 201 247 293
#     4  11  21  33  50  72  99 134 177 219 256 294
#     4  11  22  35  50  70 100 137 175 214 253 295
#     4  10  20  35  53  74 101 134 174 215 253 293
#     4  10  19  33  56  83 106 127 156 197 246 301
#
# _framework density 17.926036
#
# number of rings (size 3 to 8) (size 9 to 14) (size 15 to 20)
#    0.000    2.286    0.000    4.286    0.000    6.286 
#    0.000    0.000    0.000    0.857    0.000    0.000 
#    0.000    0.000    0.000    0.000    0.000    0.000 
#
# Total GULP energy -156150.816677 kJ/mol
# GULP energy per Si atom -5576.814881 kJ/mol
# Density = 1.788524 g / cm^3
# Si number density = 17.926036 Si / 1000 Ang^3
#
#
#
# Elastic Constant Matrix: (Units=GPa)
#
#
# Indices 1 2 3 4 5 6 
#
# 1 36.9743 3.3124 30.1519 0.0000 0.4427 0.0000
# 2 3.3124 28.5068 8.1516 0.0000 4.2969 0.0000
# 3 30.1519 8.1516 71.9723 0.0000 -10.3592 0.0000
# 4 0.0000 0.0000 0.0000 19.7047 0.0000 -1.6221
# 5 0.4427 4.2969 -10.3592 0.0000 22.6969 0.0000
# 6 0.0000 0.0000 0.0000 -1.6221 0.0000 29.1031
#
#
#
# Elastic Compliance Matrix: (Units=1/GPa)
#
#
# Indices 1 2 3 4 5 6 
#
# 1 0.043111 0.002201 -0.019792 0.000000 -0.010291 0.000000
# 2 0.002201 0.038320 -0.006757 0.000000 -0.010381 0.000000
# 3 -0.019792 -0.006757 0.024821 0.000000 0.012994 0.000000
# 4 0.000000 0.000000 0.000000 0.050983 0.000000 0.002842
# 5 -0.010291 -0.010381 0.012994 0.000000 0.052156 0.000000
# 6 0.000000 0.000000 0.000000 0.002842 0.000000 0.034519
#
#
# Mechanical properties :
#
#
# Convention : Reuss Voigt Hill
#
# Bulk Modulus (GPa) = 17.37340 24.52059 20.94700
# Shear Modulus (GPa) = 16.03637 20.69010 18.36323
#
# Velocity S-wave (km/s) = 2.99421 3.40103 3.20408
# Velocity P-wave (km/s) = 4.65472 5.39732 5.03972
#
# Compressibility (1/GPa) = 0.05755926
#
# Stress axis : x y z
#
# Youngs Moduli (GPa) = 23.19570 26.09570 40.28818
#
# Poissons Ratio (x) = -0.05744 0.79736
# Poissons Ratio (y) = -0.05106 0.27221
# Poissons Ratio (z) = 0.45908 0.17632
#
# Static dielectric constant tensor:
#      x y z
#    x 1.617980 0.000000 -0.005280 
#    y 0.000000 1.605850 0.000000 
#    z -0.005280 0.000000 1.649170 
# 
# From -- ./inp_files/37148.got.cif
#   From: 2010.05.17/outbox.ucp.g08.bks.cvg/sg11_19_cif.got.tgz:37148.got - 2010.06.11 11:38:39.
