data_PCOD9167818
_publ_section_title
;
Structure prediction by ZEFSAII (Michael W. Deem and Ramdas Pophale) SiO2 
 PCOD9167818
Probable space group: P 21/M
;
_chemical_formula_sum "Si O2"
_cell_formula_units_Z 28
_cell_length_a 27.000000
_cell_length_b 9.000000
_cell_length_c 9.000000
_cell_angle_alpha 90.000000
_cell_angle_beta 140.000000
_cell_angle_gamma 90.000000
_cell_volume 1405.776502
_symmetry_space_group_name_H-M "P 21/M"
_symmetry_group_IT_number 11
_symmetry_cell_setting 'monoclinic'
loop_
_space_group_symop_operation_xyz
x,y,z
-x,1/2+y,-z
-x,-y,-z
x,1/2-y,z
loop_
_atom_site_type_symbol
_atom_site_label
_atom_site_fract_x
_atom_site_fract_y
_atom_site_fract_z
Si Si1 0.607091 0.079592 0.155006
Si Si2 0.234022 0.421163 0.508900
Si Si3 0.924375 0.415435 0.370146
Si Si4 0.213447 0.574189 0.752410
Si Si5 0.328611 0.428728 0.225679
Si Si6 0.530395 0.077920 0.307951
Si Si7 0.792910 0.418763 0.831007
O O1 0.628713 0.250000 0.168496
O O2 0.570807 0.079919 0.237163
O O3 0.677680 0.966397 0.318359
O O4 0.545770 0.017325 0.896523
O O5 0.226199 0.250000 0.533644
O O6 0.206158 0.538076 0.565371
O O7 0.191687 0.464370 0.261751
O O8 0.944843 0.250000 0.469537
O O9 0.864843 0.483235 0.351435
O O10 0.000000 0.500000 0.500000
O O11 0.869336 0.404814 0.101793
O O12 0.222016 0.750000 0.806829
O O13 0.287556 0.484003 0.981114
O O14 0.327965 0.250000 0.237540
O O15 0.412636 0.496194 0.447494
O O16 0.274003 0.510020 0.221678
O O17 0.515787 0.250000 0.315426
O O18 0.769787 0.250000 0.731038
#
# Coordination Sequence:
#
# PCOD9167818 Si02
#       7
#     4   4   4   4   4   4   4
#     4  10  20  33  52  77 111 150 187 234 286 333
#     4  12  23  36  56  85 115 147 189 236 282 331
#     4   9  20  38  63  89 114 144 182 225 272 328
#     4  10  22  40  59  81 114 153 186 224 280 339
#     4  11  20  33  55  83 111 144 191 240 280 328
#     4  10  19  32  52  78 110 147 191 237 283 331
#     4  10  20  36  57  83 113 151 189 225 274 332
#
# _framework density 19.917818
#
# number of rings (size 3 to 8) (size 9 to 14) (size 15 to 20)
#    0.000    1.714    1.429    5.143    0.000    4.571 
#    0.000    1.429    0.000    0.000    0.000    0.000 
#    0.000    0.000    0.000    0.000    0.000    0.000 
#
# Total GULP energy -156165.487075 kJ/mol
# GULP energy per Si atom -5577.338824 kJ/mol
# Density = 1.987248 g / cm^3
# Si number density = 19.917818 Si / 1000 Ang^3
#
#
#
# Elastic Constant Matrix: (Units=GPa)
#
#
# Indices 1 2 3 4 5 6 
#
# 1 15.2951 -6.7629 17.4753 0.0000 -1.5724 0.0000
# 2 -6.7629 96.8248 6.0472 0.0000 11.7432 0.0000
# 3 17.4753 6.0472 21.2039 0.0000 2.3536 0.0000
# 4 0.0000 0.0000 0.0000 19.6594 0.0000 -7.4137
# 5 -1.5724 11.7432 2.3536 0.0000 9.4432 0.0000
# 6 0.0000 0.0000 0.0000 -7.4137 0.0000 14.2695
#
#
#
# Elastic Compliance Matrix: (Units=1/GPa)
#
#
# Indices 1 2 3 4 5 6 
#
# 1 -0.876574 -0.080545 0.771840 0.000000 -0.238173 0.000000
# 2 -0.080545 0.004832 0.069070 0.000000 -0.036635 0.000000
# 3 0.771840 0.069070 -0.630836 0.000000 0.199859 0.000000
# 4 0.000000 0.000000 0.000000 0.063261 0.000000 0.032867
# 5 -0.238173 -0.036635 0.199859 0.000000 0.061982 0.000000
# 6 0.000000 0.000000 0.000000 0.032867 0.000000 0.087155
#
#
# Mechanical properties :
#
#
# Convention : Reuss Voigt Hill
#
# Bulk Modulus (GPa) = 55.09265 18.53812 36.81538
# Shear Modulus (GPa) = -1.78262 16.44538 7.33138
#
# Velocity S-wave (km/s) = -0.94706 2.87655 1.92063
# Velocity P-wave (km/s) = 5.15016 4.51223 4.84171
#
# Compressibility (1/GPa) = 0.01815124
#
# Stress axis : x y z
#
# Youngs Moduli (GPa) = -1.14080 206.96993 -1.58520
#
# Poissons Ratio (x) = 16.67034 1.22352
# Poissons Ratio (y) = -0.09189 0.10949
# Poissons Ratio (z) = 0.88052 -14.29538
#
# Static dielectric constant tensor:
#      x y z
#    x 1.735310 0.000000 -0.021360 
#    y 0.000000 1.679920 0.000000 
#    z -0.021360 0.000000 1.722140 
# 
# From -- ./inp_files/28020.got.cif
#   From: 2010.05.17/outbox.ucp.g08.bks.cvg/sg11_15_cif.got.tgz:28020.got - 2010.06.11 11:38:39.
