data_PCOD9167620
_publ_section_title
;
Structure prediction by ZEFSAII (Michael W. Deem and Ramdas Pophale) SiO2 
 PCOD9167620
Probable space group: P 21/M
;
_chemical_formula_sum "Si O2"
_cell_formula_units_Z 28
_cell_length_a 10.114713
_cell_length_b 7.386857
_cell_length_c 22.750912
_cell_angle_alpha 90.000000
_cell_angle_beta 125.187318
_cell_angle_gamma 90.000000
_cell_volume 1389.245297
_symmetry_space_group_name_H-M "P 21/M"
_symmetry_group_IT_number 11
_symmetry_cell_setting 'monoclinic'
loop_
_space_group_symop_operation_xyz
x,y,z
-x,1/2+y,-z
-x,-y,-z
x,1/2-y,z
loop_
_atom_site_type_symbol
_atom_site_label
_atom_site_fract_x
_atom_site_fract_y
_atom_site_fract_z
Si Si1 0.621111 0.034161 0.584033
Si Si2 0.020679 0.529859 0.309218
Si Si3 0.567156 0.471137 0.701883
Si Si4 0.071242 0.530171 0.187012
Si Si5 0.534048 0.962692 0.102290
Si Si6 0.674922 0.528395 0.261353
Si Si7 0.751617 0.968216 0.049076
O O1 0.634182 0.250000 0.593068
O O2 0.805307 0.968353 0.622123
O O3 0.560333 0.968876 0.632263
O O4 0.500000 0.000000 0.500000
O O5 0.018170 0.750000 0.309757
O O6 0.015552 0.479572 0.238863
O O7 0.860642 0.469722 0.301951
O O8 0.565854 0.250000 0.701602
O O9 0.743046 0.527179 0.771994
O O10 0.421827 0.531615 0.706045
O O11 0.072973 0.750000 0.186157
O O12 0.935134 0.469748 0.106190
O O13 0.571216 0.750000 0.113874
O O14 0.581349 0.031830 0.178317
O O15 0.645373 0.035935 0.077690
O O16 0.349041 0.982206 0.034491
O O17 0.674266 0.750000 0.262292
O O18 0.752218 0.750000 0.051004
#
# Coordination Sequence:
#
# PCOD9167620 Si02
#       7
#     4   4   4   4   4   4   4
#     4   9  17  30  48  68  88 109 134 166 204 248
#     4   8  13  23  42  63  81 107 142 172 199 239
#     4   8  15  25  42  65  85 106 137 177 210 237
#     4   8  12  22  38  57  78 106 145 178 203 238
#     4   9  16  24  38  60  83 107 137 177 213 240
#     4   9  14  24  41  63  86 107 139 180 211 235
#     4   9  15  24  39  58  81 110 141 173 208 246
#
# _framework density 20.154828999999999
#
# number of rings (size 3 to 8) (size 9 to 14) (size 15 to 20)
#    0.000    3.429    1.429    1.714    0.000    0.000 
#    0.000    1.429    0.000    5.143    0.000    0.000 
#    0.000    0.000    0.000    0.000    0.000    0.000 
#
# Total GULP energy -156059.905715 kJ/mol
# GULP energy per Si atom -5573.568061 kJ/mol
# Density = 2.010896 g / cm^3
# Si number density = 20.154829 Si / 1000 Ang^3
#
#
#
# Elastic Constant Matrix: (Units=GPa)
#
#
# Indices 1 2 3 4 5 6 
#
# 1 167.4063 4.9558 86.9587 0.0000 15.3509 0.0000
# 2 4.9558 65.7200 -2.7023 0.0000 -2.8672 0.0000
# 3 86.9587 -2.7023 159.0853 0.0000 18.3720 0.0000
# 4 0.0000 0.0000 0.0000 17.0845 0.0000 3.3303
# 5 15.3509 -2.8672 18.3720 0.0000 19.4305 0.0000
# 6 0.0000 0.0000 0.0000 3.3303 0.0000 -6.3014
#
#
#
# Elastic Compliance Matrix: (Units=1/GPa)
#
#
# Indices 1 2 3 4 5 6 
#
# 1 0.008514 -0.000941 -0.004353 0.000000 -0.002750 0.000000
# 2 -0.000941 0.015419 0.000480 0.000000 0.002565 0.000000
# 3 -0.004353 0.000480 0.009281 0.000000 -0.005266 0.000000
# 4 0.000000 0.000000 0.000000 0.053066 0.000000 0.028045
# 5 -0.002750 0.002565 -0.005266 0.000000 0.058996 0.000000
# 6 0.000000 0.000000 0.000000 0.028045 0.000000 -0.143873
#
#
# Mechanical properties :
#
#
# Convention : Reuss Voigt Hill
#
# Bulk Modulus (GPa) = 42.39502 63.40400 52.89951
# Shear Modulus (GPa) = 264.65249 26.24269 145.44759
#
# Velocity S-wave (km/s) = 11.47148 3.61231 8.50422
# Velocity P-wave (km/s) = 14.01927 6.99465 11.07848
#
# Compressibility (1/GPa) = 0.02358768
#
# Stress axis : x y z
#
# Youngs Moduli (GPa) = 117.44762 64.85648 107.74207
#
# Poissons Ratio (x) = 0.06103 0.46895
# Poissons Ratio (y) = 0.11052 -0.05173
# Poissons Ratio (z) = 0.51119 -0.03114
#
# Static dielectric constant tensor:
#      x y z
#    x 1.700500 0.000000 0.024500 
#    y 0.000000 1.785780 0.000000 
#    z 0.024500 0.000000 1.708600 
# 
# From -- ./inp_files/26265.got.cif
#   From: 2010.05.17/outbox.cif.g08.bks.cpg/sg11_14_cif.got.tgz:26265.got - 2010.06.03 12:22:45.
