data_PCOD9167805
_publ_section_title
;
Structure prediction by ZEFSAII (Michael W. Deem and Ramdas Pophale) SiO2 
 PCOD9167805
Probable space group: P 21/M
;
_chemical_formula_sum "Si O2"
_cell_formula_units_Z 32
_cell_length_a 12.000000
_cell_length_b 9.000000
_cell_length_c 30.000000
_cell_angle_alpha 90.000000
_cell_angle_beta 30.000000
_cell_angle_gamma 90.000000
_cell_volume 1620.000000
_symmetry_space_group_name_H-M "P 21/M"
_symmetry_group_IT_number 11
_symmetry_cell_setting 'monoclinic'
loop_
_space_group_symop_operation_xyz
x,y,z
-x,1/2+y,-z
-x,-y,-z
x,1/2-y,z
loop_
_atom_site_type_symbol
_atom_site_label
_atom_site_fract_x
_atom_site_fract_y
_atom_site_fract_z
Si Si1 0.023019 0.926950 0.638230
Si Si2 0.952560 0.429108 0.273077
Si Si3 0.977607 0.070349 0.166516
Si Si4 0.329035 0.919619 0.868229
Si Si5 0.550320 0.572471 0.646632
Si Si6 0.530398 0.074215 0.562280
Si Si7 0.301021 0.575427 0.316911
Si Si8 0.154944 0.077809 0.011770
O O1 0.983007 0.750000 0.645814
O O2 0.943147 0.970442 0.715525
O O3 0.286558 0.950417 0.539253
O O4 0.901288 0.021798 0.643309
O O5 0.944864 0.250000 0.274633
O O6 0.048021 0.478854 0.191985
O O7 0.701067 0.489002 0.362838
O O8 0.991495 0.250000 0.160076
O O9 0.713367 0.035772 0.253848
O O10 0.115349 0.018956 0.075706
O O11 0.414698 0.750000 0.837236
O O12 0.088904 0.919071 0.927151
O O13 0.484492 0.028239 0.786465
O O14 0.300826 0.977395 0.928382
O O15 0.566401 0.750000 0.635540
O O16 0.623370 0.487782 0.576887
O O17 0.684747 0.515719 0.642380
O O18 0.488464 0.250000 0.580004
O O19 0.296737 0.750000 0.327218
O O20 0.233554 0.250000 0.985605
#
# Coordination Sequence:
#
# PCOD9167805 Si02
#       8
#     4   4   4   4   4   4   4   4
#     4  10  22  38  54  74 104 143 183 218 262 317
#     4   9  18  34  57  80 103 139 180 219 264 312
#     4   8  14  28  52  79 104 131 167 211 259 305
#     4  10  19  32  50  75 108 142 171 206 256 314
#     4  10  19  35  55  76 105 141 175 212 264 319
#     4  10  20  34  54  81 108 134 171 224 271 310
#     4  12  24  36  53  76 105 140 178 219 265 317
#     4   9  16  29  50  78 108 136 169 208 254 308
#
# _framework density 19.753086
#
# number of rings (size 3 to 8) (size 9 to 14) (size 15 to 20)
#    0.000    2.250    1.250    3.375    0.000    2.500 
#    0.000    0.625    0.000    0.750    0.000    0.000 
#    0.000    0.000    0.000    0.000    0.000    0.000 
#
# Total GULP energy -178504.478764 kJ/mol
# GULP energy per Si atom -5578.264961 kJ/mol
# Density = 1.970813 g / cm^3
# Si number density = 19.753086 Si / 1000 Ang^3
#
#
#
# Elastic Constant Matrix: (Units=GPa)
#
#
# Indices 1 2 3 4 5 6 
#
# 1 55.5006 -16.3036 14.1866 0.0000 33.2713 0.0000
# 2 -16.3036 -22.8256 -9.1456 0.0000 3.5490 0.0000
# 3 14.1866 -9.1456 23.2159 0.0000 24.1707 0.0000
# 4 0.0000 0.0000 0.0000 22.5968 0.0000 4.1232
# 5 33.2713 3.5490 24.1707 0.0000 36.7800 0.0000
# 6 0.0000 0.0000 0.0000 4.1232 0.0000 11.8385
#
#
#
# Elastic Compliance Matrix: (Units=1/GPa)
#
#
# Indices 1 2 3 4 5 6 
#
# 1 0.024076 -0.018456 -0.003679 0.000000 -0.017580 0.000000
# 2 -0.018456 -0.010161 -0.035236 0.000000 0.040832 0.000000
# 3 -0.003679 -0.035236 0.077379 0.000000 -0.044123 0.000000
# 4 0.000000 0.000000 0.000000 0.047257 0.000000 -0.016459
# 5 -0.017580 0.040832 -0.044123 0.000000 0.068148 0.000000
# 6 0.000000 0.000000 0.000000 -0.016459 0.000000 0.090203
#
#
# Mechanical properties :
#
#
# Convention : Reuss Voigt Hill
#
# Bulk Modulus (GPa) = -42.64589 3.70730 -19.46929
# Shear Modulus (GPa) = 12.38152 18.71995 15.55074
#
# Velocity S-wave (km/s) = 2.50634 3.08181 2.80885
# Velocity P-wave (km/s) = 3.64152 3.81370 0.80113
#
# Compressibility (1/GPa) = -0.02344892
#
# Stress axis : x y z
#
# Youngs Moduli (GPa) = 41.53568 -98.41394 12.92343
#
# Poissons Ratio (x) = -1.81631 0.04755
# Poissons Ratio (y) = 0.76657 0.45537
# Poissons Ratio (z) = 0.15282 -3.46773
#
# Static dielectric constant tensor:
#      x y z
#    x 1.745410 0.000000 0.010370 
#    y 0.000000 1.649490 0.000000 
#    z 0.010370 0.000000 1.714510 
# 
# From -- ./inp_files/73103.got.cif
#   From: 2010.05.17/outbox.ucp.g08.bks.cvg/sg11_37_cif.got.tgz:73103.got - 2010.06.11 11:38:39.
