data_PCOD9167908
_publ_section_title
;
Structure prediction by ZEFSAII (Michael W. Deem and Ramdas Pophale) SiO2 
 PCOD9167908
Probable space group: P 21/M
;
_chemical_formula_sum "Si O2"
_cell_formula_units_Z 28
_cell_length_a 9.000000
_cell_length_b 9.000000
_cell_length_c 27.000000
_cell_angle_alpha 90.000000
_cell_angle_beta 140.000000
_cell_angle_gamma 90.000000
_cell_volume 1405.776502
_symmetry_space_group_name_H-M "P 21/M"
_symmetry_group_IT_number 11
_symmetry_cell_setting 'monoclinic'
loop_
_space_group_symop_operation_xyz
x,y,z
-x,1/2+y,-z
-x,-y,-z
x,1/2-y,z
loop_
_atom_site_type_symbol
_atom_site_label
_atom_site_fract_x
_atom_site_fract_y
_atom_site_fract_z
Si Si1 0.221968 0.413031 0.042646
Si Si2 0.263464 0.414666 0.937162
Si Si3 0.339837 0.078980 0.348231
Si Si4 0.532129 0.070276 0.203726
Si Si5 0.961754 0.569236 0.638682
Si Si6 0.872791 0.419223 0.512062
Si Si7 0.805005 0.929172 0.794697
O O1 0.194133 0.250000 0.057868
O O2 0.450066 0.473392 0.127802
O O3 0.216418 0.401638 0.983245
O O4 0.000000 0.500000 0.000000
O O5 0.280256 0.250000 0.919507
O O6 0.062402 0.509901 0.861911
O O7 0.500000 0.500000 0.000000
O O8 0.254058 0.250000 0.322499
O O9 0.201794 0.013211 0.358947
O O10 0.605297 0.082978 0.429521
O O11 0.305802 0.016136 0.284839
O O12 0.554352 0.250000 0.212190
O O13 0.341037 0.021225 0.194791
O O14 0.782009 0.016515 0.282497
O O15 0.950077 0.750000 0.633052
O O16 0.898648 0.505699 0.569623
O O17 0.955843 0.250000 0.538462
O O18 0.000000 0.500000 0.500000
O O19 0.805008 0.750000 0.796585
#
# Coordination Sequence:
#
# PCOD9167908 Si02
#       7
#     4   4   4   4   4   4   4
#     4  10  20  36  58  84 111 148 192 239 287 341
#     4  11  24  38  56  83 116 152 194 240 289 342
#     4   9  20  36  60  88 116 152 192 232 281 347
#     4   9  18  33  57  84 112 148 191 232 283 347
#     4  10  20  37  61  88 116 149 189 235 285 339
#     4  11  22  39  61  88 118 153 195 234 281 338
#     4  10  19  36  59  82 112 151 193 235 281 341
#
# _framework density 19.917818
#
# number of rings (size 3 to 8) (size 9 to 14) (size 15 to 20)
#    0.000    2.000    1.429    2.143    2.000    2.857 
#    0.000    5.714    0.000    0.000    0.000    0.000 
#    0.000    0.000    0.000    0.000    0.000    0.000 
#
# Total GULP energy -155899.594925 kJ/mol
# GULP energy per Si atom -5567.842676 kJ/mol
# Density = 1.987248 g / cm^3
# Si number density = 19.917818 Si / 1000 Ang^3
#
#
#
# Elastic Constant Matrix: (Units=GPa)
#
#
# Indices 1 2 3 4 5 6 
#
# 1 -56.1924 1.6530 -23.2734 0.0000 38.4013 0.0000
# 2 1.6530 22.9717 7.4631 0.0000 9.9287 0.0000
# 3 -23.2734 7.4631 82.5341 0.0000 -4.1121 0.0000
# 4 0.0000 0.0000 0.0000 16.5511 0.0000 6.9755
# 5 38.4013 9.9287 -4.1121 0.0000 17.7833 0.0000
# 6 0.0000 0.0000 0.0000 6.9755 0.0000 3.5613
#
#
#
# Elastic Compliance Matrix: (Units=1/GPa)
#
#
# Indices 1 2 3 4 5 6 
#
# 1 -0.006183 -0.006869 -0.000269 0.000000 0.017125 0.000000
# 2 -0.006869 0.053865 -0.007655 0.000000 -0.017010 0.000000
# 3 -0.000269 -0.007655 0.013126 0.000000 0.007890 0.000000
# 4 0.000000 0.000000 0.000000 0.346223 0.000000 -0.678143
# 5 0.017125 -0.017010 0.007890 0.000000 0.030574 0.000000
# 6 0.000000 0.000000 0.000000 -0.678143 0.000000 1.609069
#
#
# Mechanical properties :
#
#
# Convention : Reuss Voigt Hill
#
# Bulk Modulus (GPa) = 32.03106 2.33320 17.18213
# Shear Modulus (GPa) = 2.39617 11.81052 7.10334
#
# Velocity S-wave (km/s) = 1.09802 2.43772 1.89052
# Velocity P-wave (km/s) = 4.20999 3.01617 3.66206
#
# Compressibility (1/GPa) = 0.03121969
#
# Stress axis : x y z
#
# Youngs Moduli (GPa) = -161.72541 18.56491 76.18673
#
# Poissons Ratio (x) = 0.12753 0.02051
# Poissons Ratio (y) = -1.11095 0.58323
# Poissons Ratio (z) = -0.04354 0.14212
#
# Static dielectric constant tensor:
#      x y z
#    x 1.667260 0.000000 -0.036000 
#    y 0.000000 1.778790 0.000000 
#    z -0.036000 0.000000 1.707440 
# 
# From -- ./inp_files/28576.got.cif
#   From: 2010.05.17/outbox.ucp.g08.bks.cvg/sg11_15_cif.got.tgz:28576.got - 2010.06.11 11:38:39.
