data_PCOD9167548
_publ_section_title
;
Structure prediction by ZEFSAII (Michael W. Deem and Ramdas Pophale) SiO2 
 PCOD9167548
Probable space group: P 21/M
;
_chemical_formula_sum "Si O2"
_cell_formula_units_Z 28
_cell_length_a 8.020041
_cell_length_b 24.480542
_cell_length_c 8.680280
_cell_angle_alpha 90.000000
_cell_angle_beta 130.081331
_cell_angle_gamma 90.000000
_cell_volume 1303.969056
_symmetry_space_group_name_H-M "P 21/M"
_symmetry_group_IT_number 11
_symmetry_cell_setting 'monoclinic'
loop_
_space_group_symop_operation_xyz
x,y,z
-x,1/2+y,-z
-x,-y,-z
x,1/2-y,z
loop_
_atom_site_type_symbol
_atom_site_label
_atom_site_fract_x
_atom_site_fract_y
_atom_site_fract_z
Si Si1 0.975759 0.856641 0.653222
Si Si2 0.393287 0.686905 0.736399
Si Si3 0.755907 0.897955 0.002230
Si Si4 0.189546 0.457015 0.644294
Si Si5 0.822300 0.388627 0.905698
Si Si6 0.485130 0.188183 0.550118
Si Si7 0.606692 0.500931 0.731588
O O1 0.863834 0.906706 0.498711
O O2 0.774577 0.820139 0.592223
O O3 0.149054 0.827812 0.643546
O O4 0.111608 0.878249 0.879892
O O5 0.438674 0.750000 0.803222
O O6 0.562800 0.644840 0.914206
O O7 0.434589 0.680303 0.577899
O O8 0.692392 0.939503 0.826651
O O9 0.801586 0.934455 0.178211
O O10 0.977170 0.869043 0.080785
O O11 0.417136 0.484961 0.737971
O O12 0.000000 0.500000 0.500000
O O13 0.609552 0.355202 0.730226
O O14 0.782309 0.452634 0.849008
O O15 0.540242 0.250000 0.630060
O O16 0.500000 0.500000 0.500000
#
# Coordination Sequence:
#
# PCOD9167548 Si02
#       7
#     4   4   4   4   4   4   4
#     4  12  24  47  71 102 141 183 240 292 358 425
#     4  11  25  46  71 101 139 184 235 296 358 421
#     4  12  24  43  69 105 145 188 240 293 361 428
#     4  12  24  42  66 102 145 186 235 293 354 428
#     4  12  24  44  71 103 139 186 236 293 356 427
#     4  11  25  47  71 101 139 182 238 297 358 424
#     4  12  23  41  68 104 143 188 238 293 355 433
#
# _framework density 21.472902000000001
#
# number of rings (size 3 to 8) (size 9 to 14) (size 15 to 20)
#    0.000    0.286    2.857    7.286    0.000    1.714 
#    0.000    0.714    0.000    0.000    0.000    0.000 
#    0.000    0.000    0.000    0.000    0.000    0.000 
#
# Total GULP energy -156816.684210 kJ/mol
# GULP energy per Si atom -5600.595865 kJ/mol
# Density = 2.142403 g / cm^3
# Si number density = 21.472902 Si / 1000 Ang^3
#
#
#
# Elastic Constant Matrix: (Units=GPa)
#
#
# Indices 1 2 3 4 5 6 
#
# 1 124.2641 11.7627 24.5384 0.0000 20.7881 0.0000
# 2 11.7627 99.5948 33.6306 0.0000 10.1141 0.0000
# 3 24.5384 33.6306 97.9184 0.0000 2.3347 0.0000
# 4 0.0000 0.0000 0.0000 17.0485 0.0000 5.0509
# 5 20.7881 10.1141 2.3347 0.0000 36.3915 0.0000
# 6 0.0000 0.0000 0.0000 5.0509 0.0000 17.2351
#
#
#
# Elastic Compliance Matrix: (Units=1/GPa)
#
#
# Indices 1 2 3 4 5 6 
#
# 1 0.009360 0.000201 -0.002289 0.000000 -0.005256 0.000000
# 2 0.000201 0.011679 -0.003988 0.000000 -0.003105 0.000000
# 3 -0.002289 -0.003988 0.012117 0.000000 0.001639 0.000000
# 4 0.000000 0.000000 0.000000 0.064233 0.000000 -0.018824
# 5 -0.005256 -0.003105 0.001639 0.000000 0.031239 0.000000
# 6 0.000000 0.000000 0.000000 -0.018824 0.000000 0.063538
#
#
# Mechanical properties :
#
#
# Convention : Reuss Voigt Hill
#
# Bulk Modulus (GPa) = 47.60997 51.29340 49.45169
# Shear Modulus (GPa) = 23.66107 30.92472 27.29289
#
# Velocity S-wave (km/s) = 3.32309 3.79908 3.56903
# Velocity P-wave (km/s) = 6.07817 6.57141 6.32960
#
# Compressibility (1/GPa) = 0.02100400
#
# Stress axis : x y z
#
# Youngs Moduli (GPa) = 106.84202 85.62582 82.53018
#
# Poissons Ratio (x) = -0.01724 0.18894
# Poissons Ratio (y) = -0.02151 0.32909
# Poissons Ratio (z) = 0.24460 0.34144
#
# Static dielectric constant tensor:
#      x y z
#    x 1.801140 0.000000 0.011370 
#    y 0.000000 1.787560 0.000000 
#    z 0.011370 0.000000 1.764640 
# 
# From -- ./inp_files/15295.got.cif
#   From: 2010.05.17/outbox.cif.g08.bks.cpg/sg11_8_cif.got.tgz:15295.got - 2010.06.03 12:22:45.
