data_PCOD9167524
_publ_section_title
;
Structure prediction by ZEFSAII (Michael W. Deem and Ramdas Pophale) SiO2 
 PCOD9167524
Probable space group: P 21/M
;
_chemical_formula_sum "Si O2"
_cell_formula_units_Z 24
_cell_length_a 7.666931
_cell_length_b 21.663189
_cell_length_c 11.361689
_cell_angle_alpha 90.000000
_cell_angle_beta 141.990517
_cell_angle_gamma 90.000000
_cell_volume 1162.039273
_symmetry_space_group_name_H-M "P 21/M"
_symmetry_group_IT_number 11
_symmetry_cell_setting 'monoclinic'
loop_
_space_group_symop_operation_xyz
x,y,z
-x,1/2+y,-z
-x,-y,-z
x,1/2-y,z
loop_
_atom_site_type_symbol
_atom_site_label
_atom_site_fract_x
_atom_site_fract_y
_atom_site_fract_z
Si Si1 0.636754 0.511699 0.946361
Si Si2 0.334581 0.091491 0.629482
Si Si3 0.220658 0.458983 0.332650
Si Si4 0.953487 0.179090 0.585368
Si Si5 0.643720 0.866568 0.802758
Si Si6 0.818990 0.179062 0.783616
O O1 0.492969 0.463922 0.779823
O O2 0.596942 0.579725 0.874144
O O3 0.500000 0.500000 0.000000
O O4 0.969363 0.497154 0.139114
O O5 0.142812 0.064828 0.421666
O O6 0.571359 0.134240 0.694365
O O7 0.156835 0.131759 0.626835
O O8 0.500000 0.500000 0.500000
O O9 0.289548 0.402301 0.283200
O O10 0.052070 0.250000 0.626695
O O11 0.640002 0.172173 0.364723
O O12 0.923248 0.163584 0.707314
O O13 0.914981 0.828464 0.988311
O O14 0.720034 0.250000 0.729071
#
# Coordination Sequence:
#
# PCOD9167524 Si02
#       6
#     4   4   4   4   4   4
#     4  12  26  40  66 102 135 174 216 274 340 397
#     4  12  24  44  69  99 135 173 222 274 333 398
#     4  12  24  41  67 102 134 176 217 270 338 404
#     4  11  26  45  68  98 131 176 228 275 327 392
#     4  12  23  43  68  96 135 172 222 271 333 399
#     4  11  24  45  69  93 130 178 222 274 329 385
#
# _framework density 20.653345999999999
#
# number of rings (size 3 to 8) (size 9 to 14) (size 15 to 20)
#    0.000    0.333    5.000    4.500    2.333    1.333 
#    0.000    0.000    0.000    0.000    0.000    0.000 
#    0.000    0.000    0.000    0.000    0.000    0.000 
#
# Total GULP energy -134416.901309 kJ/mol
# GULP energy per Si atom -5600.704221 kJ/mol
# Density = 2.060634 g / cm^3
# Si number density = 20.653346 Si / 1000 Ang^3
#
#
#
# Elastic Constant Matrix: (Units=GPa)
#
#
# Indices 1 2 3 4 5 6 
#
# 1 56.7167 13.2032 5.8990 0.0000 -19.4794 0.0000
# 2 13.2032 54.7545 2.5559 0.0000 -13.3699 0.0000
# 3 5.8990 2.5559 96.0332 0.0000 -8.7287 0.0000
# 4 0.0000 0.0000 0.0000 23.8850 0.0000 7.5417
# 5 -19.4794 -13.3699 -8.7287 0.0000 37.1942 0.0000
# 6 0.0000 0.0000 0.0000 7.5417 0.0000 36.7523
#
#
#
# Elastic Compliance Matrix: (Units=1/GPa)
#
#
# Indices 1 2 3 4 5 6 
#
# 1 0.021870 -0.002719 -0.000326 0.000000 0.010400 0.000000
# 2 -0.002719 0.020360 0.000164 0.000000 0.005933 0.000000
# 3 -0.000326 0.000164 0.010646 0.000000 0.002387 0.000000
# 4 0.000000 0.000000 0.000000 0.044768 0.000000 -0.009187
# 5 0.010400 0.005933 0.002387 0.000000 0.035026 0.000000
# 6 0.000000 0.000000 0.000000 -0.009187 0.000000 0.029094
#
#
# Mechanical properties :
#
#
# Convention : Reuss Voigt Hill
#
# Bulk Modulus (GPa) = 21.22452 27.86896 24.54674
# Shear Modulus (GPa) = 27.28818 31.95606 29.62212
#
# Velocity S-wave (km/s) = 3.63884 3.93779 3.79126
# Velocity P-wave (km/s) = 5.28713 5.84789 5.57457
#
# Compressibility (1/GPa) = 0.04711532
#
# Stress axis : x y z
#
# Youngs Moduli (GPa) = 45.72426 49.11573 93.93518
#
# Poissons Ratio (x) = 0.13354 0.03060
# Poissons Ratio (y) = 0.12432 -0.01545
# Poissons Ratio (z) = 0.01489 -0.00808
#
# Static dielectric constant tensor:
#      x y z
#    x 1.731530 0.000000 -0.006880 
#    y 0.000000 1.713810 0.000000 
#    z -0.006880 0.000000 1.721020 
# 
# From -- ./inp_files/10438.got.cif
#   From: 2010.05.17/outbox.cif.g08.bks.cpg/sg11_6_cif.got.tgz:10438.got - 2010.06.03 12:22:45.
