data_PCOD9167600
_publ_section_title
;
Structure prediction by ZEFSAII (Michael W. Deem and Ramdas Pophale) SiO2 
 PCOD9167600
Probable space group: P 21/M
;
_chemical_formula_sum "Si O2"
_cell_formula_units_Z 20
_cell_length_a 6.165645
_cell_length_b 26.746451
_cell_length_c 5.372401
_cell_angle_alpha 90.000000
_cell_angle_beta 79.385019
_cell_angle_gamma 90.000000
_cell_volume 870.796727
_symmetry_space_group_name_H-M "P 21/M"
_symmetry_group_IT_number 11
_symmetry_cell_setting 'monoclinic'
loop_
_space_group_symop_operation_xyz
x,y,z
-x,1/2+y,-z
-x,-y,-z
x,1/2-y,z
loop_
_atom_site_type_symbol
_atom_site_label
_atom_site_fract_x
_atom_site_fract_y
_atom_site_fract_z
Si Si1 0.641223 0.491417 0.720420
Si Si2 0.745338 0.750000 0.662501
Si Si3 0.210191 0.250000 0.848013
Si Si4 0.887560 0.110999 0.761313
Si Si5 0.509201 0.831584 0.979974
Si Si6 0.859122 0.591292 0.775771
O O1 0.500000 0.500000 0.500000
O O2 0.737859 0.435909 0.708300
O O3 0.827275 0.534293 0.698492
O O4 0.500000 0.500000 0.000000
O O5 0.894228 0.750000 0.392630
O O6 0.576609 0.796080 0.735470
O O7 0.908917 0.750000 0.865213
O O8 0.360385 0.299778 0.837888
O O9 0.035279 0.119846 0.484096
O O10 0.734711 0.157077 0.878200
O O11 0.011573 0.095509 0.990362
O O12 0.624599 0.883692 0.888430
#
# Coordination Sequence:
#
# PCOD9167600 Si02
#       6
#     4   2   2   4   4   4
#     4  12  24  44  68  91 135 180 208 271 324 370
#     4   8  20  38  68  90 128 166 211 265 324 387
#     4   8  20  38  68  90 128 166 211 265 324 387
#     4  12  26  41  68  98 132 171 223 264 320 388
#     4   9  24  43  68  92 134 169 214 269 328 372
#     4  12  26  41  68  98 132 171 223 264 320 388
#
# _framework density 22.967472000000001
#
# number of rings (size 3 to 8) (size 9 to 14) (size 15 to 20)
#    1.200    0.000    2.000    3.600    5.600    0.000 
#    0.000    8.000    0.000    0.000    0.000    0.000 
#    0.000    0.000    0.000    0.000    0.000    0.000 
#
# Total GULP energy -111456.203749 kJ/mol
# GULP energy per Si atom -5572.810187 kJ/mol
# Density = 2.291520 g / cm^3
# Si number density = 22.967472 Si / 1000 Ang^3
#
#
#
# Elastic Constant Matrix: (Units=GPa)
#
#
# Indices 1 2 3 4 5 6 
#
# 1 34.9956 -1.7731 43.8336 0.0000 -0.6260 0.0000
# 2 -1.7731 72.7056 -3.2561 0.0000 -4.6957 0.0000
# 3 43.8336 -3.2561 212.1945 0.0000 17.4040 0.0000
# 4 0.0000 0.0000 0.0000 -127.3882 0.0000 14.9842
# 5 -0.6260 -4.6957 17.4040 0.0000 45.4845 0.0000
# 6 0.0000 0.0000 0.0000 14.9842 0.0000 12.0146
#
#
#
# Elastic Compliance Matrix: (Units=1/GPa)
#
#
# Indices 1 2 3 4 5 6 
#
# 1 0.039209 0.000828 -0.008402 0.000000 0.003840 0.000000
# 2 0.000828 0.013866 -0.000079 0.000000 0.001473 0.000000
# 3 -0.008402 -0.000079 0.006666 0.000000 -0.002675 0.000000
# 4 0.000000 0.000000 0.000000 -0.006846 0.000000 0.008538
# 5 0.003840 0.001473 -0.002675 0.000000 0.023214 0.000000
# 6 0.000000 0.000000 0.000000 0.008538 0.000000 0.072584
#
#
# Mechanical properties :
#
#
# Convention : Reuss Voigt Hill
#
# Bulk Modulus (GPa) = 22.50443 44.16716 33.33580
# Shear Modulus (GPa) = 27.96239 4.76160 16.36199
#
# Velocity S-wave (km/s) = 3.49302 1.44142 2.67197
# Velocity P-wave (km/s) = 5.10764 4.69492 4.90562
#
# Compressibility (1/GPa) = 0.04443570
#
# Stress axis : x y z
#
# Youngs Moduli (GPa) = 25.50412 72.11938 150.00609
#
# Poissons Ratio (x) = -0.05971 1.26032
# Poissons Ratio (y) = -0.02112 0.01186
# Poissons Ratio (z) = 0.21428 0.00570
#
# Static dielectric constant tensor:
#      x y z
#    x 1.785040 0.000000 0.112690 
#    y 0.000000 1.880660 0.000000 
#    z 0.112690 0.000000 1.670160 
# 
# From -- ./inp_files/810.got.cif
#   From: 2010.05.17/outbox.cif.g08.bks.cpg/sg11_1_cif.got.tgz:810.got - 2010.06.03 12:22:45.
