data_PCOD9167494
_publ_section_title
;
Structure prediction by ZEFSAII (Michael W. Deem and Ramdas Pophale) SiO2 
 PCOD9167494
Probable space group: P 21/M
;
_chemical_formula_sum "Si O2"
_cell_formula_units_Z 28
_cell_length_a 11.828872
_cell_length_b 9.067969
_cell_length_c 14.055524
_cell_angle_alpha 90.000000
_cell_angle_beta 63.613051
_cell_angle_gamma 90.000000
_cell_volume 1350.572085
_symmetry_space_group_name_H-M "P 21/M"
_symmetry_group_IT_number 11
_symmetry_cell_setting 'monoclinic'
loop_
_space_group_symop_operation_xyz
x,y,z
-x,1/2+y,-z
-x,-y,-z
x,1/2-y,z
loop_
_atom_site_type_symbol
_atom_site_label
_atom_site_fract_x
_atom_site_fract_y
_atom_site_fract_z
Si Si1 0.820999 0.574186 0.315957
Si Si2 0.951675 0.579033 0.872660
Si Si3 0.309815 0.420966 0.123324
Si Si4 0.400804 0.921741 0.703635
Si Si5 0.631749 0.419273 0.703027
Si Si6 0.887645 0.420089 0.488093
Si Si7 0.735287 0.421062 0.042167
O O1 0.823574 0.750000 0.313840
O O2 0.685179 0.512003 0.336520
O O3 0.855560 0.509059 0.405303
O O4 0.926095 0.508867 0.204767
O O5 0.981313 0.750000 0.881120
O O6 0.844460 0.574237 0.828472
O O7 0.869663 0.504448 0.987099
O O8 0.348104 0.250000 0.109009
O O9 0.356006 0.502178 0.199637
O O10 0.345880 0.501937 0.011275
O O11 0.408804 0.750000 0.673528
O O12 0.330582 0.931276 0.832190
O O13 0.535764 0.993177 0.671736
O O14 0.589173 0.250000 0.730818
O O15 0.767196 0.419418 0.602247
O O16 0.918864 0.250000 0.452491
O O17 0.000000 0.500000 0.500000
O O18 0.754295 0.250000 0.010516
#
# Coordination Sequence:
#
# PCOD9167494 Si02
#       7
#     4   4   4   4   4   4   4
#     4  12  25  41  65  93 127 167 209 260 314 374
#     4   9  19  36  61  90 123 162 206 258 312 364
#     4   9  19  35  60  90 123 163 205 257 314 363
#     4  11  25  43  63  89 126 171 214 257 309 373
#     4  11  24  41  64  92 126 165 209 260 312 373
#     4  11  25  45  71 100 127 159 203 258 317 374
#     4   9  19  37  61  91 124 164 213 260 311 369
#
# _framework density 20.731954999999999
#
# number of rings (size 3 to 8) (size 9 to 14) (size 15 to 20)
#    0.857    0.857    0.000    4.286    0.000    8.571 
#    0.000    0.000    0.000    0.000    0.000    0.000 
#    0.000    0.000    0.000    0.000    0.000    0.000 
#
# Total GULP energy -156508.379533 kJ/mol
# GULP energy per Si atom -5589.584983 kJ/mol
# Density = 2.068477 g / cm^3
# Si number density = 20.731955 Si / 1000 Ang^3
#
#
#
# Elastic Constant Matrix: (Units=GPa)
#
#
# Indices 1 2 3 4 5 6 
#
# 1 108.8513 63.3505 19.9214 0.0000 2.7881 0.0000
# 2 63.3505 201.2615 34.7172 0.0000 5.4819 0.0000
# 3 19.9214 34.7172 35.1281 0.0000 9.0845 0.0000
# 4 0.0000 0.0000 0.0000 25.6352 0.0000 4.3471
# 5 2.7881 5.4819 9.0845 0.0000 15.5552 0.0000
# 6 0.0000 0.0000 0.0000 4.3471 0.0000 33.8654
#
#
#
# Elastic Compliance Matrix: (Units=1/GPa)
#
#
# Indices 1 2 3 4 5 6 
#
# 1 0.011631 -0.003015 -0.003948 0.000000 0.001284 0.000000
# 2 -0.003015 0.006805 -0.005342 0.000000 0.001262 0.000000
# 3 -0.003948 -0.005342 0.041599 0.000000 -0.021704 0.000000
# 4 0.000000 0.000000 0.000000 0.039877 0.000000 -0.005119
# 5 0.001284 0.001262 -0.021704 0.000000 0.076288 0.000000
# 6 0.000000 0.000000 0.000000 -0.005119 0.000000 0.030186
#
#
# Mechanical properties :
#
#
# Convention : Reuss Voigt Hill
#
# Bulk Modulus (GPa) = 28.22915 64.57989 46.40452
# Shear Modulus (GPa) = 20.59277 30.16129 25.37703
#
# Velocity S-wave (km/s) = 3.15506 3.81835 3.50244
# Velocity P-wave (km/s) = 5.18829 7.11739 6.22799
#
# Compressibility (1/GPa) = 0.03542437
#
# Stress axis : x y z
#
# Youngs Moduli (GPa) = 85.97493 146.95640 24.03931
#
# Poissons Ratio (x) = 0.44308 0.09492
# Poissons Ratio (y) = 0.25922 0.12841
# Poissons Ratio (z) = 0.33947 0.78499
#
# Static dielectric constant tensor:
#      x y z
#    x 1.769380 0.000000 -0.004550 
#    y 0.000000 1.707190 0.000000 
#    z -0.004550 0.000000 1.735210 
# 
# From -- ./inp_files/49128.got.cif
#   From: 2010.05.17/outbox.cif.g08.bks.cpg/sg11_25_cif.got.tgz:49128.got - 2010.06.03 12:22:45.
