data_PCOD9167089
_publ_section_title
;
Structure prediction by ZEFSAII (Michael W. Deem and Ramdas Pophale) SiO2 
 PCOD9167089
Probable space group: P 21/M
;
_chemical_formula_sum "Si O2"
_cell_formula_units_Z 24
_cell_length_a 11.932087
_cell_length_b 8.376519
_cell_length_c 22.515029
_cell_angle_alpha 90.000000
_cell_angle_beta 31.079891
_cell_angle_gamma 90.000000
_cell_volume 1161.710924
_symmetry_space_group_name_H-M "P 21/M"
_symmetry_group_IT_number 11
_symmetry_cell_setting 'monoclinic'
loop_
_space_group_symop_operation_xyz
x,y,z
-x,1/2+y,-z
-x,-y,-z
x,1/2-y,z
loop_
_atom_site_type_symbol
_atom_site_label
_atom_site_fract_x
_atom_site_fract_y
_atom_site_fract_z
Si Si1 0.444481 0.445055 0.727412
Si Si2 0.439619 0.940119 0.962100
Si Si3 0.952822 0.555469 0.171410
Si Si4 0.875070 0.060175 0.460673
Si Si5 0.660197 0.060522 0.747016
Si Si6 0.252485 0.058013 0.608998
O O1 0.441332 0.250000 0.728332
O O2 0.222235 0.500343 0.797725
O O3 0.653618 0.493589 0.593321
O O4 0.492494 0.497472 0.772722
O O5 0.431376 0.750000 0.968497
O O6 0.199438 0.000433 0.052769
O O7 0.500000 0.000000 0.000000
O O8 0.606708 0.989940 0.835388
O O9 0.953041 0.750000 0.168893
O O10 0.867395 0.511864 0.275731
O O11 0.891376 0.250000 0.460530
O O12 0.852827 0.016790 0.401532
O O13 0.096170 0.982245 0.383214
O O14 0.643054 0.250000 0.759075
O O15 0.246365 0.250000 0.607025
O O16 0.500000 0.000000 0.500000
#
# Coordination Sequence:
#
# PCOD9167089 Si02
#       6
#     4   4   4   4   4   4
#     4   9  19  37  60  86 118 157 197 246 303 357
#     4  11  23  41  65  88 117 155 199 247 297 356
#     4   9  19  37  60  85 116 155 195 241 296 348
#     4  11  21  37  61  87 120 158 203 251 298 355
#     4  11  23  39  60  86 120 159 200 245 300 360
#     4  11  20  34  58  88 121 154 193 241 300 358
#
# _framework density 20.659184
#
# number of rings (size 3 to 8) (size 9 to 14) (size 15 to 20)
#    0.000    1.667    1.667    3.500    0.000    2.000 
#    0.000    5.000    0.000    0.000    0.000    0.000 
#    0.000    0.000    0.000    0.000    0.000    0.000 
#
# Total GULP energy -134138.801915 kJ/mol
# GULP energy per Si atom -5589.116746 kJ/mol
# Density = 2.061216 g / cm^3
# Si number density = 20.659184 Si / 1000 Ang^3
#
#
#
# Elastic Constant Matrix: (Units=GPa)
#
#
# Indices 1 2 3 4 5 6 
#
# 1 134.9796 13.4651 34.2520 0.0000 -8.3661 0.0000
# 2 13.4651 30.0536 11.3832 0.0000 2.1364 0.0000
# 3 34.2520 11.3832 88.5667 0.0000 -16.1155 0.0000
# 4 0.0000 0.0000 0.0000 20.9298 0.0000 -4.3629
# 5 -8.3661 2.1364 -16.1155 0.0000 31.4264 0.0000
# 6 0.0000 0.0000 0.0000 -4.3629 0.0000 23.9027
#
#
#
# Elastic Compliance Matrix: (Units=1/GPa)
#
#
# Indices 1 2 3 4 5 6 
#
# 1 0.008444 -0.002831 -0.002711 0.000000 0.001050 0.000000
# 2 -0.002831 0.036703 -0.004647 0.000000 -0.005632 0.000000
# 3 -0.002711 -0.004647 0.014186 0.000000 0.006869 0.000000
# 4 0.000000 0.000000 0.000000 0.049669 0.000000 0.009066
# 5 0.001050 -0.005632 0.006869 0.000000 0.036005 0.000000
# 6 0.000000 0.000000 0.000000 0.009066 0.000000 0.043491
#
#
# Mechanical properties :
#
#
# Convention : Reuss Voigt Hill
#
# Bulk Modulus (GPa) = 25.67039 41.31116 33.49078
# Shear Modulus (GPa) = 22.53661 28.21840 25.37750
#
# Velocity S-wave (km/s) = 3.30642 3.69982 3.50864
# Velocity P-wave (km/s) = 5.19896 6.18801 5.71492
#
# Compressibility (1/GPa) = 0.03895538
#
# Stress axis : x y z
#
# Youngs Moduli (GPa) = 118.42895 27.24579 70.49004
#
# Poissons Ratio (x) = 0.07714 0.19107
# Poissons Ratio (y) = 0.33529 0.32758
# Poissons Ratio (z) = 0.32101 0.12662
#
# Static dielectric constant tensor:
#      x y z
#    x 1.737810 0.000000 -0.012210 
#    y 0.000000 1.711720 0.000000 
#    z -0.012210 0.000000 1.726810 
# 
# From -- ./inp_files/68363.got.cif
#   From: 2010.05.17/outbox.cif.g08.bks.cpg/sg11_35_cif.got.tgz:68363.got - 2010.06.03 12:22:45.
