data_PCOD9167593
_publ_section_title
;
Structure prediction by ZEFSAII (Michael W. Deem and Ramdas Pophale) SiO2 
 PCOD9167593
Probable space group: P 21/M
;
_chemical_formula_sum "Si O2"
_cell_formula_units_Z 18
_cell_length_a 8.298305
_cell_length_b 13.235301
_cell_length_c 8.241955
_cell_angle_alpha 90.000000
_cell_angle_beta 117.372498
_cell_angle_gamma 90.000000
_cell_volume 803.866840
_symmetry_space_group_name_H-M "P 21/M"
_symmetry_group_IT_number 11
_symmetry_cell_setting 'monoclinic'
loop_
_space_group_symop_operation_xyz
x,y,z
-x,1/2+y,-z
-x,-y,-z
x,1/2-y,z
loop_
_atom_site_type_symbol
_atom_site_label
_atom_site_fract_x
_atom_site_fract_y
_atom_site_fract_z
Si Si1 0.460732 0.965140 0.802538
Si Si2 0.158251 0.040553 0.459884
Si Si3 0.811261 0.452544 0.851177
Si Si4 0.716157 0.750000 0.605233
Si Si5 0.518656 0.250000 0.170323
Si Si6 0.591152 0.250000 0.826693
O O1 0.376937 0.854397 0.757105
O O2 0.335919 0.042323 0.652666
O O3 0.656704 0.965125 0.814301
O O4 0.500000 0.000000 0.000000
O O5 0.160676 0.150313 0.375485
O O6 0.177027 0.952461 0.335845
O O7 0.000000 0.000000 0.500000
O O8 0.725873 0.348213 0.878758
O O9 0.000000 0.500000 0.000000
O O10 0.631767 0.750000 0.750966
O O11 0.547010 0.750000 0.393789
O O12 0.486337 0.250000 0.955838
#
# Coordination Sequence:
#
# PCOD9167593 Si02
#       6
#     4   4   4   2   2   2
#     4  12  23  46  71 107 148 194 247 313 378 443
#     4  12  27  46  74 110 153 198 249 312 376 447
#     4  12  26  46  72 110 152 194 250 312 372 448
#     4  12  24  49  80 109 150 201 256 306 381 450
#     4  12  24  40  82 106 136 200 254 298 380 438
#     4  12  26  47  80 109 150 203 254 308 383 448
#
# _framework density 22.391767999999999
#
# number of rings (size 3 to 8) (size 9 to 14) (size 15 to 20)
#    0.000    0.000    6.667    3.333    0.000    3.556 
#    0.000    0.000    0.000    0.000    0.000    0.000 
#    0.000    0.000    0.000    0.000    0.000    0.000 
#
# Total GULP energy -100275.310099 kJ/mol
# GULP energy per Si atom -5570.850561 kJ/mol
# Density = 2.234080 g / cm^3
# Si number density = 22.391768 Si / 1000 Ang^3
#
#
#
# Elastic Constant Matrix: (Units=GPa)
#
#
# Indices 1 2 3 4 5 6 
#
# 1 139.2970 32.1558 62.6917 0.0000 -24.6483 0.0000
# 2 32.1558 170.4197 14.6187 0.0000 -15.2282 0.0000
# 3 62.6917 14.6187 109.8480 0.0000 -26.1412 0.0000
# 4 0.0000 0.0000 0.0000 28.3859 0.0000 -5.9589
# 5 -24.6483 -15.2282 -26.1412 0.0000 56.5554 0.0000
# 6 0.0000 0.0000 0.0000 -5.9589 0.0000 36.1410
#
#
#
# Elastic Compliance Matrix: (Units=1/GPa)
#
#
# Indices 1 2 3 4 5 6 
#
# 1 0.010118 -0.001315 -0.005207 0.000000 0.001649 0.000000
# 2 -0.001315 0.006205 0.000209 0.000000 0.001194 0.000000
# 3 -0.005207 0.000209 0.012945 0.000000 0.003770 0.000000
# 4 0.000000 0.000000 0.000000 0.036492 0.000000 0.006017
# 5 0.001649 0.001194 0.003770 0.000000 0.020465 0.000000
# 6 0.000000 0.000000 0.000000 0.006017 0.000000 0.028661
#
#
# Mechanical properties :
#
#
# Convention : Reuss Voigt Hill
#
# Bulk Modulus (GPa) = 60.09276 70.94412 65.51844
# Shear Modulus (GPa) = 37.57766 44.88969 41.23368
#
# Velocity S-wave (km/s) = 4.10102 4.48229 4.29589
# Velocity P-wave (km/s) = 7.02280 7.65113 7.34369
#
# Compressibility (1/GPa) = 0.01664094
#
# Stress axis : x y z
#
# Youngs Moduli (GPa) = 98.83752 161.16594 77.25253
#
# Poissons Ratio (x) = 0.21195 0.40225
# Poissons Ratio (y) = 0.12998 -0.01614
# Poissons Ratio (z) = 0.51464 -0.03368
#
# Static dielectric constant tensor:
#      x y z
#    x 1.859840 0.000000 -0.048710 
#    y 0.000000 1.851760 0.000000 
#    z -0.048710 0.000000 1.900370 
# 
# From -- ./inp_files/12196.got.cif
#   From: 2010.05.17/outbox.cif.g08.bks.cpg/sg11_7_cif.got.tgz:12196.got - 2010.06.03 12:22:45.
