data_PCOD9167497
_publ_section_title
;
Structure prediction by ZEFSAII (Michael W. Deem and Ramdas Pophale) SiO2 
 PCOD9167497
Probable space group: P 21/M
;
_chemical_formula_sum "Si O2"
_cell_formula_units_Z 20
_cell_length_a 19.700938
_cell_length_b 9.767615
_cell_length_c 13.945694
_cell_angle_alpha 90.000000
_cell_angle_beta 158.889949
_cell_angle_gamma 90.000000
_cell_volume 966.521694
_symmetry_space_group_name_H-M "P 21/M"
_symmetry_group_IT_number 11
_symmetry_cell_setting 'monoclinic'
loop_
_space_group_symop_operation_xyz
x,y,z
-x,1/2+y,-z
-x,-y,-z
x,1/2-y,z
loop_
_atom_site_type_symbol
_atom_site_label
_atom_site_fract_x
_atom_site_fract_y
_atom_site_fract_z
Si Si1 0.985842 0.591065 0.577233
Si Si2 0.738826 0.899731 0.742581
Si Si3 0.667855 0.476699 0.844236
Si Si4 0.335519 0.598497 0.511003
Si Si5 0.674247 0.084564 0.274233
O O1 0.922290 0.750000 0.478179
O O2 0.000000 0.500000 0.500000
O O3 0.851462 0.499279 0.467243
O O4 0.188255 0.596137 0.896059
O O5 0.820114 0.750000 0.842589
O O6 0.776784 0.962676 0.896456
O O7 0.508161 0.893038 0.431896
O O8 0.780906 0.992422 0.706447
O O9 0.549359 0.584807 0.751931
O O10 0.267472 0.750000 0.402039
O O11 0.333049 0.572354 0.620337
O O12 0.674508 0.250000 0.251790
O O13 0.500000 0.000000 0.000000
#
# Coordination Sequence:
#
# PCOD9167497 Si02
#       5
#     4   4   4   4   4
#     4  12  26  43  63  91 123 160 204 257 309 366
#     4   9  18  33  62  93 120 156 203 248 299 358
#     4   9  20  35  62  89 123 155 203 245 303 354
#     4   9  19  35  58  86 119 155 197 243 299 357
#     4  11  24  42  62  87 120 164 207 253 307 367
#
# _framework density 20.692758000000001
#
# number of rings (size 3 to 8) (size 9 to 14) (size 15 to 20)
#    1.200    0.800    0.000    3.600    0.000    7.200 
#    0.000    1.000    0.000    0.000    0.000    0.000 
#    0.000    0.000    0.000    0.000    0.000    0.000 
#
# Total GULP energy -111382.684629 kJ/mol
# GULP energy per Si atom -5569.134231 kJ/mol
# Density = 2.064566 g / cm^3
# Si number density = 20.692758 Si / 1000 Ang^3
#
#
#
# Elastic Constant Matrix: (Units=GPa)
#
#
# Indices 1 2 3 4 5 6 
#
# 1 85.8519 68.7140 19.6923 0.0000 -28.6957 0.0000
# 2 68.7140 177.1400 30.9990 0.0000 -26.7562 0.0000
# 3 19.6923 30.9990 75.7229 0.0000 -3.2827 0.0000
# 4 0.0000 0.0000 0.0000 11.9285 0.0000 0.1112
# 5 -28.6957 -26.7562 -3.2827 0.0000 29.9899 0.0000
# 6 0.0000 0.0000 0.0000 0.1112 0.0000 22.4792
#
#
#
# Elastic Compliance Matrix: (Units=1/GPa)
#
#
# Indices 1 2 3 4 5 6 
#
# 1 0.022124 -0.005724 -0.002727 0.000000 0.015764 0.000000
# 2 -0.005724 0.008483 -0.001903 0.000000 0.001883 0.000000
# 3 -0.002727 -0.001903 0.014577 0.000000 -0.002711 0.000000
# 4 0.000000 0.000000 0.000000 0.083837 0.000000 -0.000415
# 5 0.015764 0.001883 -0.002711 0.000000 0.049812 0.000000
# 6 0.000000 0.000000 0.000000 -0.000415 0.000000 0.044488
#
#
# Mechanical properties :
#
#
# Convention : Reuss Voigt Hill
#
# Bulk Modulus (GPa) = 40.85497 64.16947 52.51222
# Shear Modulus (GPa) = 19.82675 27.50013 23.66344
#
# Velocity S-wave (km/s) = 3.09876 3.64946 3.38533
# Velocity P-wave (km/s) = 5.70872 6.98828 6.38066
#
# Compressibility (1/GPa) = 0.02447682
#
# Stress axis : x y z
#
# Youngs Moduli (GPa) = 45.20064 117.88404 68.60347
#
# Poissons Ratio (x) = 0.67473 0.18707
# Poissons Ratio (y) = 0.25871 0.13052
# Poissons Ratio (z) = 0.12326 0.22428
#
# Static dielectric constant tensor:
#      x y z
#    x 1.772020 0.000000 0.063630 
#    y 0.000000 1.574670 0.000000 
#    z 0.063630 0.000000 1.763200 
# 
# From -- ./inp_files/55478.got.cif
#   From: 2010.05.17/outbox.cif.g08.bks.cpg/sg11_28_cif.got.tgz:55478.got - 2010.06.03 12:22:45.
