data_PCOD9167855
_publ_section_title
;
Structure prediction by ZEFSAII (Michael W. Deem and Ramdas Pophale) SiO2 
 PCOD9167855
Probable space group: P 21/M
;
_chemical_formula_sum "Si O2"
_cell_formula_units_Z 32
_cell_length_a 15.000000
_cell_length_b 9.000000
_cell_length_c 12.000000
_cell_angle_alpha 90.000000
_cell_angle_beta 90.000000
_cell_angle_gamma 90.000000
_cell_volume 1620.000000
_symmetry_space_group_name_H-M "P 21/M"
_symmetry_group_IT_number 11
_symmetry_cell_setting 'monoclinic'
loop_
_space_group_symop_operation_xyz
x,y,z
-x,1/2+y,-z
-x,-y,-z
x,1/2-y,z
loop_
_atom_site_type_symbol
_atom_site_label
_atom_site_fract_x
_atom_site_fract_y
_atom_site_fract_z
Si Si1 0.458997 0.423607 0.680115
Si Si2 0.914152 0.927120 0.055055
Si Si3 0.254536 0.927885 0.067452
Si Si4 0.218793 0.419633 0.296816
Si Si5 0.903467 0.930675 0.512531
Si Si6 0.652380 0.426680 0.149037
Si Si7 0.388627 0.082026 0.448242
Si Si8 0.819276 0.927517 0.277160
O O1 0.456871 0.250000 0.704573
O O2 0.434807 0.512276 0.790338
O O3 0.550548 0.472615 0.622924
O O4 0.389803 0.455915 0.578636
O O5 0.914915 0.750000 0.038664
O O6 0.898950 0.953897 0.187328
O O7 0.830992 0.000038 0.991723
O O8 0.000000 0.000000 0.000000
O O9 0.246986 0.750000 0.070417
O O10 0.254945 0.989947 0.192099
O O11 0.333991 0.967169 0.981014
O O12 0.200987 0.250000 0.259363
O O13 0.135642 0.479536 0.367428
O O14 0.293417 0.414320 0.392573
O O15 0.905722 0.750000 0.513767
O O16 0.846374 0.973239 0.402084
O O17 0.000000 0.000000 0.500000
O O18 0.655614 0.250000 0.157079
O O19 0.734397 0.494012 0.220786
O O20 0.427388 0.250000 0.440958
O O21 0.801388 0.750000 0.278908
#
# Coordination Sequence:
#
# PCOD9167855 Si02
#       8
#     4   4   4   4   4   4   4   4
#     4  10  19  33  58  88 117 145 180 225 273 329
#     4  10  20  34  55  80 106 138 179 228 278 327
#     4  10  22  38  55  78 108 145 189 232 276 328
#     4  10  21  38  58  79 110 149 185 226 278 331
#     4  10  22  38  55  80 110 143 181 223 274 330
#     4  10  20  35  56  82 110 142 182 229 277 323
#     4   9  19  36  57  84 116 148 182 224 275 328
#     4   9  19  36  55  76 106 140 178 222 272 328
#
# _framework density 19.753086
#
# number of rings (size 3 to 8) (size 9 to 14) (size 15 to 20)
#    0.000    2.250    0.000    2.250    1.750    6.000 
#    0.000    1.875    0.000    0.000    0.000    0.000 
#    0.000    0.000    0.000    0.000    0.000    0.000 
#
# Total GULP energy -178468.320608 kJ/mol
# GULP energy per Si atom -5577.135019 kJ/mol
# Density = 1.970813 g / cm^3
# Si number density = 19.753086 Si / 1000 Ang^3
#
#
#
# Elastic Constant Matrix: (Units=GPa)
#
#
# Indices 1 2 3 4 5 6 
#
# 1 27.1837 12.6694 19.0843 0.0000 -18.8226 0.0000
# 2 12.6694 38.7632 38.6455 0.0000 -20.9248 0.0000
# 3 19.0843 38.6455 103.0974 0.0000 -33.3457 0.0000
# 4 0.0000 0.0000 0.0000 27.5539 0.0000 -4.9985
# 5 -18.8226 -20.9248 -33.3457 0.0000 31.9401 0.0000
# 6 0.0000 0.0000 0.0000 -4.9985 0.0000 27.6836
#
#
#
# Elastic Compliance Matrix: (Units=1/GPa)
#
#
# Indices 1 2 3 4 5 6 
#
# 1 0.062205 -0.001420 0.000866 0.000000 0.036631 0.000000
# 2 -0.001420 0.047830 -0.011779 0.000000 0.018200 0.000000
# 3 0.000866 -0.011779 0.017550 0.000000 0.011115 0.000000
# 4 0.000000 0.000000 0.000000 0.037522 0.000000 0.006775
# 5 0.036631 0.018200 0.011115 0.000000 0.076424 0.000000
# 6 0.000000 0.000000 0.000000 0.006775 0.000000 0.037346
#
#
# Mechanical properties :
#
#
# Convention : Reuss Voigt Hill
#
# Bulk Modulus (GPa) = 9.71652 34.42697 22.07174
# Shear Modulus (GPa) = 14.79947 24.01186 19.40567
#
# Velocity S-wave (km/s) = 2.74016 3.49033 3.13775
# Velocity P-wave (km/s) = 3.86536 5.80600 4.93207
#
# Compressibility (1/GPa) = 0.10291750
#
# Stress axis : x y z
#
# Youngs Moduli (GPa) = 16.07577 20.90739 56.98045
#
# Poissons Ratio (x) = 0.02969 -0.04932
# Poissons Ratio (y) = 0.02283 0.67119
# Poissons Ratio (z) = -0.01392 0.24627
#
# Static dielectric constant tensor:
#      x y z
#    x 1.781650 0.000000 0.003410 
#    y 0.000000 1.666440 0.000000 
#    z 0.003410 0.000000 1.712720 
# 
# From -- ./inp_files/38067.got.cif
#   From: 2010.05.17/outbox.ucp.g08.bks.cvg/sg11_20_cif.got.tgz:38067.got - 2010.06.11 11:38:39.
