data_PCOD9167568
_publ_section_title
;
Structure prediction by ZEFSAII (Michael W. Deem and Ramdas Pophale) SiO2 
 PCOD9167568
Probable space group: P 21/M
;
_chemical_formula_sum "Si O2"
_cell_formula_units_Z 24
_cell_length_a 11.481907
_cell_length_b 14.511105
_cell_length_c 10.427667
_cell_angle_alpha 90.000000
_cell_angle_beta 141.559309
_cell_angle_gamma 90.000000
_cell_volume 1080.153462
_symmetry_space_group_name_H-M "P 21/M"
_symmetry_group_IT_number 11
_symmetry_cell_setting 'monoclinic'
loop_
_space_group_symop_operation_xyz
x,y,z
-x,1/2+y,-z
-x,-y,-z
x,1/2-y,z
loop_
_atom_site_type_symbol
_atom_site_label
_atom_site_fract_x
_atom_site_fract_y
_atom_site_fract_z
Si Si1 0.792362 0.952341 0.316973
Si Si2 0.101813 0.549704 0.203954
Si Si3 0.286712 0.250000 0.381913
Si Si4 0.776053 0.452076 0.059710
Si Si5 0.420749 0.443042 0.594986
Si Si6 0.896944 0.750000 0.330538
Si Si7 0.918782 0.250000 0.243107
Si Si8 0.974374 0.750000 0.091814
O O1 0.695024 0.947597 0.370626
O O2 0.798137 0.846543 0.275620
O O3 0.000000 0.000000 0.500000
O O4 0.694327 0.012785 0.123170
O O5 0.089708 0.657409 0.169712
O O6 0.309206 0.515663 0.412324
O O7 0.959856 0.514516 0.192928
O O8 0.000000 0.500000 0.000000
O O9 0.398327 0.343349 0.509463
O O10 0.117615 0.250000 0.340643
O O11 0.194869 0.250000 0.159439
O O12 0.629931 0.464576 0.819204
O O13 0.823336 0.344521 0.115974
O O14 0.058297 0.750000 0.581903
O O15 0.931989 0.750000 0.208046
#
# Coordination Sequence:
#
# PCOD9167568 Si02
#       8
#     4   4   2   4   4   2   2   2
#     4  12  20  41  66  96 135 175 216 277 347 403
#     4  12  24  46  69  94 136 180 226 276 342 408
#     4  12  21  45  69  97 132 177 232 276 330 403
#     4  12  25  41  69 102 133 175 228 285 340 400
#     4  12  24  42  70 100 134 177 227 284 337 406
#     4  12  20  36  71  92 135 181 216 273 350 400
#     4  12  21  42  70  98 132 176 229 281 332 408
#     4  12  24  41  70  99 131 182 221 278 342 403
#
# _framework density 22.219065000000001
#
# number of rings (size 3 to 8) (size 9 to 14) (size 15 to 20)
#    0.000    0.000   10.000    1.000    0.000    0.667 
#    0.000    1.667    0.000    0.000    0.000    0.000 
#    0.000    0.000    0.000    0.000    0.000    0.000 
#
# Total GULP energy -134137.693916 kJ/mol
# GULP energy per Si atom -5589.070580 kJ/mol
# Density = 2.216849 g / cm^3
# Si number density = 22.219065 Si / 1000 Ang^3
#
#
#
# Elastic Constant Matrix: (Units=GPa)
#
#
# Indices 1 2 3 4 5 6 
#
# 1 64.3140 3.7475 23.8028 0.0000 -18.0697 0.0000
# 2 3.7475 174.4591 44.4679 0.0000 6.5602 0.0000
# 3 23.8028 44.4679 169.4913 0.0000 -11.8936 0.0000
# 4 0.0000 0.0000 0.0000 33.5911 0.0000 -15.4196
# 5 -18.0697 6.5602 -11.8936 0.0000 47.3856 0.0000
# 6 0.0000 0.0000 0.0000 -15.4196 0.0000 23.4437
#
#
#
# Elastic Compliance Matrix: (Units=1/GPa)
#
#
# Indices 1 2 3 4 5 6 
#
# 1 0.018120 -0.000103 -0.002068 0.000000 0.006405 0.000000
# 2 -0.000103 0.006220 -0.001711 0.000000 -0.001330 0.000000
# 3 -0.002068 -0.001711 0.006719 0.000000 0.001135 0.000000
# 4 0.000000 0.000000 0.000000 0.042645 0.000000 0.028049
# 5 0.006405 -0.001330 0.001135 0.000000 0.024015 0.000000
# 6 0.000000 0.000000 0.000000 0.028049 0.000000 0.061104
#
#
# Mechanical properties :
#
#
# Convention : Reuss Voigt Hill
#
# Bulk Modulus (GPa) = 42.92768 61.36675 52.14721
# Shear Modulus (GPa) = 28.67759 43.30049 35.98904
#
# Velocity S-wave (km/s) = 3.59649 4.41931 4.02896
# Velocity P-wave (km/s) = 6.05050 7.32935 6.72041
#
# Compressibility (1/GPa) = 0.02329499
#
# Stress axis : x y z
#
# Youngs Moduli (GPa) = 55.18866 160.76414 148.83305
#
# Poissons Ratio (x) = 0.01654 0.30782
# Poissons Ratio (y) = 0.00568 0.25463
# Poissons Ratio (z) = 0.11414 0.27504
#
# Static dielectric constant tensor:
#      x y z
#    x 1.981700 0.000000 -0.029580 
#    y 0.000000 1.763600 0.000000 
#    z -0.029580 0.000000 1.855700 
# 
# From -- ./inp_files/39773.got.cif
#   From: 2010.05.17/outbox.cif.g08.bks.cpg/sg11_20_cif.got.tgz:39773.got - 2010.06.03 12:22:45.
