data_PCOD9167734
_publ_section_title
;
Structure prediction by ZEFSAII (Michael W. Deem and Ramdas Pophale) SiO2 
 PCOD9167734
Probable space group: P 21/M
;
_chemical_formula_sum "Si O2"
_cell_formula_units_Z 28
_cell_length_a 9.000000
_cell_length_b 9.000000
_cell_length_c 27.000000
_cell_angle_alpha 90.000000
_cell_angle_beta 140.000000
_cell_angle_gamma 90.000000
_cell_volume 1405.776502
_symmetry_space_group_name_H-M "P 21/M"
_symmetry_group_IT_number 11
_symmetry_cell_setting 'monoclinic'
loop_
_space_group_symop_operation_xyz
x,y,z
-x,1/2+y,-z
-x,-y,-z
x,1/2-y,z
loop_
_atom_site_type_symbol
_atom_site_label
_atom_site_fract_x
_atom_site_fract_y
_atom_site_fract_z
Si Si1 0.008450 0.930010 0.118263
Si Si2 0.224453 0.569103 0.029353
Si Si3 0.885345 0.570557 0.753072
Si Si4 0.347419 0.572224 0.608304
Si Si5 0.944904 0.570392 0.305949
Si Si6 0.919796 0.072245 0.554798
Si Si7 0.544135 0.569334 0.822805
O O1 0.011312 0.750000 0.115087
O O2 0.992596 0.987670 0.170161
O O3 0.246633 0.000113 0.156319
O O4 0.805896 0.002863 0.033114
O O5 0.223928 0.750000 0.030321
O O6 0.425426 0.497270 0.113771
O O7 0.000000 0.500000 0.000000
O O8 0.916998 0.750000 0.763307
O O9 0.611317 0.537022 0.687709
O O10 0.969633 0.505259 0.722496
O O11 0.322248 0.750000 0.606602
O O12 0.280834 0.528642 0.534857
O O13 0.156164 0.496793 0.593865
O O14 0.924053 0.750000 0.295256
O O15 0.698848 0.496257 0.256611
O O16 0.108307 0.535702 0.394745
O O17 0.943108 0.250000 0.557991
O O18 0.554725 0.750000 0.824763
#
# Coordination Sequence:
#
# PCOD9167734 Si02
#       7
#     4   4   4   4   4   4   4
#     4  11  21  36  58  84 113 146 185 229 277 327
#     4  10  18  32  55  84 113 142 181 228 276 324
#     4  11  23  38  55  79 112 149 188 229 277 331
#     4   9  19  36  58  83 110 141 181 228 276 327
#     4  11  23  38  55  79 112 149 188 229 277 331
#     4   9  19  36  58  83 110 141 181 228 276 327
#     4  11  21  36  58  84 113 146 185 229 277 327
#
# _framework density 19.917818
#
# number of rings (size 3 to 8) (size 9 to 14) (size 15 to 20)
#    0.000    1.714    0.000    7.286    0.000    5.143 
#    0.000    0.714    0.000    0.000    0.000    0.000 
#    0.000    0.000    0.000    0.000    0.000    0.000 
#
# Total GULP energy -156341.252328 kJ/mol
# GULP energy per Si atom -5583.616155 kJ/mol
# Density = 1.987248 g / cm^3
# Si number density = 19.917818 Si / 1000 Ang^3
#
#
#
# Elastic Constant Matrix: (Units=GPa)
#
#
# Indices 1 2 3 4 5 6 
#
# 1 40.8340 10.3557 12.3641 0.0000 -35.9403 0.0000
# 2 10.3557 131.4630 26.5989 0.0000 -20.0501 0.0000
# 3 12.3641 26.5989 93.8592 0.0000 -41.9882 0.0000
# 4 0.0000 0.0000 0.0000 27.9890 0.0000 -3.5221
# 5 -35.9403 -20.0501 -41.9882 0.0000 38.7343 0.0000
# 6 0.0000 0.0000 0.0000 -3.5221 0.0000 32.3336
#
#
#
# Elastic Compliance Matrix: (Units=1/GPa)
#
#
# Indices 1 2 3 4 5 6 
#
# 1 -0.135096 -0.006242 -0.073692 0.000000 -0.208465 0.000000
# 2 -0.006242 0.008004 -0.004239 0.000000 -0.006244 0.000000
# 3 -0.073692 -0.004239 -0.019428 0.000000 -0.091631 0.000000
# 4 0.000000 0.000000 0.000000 0.036225 0.000000 0.003946
# 5 -0.208465 -0.006244 -0.091631 0.000000 -0.270172 0.000000
# 6 0.000000 0.000000 0.000000 0.003946 0.000000 0.031357
#
#
# Mechanical properties :
#
#
# Convention : Reuss Voigt Hill
#
# Bulk Modulus (GPa) = -3.17594 40.53263 18.67835
# Shear Modulus (GPa) = -17.49969 34.26721 8.38376
#
# Velocity S-wave (km/s) = -2.96733 4.15231 2.05385
# Velocity P-wave (km/s) = 3.65212 6.58658 3.87589
#
# Compressibility (1/GPa) = -0.31486774
#
# Stress axis : x y z
#
# Youngs Moduli (GPa) = -7.40214 124.94053 -51.47098
#
# Poissons Ratio (x) = 0.77989 -3.79301
# Poissons Ratio (y) = -0.04620 -0.21820
# Poissons Ratio (z) = -0.54548 0.52966
#
# Static dielectric constant tensor:
#      x y z
#    x 1.708830 0.000000 -0.032200 
#    y 0.000000 1.653930 0.000000 
#    z -0.032200 0.000000 1.787380 
# 
# From -- ./inp_files/70919.got.cif
#   From: 2010.05.17/outbox.ucp.g08.bks.cvg/sg11_36_cif.got.tgz:70919.got - 2010.06.11 11:38:39.
