data_PCOD9167443
_publ_section_title
;
Structure prediction by ZEFSAII (Michael W. Deem and Ramdas Pophale) SiO2 
 PCOD9167443
Probable space group: P 21/M
;
_chemical_formula_sum "Si O2"
_cell_formula_units_Z 28
_cell_length_a 26.700538
_cell_length_b 8.825488
_cell_length_c 9.737325
_cell_angle_alpha 90.000000
_cell_angle_beta 141.780089
_cell_angle_gamma 90.000000
_cell_volume 1419.598407
_symmetry_space_group_name_H-M "P 21/M"
_symmetry_group_IT_number 11
_symmetry_cell_setting 'monoclinic'
loop_
_space_group_symop_operation_xyz
x,y,z
-x,1/2+y,-z
-x,-y,-z
x,1/2-y,z
loop_
_atom_site_type_symbol
_atom_site_label
_atom_site_fract_x
_atom_site_fract_y
_atom_site_fract_z
Si Si1 0.069669 0.429921 0.246243
Si Si2 0.757520 0.929693 0.523903
Si Si3 0.362272 0.567456 0.951290
Si Si4 0.178028 0.570186 0.071339
Si Si5 0.530846 0.930976 0.422995
Si Si6 0.006848 0.070519 0.664726
Si Si7 0.689529 0.068575 0.851516
O O1 0.057252 0.250000 0.226938
O O2 0.157993 0.458687 0.374292
O O3 0.058181 0.502204 0.370800
O O4 0.000000 0.500000 0.000000
O O5 0.751681 0.750000 0.538684
O O6 0.685425 0.985273 0.271598
O O7 0.764435 0.022329 0.679595
O O8 0.353453 0.750000 0.920248
O O9 0.458354 0.531386 0.162092
O O10 0.325483 0.522828 0.022342
O O11 0.161170 0.750000 0.038902
O O12 0.223586 0.533479 0.026828
O O13 0.095465 0.477802 0.908948
O O14 0.534512 0.750000 0.440657
O O15 0.500000 0.000000 0.500000
O O16 0.620586 0.996365 0.605946
O O17 0.999060 0.250000 0.642887
O O18 0.000000 0.000000 0.500000
O O19 0.679143 0.250000 0.824819
#
# Coordination Sequence:
#
# PCOD9167443 Si02
#       7
#     4   4   4   4   4   4   4
#     4  11  23  41  63  88 117 156 200 242 293 349
#     4  11  24  39  58  87 118 153 198 242 289 348
#     4   9  19  36  58  86 117 150 192 239 288 344
#     4  11  23  41  62  86 119 157 194 240 299 352
#     4   9  17  32  56  85 116 152 191 235 288 344
#     4  12  26  43  63  89 120 155 198 246 296 351
#     4   9  20  37  59  88 117 150 192 239 294 349
#
# _framework density 19.723887000000001
#
# number of rings (size 3 to 8) (size 9 to 14) (size 15 to 20)
#    0.000    1.714    1.429    3.857    2.000    5.714 
#    0.000    0.714    0.000    0.000    0.000    0.000 
#    0.000    0.000    0.000    0.000    0.000    0.000 
#
# Total GULP energy -156398.408461 kJ/mol
# GULP energy per Si atom -5585.657445 kJ/mol
# Density = 1.967899 g / cm^3
# Si number density = 19.723887 Si / 1000 Ang^3
#
#
#
# Elastic Constant Matrix: (Units=GPa)
#
#
# Indices 1 2 3 4 5 6 
#
# 1 37.1135 8.6083 -18.3248 0.0000 -9.9621 0.0000
# 2 8.6083 35.7048 1.9394 0.0000 -0.0353 0.0000
# 3 -18.3248 1.9394 67.1269 0.0000 -9.0826 0.0000
# 4 0.0000 0.0000 0.0000 37.2621 0.0000 1.7597
# 5 -9.9621 -0.0353 -9.0826 0.0000 27.0142 0.0000
# 6 0.0000 0.0000 0.0000 1.7597 0.0000 24.7122
#
#
#
# Elastic Compliance Matrix: (Units=1/GPa)
#
#
# Indices 1 2 3 4 5 6 
#
# 1 0.042178 -0.010942 0.014597 0.000000 0.020447 0.000000
# 2 -0.010942 0.030892 -0.004631 0.000000 -0.005552 0.000000
# 3 0.014597 -0.004631 0.020684 0.000000 0.012331 0.000000
# 4 0.000000 0.000000 0.000000 0.026927 0.000000 -0.001917
# 5 0.020447 -0.005552 0.012331 0.000000 0.048697 0.000000
# 6 0.000000 0.000000 0.000000 -0.001917 0.000000 0.040602
#
#
# Mechanical properties :
#
#
# Convention : Reuss Voigt Hill
#
# Bulk Modulus (GPa) = 10.89293 13.82124 12.35708
# Shear Modulus (GPa) = 20.61584 27.64584 24.13084
#
# Velocity S-wave (km/s) = 3.23650 3.74791 3.50155
# Velocity P-wave (km/s) = 4.41602 5.07461 4.75673
#
# Compressibility (1/GPa) = 0.09180268
#
# Stress axis : x y z
#
# Youngs Moduli (GPa) = 23.70907 32.37136 48.34624
#
# Poissons Ratio (x) = 0.35420 -0.70570
# Poissons Ratio (y) = 0.25942 0.22387
# Poissons Ratio (z) = -0.34608 0.14990
#
# Static dielectric constant tensor:
#      x y z
#    x 1.696830 0.000000 0.009360 
#    y 0.000000 1.654160 0.000000 
#    z 0.009360 0.000000 1.711440 
# 
# From -- ./inp_files/28549.got.cif
#   From: 2010.05.17/outbox.cif.g08.bks.cpg/sg11_15_cif.got.tgz:28549.got - 2010.06.03 12:22:45.
