data_PCOD9167712
_publ_section_title
;
Structure prediction by ZEFSAII (Michael W. Deem and Ramdas Pophale) SiO2 
 PCOD9167712
Probable space group: P 21/M
;
_chemical_formula_sum "Si O2"
_cell_formula_units_Z 32
_cell_length_a 27.000000
_cell_length_b 9.000000
_cell_length_c 21.000000
_cell_angle_alpha 90.000000
_cell_angle_beta 20.000000
_cell_angle_gamma 90.000000
_cell_volume 1745.328791
_symmetry_space_group_name_H-M "P 21/M"
_symmetry_group_IT_number 11
_symmetry_cell_setting 'monoclinic'
loop_
_space_group_symop_operation_xyz
x,y,z
-x,1/2+y,-z
-x,-y,-z
x,1/2-y,z
loop_
_atom_site_type_symbol
_atom_site_label
_atom_site_fract_x
_atom_site_fract_y
_atom_site_fract_z
Si Si1 0.182942 0.583497 0.130841
Si Si2 0.158181 0.584873 0.557028
Si Si3 0.923589 0.081489 0.493506
Si Si4 0.535075 0.574142 0.257004
Si Si5 0.566118 0.575830 0.742121
Si Si6 0.577306 0.070804 0.343943
Si Si7 0.095280 0.584138 0.088308
Si Si8 0.607538 0.429927 0.923180
O O1 0.231824 0.750000 0.090094
O O2 0.123095 0.596646 0.130844
O O3 0.063801 0.524102 0.324251
O O4 0.313174 0.470380 0.960552
O O5 0.213737 0.750000 0.505502
O O6 0.107631 0.591094 0.544767
O O7 0.281273 0.461785 0.410458
O O8 0.031071 0.537097 0.759100
O O9 0.956063 0.250000 0.476368
O O10 0.774799 0.029004 0.706426
O O11 0.523556 0.750000 0.279081
O O12 0.430335 0.509666 0.329388
O O13 0.524844 0.496354 0.338962
O O14 0.550444 0.750000 0.749051
O O15 0.447169 0.530429 0.939443
O O16 0.557092 0.250000 0.368369
O O17 0.500000 0.000000 0.500000
O O18 0.752319 0.044341 0.129350
O O19 0.051376 0.750000 0.119391
O O20 0.598865 0.250000 0.927774
O O21 0.500000 0.500000 0.000000
#
# Coordination Sequence:
#
# PCOD9167712 Si02
#       8
#     4   4   4   4   4   4   4   4
#     4   9  17  31  51  74 100 133 174 219 268 319
#     4  10  18  29  49  75 104 137 178 223 264 309
#     4   9  17  30  48  73 102 132 174 226 273 317
#     4  11  22  37  56  78 107 141 178 219 263 315
#     4  11  22  35  52  74 105 144 181 221 270 322
#     4  10  20  36  60  89 116 141 173 211 257 310
#     4   8  16  30  49  76 108 137 170 211 254 304
#     4  10  20  33  50  73 103 138 179 227 274 320
#
# _framework density 18.334654
#
# number of rings (size 3 to 8) (size 9 to 14) (size 15 to 20)
#    0.000    2.250    1.250    3.375    0.000    5.000 
#    0.000    0.625    0.000    0.750    0.000    0.000 
#    0.000    0.000    0.000    0.000    0.000    0.000 
#
# Total GULP energy -178253.899144 kJ/mol
# GULP energy per Si atom -5570.434348 kJ/mol
# Density = 1.829292 g / cm^3
# Si number density = 18.334654 Si / 1000 Ang^3
#
#
#
# Elastic Constant Matrix: (Units=GPa)
#
#
# Indices 1 2 3 4 5 6 
#
# 1 47.3898 23.5001 6.7334 0.0000 17.4694 0.0000
# 2 23.5001 80.2996 29.8440 0.0000 8.8171 0.0000
# 3 6.7334 29.8440 92.1042 0.0000 28.5781 0.0000
# 4 0.0000 0.0000 0.0000 28.1965 0.0000 3.8654
# 5 17.4694 8.8171 28.5781 0.0000 25.7428 0.0000
# 6 0.0000 0.0000 0.0000 3.8654 0.0000 20.1474
#
#
#
# Elastic Compliance Matrix: (Units=1/GPa)
#
#
# Indices 1 2 3 4 5 6 
#
# 1 0.038170 -0.011741 0.011903 0.000000 -0.035096 0.000000
# 2 -0.011741 0.017772 -0.008365 0.000000 0.011167 0.000000
# 3 0.011903 -0.008365 0.021837 0.000000 -0.029454 0.000000
# 4 0.000000 0.000000 0.000000 0.036423 0.000000 -0.006988
# 5 -0.035096 0.011167 -0.029454 0.000000 0.091536 0.000000
# 6 0.000000 0.000000 0.000000 -0.006988 0.000000 0.050975
#
#
# Mechanical properties :
#
#
# Convention : Reuss Voigt Hill
#
# Bulk Modulus (GPa) = 16.29381 37.77209 27.03295
# Shear Modulus (GPa) = 17.03136 25.46509 21.24822
#
# Velocity S-wave (km/s) = 3.05112 3.73084 3.40797
# Velocity P-wave (km/s) = 4.61721 6.26140 5.50108
#
# Compressibility (1/GPa) = 0.06137302
#
# Stress axis : x y z
#
# Youngs Moduli (GPa) = 26.19868 56.26741 45.79457
#
# Poissons Ratio (x) = 0.66064 -0.54511
# Poissons Ratio (y) = 0.30760 0.38308
# Poissons Ratio (z) = -0.31185 0.47069
#
# Static dielectric constant tensor:
#      x y z
#    x 1.659900 0.000000 -0.068310 
#    y 0.000000 1.653150 0.000000 
#    z -0.068310 0.000000 1.662950 
# 
# From -- ./inp_files/42897.got.cif
#   From: 2010.05.17/outbox.ucp.g08.bks.cvg/sg11_22_cif.got.tgz:42897.got - 2010.06.11 11:38:39.
