data_PCOD9167817
_publ_section_title
;
Structure prediction by ZEFSAII (Michael W. Deem and Ramdas Pophale) SiO2 
 PCOD9167817
Probable space group: P 21/M
;
_chemical_formula_sum "Si O2"
_cell_formula_units_Z 32
_cell_length_a 21.000000
_cell_length_b 9.000000
_cell_length_c 12.000000
_cell_angle_alpha 90.000000
_cell_angle_beta 130.000000
_cell_angle_gamma 90.000000
_cell_volume 1737.388797
_symmetry_space_group_name_H-M "P 21/M"
_symmetry_group_IT_number 11
_symmetry_cell_setting 'monoclinic'
loop_
_space_group_symop_operation_xyz
x,y,z
-x,1/2+y,-z
-x,-y,-z
x,1/2-y,z
loop_
_atom_site_type_symbol
_atom_site_label
_atom_site_fract_x
_atom_site_fract_y
_atom_site_fract_z
Si Si1 0.376227 0.425691 0.299752
Si Si2 0.917589 0.073118 0.279077
Si Si3 0.528836 0.919712 0.816546
Si Si4 0.358703 0.918804 0.509326
Si Si5 0.647888 0.074946 0.099927
Si Si6 0.900665 0.571857 0.499002
Si Si7 0.248929 0.925455 0.012334
Si Si8 0.730270 0.927098 0.405540
O O1 0.385888 0.250000 0.327224
O O2 0.433549 0.471901 0.259749
O O3 0.389915 0.511359 0.429399
O O4 0.287494 0.472894 0.150652
O O5 0.915288 0.250000 0.298716
O O6 0.847674 0.043445 0.110764
O O7 0.010425 0.030028 0.351096
O O8 0.896969 0.992486 0.370986
O O9 0.558418 0.750000 0.868879
O O10 0.432297 0.916762 0.683125
O O11 0.560289 0.020278 0.951808
O O12 0.332366 0.750000 0.459280
O O13 0.291595 0.016578 0.496497
O O14 0.647789 0.250000 0.121773
O O15 0.709042 0.045643 0.062218
O O16 0.676079 0.990294 0.241770
O O17 0.896686 0.750000 0.487061
O O18 0.822855 0.520436 0.481215
O O19 0.263615 0.750000 0.052346
O O20 0.723844 0.750000 0.395603
#
# Coordination Sequence:
#
# PCOD9167817 Si02
#       8
#     4   4   4   4   4   4   4   4
#     4  10  20  35  56  79 103 129 165 214 262 304
#     4   9  16  29  50  77 107 135 168 207 251 301
#     4   9  20  37  56  78 102 130 166 214 263 308
#     4  11  23  38  55  74  99 135 177 213 255 308
#     4  10  19  32  52  78 105 137 172 208 255 306
#     4   9  18  30  48  75 106 139 169 206 252 300
#     4   9  17  30  51  78 107 135 166 207 253 302
#     4  11  22  35  51  73 107 143 175 210 253 305
#
# _framework density 18.418444999999998
#
# number of rings (size 3 to 8) (size 9 to 14) (size 15 to 20)
#    0.000    2.250    1.250    1.875    0.000    3.500 
#    0.000    0.000    0.000    0.750    0.000    0.000 
#    0.000    0.000    0.000    0.000    0.000    0.000 
#
# Total GULP energy -178330.354141 kJ/mol
# GULP energy per Si atom -5572.823567 kJ/mol
# Density = 1.837652 g / cm^3
# Si number density = 18.418445 Si / 1000 Ang^3
#
#
#
# Elastic Constant Matrix: (Units=GPa)
#
#
# Indices 1 2 3 4 5 6 
#
# 1 51.7106 17.2434 8.5232 0.0000 7.1557 0.0000
# 2 17.2434 29.6937 8.0075 0.0000 -6.0382 0.0000
# 3 8.5232 8.0075 19.1600 0.0000 16.6861 0.0000
# 4 0.0000 0.0000 0.0000 24.0555 0.0000 -11.6049
# 5 7.1557 -6.0382 16.6861 0.0000 -3.3584 0.0000
# 6 0.0000 0.0000 0.0000 -11.6049 0.0000 7.6374
#
#
#
# Elastic Compliance Matrix: (Units=1/GPa)
#
#
# Indices 1 2 3 4 5 6 
#
# 1 0.023504 -0.009107 -0.012112 0.000000 0.006273 0.000000
# 2 -0.009107 0.031453 0.010710 0.000000 -0.022740 0.000000
# 3 -0.012112 0.010710 0.017336 0.000000 0.041071 0.000000
# 4 0.000000 0.000000 0.000000 0.155709 0.000000 0.236596
# 5 0.006273 -0.022740 0.041071 0.000000 -0.039451 0.000000
# 6 0.000000 0.000000 0.000000 0.236596 0.000000 0.490434
#
#
# Mechanical properties :
#
#
# Convention : Reuss Voigt Hill
#
# Bulk Modulus (GPa) = 19.50253 18.67915 19.09084
# Shear Modulus (GPa) = 6.97258 10.11959 8.54609
#
# Velocity S-wave (km/s) = 1.94779 2.34653 2.15639
# Velocity P-wave (km/s) = 3.95854 4.18392 4.07279
#
# Compressibility (1/GPa) = 0.05127541
#
# Stress axis : x y z
#
# Youngs Moduli (GPa) = 42.54681 31.79329 57.68266
#
# Poissons Ratio (x) = 0.28954 0.69866
# Poissons Ratio (y) = 0.38747 -0.61780
# Poissons Ratio (z) = 0.51534 -0.34052
#
# Static dielectric constant tensor:
#      x y z
#    x 1.673630 0.000000 0.066520 
#    y 0.000000 1.620570 0.000000 
#    z 0.066520 0.000000 1.640770 
# 
# From -- ./inp_files/40705.got.cif
#   From: 2010.05.17/outbox.ucp.g08.bks.cvg/sg11_21_cif.got.tgz:40705.got - 2010.06.11 11:38:39.
