data_PCOD9167997
_publ_section_title
;
Structure prediction by ZEFSAII (Michael W. Deem and Ramdas Pophale) SiO2 
 PCOD9167997
Probable space group: P 21/M
;
_chemical_formula_sum "Si O2"
_cell_formula_units_Z 32
_cell_length_a 15.000000
_cell_length_b 9.000000
_cell_length_c 24.000000
_cell_angle_alpha 90.000000
_cell_angle_beta 30.000000
_cell_angle_gamma 90.000000
_cell_volume 1620.000000
_symmetry_space_group_name_H-M "P 21/M"
_symmetry_group_IT_number 11
_symmetry_cell_setting 'monoclinic'
loop_
_space_group_symop_operation_xyz
x,y,z
-x,1/2+y,-z
-x,-y,-z
x,1/2-y,z
loop_
_atom_site_type_symbol
_atom_site_label
_atom_site_fract_x
_atom_site_fract_y
_atom_site_fract_z
Si Si1 0.150385 0.072782 0.455370
Si Si2 0.449541 0.571433 0.778025
Si Si3 0.738416 0.070806 0.011333
Si Si4 0.581437 0.572593 0.900651
Si Si5 0.286292 0.582568 0.569653
Si Si6 0.892532 0.582317 0.234881
Si Si7 0.421172 0.419707 0.677146
Si Si8 0.975520 0.580748 0.652474
O O1 0.144330 0.250000 0.457844
O O2 0.343245 0.026074 0.327412
O O3 0.000000 0.000000 0.500000
O O4 0.096564 0.014336 0.545300
O O5 0.445338 0.750000 0.782835
O O6 0.314851 0.514954 0.898392
O O7 0.408642 0.516580 0.738645
O O8 0.766036 0.250000 0.000581
O O9 0.563657 0.046534 0.068781
O O10 0.916489 0.012248 0.884496
O O11 0.596859 0.750000 0.901414
O O12 0.778735 0.521930 0.774335
O O13 0.500000 0.500000 0.000000
O O14 0.345954 0.750000 0.551670
O O15 0.238166 0.493206 0.650284
O O16 0.434293 0.523372 0.446363
O O17 0.096308 0.589921 0.641655
O O18 0.926276 0.750000 0.237302
O O19 0.773157 0.587474 0.244447
O O20 0.479723 0.250000 0.659265
O O21 0.954180 0.750000 0.641297
#
# Coordination Sequence:
#
# PCOD9167997 Si02
#       8
#     4   4   4   4   4   4   4   4
#     4  11  22  35  55  82 109 142 183 225 271 330
#     4  10  21  38  59  81 109 147 188 227 274 334
#     4   9  19  37  56  78 111 147 183 229 276 321
#     4  10  20  35  56  80 111 149 187 228 274 327
#     4  10  20  35  55  80 114 145 177 232 288 329
#     4  10  21  36  57  81 108 146 189 229 275 336
#     4  10  21  37  56  82 113 145 181 229 287 330
#     4  10  20  35  55  79 110 147 182 224 279 330
#
# _framework density 19.753086
#
# number of rings (size 3 to 8) (size 9 to 14) (size 15 to 20)
#    0.000    2.000    1.250    2.250    0.000    5.000 
#    0.000    1.250    0.000    0.000    0.000    0.000 
#    0.000    0.000    0.000    0.000    0.000    0.000 
#
# Total GULP energy -178347.037924 kJ/mol
# GULP energy per Si atom -5573.344935 kJ/mol
# Density = 1.970813 g / cm^3
# Si number density = 19.753086 Si / 1000 Ang^3
#
#
#
# Elastic Constant Matrix: (Units=GPa)
#
#
# Indices 1 2 3 4 5 6 
#
# 1 40.2270 4.3870 5.7032 0.0000 7.7864 0.0000
# 2 4.3870 3.8627 -1.8942 0.0000 10.3863 0.0000
# 3 5.7032 -1.8942 72.6724 0.0000 15.4140 0.0000
# 4 0.0000 0.0000 0.0000 25.9421 0.0000 5.8354
# 5 7.7864 10.3863 15.4140 0.0000 35.3801 0.0000
# 6 0.0000 0.0000 0.0000 5.8354 0.0000 16.5642
#
#
#
# Elastic Compliance Matrix: (Units=1/GPa)
#
#
# Indices 1 2 3 4 5 6 
#
# 1 0.102093 -1.256901 -0.125902 0.000000 0.401362 0.000000
# 2 -1.256901 20.766732 2.065116 0.000000 -6.719421 0.000000
# 3 -0.125902 2.065116 0.220556 0.000000 -0.674621 0.000000
# 4 0.000000 0.000000 0.000000 0.041865 0.000000 -0.014749
# 5 0.401362 -6.719421 -0.674621 0.000000 2.206414 0.000000
# 6 0.000000 0.000000 0.000000 -0.014749 0.000000 0.065567
#
#
# Mechanical properties :
#
#
# Convention : Reuss Voigt Hill
#
# Bulk Modulus (GPa) = 0.04454 14.79492 7.41973
# Shear Modulus (GPa) = 0.16936 22.81503 11.49219
#
# Velocity S-wave (km/s) = 0.29313 3.40223 2.41465
# Velocity P-wave (km/s) = 0.37035 4.78955 3.39683
#
# Compressibility (1/GPa) = 22.45400566
#
# Stress axis : x y z
#
# Youngs Moduli (GPa) = 9.79496 0.04815 4.53400
#
# Poissons Ratio (x) = 0.06052 0.57084
# Poissons Ratio (y) = 12.31130 -9.36324
# Poissons Ratio (z) = 1.23321 -0.09944
#
# Static dielectric constant tensor:
#      x y z
#    x 1.993300 0.000000 0.170080 
#    y 0.000000 1.719940 0.000000 
#    z 0.170080 0.000000 1.794450 
# 
# From -- ./inp_files/55678.got.cif
#   From: 2010.05.17/outbox.ucp.g08.bks.cvg/sg11_28_cif.got.tgz:55678.got - 2010.06.11 11:38:39.
