data_PCOD9167844
_publ_section_title
;
Structure prediction by ZEFSAII (Michael W. Deem and Ramdas Pophale) SiO2 
 PCOD9167844
Probable space group: P 21/M
;
_chemical_formula_sum "Si O2"
_cell_formula_units_Z 32
_cell_length_a 15.000000
_cell_length_b 9.000000
_cell_length_c 24.000000
_cell_angle_alpha 90.000000
_cell_angle_beta 30.000000
_cell_angle_gamma 90.000000
_cell_volume 1620.000000
_symmetry_space_group_name_H-M "P 21/M"
_symmetry_group_IT_number 11
_symmetry_cell_setting 'monoclinic'
loop_
_space_group_symop_operation_xyz
x,y,z
-x,1/2+y,-z
-x,-y,-z
x,1/2-y,z
loop_
_atom_site_type_symbol
_atom_site_label
_atom_site_fract_x
_atom_site_fract_y
_atom_site_fract_z
Si Si1 0.123988 0.928378 0.387826
Si Si2 0.512610 0.429456 0.750589
Si Si3 0.779230 0.931620 0.005062
Si Si4 0.479040 0.418925 0.953365
Si Si5 0.181816 0.572945 0.625174
Si Si6 0.825681 0.429899 0.243199
Si Si7 0.547896 0.571069 0.610789
Si Si8 0.895349 0.420174 0.720060
O O1 0.114242 0.750000 0.393299
O O2 0.327374 0.966296 0.293178
O O3 0.041196 0.976558 0.373942
O O4 0.000000 0.000000 0.500000
O O5 0.510119 0.250000 0.744708
O O6 0.558395 0.505564 0.667292
O O7 0.326579 0.474965 0.881270
O O8 0.776854 0.750000 0.006147
O O9 0.983225 0.981013 0.884891
O O10 0.656462 0.981257 0.019113
O O11 0.421096 0.250000 0.995039
O O12 0.684406 0.416255 0.823481
O O13 0.500000 0.500000 0.000000
O O14 0.204469 0.750000 0.609333
O O15 0.209250 0.522833 0.674052
O O16 0.311534 0.495039 0.510039
O O17 0.978749 0.526164 0.720574
O O18 0.836530 0.250000 0.238675
O O19 0.651911 0.468614 0.301852
O O20 0.567697 0.750000 0.601152
O O21 0.950658 0.250000 0.701920
#
# Coordination Sequence:
#
# PCOD9167844 Si02
#       8
#     4   4   4   4   4   4   4   4
#     4  10  20  34  52  77 108 145 184 222 269 327
#     4  10  20  37  60  84 112 150 196 236 277 341
#     4   9  17  35  60  83 113 153 191 232 281 340
#     4  10  19  33  55  82 114 151 187 225 272 330
#     4  11  22  38  60  87 114 147 194 240 283 349
#     4   9  20  37  59  85 113 148 192 238 291 345
#     4  11  23  39  58  83 115 151 189 241 299 341
#     4  10  20  35  54  81 115 148 180 221 280 333
#
# _framework density 19.753086
#
# number of rings (size 3 to 8) (size 9 to 14) (size 15 to 20)
#    0.000    2.000    1.250    2.625    0.000    5.000 
#    0.000    2.500    0.000    3.750    0.000    0.000 
#    0.000    0.000    0.000    0.000    0.000    0.000 
#
# Total GULP energy -178394.978389 kJ/mol
# GULP energy per Si atom -5574.843075 kJ/mol
# Density = 1.970813 g / cm^3
# Si number density = 19.753086 Si / 1000 Ang^3
#
#
#
# Elastic Constant Matrix: (Units=GPa)
#
#
# Indices 1 2 3 4 5 6 
#
# 1 81.7605 20.3941 17.8857 0.0000 2.4518 0.0000
# 2 20.3941 24.8870 17.0883 0.0000 3.7634 0.0000
# 3 17.8857 17.0883 90.3367 0.0000 -0.0004 0.0000
# 4 0.0000 0.0000 0.0000 17.4094 0.0000 -2.0220
# 5 2.4518 3.7634 -0.0004 0.0000 35.2921 0.0000
# 6 0.0000 0.0000 0.0000 -2.0220 0.0000 22.4293
#
#
#
# Elastic Compliance Matrix: (Units=1/GPa)
#
#
# Indices 1 2 3 4 5 6 
#
# 1 0.015420 -0.012153 -0.000754 0.000000 0.000225 0.000000
# 2 -0.012153 0.056629 -0.008306 0.000000 -0.005195 0.000000
# 3 -0.000754 -0.008306 0.012790 0.000000 0.000938 0.000000
# 4 0.000000 0.000000 0.000000 0.058048 0.000000 0.005233
# 5 0.000225 -0.005195 0.000938 0.000000 0.028873 0.000000
# 6 0.000000 0.000000 0.000000 0.005233 0.000000 0.045056
#
#
# Mechanical properties :
#
#
# Convention : Reuss Voigt Hill
#
# Bulk Modulus (GPa) = 23.57716 34.19116 28.88416
# Shear Modulus (GPa) = 18.28948 24.46723 21.37835
#
# Velocity S-wave (km/s) = 3.04617 3.52327 3.29337
# Velocity P-wave (km/s) = 4.93296 5.82221 5.39593
#
# Compressibility (1/GPa) = 0.04241393
#
# Stress axis : x y z
#
# Youngs Moduli (GPa) = 64.84901 17.65875 78.18470
#
# Poissons Ratio (x) = 0.21460 0.05897
# Poissons Ratio (y) = 0.78809 0.64940
# Poissons Ratio (z) = 0.04891 0.14667
#
# Static dielectric constant tensor:
#      x y z
#    x 1.751270 0.000000 0.038710 
#    y 0.000000 1.662100 0.000000 
#    z 0.038710 0.000000 1.844150 
# 
# From -- ./inp_files/55679.got.cif
#   From: 2010.05.17/outbox.ucp.g08.bks.cvg/sg11_28_cif.got.tgz:55679.got - 2010.06.11 11:38:39.
