data_PCOD9167345
_publ_section_title
;
Structure prediction by ZEFSAII (Michael W. Deem and Ramdas Pophale) SiO2 
 PCOD9167345
Probable space group: P 21/M
;
_chemical_formula_sum "Si O2"
_cell_formula_units_Z 28
_cell_length_a 27.725990
_cell_length_b 8.702492
_cell_length_c 9.563107
_cell_angle_alpha 90.000000
_cell_angle_beta 142.364833
_cell_angle_gamma 90.000000
_cell_volume 1408.992887
_symmetry_space_group_name_H-M "P 21/M"
_symmetry_group_IT_number 11
_symmetry_cell_setting 'monoclinic'
loop_
_space_group_symop_operation_xyz
x,y,z
-x,1/2+y,-z
-x,-y,-z
x,1/2-y,z
loop_
_atom_site_type_symbol
_atom_site_label
_atom_site_fract_x
_atom_site_fract_y
_atom_site_fract_z
Si Si1 0.372779 0.065461 0.548086
Si Si2 0.514628 0.934647 0.689209
Si Si3 0.662685 0.563488 0.215770
Si Si4 0.760549 0.431468 0.956217
Si Si5 0.975203 0.068310 0.796416
Si Si6 0.197485 0.434577 0.653398
Si Si7 0.937556 0.430682 0.248955
O O1 0.381424 0.250000 0.567918
O O2 0.359619 0.012523 0.678621
O O3 0.447664 0.990995 0.643132
O O4 0.298460 0.016564 0.283359
O O5 0.513303 0.750000 0.676909
O O6 0.500000 0.000000 0.500000
O O7 0.597462 0.982729 0.950859
O O8 0.662116 0.750000 0.218411
O O9 0.748836 0.517564 0.356139
O O10 0.741415 0.250000 0.918396
O O11 0.760716 0.503158 0.110928
O O12 0.849456 0.448445 0.102856
O O13 0.967034 0.250000 0.782126
O O14 0.891088 0.998779 0.556912
O O15 0.044422 0.020290 0.850466
O O16 0.000000 0.000000 0.000000
O O17 0.194336 0.250000 0.651375
O O18 0.953120 0.250000 0.265093
O O19 0.000000 0.500000 0.500000
#
# Coordination Sequence:
#
# PCOD9167345 Si02
#       7
#     4   4   4   4   4   4   4
#     4  11  23  41  64  93 127 166 208 256 314 372
#     4  11  22  41  67  96 128 164 208 255 307 374
#     4   9  22  41  63  92 126 163 206 255 310 371
#     4  11  24  41  62  93 127 164 212 263 315 378
#     4  12  26  43  63  91 127 168 215 267 324 384
#     4  11  22  41  66  93 124 165 213 264 318 377
#     4  11  23  41  65  93 126 165 213 266 322 380
#
# _framework density 19.872350999999998
#
# number of rings (size 3 to 8) (size 9 to 14) (size 15 to 20)
#    0.000    1.143    1.429    4.714    2.000    2.857 
#    0.000    6.429    0.000    0.000    0.000    0.000 
#    0.000    0.000    0.000    0.000    0.000    0.000 
#
# Total GULP energy -156559.345949 kJ/mol
# GULP energy per Si atom -5591.405212 kJ/mol
# Density = 1.982712 g / cm^3
# Si number density = 19.872351 Si / 1000 Ang^3
#
#
#
# Elastic Constant Matrix: (Units=GPa)
#
#
# Indices 1 2 3 4 5 6 
#
# 1 116.3706 40.8168 16.8769 0.0000 -21.4096 0.0000
# 2 40.8168 80.4556 17.1708 0.0000 0.5664 0.0000
# 3 16.8769 17.1708 64.7273 0.0000 -11.5235 0.0000
# 4 0.0000 0.0000 0.0000 31.0963 0.0000 0.0062
# 5 -21.4096 0.5664 -11.5235 0.0000 37.4594 0.0000
# 6 0.0000 0.0000 0.0000 0.0062 0.0000 33.1740
#
#
#
# Elastic Compliance Matrix: (Units=1/GPa)
#
#
# Indices 1 2 3 4 5 6 
#
# 1 0.012040 -0.006093 -0.000298 0.000000 0.006882 0.000000
# 2 -0.006093 0.016323 -0.003603 0.000000 -0.004837 0.000000
# 3 -0.000298 -0.003603 0.017416 0.000000 0.005242 0.000000
# 4 0.000000 0.000000 0.000000 0.032158 0.000000 -0.000006
# 5 0.006882 -0.004837 0.005242 0.000000 0.032314 0.000000
# 6 0.000000 0.000000 0.000000 -0.000006 0.000000 0.030144
#
#
# Mechanical properties :
#
#
# Convention : Reuss Voigt Hill
#
# Bulk Modulus (GPa) = 38.77153 45.69804 42.23478
# Shear Modulus (GPa) = 29.58940 32.79188 31.19064
#
# Velocity S-wave (km/s) = 3.86291 4.06658 3.96605
# Velocity P-wave (km/s) = 6.28082 6.71529 6.50169
#
# Compressibility (1/GPa) = 0.02579212
#
# Stress axis : x y z
#
# Youngs Moduli (GPa) = 83.05978 61.26253 57.41831
#
# Poissons Ratio (x) = 0.37326 0.01709
# Poissons Ratio (y) = 0.50607 0.20687
# Poissons Ratio (z) = 0.02473 0.22072
#
# Static dielectric constant tensor:
#      x y z
#    x 21.226150 0.000000 -6.744660 
#    y 0.000000 1.670280 0.000000 
#    z -6.744660 0.000000 4.007730 
# 
# From -- ./inp_files/28541.got.cif
#   From: 2010.05.17/outbox.cif.g08.bks.cpg/sg11_15_cif.got.tgz:28541.got - 2010.06.03 12:22:45.
