data_PCOD9167532
_publ_section_title
;
Structure prediction by ZEFSAII (Michael W. Deem and Ramdas Pophale) SiO2 
 PCOD9167532
Probable space group: P 21/M
;
_chemical_formula_sum "Si O2"
_cell_formula_units_Z 16
_cell_length_a 10.224583
_cell_length_b 13.901303
_cell_length_c 13.048372
_cell_angle_alpha 90.000000
_cell_angle_beta 20.973310
_cell_angle_gamma 90.000000
_cell_volume 663.833571
_symmetry_space_group_name_H-M "P 21/M"
_symmetry_group_IT_number 11
_symmetry_cell_setting 'monoclinic'
loop_
_space_group_symop_operation_xyz
x,y,z
-x,1/2+y,-z
-x,-y,-z
x,1/2-y,z
loop_
_atom_site_type_symbol
_atom_site_label
_atom_site_fract_x
_atom_site_fract_y
_atom_site_fract_z
Si Si1 0.163393 0.854514 0.573688
Si Si2 0.798294 0.567743 0.230177
Si Si3 0.365691 0.862782 0.984581
Si Si4 0.394809 0.931417 0.187890
O O1 0.993328 0.750000 0.706532
O O2 0.537984 0.858730 0.361625
O O3 0.280663 0.876602 0.372592
O O4 0.840135 0.922975 0.849611
O O5 0.500000 0.500000 0.500000
O O6 0.062187 0.617605 0.119521
O O7 0.000000 0.500000 0.000000
O O8 0.478383 0.750000 0.894151
O O9 0.251216 0.884525 0.186854
O O10 0.648569 0.952973 0.763160
#
# Coordination Sequence:
#
# PCOD9167532 Si02
#       4
#     4   4   4   4
#     4  12  23  45  71  99 137 183 226 278 343 404
#     4  12  24  45  66 100 138 180 226 283 337 400
#     4  11  24  46  72 103 139 183 226 282 346 405
#     4  11  26  45  71 103 139 174 230 286 333 409
#
# _framework density 24.102426999999999
#
# number of rings (size 3 to 8) (size 9 to 14) (size 15 to 20)
#    0.000    0.500    5.000    3.000    0.000    6.000 
#    0.000   12.500    0.000    0.000    0.000    0.000 
#    0.000    0.000    0.000    0.000    0.000    0.000 
#
# Total GULP energy -89432.658792 kJ/mol
# GULP energy per Si atom -5589.541174 kJ/mol
# Density = 2.404757 g / cm^3
# Si number density = 24.102427 Si / 1000 Ang^3
#
#
#
# Elastic Constant Matrix: (Units=GPa)
#
#
# Indices 1 2 3 4 5 6 
#
# 1 193.1158 43.3609 29.7023 0.0000 -44.8604 0.0000
# 2 43.3609 181.2626 11.3087 0.0000 -2.8587 0.0000
# 3 29.7023 11.3087 70.4209 0.0000 3.8813 0.0000
# 4 0.0000 0.0000 0.0000 27.9077 0.0000 0.7844
# 5 -44.8604 -2.8587 3.8813 0.0000 47.8126 0.0000
# 6 0.0000 0.0000 0.0000 0.7844 0.0000 25.8140
#
#
#
# Elastic Compliance Matrix: (Units=1/GPa)
#
#
# Indices 1 2 3 4 5 6 
#
# 1 0.007797 -0.001531 -0.003456 0.000000 0.007505 0.000000
# 2 -0.001531 0.005881 -0.000240 0.000000 -0.001066 0.000000
# 3 -0.003456 -0.000240 0.015948 0.000000 -0.004552 0.000000
# 4 0.000000 0.000000 0.000000 0.035863 0.000000 -0.001090
# 5 0.007505 -0.001066 -0.004552 0.000000 0.028262 0.000000
# 6 0.000000 0.000000 0.000000 -0.001090 0.000000 0.038772
#
#
# Mechanical properties :
#
#
# Convention : Reuss Voigt Hill
#
# Bulk Modulus (GPa) = 52.16226 68.17146 60.16686
# Shear Modulus (GPa) = 33.47446 44.33537 38.90491
#
# Velocity S-wave (km/s) = 3.73076 4.29354 4.02201
# Velocity P-wave (km/s) = 6.34405 7.27494 6.82539
#
# Compressibility (1/GPa) = 0.01917095
#
# Stress axis : x y z
#
# Youngs Moduli (GPa) = 128.25563 170.03048 62.70555
#
# Poissons Ratio (x) = 0.26034 0.21673
# Poissons Ratio (y) = 0.19638 0.01504
# Poissons Ratio (z) = 0.44329 0.04079
#
# Static dielectric constant tensor:
#      x y z
#    x 1.966740 0.000000 -0.049150 
#    y 0.000000 1.976290 0.000000 
#    z -0.049150 0.000000 1.917150 
# 
# From -- ./inp_files/50145.got.cif
#   From: 2010.05.17/outbox.cif.g08.bks.cpg/sg11_26_cif.got.tgz:50145.got - 2010.06.03 12:22:45.
