data_PCOD9167395
_publ_section_title
;
Structure prediction by ZEFSAII (Michael W. Deem and Ramdas Pophale) SiO2 
 PCOD9167395
Probable space group: P 21/M
;
_chemical_formula_sum "Si O2"
_cell_formula_units_Z 32
_cell_length_a 12.428911
_cell_length_b 8.624961
_cell_length_c 15.368582
_cell_angle_alpha 90.000000
_cell_angle_beta 91.663876
_cell_angle_gamma 90.000000
_cell_volume 1646.800024
_symmetry_space_group_name_H-M "P 21/M"
_symmetry_group_IT_number 11
_symmetry_cell_setting 'monoclinic'
loop_
_space_group_symop_operation_xyz
x,y,z
-x,1/2+y,-z
-x,-y,-z
x,1/2-y,z
loop_
_atom_site_type_symbol
_atom_site_label
_atom_site_fract_x
_atom_site_fract_y
_atom_site_fract_z
Si Si1 0.333152 0.936942 0.531280
Si Si2 0.910640 0.436467 0.432434
Si Si3 0.533729 0.436807 0.634175
Si Si4 0.723830 0.931889 0.958233
Si Si5 0.691747 0.432690 0.143698
Si Si6 0.103885 0.434319 0.757532
Si Si7 0.959694 0.566221 0.907042
Si Si8 0.456720 0.565191 0.168894
O O1 0.335645 0.750000 0.534508
O O2 0.210486 0.986446 0.542873
O O3 0.383032 0.986321 0.439255
O O4 0.416627 0.999298 0.604969
O O5 0.913429 0.250000 0.432327
O O6 0.930270 0.499549 0.336237
O O7 0.000000 0.500000 0.500000
O O8 0.527902 0.250000 0.632656
O O9 0.566647 0.483158 0.732013
O O10 0.719028 0.750000 0.981737
O O11 0.831266 0.956336 0.904348
O O12 0.620271 0.980890 0.901026
O O13 0.730920 0.029047 0.046998
O O14 0.675146 0.250000 0.154050
O O15 0.782268 0.491839 0.211875
O O16 0.579982 0.521454 0.153999
O O17 0.114307 0.250000 0.754293
O O18 0.019501 0.482096 0.829996
O O19 0.982827 0.750000 0.903285
O O20 0.000000 0.500000 0.000000
O O21 0.441886 0.750000 0.160302
#
# Coordination Sequence:
#
# PCOD9167395 Si02
#       8
#     4   4   4   4   4   4   4   4
#     4   9  19  37  61  87 117 153 196 246 301 360
#     4  11  24  42  63  91 127 165 207 258 315 375
#     4   9  19  36  59  87 116 152 196 244 298 361
#     4  11  24  41  61  88 122 159 202 252 309 371
#     4  12  24  40  63  88 121 161 206 256 309 370
#     4  12  25  42  66  94 125 164 211 261 314 377
#     4  11  23  41  66  93 124 161 207 260 311 370
#     4  11  23  38  58  87 125 163 203 249 306 371
#
# _framework density 19.431625
#
# number of rings (size 3 to 8) (size 9 to 14) (size 15 to 20)
#    0.000    1.250    1.250    4.875    0.000    6.500 
#    0.000    1.250    0.000    0.000    0.000    0.000 
#    0.000    0.000    0.000    0.000    0.000    0.000 
#
# Total GULP energy -178982.009506 kJ/mol
# GULP energy per Si atom -5593.187797 kJ/mol
# Density = 1.938740 g / cm^3
# Si number density = 19.431625 Si / 1000 Ang^3
#
#
#
# Elastic Constant Matrix: (Units=GPa)
#
#
# Indices 1 2 3 4 5 6 
#
# 1 50.8650 -3.5734 45.9934 0.0000 0.4262 0.0000
# 2 -3.5734 24.9977 8.9488 0.0000 -1.0573 0.0000
# 3 45.9934 8.9488 98.9078 0.0000 13.8900 0.0000
# 4 0.0000 0.0000 0.0000 32.2720 0.0000 4.7463
# 5 0.4262 -1.0573 13.8900 0.0000 28.7495 0.0000
# 6 0.0000 0.0000 0.0000 4.7463 0.0000 21.1245
#
#
#
# Elastic Compliance Matrix: (Units=1/GPa)
#
#
# Indices 1 2 3 4 5 6 
#
# 1 0.039560 0.013615 -0.021043 0.000000 0.010081 0.000000
# 2 0.013615 0.046372 -0.011519 0.000000 0.007069 0.000000
# 3 -0.021043 -0.011519 0.022479 0.000000 -0.010972 0.000000
# 4 0.000000 0.000000 0.000000 0.032046 0.000000 -0.007200
# 5 0.010081 0.007069 -0.010972 0.000000 0.040195 0.000000
# 6 0.000000 0.000000 0.000000 -0.007200 0.000000 0.048956
#
#
# Mechanical properties :
#
#
# Convention : Reuss Voigt Hill
#
# Bulk Modulus (GPa) = 14.18137 30.83424 22.50781
# Shear Modulus (GPa) = 17.18163 24.65599 20.91881
#
# Velocity S-wave (km/s) = 2.97679 3.56597 3.28462
# Velocity P-wave (km/s) = 4.37367 5.73213 5.09835
#
# Compressibility (1/GPa) = 0.07051503
#
# Stress axis : x y z
#
# Youngs Moduli (GPa) = 25.27825 21.56452 44.48618
#
# Poissons Ratio (x) = -0.29359 0.93613
# Poissons Ratio (y) = -0.34415 0.51245
# Poissons Ratio (z) = 0.53194 0.24841
#
# Static dielectric constant tensor:
#      x y z
#    x 1.663810 0.000000 -0.026110 
#    y 0.000000 1.669920 0.000000 
#    z -0.026110 0.000000 1.667590 
# 
# From -- ./inp_files/49346.got.cif
#   From: 2010.05.17/outbox.cif.g08.bks.cpg/sg11_25_cif.got.tgz:49346.got - 2010.06.03 12:22:45.
