data_PCOD9167700
_publ_section_title
;
Structure prediction by ZEFSAII (Michael W. Deem and Ramdas Pophale) SiO2 
 PCOD9167700
Probable space group: P 21/M
;
_chemical_formula_sum "Si O2"
_cell_formula_units_Z 32
_cell_length_a 15.000000
_cell_length_b 9.000000
_cell_length_c 27.000000
_cell_angle_alpha 90.000000
_cell_angle_beta 30.000000
_cell_angle_gamma 90.000000
_cell_volume 1822.500000
_symmetry_space_group_name_H-M "P 21/M"
_symmetry_group_IT_number 11
_symmetry_cell_setting 'monoclinic'
loop_
_space_group_symop_operation_xyz
x,y,z
-x,1/2+y,-z
-x,-y,-z
x,1/2-y,z
loop_
_atom_site_type_symbol
_atom_site_label
_atom_site_fract_x
_atom_site_fract_y
_atom_site_fract_z
Si Si1 0.266606 0.428678 0.872338
Si Si2 0.202710 0.573030 0.458935
Si Si3 0.093685 0.571062 0.329865
Si Si4 0.033619 0.571538 0.903943
Si Si5 0.438255 0.074976 0.420858
Si Si6 0.862388 0.572151 0.354449
Si Si7 0.654859 0.069192 0.712599
Si Si8 0.153150 0.575536 0.743642
O O1 0.267157 0.250000 0.866253
O O2 0.194628 0.501328 0.857196
O O3 0.460514 0.484133 0.792809
O O4 0.136905 0.464760 0.980624
O O5 0.174842 0.750000 0.475429
O O6 0.382007 0.526850 0.401963
O O7 0.219315 0.527670 0.393863
O O8 0.054262 0.484579 0.560369
O O9 0.091181 0.750000 0.330170
O O10 0.275712 0.520281 0.267438
O O11 0.030359 0.520305 0.306718
O O12 0.054576 0.750000 0.893230
O O13 0.033946 0.521099 0.847030
O O14 0.403296 0.250000 0.426263
O O15 0.312227 0.034359 0.528447
O O16 0.642775 0.059556 0.336778
O O17 0.864583 0.750000 0.349589
O O18 0.866136 0.505293 0.298745
O O19 0.649959 0.250000 0.715165
O O20 0.118272 0.750000 0.752696
#
# Coordination Sequence:
#
# PCOD9167700 Si02
#       8
#     4   4   4   4   4   4   4   4
#     4   9  17  31  50  70  92 118 147 178 214 262
#     4  10  18  27  43  69  94 116 147 183 218 258
#     4   9  18  33  47  61  88 122 152 183 220 260
#     4   9  18  31  47  70  96 118 142 176 223 270
#     4   9  18  31  44  62  91 123 150 177 217 266
#     4   9  18  30  44  62  84 115 153 188 220 257
#     4   9  17  29  47  68  89 117 152 184 215 259
#     4  10  19  30  46  66  89 118 149 183 223 264
#
# _framework density 17.558299000000002
#
# number of rings (size 3 to 8) (size 9 to 14) (size 15 to 20)
#    0.000    2.750    0.000    2.625    0.000    3.000 
#    0.000    1.875    0.000    0.750    0.000    0.000 
#    0.000    0.000    0.000    0.000    0.000    0.250 
#
# Total GULP energy -178207.622458 kJ/mol
# GULP energy per Si atom -5568.988202 kJ/mol
# Density = 1.751834 g / cm^3
# Si number density = 17.558299 Si / 1000 Ang^3
#
#
#
# Elastic Constant Matrix: (Units=GPa)
#
#
# Indices 1 2 3 4 5 6 
#
# 1 60.7198 7.8361 20.7071 0.0000 14.9252 0.0000
# 2 7.8361 -18.0912 0.5912 0.0000 7.0583 0.0000
# 3 20.7071 0.5912 32.3714 0.0000 7.0941 0.0000
# 4 0.0000 0.0000 0.0000 13.0790 0.0000 4.4771
# 5 14.9252 7.0583 7.0941 0.0000 24.7158 0.0000
# 6 0.0000 0.0000 0.0000 4.4771 0.0000 13.3610
#
#
#
# Elastic Compliance Matrix: (Units=1/GPa)
#
#
# Indices 1 2 3 4 5 6 
#
# 1 0.022855 0.004929 -0.012140 0.000000 -0.011724 0.000000
# 2 0.004929 -0.048504 -0.004962 0.000000 0.012300 0.000000
# 3 -0.012140 -0.004962 0.039303 0.000000 -0.002533 0.000000
# 4 0.000000 0.000000 0.000000 0.086365 0.000000 -0.028940
# 5 -0.011724 0.012300 -0.002533 0.000000 0.044754 0.000000
# 6 0.000000 0.000000 0.000000 -0.028940 0.000000 0.084542
#
#
# Mechanical properties :
#
#
# Convention : Reuss Voigt Hill
#
# Bulk Modulus (GPa) = -93.50740 14.80764 -39.34988
# Shear Modulus (GPa) = 19.99213 13.28888 16.64051
#
# Velocity S-wave (km/s) = 3.37800 2.75406 3.08186
# Velocity P-wave (km/s) = 6.17710 4.30870 3.12983
#
# Compressibility (1/GPa) = -0.01069434
#
# Stress axis : x y z
#
# Youngs Moduli (GPa) = 43.75383 -20.61681 25.44339
#
# Poissons Ratio (x) = 0.10161 0.30889
# Poissons Ratio (y) = -0.21565 0.12626
# Poissons Ratio (z) = 0.53119 -0.10231
#
# Static dielectric constant tensor:
#      x y z
#    x 1.629410 0.000000 -0.032120 
#    y 0.000000 1.584350 0.000000 
#    z -0.032120 0.000000 1.621280 
# 
# From -- ./inp_files/56199.got.cif
#   From: 2010.05.17/outbox.ucp.g08.bks.cvg/sg11_29_cif.got.tgz:56199.got - 2010.06.11 11:38:39.
