data_PCOD9167863
_publ_section_title
;
Structure prediction by ZEFSAII (Michael W. Deem and Ramdas Pophale) SiO2 
 PCOD9167863
Probable space group: P 21/M
;
_chemical_formula_sum "Si O2"
_cell_formula_units_Z 28
_cell_length_a 30.000000
_cell_length_b 9.000000
_cell_length_c 30.000000
_cell_angle_alpha 90.000000
_cell_angle_beta 10.000000
_cell_angle_gamma 90.000000
_cell_volume 1406.550239
_symmetry_space_group_name_H-M "P 21/M"
_symmetry_group_IT_number 11
_symmetry_cell_setting 'monoclinic'
loop_
_space_group_symop_operation_xyz
x,y,z
-x,1/2+y,-z
-x,-y,-z
x,1/2-y,z
loop_
_atom_site_type_symbol
_atom_site_label
_atom_site_fract_x
_atom_site_fract_y
_atom_site_fract_z
Si Si1 0.639479 0.575228 0.098318
Si Si2 0.239830 0.575834 0.739898
Si Si3 0.622324 0.429899 0.923138
Si Si4 0.881588 0.928764 0.422231
Si Si5 0.801389 0.917780 0.309445
Si Si6 0.145039 0.070445 0.449195
Si Si7 0.331982 0.917912 0.839633
O O1 0.622369 0.750000 0.106248
O O2 0.392782 0.489128 0.322720
O O3 0.648384 0.539875 0.141847
O O4 0.894468 0.505321 0.826092
O O5 0.500000 0.500000 0.500000
O O6 0.244444 0.750000 0.744597
O O7 0.213976 0.539817 0.713324
O O8 0.000000 0.500000 0.000000
O O9 0.623630 0.250000 0.918333
O O10 0.911273 0.481916 0.648375
O O11 0.500000 0.500000 0.000000
O O12 0.426681 0.473611 0.155411
O O13 0.893813 0.750000 0.405536
O O14 0.912017 0.969900 0.444058
O O15 0.791976 0.750000 0.298707
O O16 0.564396 0.930663 0.576324
O O17 0.064875 0.929711 0.076869
O O18 0.141243 0.250000 0.451153
O O19 0.344467 0.750000 0.847314
#
# Coordination Sequence:
#
# PCOD9167863 Si02
#       7
#     4   4   4   4   4   4   4
#     4  12  25  40  60  92 129 157 191 252 312 354
#     4  12  25  42  65  93 127 165 206 251 304 362
#     4  10  19  34  54  80 110 142 183 232 287 343
#     4  11  22  41  66  87 113 160 211 246 289 359
#     4  10  21  38  61  89 120 154 200 253 299 346
#     4   9  19  35  57  80 106 144 193 240 278 336
#     4  10  21  38  61  87 118 160 203 242 291 362
#
# _framework density 19.906860999999999
#
# number of rings (size 3 to 8) (size 9 to 14) (size 15 to 20)
#    0.000    1.429    0.000    6.000    0.000    5.714 
#    0.000    4.286    0.000    0.000    0.000    0.000 
#    0.000    0.000    0.000    0.000    0.000    0.000 
#
# Total GULP energy -156500.358706 kJ/mol
# GULP energy per Si atom -5589.298525 kJ/mol
# Density = 1.986155 g / cm^3
# Si number density = 19.906861 Si / 1000 Ang^3
#
#
#
# Elastic Constant Matrix: (Units=GPa)
#
#
# Indices 1 2 3 4 5 6 
#
# 1 54.2534 24.4437 18.7246 0.0000 -1.9996 0.0000
# 2 24.4437 87.0647 24.2310 0.0000 1.6731 0.0000
# 3 18.7246 24.2310 123.1055 0.0000 -4.8413 0.0000
# 4 0.0000 0.0000 0.0000 22.5157 0.0000 -3.3323
# 5 -1.9996 1.6731 -4.8413 0.0000 28.0409 0.0000
# 6 0.0000 0.0000 0.0000 -3.3323 0.0000 32.0303
#
#
#
# Elastic Compliance Matrix: (Units=1/GPa)
#
#
# Indices 1 2 3 4 5 6 
#
# 1 0.021722 -0.005527 -0.002157 0.000000 0.001506 0.000000
# 2 -0.005527 0.013594 -0.001895 0.000000 -0.001533 0.000000
# 3 -0.002157 -0.001895 0.008883 0.000000 0.001493 0.000000
# 4 0.000000 0.000000 0.000000 0.045108 0.000000 0.004693
# 5 0.001506 -0.001533 0.001493 0.000000 0.036119 0.000000
# 6 0.000000 0.000000 0.000000 0.004693 0.000000 0.031709
#
#
# Mechanical properties :
#
#
# Convention : Reuss Voigt Hill
#
# Bulk Modulus (GPa) = 39.93494 44.35801 42.14648
# Shear Modulus (GPa) = 27.07960 29.65235 28.36598
#
# Velocity S-wave (km/s) = 3.69225 3.86366 3.77893
# Velocity P-wave (km/s) = 6.18719 6.49885 6.34493
#
# Compressibility (1/GPa) = 0.02504073
#
# Stress axis : x y z
#
# Youngs Moduli (GPa) = 46.03578 73.55939 112.57521
#
# Poissons Ratio (x) = 0.40658 0.24280
# Poissons Ratio (y) = 0.25445 0.21337
# Poissons Ratio (z) = 0.09929 0.13942
#
# Static dielectric constant tensor:
#      x y z
#    x 1.704760 0.000000 0.010370 
#    y 0.000000 1.678920 0.000000 
#    z 0.010370 0.000000 1.661990 
# 
# From -- ./inp_files/73859.got.cif
#   From: 2010.05.17/outbox.ucp.g08.bks.cvg/sg11_37_cif.got.tgz:73859.got - 2010.06.11 11:38:39.
