data_PCOD9167749
_publ_section_title
;
Structure prediction by ZEFSAII (Michael W. Deem and Ramdas Pophale) SiO2 
 PCOD9167749
Probable space group: P 21/M
;
_chemical_formula_sum "Si O2"
_cell_formula_units_Z 32
_cell_length_a 15.000000
_cell_length_b 9.000000
_cell_length_c 27.000000
_cell_angle_alpha 90.000000
_cell_angle_beta 150.000000
_cell_angle_gamma 90.000000
_cell_volume 1822.500000
_symmetry_space_group_name_H-M "P 21/M"
_symmetry_group_IT_number 11
_symmetry_cell_setting 'monoclinic'
loop_
_space_group_symop_operation_xyz
x,y,z
-x,1/2+y,-z
-x,-y,-z
x,1/2-y,z
loop_
_atom_site_type_symbol
_atom_site_label
_atom_site_fract_x
_atom_site_fract_y
_atom_site_fract_z
Si Si1 0.748449 0.075085 0.098200
Si Si2 0.218630 0.925440 0.430850
Si Si3 0.555815 0.423133 0.638775
Si Si4 0.942191 0.928502 0.554221
Si Si5 0.582599 0.572936 0.324977
Si Si6 0.426102 0.571415 0.886451
Si Si7 0.105180 0.922283 0.265032
Si Si8 0.339527 0.571060 0.734246
O O1 0.715536 0.250000 0.078824
O O2 0.719524 0.029396 0.141922
O O3 0.944071 0.030378 0.176921
O O4 0.607349 0.989981 0.996621
O O5 0.199839 0.750000 0.429278
O O6 0.184960 0.958412 0.357352
O O7 0.413569 0.978425 0.541303
O O8 0.086968 0.009917 0.404736
O O9 0.495264 0.250000 0.606030
O O10 0.552162 0.460389 0.695058
O O11 0.744033 0.434928 0.703488
O O12 0.940075 0.750000 0.555369
O O13 0.774342 0.975424 0.440214
O O14 0.134087 0.976224 0.627201
O O15 0.588125 0.750000 0.319842
O O16 0.548852 0.493824 0.257144
O O17 0.430762 0.750000 0.886817
O O18 0.392001 0.518941 0.814411
O O19 0.043436 0.750000 0.236968
O O20 0.347436 0.750000 0.737062
#
# Coordination Sequence:
#
# PCOD9167749 Si02
#       8
#     4   4   4   4   4   4   4   4
#     4  10  20  34  54  77  99 125 157 194 236 286
#     4  10  19  29  46  74 101 127 163 203 237 275
#     4   9  19  35  50  66  96 136 167 195 240 288
#     4   9  18  32  47  67 100 136 163 192 239 292
#     4   9  18  31  47  68  96 130 165 201 238 277
#     4   9  19  35  52  73 102 130 154 188 241 295
#     4  10  20  33  50  72  99 130 162 197 241 290
#     4  10  19  31  50  72  95 128 165 198 237 287
#
# _framework density 17.558299000000002
#
# number of rings (size 3 to 8) (size 9 to 14) (size 15 to 20)
#    0.000    2.500    0.000    3.000    0.000    6.000 
#    0.000    0.000    0.000    0.750    0.000    0.000 
#    0.000    0.000    0.000    0.000    0.000    0.000 
#
# Total GULP energy -178374.198192 kJ/mol
# GULP energy per Si atom -5574.193694 kJ/mol
# Density = 1.751834 g / cm^3
# Si number density = 17.558299 Si / 1000 Ang^3
#
#
#
# Elastic Constant Matrix: (Units=GPa)
#
#
# Indices 1 2 3 4 5 6 
#
# 1 89.1941 12.0216 23.3768 0.0000 -17.9953 0.0000
# 2 12.0216 -15.4201 1.7612 0.0000 -1.5147 0.0000
# 3 23.3768 1.7612 18.7676 0.0000 -8.8616 0.0000
# 4 0.0000 0.0000 0.0000 16.1883 0.0000 -1.1942
# 5 -17.9953 -1.5147 -8.8616 0.0000 17.8607 0.0000
# 6 0.0000 0.0000 0.0000 -1.1942 0.0000 26.3260
#
#
#
# Elastic Compliance Matrix: (Units=1/GPa)
#
#
# Indices 1 2 3 4 5 6 
#
# 1 0.016054 0.009744 -0.016825 0.000000 0.008653 0.000000
# 2 0.009744 -0.058109 -0.005714 0.000000 0.002054 0.000000
# 3 -0.016825 -0.005714 0.086902 0.000000 0.025680 0.000000
# 4 0.000000 0.000000 0.000000 0.061981 0.000000 0.002811
# 5 0.008653 0.002054 0.025680 0.000000 0.077623 0.000000
# 6 0.000000 0.000000 0.000000 0.002811 0.000000 0.038113
#
#
# Mechanical properties :
#
#
# Convention : Reuss Voigt Hill
#
# Bulk Modulus (GPa) = 51.92699 18.54010 35.23355
# Shear Modulus (GPa) = 19.64079 15.76713 17.70396
#
# Velocity S-wave (km/s) = 3.34818 2.99989 3.17881
# Velocity P-wave (km/s) = 6.67723 4.75197 5.79511
#
# Compressibility (1/GPa) = 0.01925781
#
# Stress axis : x y z
#
# Youngs Moduli (GPa) = 62.29090 -17.20916 11.50719
#
# Poissons Ratio (x) = 0.16768 0.19361
# Poissons Ratio (y) = -0.60696 0.06575
# Poissons Ratio (z) = 1.04804 -0.09833
#
# Static dielectric constant tensor:
#      x y z
#    x 1.610000 0.000000 0.004420 
#    y 0.000000 1.593560 0.000000 
#    z 0.004420 0.000000 1.582620 
# 
# From -- ./inp_files/51605.got.cif
#   From: 2010.05.17/outbox.ucp.g08.bks.cvg/sg11_26_cif.got.tgz:51605.got - 2010.06.11 11:38:39.
