data_PCOD9167446
_publ_section_title
;
Structure prediction by ZEFSAII (Michael W. Deem and Ramdas Pophale) SiO2 
 PCOD9167446
Probable space group: P 21/M
;
_chemical_formula_sum "Si O2"
_cell_formula_units_Z 20
_cell_length_a 4.992028
_cell_length_b 24.045561
_cell_length_c 9.454546
_cell_angle_alpha 90.000000
_cell_angle_beta 55.780384
_cell_angle_gamma 90.000000
_cell_volume 938.424509
_symmetry_space_group_name_H-M "P 21/M"
_symmetry_group_IT_number 11
_symmetry_cell_setting 'monoclinic'
loop_
_space_group_symop_operation_xyz
x,y,z
-x,1/2+y,-z
-x,-y,-z
x,1/2-y,z
loop_
_atom_site_type_symbol
_atom_site_label
_atom_site_fract_x
_atom_site_fract_y
_atom_site_fract_z
Si Si1 0.831057 0.579451 0.681839
Si Si2 0.430703 0.090614 0.543249
Si Si3 0.653432 0.976940 0.153483
Si Si4 0.489962 0.364689 0.975079
Si Si5 0.800412 0.685520 0.207217
O O1 0.798778 0.590810 0.524427
O O2 0.619661 0.524220 0.770779
O O3 0.205943 0.574966 0.610641
O O4 0.673540 0.627580 0.824115
O O5 0.323779 0.047221 0.694882
O O6 0.430704 0.150570 0.619643
O O7 0.547734 0.924832 0.088551
O O8 0.000000 0.000000 0.000000
O O9 0.318187 0.322838 0.917948
O O10 0.856261 0.345318 0.881893
O O11 0.822062 0.750000 0.237338
#
# Coordination Sequence:
#
# PCOD9167446 Si02
#       5
#     4   4   4   4   4
#     4  12  23  40  62  97 135 163 200 263 320 378
#     4  11  24  40  63  95 130 166 211 256 317 379
#     4  11  23  41  65  95 136 180 213 251 312 393
#     4  11  24  42  66  95 123 166 220 259 313 390
#     4  11  24  47  69  88 120 169 220 271 320 378
#
# _framework density 21.312318000000001
#
# number of rings (size 3 to 8) (size 9 to 14) (size 15 to 20)
#    0.000    0.800    0.000    9.600    0.000    4.800 
#    0.000    6.000    0.000    0.000    0.000    0.000 
#    0.000    0.000    0.000    0.000    0.000    0.000 
#
# Total GULP energy -112055.541226 kJ/mol
# GULP energy per Si atom -5602.777061 kJ/mol
# Density = 2.126381 g / cm^3
# Si number density = 21.312318 Si / 1000 Ang^3
#
#
#
# Elastic Constant Matrix: (Units=GPa)
#
#
# Indices 1 2 3 4 5 6 
#
# 1 80.8531 -5.8923 2.5406 0.0000 -10.0651 0.0000
# 2 -5.8923 86.3072 26.0854 0.0000 -21.6676 0.0000
# 3 2.5406 26.0854 73.5473 0.0000 -7.6161 0.0000
# 4 0.0000 0.0000 0.0000 9.8877 0.0000 18.8293
# 5 -10.0651 -21.6676 -7.6161 0.0000 45.5578 0.0000
# 6 0.0000 0.0000 0.0000 18.8293 0.0000 -6.0141
#
#
#
# Elastic Compliance Matrix: (Units=1/GPa)
#
#
# Indices 1 2 3 4 5 6 
#
# 1 0.013007 0.002063 -0.000796 0.000000 0.003722 0.000000
# 2 0.002063 0.014816 -0.004629 0.000000 0.006728 0.000000
# 3 -0.000796 -0.004629 0.015284 0.000000 0.000178 0.000000
# 4 0.000000 0.000000 0.000000 0.014527 0.000000 0.045481
# 5 0.003722 0.006728 0.000178 0.000000 0.026002 0.000000
# 6 0.000000 0.000000 0.000000 0.045481 0.000000 -0.023883
#
#
# Mechanical properties :
#
#
# Convention : Reuss Voigt Hill
#
# Bulk Modulus (GPa) = 27.48555 31.79723 29.64139
# Shear Modulus (GPa) = 63.60987 24.41788 44.01387
#
# Velocity S-wave (km/s) = 5.46912 3.38852 4.54936
# Velocity P-wave (km/s) = 7.26680 5.50104 6.44468
#
# Compressibility (1/GPa) = 0.03638275
#
# Stress axis : x y z
#
# Youngs Moduli (GPa) = 76.88333 67.49626 65.42594
#
# Poissons Ratio (x) = -0.13923 0.05205
# Poissons Ratio (y) = -0.15859 0.30287
# Poissons Ratio (z) = 0.06116 0.31246
#
# Static dielectric constant tensor:
#      x y z
#    x 1.764890 0.000000 0.013360 
#    y 0.000000 1.756620 0.000000 
#    z 0.013360 0.000000 1.791100 
# 
# From -- ./inp_files/10406.got.cif
#   From: 2010.05.17/outbox.cif.g08.bks.cpg/sg11_6_cif.got.tgz:10406.got - 2010.06.03 12:22:45.
