data_PCOD9167561
_publ_section_title
;
Structure prediction by ZEFSAII (Michael W. Deem and Ramdas Pophale) SiO2 
 PCOD9167561
Probable space group: P 21/M
;
_chemical_formula_sum "Si O2"
_cell_formula_units_Z 32
_cell_length_a 15.041345
_cell_length_b 22.935113
_cell_length_c 9.401679
_cell_angle_alpha 90.000000
_cell_angle_beta 29.280708
_cell_angle_gamma 90.000000
_cell_volume 1586.283056
_symmetry_space_group_name_H-M "P 21/M"
_symmetry_group_IT_number 11
_symmetry_cell_setting 'monoclinic'
loop_
_space_group_symop_operation_xyz
x,y,z
-x,1/2+y,-z
-x,-y,-z
x,1/2-y,z
loop_
_atom_site_type_symbol
_atom_site_label
_atom_site_fract_x
_atom_site_fract_y
_atom_site_fract_z
Si Si1 0.500778 0.907272 0.238077
Si Si2 0.911773 0.609445 0.016330
Si Si3 0.571009 0.818291 0.394380
Si Si4 0.982625 0.100952 0.806543
Si Si5 0.235661 0.681931 0.078394
Si Si6 0.304954 0.511458 0.703092
Si Si7 0.184779 0.479605 0.319901
Si Si8 0.261163 0.604494 0.323017
O O1 0.514963 0.858637 0.339406
O O2 0.350644 0.955399 0.493078
O O3 0.431056 0.881690 0.187379
O O4 0.688708 0.941943 0.960157
O O5 0.762942 0.657485 0.182037
O O6 0.810786 0.546774 0.152067
O O7 0.977992 0.617266 0.085976
O O8 0.078151 0.609598 0.673276
O O9 0.580312 0.750000 0.343907
O O10 0.418234 0.825268 0.729389
O O11 0.928306 0.155401 0.785964
O O12 0.138554 0.062646 0.515962
O O13 0.809813 0.057426 0.046242
O O14 0.209232 0.750000 0.142978
O O15 0.249349 0.646112 0.204256
O O16 0.500000 0.500000 0.500000
O O17 0.279110 0.538382 0.241648
O O18 0.000000 0.500000 0.500000
#
# Coordination Sequence:
#
# PCOD9167561 Si02
#       8
#     4   4   4   4   4   4   4   4
#     4  12  25  43  68 101 132 181 216 268 334 396
#     4  12  24  42  69 101 131 173 220 270 332 398
#     4  11  26  47  68  93 127 174 229 276 324 389
#     4  12  23  43  68  98 136 172 213 272 327 397
#     4  11  26  46  67  93 128 175 224 275 331 388
#     4  12  21  39  70  99 134 171 213 262 333 395
#     4  12  24  40  66 105 143 171 211 273 333 399
#     4  12  25  43  67 101 137 170 218 272 334 398
#
# _framework density 20.172944000000001
#
# number of rings (size 3 to 8) (size 9 to 14) (size 15 to 20)
#    0.000    0.250    6.250    3.000    3.500    1.500 
#    0.000    0.000    0.000    0.000    0.000    0.000 
#    0.000    0.000    0.000    0.000    0.000    0.000 
#
# Total GULP energy -179103.294363 kJ/mol
# GULP energy per Si atom -5596.977949 kJ/mol
# Density = 2.012703 g / cm^3
# Si number density = 20.172944 Si / 1000 Ang^3
#
#
#
# Elastic Constant Matrix: (Units=GPa)
#
#
# Indices 1 2 3 4 5 6 
#
# 1 146.8443 66.9039 39.5829 0.0000 10.1598 0.0000
# 2 66.9039 141.7248 73.8095 0.0000 12.4784 0.0000
# 3 39.5829 73.8095 83.4428 0.0000 13.1185 0.0000
# 4 0.0000 0.0000 0.0000 34.3227 0.0000 7.6703
# 5 10.1598 12.4784 13.1185 0.0000 31.4064 0.0000
# 6 0.0000 0.0000 0.0000 7.6703 0.0000 6.9438
#
#
#
# Elastic Compliance Matrix: (Units=1/GPa)
#
#
# Indices 1 2 3 4 5 6 
#
# 1 0.008747 -0.003637 -0.000765 0.000000 -0.001065 0.000000
# 2 -0.003637 0.014600 -0.011197 0.000000 0.000053 0.000000
# 3 -0.000765 -0.011197 0.023025 0.000000 -0.004921 0.000000
# 4 0.000000 0.000000 0.000000 0.038685 0.000000 -0.042733
# 5 -0.001065 0.000053 -0.004921 0.000000 0.034220 0.000000
# 6 0.000000 0.000000 0.000000 -0.042733 0.000000 0.191217
#
#
# Mechanical properties :
#
#
# Convention : Reuss Voigt Hill
#
# Bulk Modulus (GPa) = 65.90241 81.40051 73.65146
# Shear Modulus (GPa) = 14.41964 27.31561 20.86762
#
# Velocity S-wave (km/s) = 2.67648 3.68376 3.21975
# Velocity P-wave (km/s) = 6.50315 7.65065 7.10012
#
# Compressibility (1/GPa) = 0.01517395
#
# Stress axis : x y z
#
# Youngs Moduli (GPa) = 114.32693 68.49489 43.43093
#
# Poissons Ratio (x) = 0.24913 0.03321
# Poissons Ratio (y) = 0.41583 0.48630
# Poissons Ratio (z) = 0.08741 0.76694
#
# Static dielectric constant tensor:
#      x y z
#    x 1.726910 0.000000 0.006520 
#    y 0.000000 1.685890 0.000000 
#    z 0.006520 0.000000 1.740300 
# 
# From -- ./inp_files/23373.got.cif
#   From: 2010.05.17/outbox.cif.g08.bks.cpg/sg11_12_cif.got.tgz:23373.got - 2010.06.03 12:22:45.
