data_PCOD9167883
_publ_section_title
;
Structure prediction by ZEFSAII (Michael W. Deem and Ramdas Pophale) SiO2 
 PCOD9167883
Probable space group: P 21/M
;
_chemical_formula_sum "Si O2"
_cell_formula_units_Z 28
_cell_length_a 9.000000
_cell_length_b 9.000000
_cell_length_c 21.000000
_cell_angle_alpha 90.000000
_cell_angle_beta 50.000000
_cell_angle_gamma 90.000000
_cell_volume 1303.041598
_symmetry_space_group_name_H-M "P 21/M"
_symmetry_group_IT_number 11
_symmetry_cell_setting 'monoclinic'
loop_
_space_group_symop_operation_xyz
x,y,z
-x,1/2+y,-z
-x,-y,-z
x,1/2-y,z
loop_
_atom_site_type_symbol
_atom_site_label
_atom_site_fract_x
_atom_site_fract_y
_atom_site_fract_z
Si Si1 0.712400 0.914404 0.232809
Si Si2 0.399739 0.584321 0.848135
Si Si3 0.192694 0.425857 0.580775
Si Si4 0.857517 0.418874 0.855718
Si Si5 0.828013 0.918442 0.736382
Si Si6 0.156973 0.424786 0.004535
Si Si7 0.462629 0.575924 0.419795
O O1 0.698084 0.750000 0.205580
O O2 0.532878 0.936135 0.328539
O O3 0.909512 0.910742 0.218279
O O4 0.728451 0.043041 0.177248
O O5 0.361254 0.750000 0.883401
O O6 0.617732 0.577795 0.763137
O O7 0.355433 0.462656 0.913210
O O8 0.189342 0.250000 0.582438
O O9 0.274951 0.486194 0.491817
O O10 0.354080 0.476849 0.588094
O O11 0.985469 0.486464 0.656879
O O12 0.782573 0.250000 0.875020
O O13 0.787647 0.520187 0.817978
O O14 0.831264 0.492586 0.931500
O O15 0.898826 0.750000 0.720916
O O16 0.124029 0.250000 0.019867
O O17 0.000000 0.500000 0.000000
O O18 0.431491 0.750000 0.442578
#
# Coordination Sequence:
#
# PCOD9167883 Si02
#       7
#     4   4   4   4   4   4   4
#     4  10  20  37  61  89 119 154 197 247 299 353
#     4  11  25  42  61  87 121 160 202 246 297 357
#     4  10  19  34  57  87 120 155 196 244 298 351
#     4  11  22  39  64  92 120 154 200 249 295 352
#     4  11  24  41  60  87 123 162 200 244 300 356
#     4  12  24  40  63  91 121 156 198 246 299 351
#     4   9  18  34  56  87 120 150 193 245 296 351
#
# _framework density 21.488185999999999
#
# number of rings (size 3 to 8) (size 9 to 14) (size 15 to 20)
#    0.000    1.429    2.857    3.000    0.000    4.571 
#    0.000    0.714    0.000    0.000    0.000    0.000 
#    0.000    0.000    0.000    0.000    0.000    0.000 
#
# Total GULP energy -156206.052385 kJ/mol
# GULP energy per Si atom -5578.787585 kJ/mol
# Density = 2.143928 g / cm^3
# Si number density = 21.488186 Si / 1000 Ang^3
#
#
#
# Elastic Constant Matrix: (Units=GPa)
#
#
# Indices 1 2 3 4 5 6 
#
# 1 22.9673 1.3198 2.9491 0.0000 -6.0042 0.0000
# 2 1.3198 62.6449 30.4516 0.0000 5.2344 0.0000
# 3 2.9491 30.4516 57.7342 0.0000 -17.2129 0.0000
# 4 0.0000 0.0000 0.0000 34.0782 0.0000 -4.8949
# 5 -6.0042 5.2344 -17.2129 0.0000 14.4672 0.0000
# 6 0.0000 0.0000 0.0000 -4.8949 0.0000 11.1945
#
#
#
# Elastic Compliance Matrix: (Units=1/GPa)
#
#
# Indices 1 2 3 4 5 6 
#
# 1 0.056673 -0.017532 0.023643 0.000000 0.057994 0.000000
# 2 -0.017532 0.046012 -0.047275 0.000000 -0.080172 0.000000
# 3 0.023643 -0.047275 0.076050 0.000000 0.117400 0.000000
# 4 0.000000 0.000000 0.000000 0.031311 0.000000 0.013691
# 5 0.057994 -0.080172 0.117400 0.000000 0.261879 0.000000
# 6 0.000000 0.000000 0.000000 0.013691 0.000000 0.095316
#
#
# Mechanical properties :
#
#
# Convention : Reuss Voigt Hill
#
# Bulk Modulus (GPa) = 10.37300 23.64305 17.00802
# Shear Modulus (GPa) = 7.33454 19.18971 13.26212
#
# Velocity S-wave (km/s) = 1.84951 2.99161 2.48701
# Velocity P-wave (km/s) = 3.06573 4.79163 4.02234
#
# Compressibility (1/GPa) = 0.09640414
#
# Stress axis : x y z
#
# Youngs Moduli (GPa) = 17.64516 21.73355 13.14924
#
# Poissons Ratio (x) = 0.38104 -0.31088
# Poissons Ratio (y) = 0.30936 0.62164
# Poissons Ratio (z) = -0.41718 1.02746
#
# Static dielectric constant tensor:
#      x y z
#    x 1.811310 0.000000 -0.033120 
#    y 0.000000 1.762240 0.000000 
#    z -0.033120 0.000000 1.814920 
# 
# From -- ./inp_files/63375.got.cif
#   From: 2010.05.17/outbox.ucp.g08.bks.cvg/sg11_32_cif.got.tgz:63375.got - 2010.06.11 11:38:39.
