data_PCOD9167160
_publ_section_title
;
Structure prediction by ZEFSAII (Michael W. Deem and Ramdas Pophale) SiO2 
 PCOD9167160
Probable space group: P 21/M
;
_chemical_formula_sum "Si O2"
_cell_formula_units_Z 28
_cell_length_a 10.359862
_cell_length_b 8.962027
_cell_length_c 29.984991
_cell_angle_alpha 90.000000
_cell_angle_beta 142.450162
_cell_angle_gamma 90.000000
_cell_volume 1696.692498
_symmetry_space_group_name_H-M "P 21/M"
_symmetry_group_IT_number 11
_symmetry_cell_setting 'monoclinic'
loop_
_space_group_symop_operation_xyz
x,y,z
-x,1/2+y,-z
-x,-y,-z
x,1/2-y,z
loop_
_atom_site_type_symbol
_atom_site_label
_atom_site_fract_x
_atom_site_fract_y
_atom_site_fract_z
Si Si1 0.857566 0.929667 0.500395
Si Si2 0.824626 0.575372 0.351830
Si Si3 0.160736 0.428532 0.191986
Si Si4 0.780965 0.570327 0.957359
Si Si5 0.486737 0.575544 0.341005
Si Si6 0.483770 0.071506 0.201665
Si Si7 0.296083 0.930323 0.967360
O O1 0.873191 0.750000 0.502945
O O2 0.617334 0.971730 0.420811
O O3 0.000000 0.000000 0.500000
O O4 0.963435 0.991272 0.574308
O O5 0.866349 0.750000 0.357554
O O6 0.656174 0.559099 0.346713
O O7 0.699766 0.507071 0.275872
O O8 0.167206 0.250000 0.195431
O O9 0.279533 0.490460 0.267911
O O10 0.299721 0.474032 0.186606
O O11 0.918876 0.473421 0.117963
O O12 0.801728 0.750000 0.966938
O O13 0.602773 0.539039 0.871136
O O14 0.725461 0.496123 0.989017
O O15 0.000000 0.500000 0.000000
O O16 0.437407 0.750000 0.331496
O O17 0.510496 0.250000 0.213331
O O18 0.307519 0.750000 0.971905
O O19 0.500000 0.000000 0.000000
#
# Coordination Sequence:
#
# PCOD9167160 Si02
#       7
#     4   4   4   4   4   4   4
#     4   9  15  23  34  52  81 118 155 192 234 285
#     4   9  16  24  36  58  86 119 156 194 238 287
#     4   9  17  30  46  65  92 123 160 202 245 295
#     4  11  21  35  55  78 102 133 170 213 257 305
#     4   8  15  24  36  57  83 115 157 195 234 285
#     4   9  17  30  46  67  94 125 161 201 246 293
#     4  11  23  39  54  75 102 134 172 213 261 310
#
# _framework density 16.502694999999999
#
# number of rings (size 3 to 8) (size 9 to 14) (size 15 to 20)
#    0.000    2.571    1.429    2.571    0.000    6.286 
#    0.000    0.000    0.000    0.000    0.000    0.000 
#    0.000    1.143    0.000    3.714    0.000    5.714 
#
# Total GULP energy -155944.504211 kJ/mol
# GULP energy per Si atom -5569.446579 kJ/mol
# Density = 1.646513 g / cm^3
# Si number density = 16.502695 Si / 1000 Ang^3
#
#
#
# Elastic Constant Matrix: (Units=GPa)
#
#
# Indices 1 2 3 4 5 6 
#
# 1 55.1262 26.3236 46.7647 0.0000 2.5273 0.0000
# 2 26.3236 58.8755 74.2096 0.0000 -1.4635 0.0000
# 3 46.7647 74.2096 200.9443 0.0000 0.3437 0.0000
# 4 0.0000 0.0000 0.0000 35.5816 0.0000 -0.5164
# 5 2.5273 -1.4635 0.3437 0.0000 9.9483 0.0000
# 6 0.0000 0.0000 0.0000 -0.5164 0.0000 15.6443
#
#
#
# Elastic Compliance Matrix: (Units=1/GPa)
#
#
# Indices 1 2 3 4 5 6 
#
# 1 0.024520 -0.007419 -0.002954 0.000000 -0.007218 0.000000
# 2 -0.007419 0.034280 -0.010946 0.000000 0.007306 0.000000
# 3 -0.002954 -0.010946 0.009708 0.000000 -0.001195 0.000000
# 4 0.000000 0.000000 0.000000 0.028118 0.000000 0.000928
# 5 -0.007218 0.007306 -0.001195 0.000000 0.103470 0.000000
# 6 0.000000 0.000000 0.000000 0.000928 0.000000 0.063952
#
#
# Mechanical properties :
#
#
# Convention : Reuss Voigt Hill
#
# Bulk Modulus (GPa) = 38.65351 67.72688 53.19019
# Shear Modulus (GPa) = 15.85744 23.41137 19.63441
#
# Velocity S-wave (km/s) = 3.10320 3.77057 3.45305
# Velocity P-wave (km/s) = 6.02604 7.75147 6.94257
#
# Compressibility (1/GPa) = 0.02587087
#
# Stress axis : x y z
#
# Youngs Moduli (GPa) = 40.78333 29.17134 103.00349
#
# Poissons Ratio (x) = 0.21641 0.30430
# Poissons Ratio (y) = 0.30256 1.12746
# Poissons Ratio (z) = 0.12048 0.31930
#
# Static dielectric constant tensor:
#      x y z
#    x 1.526160 0.000000 -0.008620 
#    y 0.000000 1.540460 0.000000 
#    z -0.008620 0.000000 1.596640 
# 
# From -- ./inp_files/61255.got.cif
#   From: 2010.05.17/outbox.cif.g08.bks.cpg/sg11_31_cif.got.tgz:61255.got - 2010.06.03 12:22:45.
