data_PCOD9167780
_publ_section_title
;
Structure prediction by ZEFSAII (Michael W. Deem and Ramdas Pophale) SiO2 
 PCOD9167780
Probable space group: P 21/M
;
_chemical_formula_sum "Si O2"
_cell_formula_units_Z 32
_cell_length_a 24.000000
_cell_length_b 9.000000
_cell_length_c 24.000000
_cell_angle_alpha 90.000000
_cell_angle_beta 160.000000
_cell_angle_gamma 90.000000
_cell_volume 1773.032423
_symmetry_space_group_name_H-M "P 21/M"
_symmetry_group_IT_number 11
_symmetry_cell_setting 'monoclinic'
loop_
_space_group_symop_operation_xyz
x,y,z
-x,1/2+y,-z
-x,-y,-z
x,1/2-y,z
loop_
_atom_site_type_symbol
_atom_site_label
_atom_site_fract_x
_atom_site_fract_y
_atom_site_fract_z
Si Si1 0.912050 0.431175 0.734643
Si Si2 0.591176 0.569913 0.032727
Si Si3 0.282541 0.927989 0.341283
Si Si4 0.315238 0.930191 0.684759
Si Si5 0.032730 0.069913 0.591178
Si Si6 0.265373 0.431173 0.087965
Si Si7 0.620069 0.068280 0.379946
Si Si8 0.658714 0.927987 0.717453
O O1 0.912823 0.250000 0.732929
O O2 0.849299 0.473336 0.737027
O O3 0.771049 0.481224 0.560029
O O4 0.098522 0.480302 0.901493
O O5 0.588184 0.750000 0.033195
O O6 0.784976 0.527535 0.215022
O O7 0.500000 0.500000 0.000000
O O8 0.470031 0.524837 0.868314
O O9 0.277224 0.750000 0.331199
O O10 0.465369 0.966320 0.534628
O O11 0.261990 0.999994 0.261989
O O12 0.314356 0.750000 0.685642
O O13 0.347554 0.977586 0.652441
O O14 0.131683 0.975161 0.529965
O O15 0.033199 0.250000 0.588186
O O16 0.000000 0.000000 0.500000
O O17 0.267093 0.250000 0.087192
O O18 0.439989 0.481228 0.228971
O O19 0.262981 0.473317 0.150708
O O20 0.618549 0.250000 0.381466
O O21 0.668796 0.750000 0.722762
#
# Coordination Sequence:
#
# PCOD9167780 Si02
#       8
#     4   4   4   4   4   4   4   4
#     4   9  16  26  42  63  88 120 154 187 228 278
#     4  10  19  31  49  73 100 129 159 191 233 282
#     4   9  16  27  43  64  90 117 148 187 230 276
#     4   9  18  30  45  68  98 126 156 198 236 274
#     4  10  19  31  49  73 100 129 159 191 233 282
#     4   9  16  26  42  63  88 120 154 187 228 278
#     4   9  16  28  43  62  92 124 152 188 234 274
#     4   9  16  27  43  64  90 117 148 187 230 276
#
# _framework density 18.048175000000001
#
# number of rings (size 3 to 8) (size 9 to 14) (size 15 to 20)
#    0.000    2.750    2.500    0.000    0.000    1.500 
#    0.000    5.000    0.000    0.000    0.000    3.500 
#    0.000    0.000    0.000    0.000    0.000    0.000 
#
# Total GULP energy -178149.456554 kJ/mol
# GULP energy per Si atom -5567.170517 kJ/mol
# Density = 1.800710 g / cm^3
# Si number density = 18.048175 Si / 1000 Ang^3
#
#
#
# Elastic Constant Matrix: (Units=GPa)
#
#
# Indices 1 2 3 4 5 6 
#
# 1 125.6867 8.0927 102.1319 0.0000 -1.9822 0.0000
# 2 8.0927 -7.5367 11.1655 0.0000 0.5580 0.0000
# 3 102.1319 11.1655 196.0626 0.0000 14.7784 0.0000
# 4 0.0000 0.0000 0.0000 13.1988 0.0000 -0.6550
# 5 -1.9822 0.5580 14.7784 0.0000 9.3952 0.0000
# 6 0.0000 0.0000 0.0000 -0.6550 0.0000 16.7963
#
#
#
# Elastic Compliance Matrix: (Units=1/GPa)
#
#
# Indices 1 2 3 4 5 6 
#
# 1 0.016226 0.003857 -0.010111 0.000000 0.019099 0.000000
# 2 0.003857 -0.121299 0.004872 0.000000 0.000354 0.000000
# 3 -0.010111 0.004872 0.011655 0.000000 -0.020755 0.000000
# 4 0.000000 0.000000 0.000000 0.075911 0.000000 0.002960
# 5 0.019099 0.000354 -0.020755 0.000000 0.143092 0.000000
# 6 0.000000 0.000000 0.000000 0.002960 0.000000 0.059652
#
#
# Mechanical properties :
#
#
# Convention : Reuss Voigt Hill
#
# Bulk Modulus (GPa) = -10.39674 61.88810 25.74568
# Shear Modulus (GPa) = 32.06340 20.73291 26.39815
#
# Velocity S-wave (km/s) = 4.21948 3.39300 3.82861
# Velocity P-wave (km/s) = 4.23859 7.05088 5.81724
#
# Compressibility (1/GPa) = -0.09618399
#
# Stress axis : x y z
#
# Youngs Moduli (GPa) = 61.63071 -8.24409 85.80304
#
# Poissons Ratio (x) = 0.03180 0.86759
# Poissons Ratio (y) = -0.23770 -0.41804
# Poissons Ratio (z) = 0.62318 0.04017
#
# Static dielectric constant tensor:
#      x y z
#    x 1.623100 0.000000 0.005820 
#    y 0.000000 1.600540 0.000000 
#    z 0.005820 0.000000 1.655050 
# 
# From -- ./inp_files/66569.got.cif
#   From: 2010.05.17/outbox.ucp.g08.bks.cvg/sg11_34_cif.got.tgz:66569.got - 2010.06.11 11:38:39.
