data_PCOD9167449
_publ_section_title
;
Structure prediction by ZEFSAII (Michael W. Deem and Ramdas Pophale) SiO2 
 PCOD9167449
Probable space group: P 21/M
;
_chemical_formula_sum "Si O2"
_cell_formula_units_Z 24
_cell_length_a 10.049740
_cell_length_b 19.460505
_cell_length_c 14.902910
_cell_angle_alpha 90.000000
_cell_angle_beta 155.484990
_cell_angle_gamma 90.000000
_cell_volume 1209.362608
_symmetry_space_group_name_H-M "P 21/M"
_symmetry_group_IT_number 11
_symmetry_cell_setting 'monoclinic'
loop_
_space_group_symop_operation_xyz
x,y,z
-x,1/2+y,-z
-x,-y,-z
x,1/2-y,z
loop_
_atom_site_type_symbol
_atom_site_label
_atom_site_fract_x
_atom_site_fract_y
_atom_site_fract_z
Si Si1 0.570203 0.416528 0.455488
Si Si2 0.330221 0.072379 0.873013
Si Si3 0.584898 0.172715 0.177189
Si Si4 0.420349 0.569534 0.328273
Si Si5 0.136307 0.076002 0.565151
Si Si6 0.870840 0.671998 0.936300
O O1 0.385347 0.486918 0.314263
O O2 0.540727 0.407582 0.544593
O O3 0.400628 0.354725 0.298885
O O4 0.946975 0.426974 0.660878
O O5 0.372266 0.087290 0.793349
O O6 0.490511 0.130040 0.032222
O O7 0.500000 0.000000 0.000000
O O8 0.684680 0.250000 0.217338
O O9 0.286710 0.174411 0.061807
O O10 0.858197 0.131608 0.397179
O O11 0.717170 0.579437 0.443553
O O12 0.143476 0.614433 0.112530
O O13 0.000000 0.000000 0.500000
O O14 0.977936 0.750000 0.979714
#
# Coordination Sequence:
#
# PCOD9167449 Si02
#       6
#     4   4   4   4   4   4
#     4  11  23  41  67  95 126 169 218 266 324 384
#     4  12  23  40  68  99 129 171 223 271 325 385
#     4  11  24  42  66  98 133 173 220 271 331 398
#     4  11  24  41  66  97 128 167 217 277 319 379
#     4  12  23  43  67  96 131 175 219 272 325 392
#     4  11  24  42  67  96 131 174 215 266 331 396
#
# _framework density 19.845165000000001
#
# number of rings (size 3 to 8) (size 9 to 14) (size 15 to 20)
#    0.000    0.667    6.667    0.500    0.000    6.667 
#    0.000    1.667    0.000    0.000    0.000    0.000 
#    0.000    0.000    0.000    0.000    0.000    0.000 
#
# Total GULP energy -134012.056253 kJ/mol
# GULP energy per Si atom -5583.835677 kJ/mol
# Density = 1.980000 g / cm^3
# Si number density = 19.845165 Si / 1000 Ang^3
#
#
#
# Elastic Constant Matrix: (Units=GPa)
#
#
# Indices 1 2 3 4 5 6 
#
# 1 86.1201 11.1020 9.9662 0.0000 0.0889 0.0000
# 2 11.1020 134.9956 60.8077 0.0000 -9.1709 0.0000
# 3 9.9662 60.8077 82.0496 0.0000 -6.6705 0.0000
# 4 0.0000 0.0000 0.0000 20.0566 0.0000 -3.1755
# 5 0.0889 -9.1709 -6.6705 0.0000 30.4842 0.0000
# 6 0.0000 0.0000 0.0000 -3.1755 0.0000 24.4038
#
#
#
# Elastic Compliance Matrix: (Units=1/GPa)
#
#
# Indices 1 2 3 4 5 6 
#
# 1 0.011804 -0.000508 -0.001092 0.000000 -0.000426 0.000000
# 2 -0.000508 0.011216 -0.008121 0.000000 0.001599 0.000000
# 3 -0.001092 -0.008121 0.018469 0.000000 0.001601 0.000000
# 4 0.000000 0.000000 0.000000 0.050908 0.000000 0.006624
# 5 -0.000426 0.001599 0.001601 0.000000 0.033636 0.000000
# 6 0.000000 0.000000 0.000000 0.006624 0.000000 0.041839
#
#
# Mechanical properties :
#
#
# Convention : Reuss Voigt Hill
#
# Bulk Modulus (GPa) = 45.35596 51.87970 48.61783
# Shear Modulus (GPa) = 25.68556 29.74156 27.71356
#
# Velocity S-wave (km/s) = 3.60154 3.87548 3.74102
# Velocity P-wave (km/s) = 6.34029 6.79888 6.57359
#
# Compressibility (1/GPa) = 0.02204782
#
# Stress axis : x y z
#
# Youngs Moduli (GPa) = 84.71729 89.15956 54.14536
#
# Poissons Ratio (x) = 0.04527 0.05913
# Poissons Ratio (y) = 0.04302 0.43969
# Poissons Ratio (z) = 0.09252 0.72402
#
# Static dielectric constant tensor:
#      x y z
#    x 1.710010 0.000000 0.008280 
#    y 0.000000 1.682370 0.000000 
#    z 0.008280 0.000000 1.715840 
# 
# From -- ./inp_files/59673.got.cif
#   From: 2010.05.17/outbox.cif.g08.bks.cpg/sg11_30_cif.got.tgz:59673.got - 2010.06.03 12:22:45.
