data_PCOD9167662
_publ_section_title
;
Structure prediction by ZEFSAII (Michael W. Deem and Ramdas Pophale) SiO2 
 PCOD9167662
Probable space group: P 21/M
;
_chemical_formula_sum "Si O2"
_cell_formula_units_Z 28
_cell_length_a 19.445186
_cell_length_b 7.505369
_cell_length_c 12.114153
_cell_angle_alpha 90.000000
_cell_angle_beta 127.271702
_cell_angle_gamma 90.000000
_cell_volume 1406.909716
_symmetry_space_group_name_H-M "P 21/M"
_symmetry_group_IT_number 11
_symmetry_cell_setting 'monoclinic'
loop_
_space_group_symop_operation_xyz
x,y,z
-x,1/2+y,-z
-x,-y,-z
x,1/2-y,z
loop_
_atom_site_type_symbol
_atom_site_label
_atom_site_fract_x
_atom_site_fract_y
_atom_site_fract_z
Si Si1 0.288654 0.034271 0.571694
Si Si2 0.746552 0.543807 0.113419
Si Si3 0.402510 0.463688 0.871695
Si Si4 0.127880 0.957952 0.578427
Si Si5 0.182032 0.463369 0.272804
Si Si6 0.841082 0.969449 0.998785
Si Si7 0.978909 0.036453 0.722204
O O1 0.289829 0.250000 0.568172
O O2 0.372809 0.973557 0.720958
O O3 0.262829 0.970156 0.424918
O O4 0.208721 0.980725 0.572697
O O5 0.724469 0.750000 0.075001
O O6 0.667982 0.465257 0.108459
O O7 0.834364 0.539389 0.272799
O O8 0.768782 0.469405 0.015402
O O9 0.392279 0.250000 0.859938
O O10 0.500000 0.500000 0.000000
O O11 0.113987 0.750000 0.586139
O O12 0.049048 0.031348 0.427094
O O13 0.190019 0.250000 0.271932
O O14 0.097115 0.499349 0.263803
O O15 0.172489 0.531003 0.139373
O O16 0.842183 0.750000 0.999438
O O17 0.932532 0.028358 0.138645
O O18 0.984521 0.250000 0.715900
#
# Coordination Sequence:
#
# PCOD9167662 Si02
#       7
#     4   4   4   4   4   4   4
#     4   8  15  28  45  66  88 110 140 175 210 251
#     4   9  18  32  46  62  87 116 145 176 213 259
#     4   9  17  29  47  68  86 105 133 173 218 262
#     4   9  16  26  41  62  88 116 145 178 216 253
#     4   9  16  28  47  66  85 115 153 183 207 243
#     4   9  17  29  45  63  86 119 152 180 211 248
#     4   9  17  28  42  63  90 117 148 186 219 243
#
# _framework density 19.901775000000001
#
# number of rings (size 3 to 8) (size 9 to 14) (size 15 to 20)
#    0.000    3.143    0.000    1.714    0.000    3.429 
#    0.000    1.429    0.000    0.857    0.000    0.000 
#    0.000    0.000    0.000    0.000    0.000    1.143 
#
# Total GULP energy -156010.013291 kJ/mol
# GULP energy per Si atom -5571.786189 kJ/mol
# Density = 1.985648 g / cm^3
# Si number density = 19.901775 Si / 1000 Ang^3
#
#
#
# Elastic Constant Matrix: (Units=GPa)
#
#
# Indices 1 2 3 4 5 6 
#
# 1 71.7122 -4.5203 77.6615 0.0000 -4.4134 0.0000
# 2 -4.5203 48.7851 0.2015 0.0000 3.5185 0.0000
# 3 77.6615 0.2015 157.9913 0.0000 2.8160 0.0000
# 4 0.0000 0.0000 0.0000 10.1293 0.0000 5.7799
# 5 -4.4134 3.5185 2.8160 0.0000 30.8880 0.0000
# 6 0.0000 0.0000 0.0000 5.7799 0.0000 5.8908
#
#
#
# Elastic Compliance Matrix: (Units=1/GPa)
#
#
# Indices 1 2 3 4 5 6 
#
# 1 0.031130 0.002547 -0.015404 0.000000 0.005562 0.000000
# 2 0.002547 0.020876 -0.001245 0.000000 -0.001901 0.000000
# 3 -0.015404 -0.001245 0.013963 0.000000 -0.003332 0.000000
# 4 0.000000 0.000000 0.000000 0.224312 0.000000 -0.220092
# 5 0.005562 -0.001901 -0.003332 0.000000 0.033690 0.000000
# 6 0.000000 0.000000 0.000000 -0.220092 0.000000 0.385709
#
#
# Mechanical properties :
#
#
# Convention : Reuss Voigt Hill
#
# Bulk Modulus (GPa) = 26.48007 47.24154 36.86081
# Shear Modulus (GPa) = 6.66247 23.05801 14.86024
#
# Velocity S-wave (km/s) = 1.83165 3.40750 2.73551
# Velocity P-wave (km/s) = 4.21990 6.26660 5.34218
#
# Compressibility (1/GPa) = 0.03776425
#
# Stress axis : x y z
#
# Youngs Moduli (GPa) = 32.12341 47.90129 71.61985
#
# Poissons Ratio (x) = -0.12200 1.10327
# Poissons Ratio (y) = -0.08181 0.08914
# Poissons Ratio (z) = 0.49484 0.05962
#
# Static dielectric constant tensor:
#      x y z
#    x 1.799560 0.000000 0.022130 
#    y 0.000000 1.728720 0.000000 
#    z 0.022130 0.000000 1.760320 
# 
# From -- ./inp_files/42221.got.cif
#   From: 2010.05.17/outbox.cif.g08.bks.cpg/sg11_22_cif.got.tgz:42221.got - 2010.06.03 12:22:45.
