data_PCOD9167509
_publ_section_title
;
Structure prediction by ZEFSAII (Michael W. Deem and Ramdas Pophale) SiO2 
 PCOD9167509
Probable space group: P 21/M
;
_chemical_formula_sum "Si O2"
_cell_formula_units_Z 20
_cell_length_a 15.470908
_cell_length_b 11.254075
_cell_length_c 13.230138
_cell_angle_alpha 90.000000
_cell_angle_beta 157.834416
_cell_angle_gamma 90.000000
_cell_volume 869.078550
_symmetry_space_group_name_H-M "P 21/M"
_symmetry_group_IT_number 11
_symmetry_cell_setting 'monoclinic'
loop_
_space_group_symop_operation_xyz
x,y,z
-x,1/2+y,-z
-x,-y,-z
x,1/2-y,z
loop_
_atom_site_type_symbol
_atom_site_label
_atom_site_fract_x
_atom_site_fract_y
_atom_site_fract_z
Si Si1 0.164482 0.750000 0.975728
Si Si2 0.723142 0.946940 0.288293
Si Si3 0.187081 0.393285 0.206694
Si Si4 0.381109 0.509532 0.226707
Si Si5 0.375062 0.250000 0.661769
Si Si6 0.125133 0.113548 0.768797
O O1 0.893886 0.750000 0.664667
O O2 0.221460 0.622286 0.083686
O O3 0.373108 0.750000 0.118123
O O4 0.630806 0.860928 0.271770
O O5 0.836617 0.888551 0.311392
O O6 0.891462 0.039878 0.523566
O O7 0.500000 0.000000 0.000000
O O8 0.128213 0.250000 0.148354
O O9 0.333855 0.411519 0.261808
O O10 0.364842 0.434202 0.487562
O O11 0.000000 0.500000 0.000000
O O12 0.305864 0.454462 0.037602
O O13 0.109493 0.250000 0.784630
#
# Coordination Sequence:
#
# PCOD9167509 Si02
#       6
#     2   4   4   4   2   4
#     4  12  26  46  80 109 150 200 263 312 382 459
#     4  11  25  41  65 101 145 195 247 310 371 450
#     4  11  27  47  76 110 151 198 253 328 398 476
#     4  11  25  46  73 105 147 194 257 314 391 463
#     4  12  26  46  76 109 148 206 253 312 374 461
#     4  11  24  43  67  99 143 194 251 312 381 452
#
# _framework density 23.012879000000002
#
# number of rings (size 3 to 8) (size 9 to 14) (size 15 to 20)
#    0.000    0.800    4.000    1.800    8.400    3.200 
#    0.000    0.000    0.000    0.000    0.000    0.000 
#    0.000    0.000    0.000    0.000    0.000    0.000 
#
# Total GULP energy -111470.014381 kJ/mol
# GULP energy per Si atom -5573.500719 kJ/mol
# Density = 2.296050 g / cm^3
# Si number density = 23.012879 Si / 1000 Ang^3
#
#
#
# Elastic Constant Matrix: (Units=GPa)
#
#
# Indices 1 2 3 4 5 6 
#
# 1 98.4343 53.9438 32.3180 0.0000 6.8779 0.0000
# 2 53.9438 198.8273 74.2772 0.0000 -1.2988 0.0000
# 3 32.3180 74.2772 162.5844 0.0000 -8.9660 0.0000
# 4 0.0000 0.0000 0.0000 41.8854 0.0000 -2.8223
# 5 6.8779 -1.2988 -8.9660 0.0000 35.9805 0.0000
# 6 0.0000 0.0000 0.0000 -2.8223 0.0000 54.7741
#
#
#
# Elastic Compliance Matrix: (Units=1/GPa)
#
#
# Indices 1 2 3 4 5 6 
#
# 1 0.012361 -0.002890 -0.001291 0.000000 -0.002789 0.000000
# 2 -0.002890 0.006748 -0.002499 0.000000 0.000173 0.000000
# 3 -0.001291 -0.002499 0.007663 0.000000 0.002066 0.000000
# 4 0.000000 0.000000 0.000000 0.023958 0.000000 0.001234
# 5 -0.002789 0.000173 0.002066 0.000000 0.028847 0.000000
# 6 0.000000 0.000000 0.000000 0.001234 0.000000 0.018320
#
#
# Mechanical properties :
#
#
# Convention : Reuss Voigt Hill
#
# Bulk Modulus (GPa) = 74.55231 86.76934 80.66083
# Shear Modulus (GPa) = 43.20483 46.48179 44.84331
#
# Velocity S-wave (km/s) = 4.33762 4.49911 4.41910
# Velocity P-wave (km/s) = 7.58636 8.04835 7.82076
#
# Compressibility (1/GPa) = 0.01341340
#
# Stress axis : x y z
#
# Youngs Moduli (GPa) = 80.89725 148.18766 130.50041
#
# Poissons Ratio (x) = 0.42823 0.16844
# Poissons Ratio (y) = 0.23378 0.32612
# Poissons Ratio (z) = 0.10442 0.37031
#
# Static dielectric constant tensor:
#      x y z
#    x 2.161100 0.000000 0.008460 
#    y 0.000000 1.874990 0.000000 
#    z 0.008460 0.000000 1.870770 
# 
# From -- ./inp_files/6204.got.cif
#   From: 2010.05.17/outbox.cif.g08.bks.cpg/sg11_4_cif.got.tgz:6204.got - 2010.06.03 12:22:45.
