data_PCOD9167235
_publ_section_title
;
Structure prediction by ZEFSAII (Michael W. Deem and Ramdas Pophale) SiO2 
 PCOD9167235
Probable space group: P 21/M
;
_chemical_formula_sum "Si O2"
_cell_formula_units_Z 32
_cell_length_a 21.576404
_cell_length_b 13.924834
_cell_length_c 19.111353
_cell_angle_alpha 90.000000
_cell_angle_beta 162.200951
_cell_angle_gamma 90.000000
_cell_volume 1755.200939
_symmetry_space_group_name_H-M "P 21/M"
_symmetry_group_IT_number 11
_symmetry_cell_setting 'monoclinic'
loop_
_space_group_symop_operation_xyz
x,y,z
-x,1/2+y,-z
-x,-y,-z
x,1/2-y,z
loop_
_atom_site_type_symbol
_atom_site_label
_atom_site_fract_x
_atom_site_fract_y
_atom_site_fract_z
Si Si1 0.446138 0.863011 0.077580
Si Si2 0.267916 0.857985 0.287144
Si Si3 0.934796 0.361770 0.439121
Si Si4 0.824518 0.643410 0.882844
Si Si5 0.913644 0.450280 0.043675
Si Si6 0.716782 0.527528 0.267299
Si Si7 0.350960 0.446812 0.442255
Si Si8 0.679765 0.134975 0.902276
O O1 0.499874 0.750000 0.137027
O O2 0.637377 0.921255 0.252204
O O3 0.377656 0.894072 0.081106
O O4 0.246294 0.870981 0.813198
O O5 0.347949 0.750000 0.377036
O O6 0.217191 0.889214 0.153491
O O7 0.383607 0.944094 0.450584
O O8 0.047907 0.857205 0.087963
O O9 0.952820 0.250000 0.477428
O O10 0.855719 0.431595 0.416202
O O11 0.143997 0.401025 0.630103
O O12 0.786314 0.750000 0.868546
O O13 0.836157 0.559066 0.951869
O O14 0.681197 0.615041 0.663178
O O15 0.884340 0.408246 0.089048
O O16 0.139646 0.445036 0.257212
O O17 0.500000 0.500000 0.000000
O O18 0.512964 0.405465 0.669500
O O19 0.687553 0.250000 0.908131
#
# Coordination Sequence:
#
# PCOD9167235 Si02
#       8
#     4   4   4   4   4   4   4   4
#     4   9  19  33  48  72 105 136 165 198 240 291
#     4   8  14  27  47  67  87 114 152 203 259 304
#     4   9  17  31  54  82 107 133 165 198 238 284
#     4   8  14  27  47  67  87 113 151 203 259 305
#     4   9  18  31  45  64  91 120 155 201 250 299
#     4   9  17  31  53  80 107 133 162 200 238 275
#     4   9  18  31  46  66  90 119 156 202 252 296
#     4  11  22  32  45  68  96 128 164 195 230 285
#
# _framework density 18.231531
#
# number of rings (size 3 to 8) (size 9 to 14) (size 15 to 20)
#    0.000    3.000    0.000    2.625    0.000    5.000 
#    0.000    4.375    0.000    1.500    0.000    8.750 
#    0.000    0.000    0.000    0.000    0.000    0.000 
#
# Total GULP energy -178315.397323 kJ/mol
# GULP energy per Si atom -5572.356166 kJ/mol
# Density = 1.819003 g / cm^3
# Si number density = 18.231531 Si / 1000 Ang^3
#
#
#
# Elastic Constant Matrix: (Units=GPa)
#
#
# Indices 1 2 3 4 5 6 
#
# 1 129.6187 52.9194 19.6835 0.0000 24.9183 0.0000
# 2 52.9194 121.0416 7.5563 0.0000 11.9079 0.0000
# 3 19.6835 7.5563 37.4779 0.0000 23.9630 0.0000
# 4 0.0000 0.0000 0.0000 17.2888 0.0000 2.8380
# 5 24.9183 11.9079 23.9630 0.0000 28.6429 0.0000
# 6 0.0000 0.0000 0.0000 2.8380 0.0000 22.1651
#
#
#
# Elastic Compliance Matrix: (Units=1/GPa)
#
#
# Indices 1 2 3 4 5 6 
#
# 1 0.010830 -0.003967 0.000175 0.000000 -0.007920 0.000000
# 2 -0.003967 0.010092 0.001128 0.000000 -0.001688 0.000000
# 3 0.000175 0.001128 0.057539 0.000000 -0.048759 0.000000
# 4 0.000000 0.000000 0.000000 0.059083 0.000000 -0.007565
# 5 -0.007920 -0.001688 -0.048759 0.000000 0.083297 0.000000
# 6 0.000000 0.000000 0.000000 -0.007565 0.000000 0.046085
#
#
# Mechanical properties :
#
#
# Convention : Reuss Voigt Hill
#
# Bulk Modulus (GPa) = 13.67348 49.82851 31.75099
# Shear Modulus (GPa) = 16.85601 27.48461 22.17031
#
# Velocity S-wave (km/s) = 3.04394 3.88691 3.49096
# Velocity P-wave (km/s) = 4.45761 6.89452 5.80537
#
# Compressibility (1/GPa) = 0.07313430
#
# Stress axis : x y z
#
# Youngs Moduli (GPa) = 92.33327 99.09234 17.37952
#
# Poissons Ratio (x) = 0.39309 -0.00305
# Poissons Ratio (y) = 0.36627 -0.01961
# Poissons Ratio (z) = -0.01619 -0.11180
#
# Static dielectric constant tensor:
#      x y z
#    x 1.635380 0.000000 0.058180 
#    y 0.000000 1.650020 0.000000 
#    z 0.058180 0.000000 1.672600 
# 
# From -- ./inp_files/61616.got.cif
#   From: 2010.05.17/outbox.cif.g08.bks.cpg/sg11_31_cif.got.tgz:61616.got - 2010.06.03 12:22:45.
