data_PCOD9167670
_publ_section_title
;
Structure prediction by ZEFSAII (Michael W. Deem and Ramdas Pophale) SiO2 
 PCOD9167670
Probable space group: P 21/M
;
_chemical_formula_sum "Si O2"
_cell_formula_units_Z 20
_cell_length_a 6.831401
_cell_length_b 27.602566
_cell_length_c 5.132059
_cell_angle_alpha 90.000000
_cell_angle_beta 58.540257
_cell_angle_gamma 90.000000
_cell_volume 825.474206
_symmetry_space_group_name_H-M "P 21/M"
_symmetry_group_IT_number 11
_symmetry_cell_setting 'monoclinic'
loop_
_space_group_symop_operation_xyz
x,y,z
-x,1/2+y,-z
-x,-y,-z
x,1/2-y,z
loop_
_atom_site_type_symbol
_atom_site_label
_atom_site_fract_x
_atom_site_fract_y
_atom_site_fract_z
Si Si1 0.729872 0.979936 0.971379
Si Si2 0.046355 0.926776 0.352631
Si Si3 0.489848 0.901226 0.407577
Si Si4 0.800402 0.344663 0.044190
Si Si5 0.609257 0.303622 0.670858
O O1 0.852714 0.943696 0.685774
O O2 0.886873 0.027663 0.876376
O O3 0.651028 0.947479 0.270271
O O4 0.500000 0.000000 0.000000
O O5 0.263331 0.914581 0.392202
O O6 0.003680 0.878370 0.214792
O O7 0.395436 0.885708 0.754900
O O8 0.564528 0.848896 0.239467
O O9 0.801856 0.316585 0.316635
O O10 0.717043 0.308682 0.879853
O O11 0.517371 0.250000 0.688933
#
# Coordination Sequence:
#
# PCOD9167670 Si02
#       5
#     4   4   4   4   4
#     4   9  17  33  55  82 116 151 186 223 273 332
#     4   9  17  33  54  80 114 150 185 227 270 328
#     4   8  18  32  51  83 108 144 185 226 277 326
#     4   9  18  32  55  82 108 144 186 225 281 328
#     4   9  17  32  57  83 104 141 187 232 283 337
#
# _framework density 24.228498999999999
#
# number of rings (size 3 to 8) (size 9 to 14) (size 15 to 20)
#    1.200    2.000    0.000    0.600    0.000    0.800 
#    0.000   15.000    0.000    6.000    0.000    0.000 
#    0.000    0.000    0.000    0.000    0.000    0.000 
#
# Total GULP energy -111505.261719 kJ/mol
# GULP energy per Si atom -5575.263086 kJ/mol
# Density = 2.417335 g / cm^3
# Si number density = 24.228499 Si / 1000 Ang^3
#
#
#
# Elastic Constant Matrix: (Units=GPa)
#
#
# Indices 1 2 3 4 5 6 
#
# 1 72.1503 34.9367 19.8561 0.0000 3.3521 0.0000
# 2 34.9367 132.3378 36.7769 0.0000 -8.0531 0.0000
# 3 19.8561 36.7769 88.5512 0.0000 23.8905 0.0000
# 4 0.0000 0.0000 0.0000 29.6709 0.0000 6.6498
# 5 3.3521 -8.0531 23.8905 0.0000 31.7534 0.0000
# 6 0.0000 0.0000 0.0000 6.6498 0.0000 20.3006
#
#
#
# Elastic Compliance Matrix: (Units=1/GPa)
#
#
# Indices 1 2 3 4 5 6 
#
# 1 0.016282 -0.003944 -0.001605 0.000000 -0.001512 0.000000
# 2 -0.003944 0.010544 -0.005431 0.000000 0.007176 0.000000
# 3 -0.001605 -0.005431 0.017859 0.000000 -0.014645 0.000000
# 4 0.000000 0.000000 0.000000 0.036373 0.000000 -0.011915
# 5 -0.001512 0.007176 -0.014645 0.000000 0.044491 0.000000
# 6 0.000000 0.000000 0.000000 -0.011915 0.000000 0.053163
#
#
# Mechanical properties :
#
#
# Convention : Reuss Voigt Hill
#
# Bulk Modulus (GPa) = 44.00456 52.90875 48.45666
# Shear Modulus (GPa) = 24.01008 29.77627 26.89317
#
# Velocity S-wave (km/s) = 3.15141 3.50948 3.33525
# Velocity P-wave (km/s) = 5.60746 6.18924 5.90552
#
# Compressibility (1/GPa) = 0.02272492
#
# Stress axis : x y z
#
# Youngs Moduli (GPa) = 61.41831 94.84467 55.99334
#
# Poissons Ratio (x) = 0.37409 0.08987
# Poissons Ratio (y) = 0.24225 0.30408
# Poissons Ratio (z) = 0.09857 0.51506
#
# Static dielectric constant tensor:
#      x y z
#    x 2.038010 0.000000 -0.023080 
#    y 0.000000 1.956170 0.000000 
#    z -0.023080 0.000000 1.927330 
# 
# From -- ./inp_files/3111.got.cif
#   From: 2010.05.17/outbox.cif.g08.bks.cpg/sg11_2_cif.got.tgz:3111.got - 2010.06.03 12:22:45.
