data_PCOD9167857
_publ_section_title
;
Structure prediction by ZEFSAII (Michael W. Deem and Ramdas Pophale) SiO2 
 PCOD9167857
Probable space group: P 21/M
;
_chemical_formula_sum "Si O2"
_cell_formula_units_Z 24
_cell_length_a 9.000000
_cell_length_b 15.000000
_cell_length_c 15.000000
_cell_angle_alpha 90.000000
_cell_angle_beta 140.000000
_cell_angle_gamma 90.000000
_cell_volume 1301.644910
_symmetry_space_group_name_H-M "P 21/M"
_symmetry_group_IT_number 11
_symmetry_cell_setting 'monoclinic'
loop_
_space_group_symop_operation_xyz
x,y,z
-x,1/2+y,-z
-x,-y,-z
x,1/2-y,z
loop_
_atom_site_type_symbol
_atom_site_label
_atom_site_fract_x
_atom_site_fract_y
_atom_site_fract_z
Si Si1 0.363073 0.856208 0.484579
Si Si2 0.489688 0.015090 0.287790
Si Si3 0.884393 0.153215 0.216471
Si Si4 0.290904 0.349559 0.524107
Si Si5 0.058056 0.970650 0.210140
Si Si6 0.439962 0.065898 0.056684
O O1 0.308960 0.750000 0.469748
O O2 0.428468 0.904104 0.608261
O O3 0.571597 0.861450 0.507190
O O4 0.172107 0.917108 0.345607
O O5 0.485252 0.033592 0.179756
O O6 0.647520 0.929193 0.382257
O O7 0.242167 0.985231 0.215805
O O8 0.938084 0.250000 0.200133
O O9 0.616329 0.144692 0.116469
O O10 0.025684 0.147656 0.373545
O O11 0.970809 0.068855 0.199465
O O12 0.350411 0.250000 0.584708
O O13 0.832245 0.917520 0.075124
O O14 0.500000 0.000000 0.000000
#
# Coordination Sequence:
#
# PCOD9167857 Si02
#       6
#     4   4   4   4   4   4
#     4  10  19  33  60  91 117 143 190 252 298 333
#     4  11  19  36  62  86 114 148 199 247 284 339
#     4  10  19  36  58  82 118 155 186 231 292 353
#     4   9  17  33  59  89 113 144 190 242 296 344
#     4  10  19  39  59  88 112 155 192 242 292 344
#     4  10  24  38  54  80 120 158 192 231 291 347
#
# _framework density 18.438207999999999
#
# number of rings (size 3 to 8) (size 9 to 14) (size 15 to 20)
#    0.000    2.000    3.333    1.500    0.000    2.000 
#    0.000    3.333    0.000    6.000    0.000    0.000 
#    0.000    0.000    0.000    0.000    0.000    0.000 
#
# Total GULP energy -133631.562287 kJ/mol
# GULP energy per Si atom -5567.981762 kJ/mol
# Density = 1.839624 g / cm^3
# Si number density = 18.438208 Si / 1000 Ang^3
#
#
#
# Elastic Constant Matrix: (Units=GPa)
#
#
# Indices 1 2 3 4 5 6 
#
# 1 45.3020 18.5711 29.5469 0.0000 -15.5915 0.0000
# 2 18.5711 99.3645 39.4525 0.0000 4.7190 0.0000
# 3 29.5469 39.4525 92.5496 0.0000 -2.8795 0.0000
# 4 0.0000 0.0000 0.0000 17.9030 0.0000 6.8573
# 5 -15.5915 4.7190 -2.8795 0.0000 40.6084 0.0000
# 6 0.0000 0.0000 0.0000 6.8573 0.0000 18.8844
#
#
#
# Elastic Compliance Matrix: (Units=1/GPa)
#
#
# Indices 1 2 3 4 5 6 
#
# 1 0.033617 -0.003346 -0.008912 0.000000 0.012664 0.000000
# 2 -0.003346 0.012577 -0.004388 0.000000 -0.003057 0.000000
# 3 -0.008912 -0.004388 0.015464 0.000000 -0.001815 0.000000
# 4 0.000000 0.000000 0.000000 0.064880 0.000000 -0.023559
# 5 0.012664 -0.003057 -0.001815 0.000000 0.029714 0.000000
# 6 0.000000 0.000000 0.000000 -0.023559 0.000000 0.061509
#
#
# Mechanical properties :
#
#
# Convention : Reuss Voigt Hill
#
# Bulk Modulus (GPa) = 35.25379 45.81744 40.53561
# Shear Modulus (GPa) = 19.19321 25.45553 22.32437
#
# Velocity S-wave (km/s) = 3.22987 3.71965 3.48338
# Velocity P-wave (km/s) = 5.75073 6.58414 6.18150
#
# Compressibility (1/GPa) = 0.02836575
#
# Stress axis : x y z
#
# Youngs Moduli (GPa) = 29.74707 79.51113 64.66477
#
# Poissons Ratio (x) = 0.26604 0.57629
# Poissons Ratio (y) = 0.09953 0.28377
# Poissons Ratio (z) = 0.26511 0.34892
#
# Static dielectric constant tensor:
#      x y z
#    x 1.637030 0.000000 0.047810 
#    y 0.000000 1.654330 0.000000 
#    z 0.047810 0.000000 1.680820 
# 
# From -- ./inp_files/12542.got.cif
#   From: 2010.05.17/outbox.ucp.g08.bks.cvg/sg11_7_cif.got.tgz:12542.got - 2010.06.11 11:38:39.
