data_PCOD9167216
_publ_section_title
;
Structure prediction by ZEFSAII (Michael W. Deem and Ramdas Pophale) SiO2 
 PCOD9167216
Probable space group: P 21/M
;
_chemical_formula_sum "Si O2"
_cell_formula_units_Z 26
_cell_length_a 8.680736
_cell_length_b 15.196593
_cell_length_c 15.463467
_cell_angle_alpha 90.000000
_cell_angle_beta 146.075188
_cell_angle_gamma 90.000000
_cell_volume 1138.479389
_symmetry_space_group_name_H-M "P 21/M"
_symmetry_group_IT_number 11
_symmetry_cell_setting 'monoclinic'
loop_
_space_group_symop_operation_xyz
x,y,z
-x,1/2+y,-z
-x,-y,-z
x,1/2-y,z
loop_
_atom_site_type_symbol
_atom_site_label
_atom_site_fract_x
_atom_site_fract_y
_atom_site_fract_z
Si Si1 0.179322 0.750000 0.872005
Si Si2 0.580790 0.085690 0.641423
Si Si3 0.977133 0.477971 0.388716
Si Si4 0.178744 0.844765 0.419687
Si Si5 0.975458 0.645243 0.039189
Si Si6 0.505982 0.911578 0.945836
Si Si7 0.748258 0.890688 0.749055
O O1 0.401274 0.827895 0.949947
O O2 0.948808 0.826945 0.790237
O O3 0.253434 0.075229 0.493030
O O4 0.678456 0.144168 0.607101
O O5 0.703922 0.987239 0.688300
O O6 0.709896 0.123925 0.789413
O O7 0.985532 0.572370 0.345221
O O8 0.000000 0.500000 0.500000
O O9 0.710606 0.426153 0.233747
O O10 0.043608 0.750000 0.364938
O O11 0.437062 0.852853 0.605960
O O12 0.937676 0.750000 0.012683
O O13 0.796017 0.608865 0.035294
O O14 0.876010 0.602234 0.903985
O O15 0.500000 0.000000 0.000000
#
# Coordination Sequence:
#
# PCOD9167216 Si02
#       7
#     2   4   4   4   4   4   4
#     4  12  22  40  68 104 130 178 236 280 344 402
#     4  11  24  43  73  96 138 180 231 278 344 414
#     4  11  25  46  68 104 141 181 225 286 355 406
#     4  11  21  41  68  98 134 182 231 281 338 418
#     4  12  24  46  66 102 136 182 228 286 342 413
#     4  12  26  46  72 100 144 183 230 287 347 412
#     4  11  22  40  68  99 134 177 231 278 341 414
#
# _framework density 22.837478000000001
#
# number of rings (size 3 to 8) (size 9 to 14) (size 15 to 20)
#    0.000    0.615    2.308    8.308    0.000    1.231 
#    4.154    0.000    0.000    0.000    0.000    0.000 
#    0.000    0.000    0.000    0.000    0.000    0.000 
#
# Total GULP energy -145091.283814 kJ/mol
# GULP energy per Si atom -5580.433993 kJ/mol
# Density = 2.278550 g / cm^3
# Si number density = 22.837478 Si / 1000 Ang^3
#
#
#
# Elastic Constant Matrix: (Units=GPa)
#
#
# Indices 1 2 3 4 5 6 
#
# 1 38.6795 8.8152 2.8937 0.0000 2.6627 0.0000
# 2 8.8152 99.3950 -0.8532 0.0000 10.1096 0.0000
# 3 2.8937 -0.8532 93.5092 0.0000 -3.8029 0.0000
# 4 0.0000 0.0000 0.0000 6.0882 0.0000 -5.5427
# 5 2.6627 10.1096 -3.8029 0.0000 31.5259 0.0000
# 6 0.0000 0.0000 0.0000 -5.5427 0.0000 22.1457
#
#
#
# Elastic Compliance Matrix: (Units=1/GPa)
#
#
# Indices 1 2 3 4 5 6 
#
# 1 0.026535 -0.002194 -0.000908 0.000000 -0.001647 0.000000
# 2 -0.002194 0.010582 0.000034 0.000000 -0.003204 0.000000
# 3 -0.000908 0.000034 0.010778 0.000000 0.001366 0.000000
# 4 0.000000 0.000000 0.000000 0.212725 0.000000 0.053242
# 5 -0.001647 -0.003204 0.001366 0.000000 0.033051 0.000000
# 6 0.000000 0.000000 0.000000 0.053242 0.000000 0.058481
#
#
# Mechanical properties :
#
#
# Convention : Reuss Voigt Hill
#
# Bulk Modulus (GPa) = 23.94679 28.14390 26.04534
# Shear Modulus (GPa) = 13.43339 26.66714 20.05027
#
# Velocity S-wave (km/s) = 2.42795 3.42086 2.96624
# Velocity P-wave (km/s) = 4.28584 5.28709 4.81258
#
# Compressibility (1/GPa) = 0.04175925
#
# Stress axis : x y z
#
# Youngs Moduli (GPa) = 37.68645 94.50393 92.78076
#
# Poissons Ratio (x) = 0.20730 0.08426
# Poissons Ratio (y) = 0.08267 -0.00317
# Poissons Ratio (z) = 0.03422 -0.00323
#
# Static dielectric constant tensor:
#      x y z
#    x 1.824660 0.000000 -0.033240 
#    y 0.000000 1.830410 0.000000 
#    z -0.033240 0.000000 1.900840 
# 
# From -- ./inp_files/47786.got.cif
#   From: 2010.05.17/outbox.cif.g08.bks.cpg/sg11_24_cif.got.tgz:47786.got - 2010.06.03 12:22:45.
