data_PCOD9167934
_publ_section_title
;
Structure prediction by ZEFSAII (Michael W. Deem and Ramdas Pophale) SiO2 
 PCOD9167934
Probable space group: P 21/M
;
_chemical_formula_sum "Si O2"
_cell_formula_units_Z 28
_cell_length_a 24.000000
_cell_length_b 9.000000
_cell_length_c 21.000000
_cell_angle_alpha 90.000000
_cell_angle_beta 160.000000
_cell_angle_gamma 90.000000
_cell_volume 1551.403370
_symmetry_space_group_name_H-M "P 21/M"
_symmetry_group_IT_number 11
_symmetry_cell_setting 'monoclinic'
loop_
_space_group_symop_operation_xyz
x,y,z
-x,1/2+y,-z
-x,-y,-z
x,1/2-y,z
loop_
_atom_site_type_symbol
_atom_site_label
_atom_site_fract_x
_atom_site_fract_y
_atom_site_fract_z
Si Si1 0.333851 0.069985 0.626645
Si Si2 0.232416 0.930922 0.080441
Si Si3 0.091157 0.923849 0.657197
Si Si4 0.962020 0.069952 0.254977
Si Si5 0.959641 0.432753 0.885941
Si Si6 0.525450 0.076209 0.958875
Si Si7 0.611144 0.930941 0.460505
O O1 0.346091 0.250000 0.641301
O O2 0.427153 0.017518 0.790986
O O3 0.396034 0.027737 0.622849
O O4 0.143758 0.029311 0.427811
O O5 0.217691 0.750000 0.071592
O O6 0.429172 0.965470 0.294625
O O7 0.104993 0.007268 0.993991
O O8 0.166082 0.972047 0.938013
O O9 0.042399 0.750000 0.604595
O O10 0.060382 0.983192 0.696082
O O11 0.283950 0.933032 0.852662
O O12 0.000000 0.000000 0.500000
O O13 0.952316 0.250000 0.247725
O O14 0.959157 0.250000 0.886283
O O15 0.000000 0.500000 0.000000
O O16 0.777539 0.493354 0.668226
O O17 0.480126 0.250000 0.917494
O O18 0.500000 0.000000 0.000000
O O19 0.631477 0.750000 0.486769
#
# Coordination Sequence:
#
# PCOD9167934 Si02
#       7
#     4   4   4   4   4   4   4
#     4   9  16  30  56  85 113 147 192 244 297 355
#     4  10  20  38  66  96 124 157 203 254 304 362
#     4  10  20  33  50  76 109 148 195 245 297 352
#     4   9  16  30  56  85 113 147 192 244 297 355
#     4  12  26  44  66  92 128 166 202 248 302 366
#     4  10  20  33  50  76 109 148 195 245 297 352
#     4  10  20  38  66  96 124 157 203 254 304 362
#
# _framework density 18.048175000000001
#
# number of rings (size 3 to 8) (size 9 to 14) (size 15 to 20)
#    0.000    2.000    1.429    3.000    0.000    6.286 
#    0.000    1.429    0.000    3.429    0.000    0.000 
#    0.000    0.000    0.000    0.000    0.000    0.000 
#
# Total GULP energy -156042.885647 kJ/mol
# GULP energy per Si atom -5572.960202 kJ/mol
# Density = 1.800710 g / cm^3
# Si number density = 18.048175 Si / 1000 Ang^3
#
#
#
# Elastic Constant Matrix: (Units=GPa)
#
#
# Indices 1 2 3 4 5 6 
#
# 1 152.2814 36.8631 66.7703 0.0000 -5.3758 0.0000
# 2 36.8631 57.7782 39.1419 0.0000 0.0496 0.0000
# 3 66.7703 39.1419 147.8001 0.0000 -10.8267 0.0000
# 4 0.0000 0.0000 0.0000 29.7473 0.0000 -2.4607
# 5 -5.3758 0.0496 -10.8267 0.0000 38.3228 0.0000
# 6 0.0000 0.0000 0.0000 -2.4607 0.0000 30.9354
#
#
#
# Elastic Compliance Matrix: (Units=1/GPa)
#
#
# Indices 1 2 3 4 5 6 
#
# 1 0.008750 -0.003564 -0.002981 0.000000 0.000390 0.000000
# 2 -0.003564 0.022644 -0.004519 0.000000 -0.001806 0.000000
# 3 -0.002981 -0.004519 0.009475 0.000000 0.002265 0.000000
# 4 0.000000 0.000000 0.000000 0.033839 0.000000 0.002692
# 5 0.000390 -0.001806 0.002265 0.000000 0.026791 0.000000
# 6 0.000000 0.000000 0.000000 0.002692 0.000000 0.032539
#
#
# Mechanical properties :
#
#
# Convention : Reuss Voigt Hill
#
# Bulk Modulus (GPa) = 53.35493 71.49004 62.42249
# Shear Modulus (GPa) = 30.78553 34.14008 32.46280
#
# Velocity S-wave (km/s) = 4.13454 4.35398 4.24568
# Velocity P-wave (km/s) = 7.24012 8.06057 7.66134
#
# Compressibility (1/GPa) = 0.01874241
#
# Stress axis : x y z
#
# Youngs Moduli (GPa) = 114.28376 44.16102 105.53946
#
# Poissons Ratio (x) = 0.15738 0.31457
# Poissons Ratio (y) = 0.40729 0.47696
# Poissons Ratio (z) = 0.34063 0.19957
#
# Static dielectric constant tensor:
#      x y z
#    x 1.637420 0.000000 0.001430 
#    y 0.000000 1.626510 0.000000 
#    z 0.001430 0.000000 1.628190 
# 
# From -- ./inp_files/66740.got.cif
#   From: 2010.05.17/outbox.ucp.g08.bks.cvg/sg11_34_cif.got.tgz:66740.got - 2010.06.11 11:38:39.
