data_PCOD9167334
_publ_section_title
;
Structure prediction by ZEFSAII (Michael W. Deem and Ramdas Pophale) SiO2 
 PCOD9167334
Probable space group: P 21/M
;
_chemical_formula_sum "Si O2"
_cell_formula_units_Z 28
_cell_length_a 27.435008
_cell_length_b 8.712207
_cell_length_c 9.445094
_cell_angle_alpha 90.000000
_cell_angle_beta 141.682038
_cell_angle_gamma 90.000000
_cell_volume 1399.744534
_symmetry_space_group_name_H-M "P 21/M"
_symmetry_group_IT_number 11
_symmetry_cell_setting 'monoclinic'
loop_
_space_group_symop_operation_xyz
x,y,z
-x,1/2+y,-z
-x,-y,-z
x,1/2-y,z
loop_
_atom_site_type_symbol
_atom_site_label
_atom_site_fract_x
_atom_site_fract_y
_atom_site_fract_z
Si Si1 0.373835 0.936264 0.559366
Si Si2 0.521106 0.935001 0.703045
Si Si3 0.662684 0.434536 0.203667
Si Si4 0.766206 0.433289 0.968279
Si Si5 0.967229 0.072349 0.783766
Si Si6 0.201099 0.432030 0.655847
Si Si7 0.929090 0.927917 0.249893
O O1 0.373291 0.750000 0.561912
O O2 0.453966 0.982336 0.663662
O O3 0.362171 0.987260 0.694840
O O4 0.302005 0.983849 0.294404
O O5 0.523254 0.750000 0.700257
O O6 0.500000 0.000000 0.500000
O O7 0.602285 0.998368 0.950775
O O8 0.660389 0.250000 0.193958
O O9 0.748997 0.491852 0.356546
O O10 0.761000 0.250000 0.975579
O O11 0.762254 0.511697 0.112295
O O12 0.850151 0.478337 0.094554
O O13 0.945025 0.250000 0.752239
O O14 0.037989 0.066351 0.833209
O O15 0.889441 0.985334 0.553949
O O16 0.000000 0.000000 0.000000
O O17 0.205637 0.250000 0.655334
O O18 0.916089 0.750000 0.261209
O O19 0.000000 0.000000 0.500000
#
# Coordination Sequence:
#
# PCOD9167334 Si02
#       7
#     4   4   4   4   4   4   4
#     4   9  22  41  64  93 126 164 207 254 310 371
#     4  11  22  41  67  97 129 167 210 255 307 372
#     4  11  23  42  65  93 128 167 208 259 316 373
#     4  11  22  40  65  93 124 165 213 264 317 376
#     4  11  25  43  64  91 126 167 212 263 320 380
#     4  12  25  42  63  92 126 166 213 263 317 380
#     4  11  23  40  63  92 124 165 213 263 317 375
#
# _framework density 20.00365
#
# number of rings (size 3 to 8) (size 9 to 14) (size 15 to 20)
#    0.000    1.143    1.429    4.714    2.000    2.857 
#    0.000    6.429    0.000    0.000    0.000    0.000 
#    0.000    0.000    0.000    0.000    0.000    0.000 
#
# Total GULP energy -156591.716425 kJ/mol
# GULP energy per Si atom -5592.561301 kJ/mol
# Density = 1.995812 g / cm^3
# Si number density = 20.003650 Si / 1000 Ang^3
#
#
#
# Elastic Constant Matrix: (Units=GPa)
#
#
# Indices 1 2 3 4 5 6 
#
# 1 105.9388 27.5531 17.2687 0.0000 -3.7723 0.0000
# 2 27.5531 86.5652 12.6829 0.0000 -11.7148 0.0000
# 3 17.2687 12.6829 63.7520 0.0000 -9.5032 0.0000
# 4 0.0000 0.0000 0.0000 30.5345 0.0000 1.8263
# 5 -3.7723 -11.7148 -9.5032 0.0000 41.4355 0.0000
# 6 0.0000 0.0000 0.0000 1.8263 0.0000 34.4793
#
#
#
# Elastic Compliance Matrix: (Units=1/GPa)
#
#
# Indices 1 2 3 4 5 6 
#
# 1 0.010608 -0.003096 -0.002323 0.000000 -0.000442 0.000000
# 2 -0.003096 0.013154 -0.001311 0.000000 0.003136 0.000000
# 3 -0.002323 -0.001311 0.017073 0.000000 0.003334 0.000000
# 4 0.000000 0.000000 0.000000 0.032854 0.000000 -0.001740
# 5 -0.000442 0.003136 0.003334 0.000000 0.025745 0.000000
# 6 0.000000 0.000000 0.000000 -0.001740 0.000000 0.029095
#
#
# Mechanical properties :
#
#
# Convention : Reuss Voigt Hill
#
# Bulk Modulus (GPa) = 36.53046 41.25171 38.89109
# Shear Modulus (GPa) = 33.08790 34.53996 33.81393
#
# Velocity S-wave (km/s) = 4.07147 4.15985 4.11589
# Velocity P-wave (km/s) = 6.35641 6.61357 6.48627
#
# Compressibility (1/GPa) = 0.02737441
#
# Stress axis : x y z
#
# Youngs Moduli (GPa) = 94.27245 76.02341 58.57269
#
# Poissons Ratio (x) = 0.23535 0.13609
# Poissons Ratio (y) = 0.29185 0.07677
# Poissons Ratio (z) = 0.21903 0.09965
#
# Static dielectric constant tensor:
#      x y z
#    x 1.581680 0.000000 -0.012150 
#    y 0.000000 1.679520 0.000000 
#    z -0.012150 0.000000 1.675700 
# 
# From -- ./inp_files/28540.got.cif
#   From: 2010.05.17/outbox.cif.g08.bks.cpg/sg11_15_cif.got.tgz:28540.got - 2010.06.03 12:22:45.
