data_PCOD9167523
_publ_section_title
;
Structure prediction by ZEFSAII (Michael W. Deem and Ramdas Pophale) SiO2 
 PCOD9167523
Probable space group: P 21/M
;
_chemical_formula_sum "Si O2"
_cell_formula_units_Z 20
_cell_length_a 5.308444
_cell_length_b 24.481291
_cell_length_c 9.090660
_cell_angle_alpha 90.000000
_cell_angle_beta 50.356918
_cell_angle_gamma 90.000000
_cell_volume 909.717861
_symmetry_space_group_name_H-M "P 21/M"
_symmetry_group_IT_number 11
_symmetry_cell_setting 'monoclinic'
loop_
_space_group_symop_operation_xyz
x,y,z
-x,1/2+y,-z
-x,-y,-z
x,1/2-y,z
loop_
_atom_site_type_symbol
_atom_site_label
_atom_site_fract_x
_atom_site_fract_y
_atom_site_fract_z
Si Si1 0.966766 0.641969 0.199244
Si Si2 0.013216 0.250000 0.298465
Si Si3 0.287470 0.047930 0.513164
Si Si4 0.272919 0.469566 0.201405
Si Si5 0.230345 0.250000 0.557700
Si Si6 0.253681 0.362226 0.056972
O O1 0.739151 0.599509 0.372232
O O2 0.903562 0.698541 0.303793
O O3 0.857507 0.642223 0.070534
O O4 0.353753 0.629923 0.071896
O O5 0.102907 0.250000 0.437769
O O6 0.154839 0.305892 0.174561
O O7 0.623958 0.250000 0.416822
O O8 0.399570 0.057964 0.304963
O O9 0.500000 0.000000 0.500000
O O10 0.930050 0.020507 0.658848
O O11 0.105825 0.418044 0.182151
O O12 0.500000 0.500000 0.000000
#
# Coordination Sequence:
#
# PCOD9167523 Si02
#       6
#     4   2   4   4   2   4
#     4  12  26  46  70 103 138 186 229 290 344 417
#     4  12  26  46  72 104 134 186 230 291 345 417
#     4  11  26  41  71 100 142 184 235 283 351 409
#     4  11  24  45  67 103 139 185 232 286 343 415
#     4  12  26  46  72 100 144 174 238 287 349 409
#     4  12  26  45  73  99 141 181 238 279 352 414
#
# _framework density 21.984838
#
# number of rings (size 3 to 8) (size 9 to 14) (size 15 to 20)
#    0.000    0.400    2.000    6.000    8.400    1.600 
#    0.000    0.000    0.000    0.000    0.000    0.000 
#    0.000    0.000    0.000    0.000    0.000    0.000 
#
# Total GULP energy -111758.579445 kJ/mol
# GULP energy per Si atom -5587.928972 kJ/mol
# Density = 2.193480 g / cm^3
# Si number density = 21.984838 Si / 1000 Ang^3
#
#
#
# Elastic Constant Matrix: (Units=GPa)
#
#
# Indices 1 2 3 4 5 6 
#
# 1 125.1261 4.9915 49.0452 0.0000 40.1000 0.0000
# 2 4.9915 150.1558 37.6843 0.0000 37.4929 0.0000
# 3 49.0452 37.6843 120.6712 0.0000 47.6659 0.0000
# 4 0.0000 0.0000 0.0000 59.3303 0.0000 3.6906
# 5 40.1000 37.4929 47.6659 0.0000 60.5645 0.0000
# 6 0.0000 0.0000 0.0000 3.6906 0.0000 30.8073
#
#
#
# Elastic Compliance Matrix: (Units=1/GPa)
#
#
# Indices 1 2 3 4 5 6 
#
# 1 0.010963 0.001873 -0.002489 0.000000 -0.006459 0.000000
# 2 0.001873 0.008248 -0.001205 0.000000 -0.005398 0.000000
# 3 -0.002489 -0.001205 0.012667 0.000000 -0.007576 0.000000
# 4 0.000000 0.000000 0.000000 0.016981 0.000000 -0.002034
# 5 -0.006459 -0.005398 -0.007576 0.000000 0.030091 0.000000
# 6 0.000000 0.000000 0.000000 -0.002034 0.000000 0.032704
#
#
# Mechanical properties :
#
#
# Convention : Reuss Voigt Hill
#
# Bulk Modulus (GPa) = 35.41612 64.37724 49.89668
# Shear Modulus (GPa) = 40.09358 50.42257 45.25807
#
# Velocity S-wave (km/s) = 4.27510 4.79426 4.54211
# Velocity P-wave (km/s) = 6.36498 7.74550 7.08893
#
# Compressibility (1/GPa) = 0.02823573
#
# Stress axis : x y z
#
# Youngs Moduli (GPa) = 91.21678 121.24713 78.94306
#
# Poissons Ratio (x) = -0.22710 0.19652
# Poissons Ratio (y) = -0.17086 0.09511
# Poissons Ratio (z) = 0.22707 0.14608
#
# Static dielectric constant tensor:
#      x y z
#    x -0.123880 0.000000 1.692190 
#    y 0.000000 1.852350 0.000000 
#    z 1.692190 0.000000 0.315210 
# 
# From -- ./inp_files/865.got.cif
#   From: 2010.05.17/outbox.cif.g08.bks.cpg/sg11_1_cif.got.tgz:865.got - 2010.06.03 12:22:45.
