data_PCOD9167989
_publ_section_title
;
Structure prediction by ZEFSAII (Michael W. Deem and Ramdas Pophale) SiO2 
 PCOD9167989
Probable space group: P 21/M
;
_chemical_formula_sum "Si O2"
_cell_formula_units_Z 32
_cell_length_a 15.000000
_cell_length_b 9.000000
_cell_length_c 24.000000
_cell_angle_alpha 90.000000
_cell_angle_beta 30.000000
_cell_angle_gamma 90.000000
_cell_volume 1620.000000
_symmetry_space_group_name_H-M "P 21/M"
_symmetry_group_IT_number 11
_symmetry_cell_setting 'monoclinic'
loop_
_space_group_symop_operation_xyz
x,y,z
-x,1/2+y,-z
-x,-y,-z
x,1/2-y,z
loop_
_atom_site_type_symbol
_atom_site_label
_atom_site_fract_x
_atom_site_fract_y
_atom_site_fract_z
Si Si1 0.008119 0.578564 0.233235
Si Si2 0.049973 0.071369 0.532121
Si Si3 0.735558 0.570340 0.221894
Si Si4 0.499534 0.572482 0.849072
Si Si5 0.886541 0.420856 0.953865
Si Si6 0.560606 0.926107 0.691271
Si Si7 0.229614 0.572190 0.220019
Si Si8 0.335134 0.926605 0.619782
O O1 0.955674 0.750000 0.275569
O O2 0.073346 0.581344 0.134020
O O3 0.155299 0.532555 0.199090
O O4 0.838756 0.472028 0.321844
O O5 0.042806 0.250000 0.529272
O O6 0.253134 0.032699 0.438279
O O7 0.918842 0.030582 0.653348
O O8 0.000000 0.000000 0.500000
O O9 0.733756 0.750000 0.226593
O O10 0.604959 0.513762 0.244653
O O11 0.676627 0.500674 0.312761
O O12 0.942659 0.519454 0.105826
O O13 0.486535 0.750000 0.865802
O O14 0.597048 0.549539 0.737309
O O15 0.592856 0.502192 0.851938
O O16 0.305534 0.506429 0.939820
O O17 0.865224 0.250000 0.984606
O O18 0.525880 0.750000 0.702983
O O19 0.252692 0.750000 0.208330
O O20 0.350227 0.750000 0.616673
O O21 0.500000 0.000000 0.500000
#
# Coordination Sequence:
#
# PCOD9167989 Si02
#       8
#     4   4   4   4   4   4   4   4
#     4   9  19  37  57  79 110 147 184 228 282 331
#     4  10  20  35  53  76 108 146 181 224 278 328
#     4  10  21  38  58  82 111 146 185 229 280 332
#     4  10  20  36  57  79 108 148 189 231 278 331
#     4   8  17  36  58  78 107 144 184 231 283 330
#     4  10  21  35  53  81 112 145 184 228 279 334
#     4  10  21  35  54  81 112 145 182 226 278 333
#     4  11  22  37  57  83 113 146 186 229 274 328
#
# _framework density 19.753086
#
# number of rings (size 3 to 8) (size 9 to 14) (size 15 to 20)
#    0.000    2.250    1.250    2.250    1.750    2.500 
#    0.000    3.125    0.000    0.000    0.000    0.000 
#    0.000    0.000    0.000    0.000    0.000    0.000 
#
# Total GULP energy -178390.822317 kJ/mol
# GULP energy per Si atom -5574.713197 kJ/mol
# Density = 1.970813 g / cm^3
# Si number density = 19.753086 Si / 1000 Ang^3
#
#
#
# Elastic Constant Matrix: (Units=GPa)
#
#
# Indices 1 2 3 4 5 6 
#
# 1 109.5201 25.8861 0.4609 0.0000 -23.7478 0.0000
# 2 25.8861 46.3212 12.7644 0.0000 -7.8255 0.0000
# 3 0.4609 12.7644 46.2630 0.0000 -24.1053 0.0000
# 4 0.0000 0.0000 0.0000 13.8973 0.0000 -7.5318
# 5 -23.7478 -7.8255 -24.1053 0.0000 23.9948 0.0000
# 6 0.0000 0.0000 0.0000 -7.5318 0.0000 38.1609
#
#
#
# Elastic Compliance Matrix: (Units=1/GPa)
#
#
# Indices 1 2 3 4 5 6 
#
# 1 0.020653 -0.011297 0.024429 0.000000 0.041298 0.000000
# 2 -0.011297 0.029610 -0.018573 0.000000 -0.020182 0.000000
# 3 0.024429 -0.018573 0.075413 0.000000 0.093881 0.000000
# 4 0.000000 0.000000 0.000000 0.080575 0.000000 0.015903
# 5 0.041298 -0.020182 0.093881 0.000000 0.170280 0.000000
# 6 0.000000 0.000000 0.000000 0.015903 0.000000 0.029344
#
#
# Mechanical properties :
#
#
# Convention : Reuss Voigt Hill
#
# Bulk Modulus (GPa) = 8.71116 31.14747 19.92931
# Shear Modulus (GPa) = 10.98854 26.07680 18.53267
#
# Velocity S-wave (km/s) = 2.36115 3.63731 3.06635
# Velocity P-wave (km/s) = 3.44281 5.78297 4.75897
#
# Compressibility (1/GPa) = 0.11479524
#
# Stress axis : x y z
#
# Youngs Moduli (GPa) = 48.41954 33.77256 13.26029
#
# Poissons Ratio (x) = 0.38151 -0.32394
# Poissons Ratio (y) = 0.54698 0.24628
# Poissons Ratio (z) = -1.18285 0.62725
#
# Static dielectric constant tensor:
#      x y z
#    x 1.666760 0.000000 -0.024040 
#    y 0.000000 1.672170 0.000000 
#    z -0.024040 0.000000 1.795360 
# 
# From -- ./inp_files/51633.got.cif
#   From: 2010.05.17/outbox.ucp.g08.bks.cvg/sg11_26_cif.got.tgz:51633.got - 2010.06.11 11:38:39.
