data_PCOD9167346
_publ_section_title
;
Structure prediction by ZEFSAII (Michael W. Deem and Ramdas Pophale) SiO2 
 PCOD9167346
Probable space group: P 21/M
;
_chemical_formula_sum "Si O2"
_cell_formula_units_Z 32
_cell_length_a 22.951948
_cell_length_b 8.476610
_cell_length_c 14.153836
_cell_angle_alpha 90.000000
_cell_angle_beta 147.195148
_cell_angle_gamma 90.000000
_cell_volume 1491.895462
_symmetry_space_group_name_H-M "P 21/M"
_symmetry_group_IT_number 11
_symmetry_cell_setting 'monoclinic'
loop_
_space_group_symop_operation_xyz
x,y,z
-x,1/2+y,-z
-x,-y,-z
x,1/2-y,z
loop_
_atom_site_type_symbol
_atom_site_label
_atom_site_fract_x
_atom_site_fract_y
_atom_site_fract_z
Si Si1 0.830880 0.440076 0.793274
Si Si2 0.611387 0.561222 0.196566
Si Si3 0.605570 0.060166 0.402883
Si Si4 0.988125 0.060820 0.840458
Si Si5 0.007206 0.557949 0.363591
Si Si6 0.439275 0.563000 0.324530
Si Si7 0.761550 0.938271 0.043785
Si Si8 0.228191 0.560362 0.742441
O O1 0.834525 0.250000 0.802256
O O2 0.709520 0.487256 0.607004
O O3 0.903148 0.495548 0.802513
O O4 0.893138 0.506263 0.968150
O O5 0.614285 0.750000 0.197372
O O6 0.617375 0.504356 0.313098
O O7 0.705947 0.492155 0.259808
O O8 0.500000 0.500000 0.000000
O O9 0.601933 0.250000 0.393247
O O10 0.503312 0.997529 0.319862
O O11 0.986413 0.250000 0.840122
O O12 0.958802 0.010729 0.695810
O O13 0.004773 0.750000 0.365701
O O14 0.103633 0.505215 0.562569
O O15 0.884879 0.502653 0.207446
O O16 0.500000 0.500000 0.500000
O O17 0.440620 0.750000 0.329989
O O18 0.317173 0.506095 0.142914
O O19 0.761484 0.750000 0.035422
O O20 0.723206 0.988042 0.096140
O O21 0.230719 0.750000 0.752099
#
# Coordination Sequence:
#
# PCOD9167346 Si02
#       8
#     4   4   4   4   4   4   4   4
#     4   9  19  34  55  84 120 157 197 249 307 364
#     4  12  25  42  65  95 128 167 212 262 322 383
#     4  11  23  42  66  93 125 161 207 259 315 379
#     4   9  17  33  55  83 118 159 203 249 302 364
#     4   9  20  37  62  91 124 168 215 262 318 378
#     4  12  27  47  68  94 127 168 216 268 324 383
#     4  11  23  42  65  94 129 168 217 270 323 383
#     4  11  22  41  66  95 132 173 215 264 322 383
#
# _framework density 21.449224000000001
#
# number of rings (size 3 to 8) (size 9 to 14) (size 15 to 20)
#    0.000    1.500    0.000    5.250    1.750    3.000 
#    0.000    6.250    0.000    0.000    0.000    0.000 
#    0.000    0.000    0.000    0.000    0.000    0.000 
#
# Total GULP energy -178925.469270 kJ/mol
# GULP energy per Si atom -5591.420915 kJ/mol
# Density = 2.140041 g / cm^3
# Si number density = 21.449224 Si / 1000 Ang^3
#
#
#
# Elastic Constant Matrix: (Units=GPa)
#
#
# Indices 1 2 3 4 5 6 
#
# 1 47.8098 -5.9944 20.2241 0.0000 3.8442 0.0000
# 2 -5.9944 54.2213 18.1914 0.0000 1.7360 0.0000
# 3 20.2241 18.1914 147.2935 0.0000 0.8253 0.0000
# 4 0.0000 0.0000 0.0000 34.3246 0.0000 -3.1449
# 5 3.8442 1.7360 0.8253 0.0000 38.3816 0.0000
# 6 0.0000 0.0000 0.0000 -3.1449 0.0000 26.0205
#
#
#
# Elastic Compliance Matrix: (Units=1/GPa)
#
#
# Indices 1 2 3 4 5 6 
#
# 1 0.023133 0.003856 -0.003639 0.000000 -0.002413 0.000000
# 2 0.003856 0.019909 -0.002981 0.000000 -0.001223 0.000000
# 3 -0.003639 -0.002981 0.007655 0.000000 0.000335 0.000000
# 4 0.000000 0.000000 0.000000 0.029460 0.000000 0.003561
# 5 -0.002413 -0.001223 0.000335 0.000000 0.026344 0.000000
# 6 0.000000 0.000000 0.000000 0.003561 0.000000 0.038862
#
#
# Mechanical properties :
#
#
# Convention : Reuss Voigt Hill
#
# Bulk Modulus (GPa) = 22.13989 34.90742 28.52366
# Shear Modulus (GPa) = 30.13007 34.20558 32.16783
#
# Velocity S-wave (km/s) = 3.75202 3.99773 3.87682
# Velocity P-wave (km/s) = 5.39580 6.13343 5.77640
#
# Compressibility (1/GPa) = 0.04516733
#
# Stress axis : x y z
#
# Youngs Moduli (GPa) = 43.22835 50.22959 130.63114
#
# Poissons Ratio (x) = -0.19366 0.47536
# Poissons Ratio (y) = -0.16667 0.38946
# Poissons Ratio (z) = 0.15730 0.14975
#
# Static dielectric constant tensor:
#      x y z
#    x 1.793400 0.000000 0.022720 
#    y 0.000000 1.721180 0.000000 
#    z 0.022720 0.000000 1.782180 
# 
# From -- ./inp_files/55693.got.cif
#   From: 2010.05.17/outbox.cif.g08.bks.cpg/sg11_28_cif.got.tgz:55693.got - 2010.06.03 12:22:45.
