data_PCOD9167193
_publ_section_title
;
Structure prediction by ZEFSAII (Michael W. Deem and Ramdas Pophale) SiO2 
 PCOD9167193
Probable space group: P 21/M
;
_chemical_formula_sum "Si O2"
_cell_formula_units_Z 32
_cell_length_a 32.679614
_cell_length_b 8.837910
_cell_length_c 13.073805
_cell_angle_alpha 90.000000
_cell_angle_beta 26.751173
_cell_angle_gamma 90.000000
_cell_volume 1699.627087
_symmetry_space_group_name_H-M "P 21/M"
_symmetry_group_IT_number 11
_symmetry_cell_setting 'monoclinic'
loop_
_space_group_symop_operation_xyz
x,y,z
-x,1/2+y,-z
-x,-y,-z
x,1/2-y,z
loop_
_atom_site_type_symbol
_atom_site_label
_atom_site_fract_x
_atom_site_fract_y
_atom_site_fract_z
Si Si1 0.858766 0.925446 0.900005
Si Si2 0.790239 0.566319 0.836288
Si Si3 0.587926 0.931787 0.356612
Si Si4 0.877568 0.068072 0.438230
Si Si5 0.216608 0.565967 0.562878
Si Si6 0.351045 0.074885 0.558983
Si Si7 0.597673 0.428688 0.764166
Si Si8 0.069787 0.569065 0.059479
O O1 0.888710 0.750000 0.834362
O O2 0.851088 0.978587 0.799528
O O3 0.915135 0.018388 0.857106
O O4 0.754215 0.929259 0.172555
O O5 0.793507 0.750000 0.824899
O O6 0.826386 0.495930 0.651686
O O7 0.685237 0.521579 0.091474
O O8 0.584670 0.750000 0.357047
O O9 0.592506 0.969759 0.466584
O O10 0.500000 0.000000 0.500000
O O11 0.878330 0.250000 0.439306
O O12 0.828678 0.018374 0.442365
O O13 0.979599 0.005872 0.215919
O O14 0.217960 0.750000 0.560191
O O15 0.320089 0.513572 0.347490
O O16 0.154592 0.521188 0.798384
O O17 0.372338 0.250000 0.484545
O O18 0.370623 0.968352 0.420833
O O19 0.590325 0.250000 0.794575
O O20 0.500000 0.500000 0.000000
O O21 0.062004 0.750000 0.072553
#
# Coordination Sequence:
#
# PCOD9167193 Si02
#       8
#     4   4   4   4   4   4   4   4
#     4   9  18  35  60  84 110 145 187 234 281 335
#     4   9  20  39  57  80 116 152 188 236 287 335
#     4   9  19  35  57  83 113 148 190 236 285 340
#     4  11  23  39  58  83 115 154 193 234 285 344
#     4   9  21  40  59  81 115 151 189 238 287 335
#     4   9  18  35  56  80 110 145 184 234 287 333
#     4  11  22  38  58  85 116 149 189 236 287 342
#     4  11  21  37  61  87 113 147 190 238 289 342
#
# _framework density 18.827660000000002
#
# number of rings (size 3 to 8) (size 9 to 14) (size 15 to 20)
#    0.000    2.250    1.250    3.000    0.000    3.000 
#    0.000   10.625    0.000    0.000    0.000    0.000 
#    0.000    0.000    0.000    0.000    0.000    0.000 
#
# Total GULP energy -178603.955351 kJ/mol
# GULP energy per Si atom -5581.373605 kJ/mol
# Density = 1.878481 g / cm^3
# Si number density = 18.827660 Si / 1000 Ang^3
#
#
#
# Elastic Constant Matrix: (Units=GPa)
#
#
# Indices 1 2 3 4 5 6 
#
# 1 154.0124 35.3050 51.1402 0.0000 -19.5983 0.0000
# 2 35.3050 31.6355 20.1283 0.0000 -5.3480 0.0000
# 3 51.1402 20.1283 68.9802 0.0000 -11.0702 0.0000
# 4 0.0000 0.0000 0.0000 31.2493 0.0000 0.8356
# 5 -19.5983 -5.3480 -11.0702 0.0000 30.5156 0.0000
# 6 0.0000 0.0000 0.0000 0.8356 0.0000 30.6709
#
#
#
# Elastic Compliance Matrix: (Units=1/GPa)
#
#
# Indices 1 2 3 4 5 6 
#
# 1 0.010345 -0.007895 -0.004801 0.000000 0.003518 0.000000
# 2 -0.007895 0.045079 -0.007270 0.000000 0.000192 0.000000
# 3 -0.004801 -0.007270 0.020682 0.000000 0.003146 0.000000
# 4 0.000000 0.000000 0.000000 0.032024 0.000000 -0.000872
# 5 0.003518 0.000192 0.003146 0.000000 0.036205 0.000000
# 6 0.000000 0.000000 0.000000 -0.000872 0.000000 0.032628
#
#
# Mechanical properties :
#
#
# Convention : Reuss Voigt Hill
#
# Bulk Modulus (GPa) = 27.64391 51.97502 39.80947
# Shear Modulus (GPa) = 21.83858 28.35746 25.09802
#
# Velocity S-wave (km/s) = 3.40945 3.88514 3.65504
# Velocity P-wave (km/s) = 5.49670 6.91313 6.24520
#
# Compressibility (1/GPa) = 0.03617433
#
# Stress axis : x y z
#
# Youngs Moduli (GPa) = 96.66770 22.18324 48.35061
#
# Poissons Ratio (x) = 0.17514 0.23212
# Poissons Ratio (y) = 0.76322 0.35150
# Poissons Ratio (z) = 0.46409 0.16127
#
# Static dielectric constant tensor:
#      x y z
#    x 1.650930 0.000000 -0.006990 
#    y 0.000000 1.635500 0.000000 
#    z -0.006990 0.000000 1.646720 
# 
# From -- ./inp_files/45140.got.cif
#   From: 2010.05.17/outbox.cif.g08.bks.cpg/sg11_23_cif.got.tgz:45140.got - 2010.06.03 12:22:45.
