data_PCOD9167111
_publ_section_title
;
Structure prediction by ZEFSAII (Michael W. Deem and Ramdas Pophale) SiO2 
 PCOD9167111
Probable space group: P 21/M
;
_chemical_formula_sum "Si O2"
_cell_formula_units_Z 24
_cell_length_a 17.501623
_cell_length_b 15.130706
_cell_length_c 9.663923
_cell_angle_alpha 90.000000
_cell_angle_beta 156.728096
_cell_angle_gamma 90.000000
_cell_volume 1011.096479
_symmetry_space_group_name_H-M "P 21/M"
_symmetry_group_IT_number 11
_symmetry_cell_setting 'monoclinic'
loop_
_space_group_symop_operation_xyz
x,y,z
-x,1/2+y,-z
-x,-y,-z
x,1/2-y,z
loop_
_atom_site_type_symbol
_atom_site_label
_atom_site_fract_x
_atom_site_fract_y
_atom_site_fract_z
Si Si1 0.442942 0.510373 0.745183
Si Si2 0.925435 0.390061 0.181550
Si Si3 0.297985 0.153453 0.978127
Si Si4 0.348571 0.852040 0.031738
Si Si5 0.117316 0.847508 0.199311
Si Si6 0.957022 0.600996 0.206385
O O1 0.243772 0.563264 0.419739
O O2 0.500000 0.500000 0.000000
O O3 0.573260 0.577511 0.872519
O O4 0.483105 0.417347 0.738377
O O5 0.730490 0.371729 0.944640
O O6 0.099218 0.352001 0.561307
O O7 0.949094 0.495233 0.205220
O O8 0.940922 0.348291 0.056904
O O9 0.388113 0.250000 0.115312
O O10 0.225098 0.136787 0.011508
O O11 0.400515 0.750000 0.106335
O O12 0.160031 0.870627 0.618599
O O13 0.206815 0.750000 0.377651
O O14 0.960825 0.862699 0.058025
#
# Coordination Sequence:
#
# PCOD9167111 Si02
#       6
#     4   4   4   4   4   4
#     4  12  24  41  63  96 125 167 217 265 313 371
#     4  11  21  41  65  95 126 168 211 260 320 376
#     4  11  21  40  68  93 124 166 218 262 304 376
#     4  11  21  40  67  92 124 169 218 260 314 380
#     4  12  25  40  63  98 137 169 203 260 329 380
#     4  11  20  40  66  93 122 168 218 259 308 377
#
# _framework density 23.736606999999999
#
# number of rings (size 3 to 8) (size 9 to 14) (size 15 to 20)
#    0.000    0.667    5.000    6.000    0.000    1.333 
#    0.000    0.000    0.000    2.000    0.000    0.000 
#    0.000    0.000    0.000    0.000    0.000    0.000 
#
# Total GULP energy -134345.239475 kJ/mol
# GULP energy per Si atom -5597.718311 kJ/mol
# Density = 2.368258 g / cm^3
# Si number density = 23.736607 Si / 1000 Ang^3
#
#
#
# Elastic Constant Matrix: (Units=GPa)
#
#
# Indices 1 2 3 4 5 6 
#
# 1 214.7707 70.5648 35.0336 0.0000 -15.8992 0.0000
# 2 70.5648 234.1288 12.4074 0.0000 4.5491 0.0000
# 3 35.0336 12.4074 25.1226 0.0000 -1.7230 0.0000
# 4 0.0000 0.0000 0.0000 12.4899 0.0000 -0.0535
# 5 -15.8992 4.5491 -1.7230 0.0000 31.4831 0.0000
# 6 0.0000 0.0000 0.0000 -0.0535 0.0000 5.6157
#
#
#
# Elastic Compliance Matrix: (Units=1/GPa)
#
#
# Indices 1 2 3 4 5 6 
#
# 1 0.006826 -0.001671 -0.008472 0.000000 0.003225 0.000000
# 2 -0.001671 0.004813 -0.000153 0.000000 -0.001548 0.000000
# 3 -0.008472 -0.000153 0.051597 0.000000 -0.001433 0.000000
# 4 0.000000 0.000000 0.000000 0.080068 0.000000 0.000762
# 5 0.003225 -0.001548 -0.001433 0.000000 0.033537 0.000000
# 6 0.000000 0.000000 0.000000 0.000762 0.000000 0.178078
#
#
# Mechanical properties :
#
#
# Convention : Reuss Voigt Hill
#
# Bulk Modulus (GPa) = 23.45041 78.89261 51.17151
# Shear Modulus (GPa) = 12.82954 33.65217 23.24085
#
# Velocity S-wave (km/s) = 2.32738 3.76936 3.13247
# Velocity P-wave (km/s) = 4.13801 7.22862 5.88966
#
# Compressibility (1/GPa) = 0.04264317
#
# Stress axis : x y z
#
# Youngs Moduli (GPa) = 146.50116 207.77299 19.38102
#
# Poissons Ratio (x) = 0.34718 0.16420
# Poissons Ratio (y) = 0.24480 0.00296
# Poissons Ratio (z) = 1.24121 0.03179
#
# Static dielectric constant tensor:
#      x y z
#    x 1.944520 0.000000 -0.004100 
#    y 0.000000 1.867990 0.000000 
#    z -0.004100 0.000000 1.958160 
# 
# From -- ./inp_files/22315.got.cif
#   From: 2010.05.17/outbox.cif.g08.bks.cpg/sg11_12_cif.got.tgz:22315.got - 2010.06.03 12:22:45.
