data_PCOD9167918
_publ_section_title
;
Structure prediction by ZEFSAII (Michael W. Deem and Ramdas Pophale) SiO2 
 PCOD9167918
Probable space group: P 21/M
;
_chemical_formula_sum "Si O2"
_cell_formula_units_Z 28
_cell_length_a 9.000000
_cell_length_b 21.000000
_cell_length_c 15.000000
_cell_angle_alpha 90.000000
_cell_angle_beta 30.000000
_cell_angle_gamma 90.000000
_cell_volume 1417.500000
_symmetry_space_group_name_H-M "P 21/M"
_symmetry_group_IT_number 11
_symmetry_cell_setting 'monoclinic'
loop_
_space_group_symop_operation_xyz
x,y,z
-x,1/2+y,-z
-x,-y,-z
x,1/2-y,z
loop_
_atom_site_type_symbol
_atom_site_label
_atom_site_fract_x
_atom_site_fract_y
_atom_site_fract_z
Si Si1 0.569495 0.676047 0.790224
Si Si2 0.516387 0.602801 0.553993
Si Si3 0.611366 0.963893 0.853437
Si Si4 0.511660 0.916765 0.193834
Si Si5 0.986471 0.325249 0.610149
Si Si6 0.937073 0.324055 0.093904
Si Si7 0.318334 0.534101 0.478724
O O1 0.595620 0.750000 0.813710
O O2 0.564849 0.612183 0.855596
O O3 0.828987 0.669301 0.579589
O O4 0.272056 0.674806 0.884712
O O5 0.807008 0.645352 0.419774
O O6 0.256126 0.648631 0.723648
O O7 0.457871 0.574069 0.487400
O O8 0.548057 0.537437 0.594927
O O9 0.966150 0.972684 0.671923
O O10 0.469119 0.011311 0.853794
O O11 0.500000 0.000000 0.000000
O O12 0.374391 0.926688 0.361495
O O13 0.293537 0.871736 0.250247
O O14 0.806516 0.875609 0.049227
O O15 0.923965 0.250000 0.655632
O O16 0.028146 0.250000 0.060580
#
# Coordination Sequence:
#
# PCOD9167918 Si02
#       7
#     4   4   4   4   4   4   4
#     4   9  20  40  65  90 125 169 216 261 323 391
#     4  10  21  40  63  91 129 167 211 262 320 393
#     4  12  24  40  65  98 132 169 220 273 332 385
#     4  12  22  39  66  94 131 164 217 279 315 385
#     4  10  19  38  65  91 124 170 212 260 322 380
#     4  10  22  41  63  94 130 172 215 264 326 386
#     4  11  23  39  65  97 126 163 219 270 326 380
#
# _framework density 19.753086
#
# number of rings (size 3 to 8) (size 9 to 14) (size 15 to 20)
#    0.000    1.429    2.857    4.714    0.000    4.571 
#    0.000    7.143    0.000    0.000    0.000    0.000 
#    0.000    0.000    0.000    0.000    0.000    0.000 
#
# Total GULP energy -156131.739688 kJ/mol
# GULP energy per Si atom -5576.133560 kJ/mol
# Density = 1.970813 g / cm^3
# Si number density = 19.753086 Si / 1000 Ang^3
#
#
#
# Elastic Constant Matrix: (Units=GPa)
#
#
# Indices 1 2 3 4 5 6 
#
# 1 28.7329 29.7946 11.5708 0.0000 10.8907 0.0000
# 2 29.7946 169.3588 9.1650 0.0000 7.0310 0.0000
# 3 11.5708 9.1650 37.6648 0.0000 -3.8903 0.0000
# 4 0.0000 0.0000 0.0000 13.4123 0.0000 1.1660
# 5 10.8907 7.0310 -3.8903 0.0000 15.5383 0.0000
# 6 0.0000 0.0000 0.0000 1.1660 0.0000 45.0761
#
#
#
# Elastic Compliance Matrix: (Units=1/GPa)
#
#
# Indices 1 2 3 4 5 6 
#
# 1 0.077391 -0.009790 -0.027242 0.000000 -0.056633 0.000000
# 2 -0.009790 0.007376 0.001618 0.000000 0.003929 0.000000
# 3 -0.027242 0.001618 0.037388 0.000000 0.027722 0.000000
# 4 0.000000 0.000000 0.000000 0.074726 0.000000 -0.001933
# 5 -0.056633 0.003929 0.027722 0.000000 0.109214 0.000000
# 6 0.000000 0.000000 0.000000 -0.001933 0.000000 0.022235
#
#
# Mechanical properties :
#
#
# Convention : Reuss Voigt Hill
#
# Bulk Modulus (GPa) = 19.48229 37.42415 28.45322
# Shear Modulus (GPa) = 12.01151 27.15377 19.58264
#
# Velocity S-wave (km/s) = 2.46861 3.71166 3.15202
# Velocity P-wave (km/s) = 4.24378 6.11193 5.26143
#
# Compressibility (1/GPa) = 0.05132866
#
# Stress axis : x y z
#
# Youngs Moduli (GPa) = 12.92138 135.57139 26.74622
#
# Poissons Ratio (x) = 1.32720 0.72863
# Poissons Ratio (y) = 0.12650 -0.04329
# Poissons Ratio (z) = 0.35201 -0.21941
#
# Static dielectric constant tensor:
#      x y z
#    x 1.651910 0.000000 0.055800 
#    y 0.000000 1.665620 0.000000 
#    z 0.055800 0.000000 1.698370 
# 
# From -- ./inp_files/23222.got.cif
#   From: 2010.05.17/outbox.ucp.g08.bks.cvg/sg11_12_cif.got.tgz:23222.got - 2010.06.11 11:38:39.
