data_PCOD9167026
_publ_section_title
;
Structure prediction by ZEFSAII (Michael W. Deem and Ramdas Pophale) SiO2 
 PCOD9167026
Probable space group: P 21/M
;
_chemical_formula_sum "Si O2"
_cell_formula_units_Z 10
_cell_length_a 9.721154
_cell_length_b 7.230638
_cell_length_c 15.972347
_cell_angle_alpha 90.000000
_cell_angle_beta 160.626830
_cell_angle_gamma 90.000000
_cell_volume 372.420916
_symmetry_space_group_name_H-M "P 21/M"
_symmetry_group_IT_number 11
_symmetry_cell_setting 'monoclinic'
loop_
_space_group_symop_operation_xyz
x,y,z
-x,1/2+y,-z
-x,-y,-z
x,1/2-y,z
loop_
_atom_site_type_symbol
_atom_site_label
_atom_site_fract_x
_atom_site_fract_y
_atom_site_fract_z
Si Si1 0.031590 0.250000 0.403449
Si Si2 0.987041 0.030884 0.757504
Si Si3 0.396428 0.470258 0.167527
O O1 0.915036 0.409562 0.266148
O O2 0.253432 0.410334 0.588959
O O3 0.035066 0.250000 0.771808
O O4 0.500000 0.000000 0.500000
O O5 0.241167 0.976267 0.986408
O O6 0.498679 0.250000 0.217144
O O7 0.000000 0.500000 0.000000
#
# Coordination Sequence:
#
# PCOD9167026 Si02
#       3
#     2   4   4
#     4  12  20  24  36  40  48  48  64  68  72  76
#     4  11  19  27  33  39  47  55  59  65  75  81
#     4  11  19  27  33  39  47  55  59  65  75  81
#
# _framework density 26.85134
#
# number of rings (size 3 to 8) (size 9 to 14) (size 15 to 20)
#    0.000    0.800    8.000    2.400    0.000    0.000 
#    0.000    0.000    0.000    0.000    0.000    0.000 
#    0.000    0.000    0.000    0.000    0.000    0.000 
#
# Total GULP energy -55712.198783 kJ/mol
# GULP energy per Si atom -5571.219878 kJ/mol
# Density = 2.679023 g / cm^3
# Si number density = 26.851340 Si / 1000 Ang^3
#
#
#
# Elastic Constant Matrix: (Units=GPa)
#
#
# Indices 1 2 3 4 5 6 
#
# 1 39.1769 -23.8355 135.3203 0.0000 15.6038 0.0000
# 2 -23.8355 189.2391 151.0190 0.0000 -35.4048 0.0000
# 3 135.3203 151.0190 271.0875 0.0000 -104.6273 0.0000
# 4 0.0000 0.0000 0.0000 80.1303 0.0000 -18.0658
# 5 15.6038 -35.4048 -104.6273 0.0000 56.6427 0.0000
# 6 0.0000 0.0000 0.0000 -18.0658 0.0000 59.2027
#
#
#
# Elastic Compliance Matrix: (Units=1/GPa)
#
#
# Indices 1 2 3 4 5 6 
#
# 1 -0.001203 -0.003213 0.006072 0.000000 0.009540 0.000000
# 2 -0.003213 0.005138 0.001123 0.000000 0.006172 0.000000
# 3 0.006072 0.001123 -0.001194 0.000000 -0.003176 0.000000
# 4 0.000000 0.000000 0.000000 0.013402 0.000000 0.004090
# 5 0.009540 0.006172 -0.003176 0.000000 0.013018 0.000000
# 6 0.000000 0.000000 0.000000 0.004090 0.000000 0.018139
#
#
# Mechanical properties :
#
#
# Convention : Reuss Voigt Hill
#
# Bulk Modulus (GPa) = 93.39884 113.83456 103.61670
# Shear Modulus (GPa) = 116.54538 54.99511 85.77025
#
# Velocity S-wave (km/s) = 6.59531 4.53054 5.65791
# Velocity P-wave (km/s) = 9.63622 8.35788 9.01972
#
# Compressibility (1/GPa) = 0.01070677
#
# Stress axis : x y z
#
# Youngs Moduli (GPa) = -831.05744 194.63692 -837.58178
#
# Poissons Ratio (x) = 0.62530 5.08606
# Poissons Ratio (y) = -2.66990 0.94097
# Poissons Ratio (z) = 5.04645 -0.21866
#
# Static dielectric constant tensor:
#      x y z
#    x 2.304200 0.000000 0.167050 
#    y 0.000000 -0.645840 0.000000 
#    z 0.167050 0.000000 1.998510 
# 
# From -- ./inp_files/15530.got.cif
#   From: 2010.05.17/outbox.cif.g08.bks.cpg/sg11_8_cif.got.tgz:15530.got - 2010.06.03 12:22:45.
