data_PCOD9167448
_publ_section_title
;
Structure prediction by ZEFSAII (Michael W. Deem and Ramdas Pophale) SiO2 
 PCOD9167448
Probable space group: P 21/M
;
_chemical_formula_sum "Si O2"
_cell_formula_units_Z 20
_cell_length_a 7.456306
_cell_length_b 23.919515
_cell_length_c 5.107167
_cell_angle_alpha 90.000000
_cell_angle_beta 115.716021
_cell_angle_gamma 90.000000
_cell_volume 820.653076
_symmetry_space_group_name_H-M "P 21/M"
_symmetry_group_IT_number 11
_symmetry_cell_setting 'monoclinic'
loop_
_space_group_symop_operation_xyz
x,y,z
-x,1/2+y,-z
-x,-y,-z
x,1/2-y,z
loop_
_atom_site_type_symbol
_atom_site_label
_atom_site_fract_x
_atom_site_fract_y
_atom_site_fract_z
Si Si1 0.584898 0.468540 0.805910
Si Si2 0.985833 0.250000 0.702980
Si Si3 0.750009 0.750000 0.624600
Si Si4 0.183512 0.863262 0.612791
Si Si5 0.588726 0.625795 0.611334
Si Si6 0.980482 0.415510 0.990348
O O1 0.500000 0.500000 0.500000
O O2 0.500621 0.406177 0.696470
O O3 0.500000 0.500000 0.000000
O O4 0.825910 0.464983 0.967620
O O5 0.860666 0.303746 0.543327
O O6 0.173328 0.250000 0.624193
O O7 0.069858 0.250000 0.049250
O O8 0.638033 0.691059 0.597103
O O9 0.412874 0.877050 0.711653
O O10 0.103345 0.868953 0.854690
O O11 0.062921 0.904561 0.342364
O O12 0.785625 0.591903 0.819274
#
# Coordination Sequence:
#
# PCOD9167448 Si02
#       6
#     4   2   2   4   4   4
#     4  11  26  47  72 106 140 187 247 298 352 419
#     4  12  21  42  65 100 146 184 229 292 339 428
#     4  12  25  42  71 108 138 190 235 282 367 442
#     4  11  23  41  66 100 143 180 230 283 348 417
#     4  11  25  46  74 104 145 191 235 292 368 426
#     4  11  24  44  71 102 138 181 233 296 344 422
#
# _framework density 24.370833999999999
#
# number of rings (size 3 to 8) (size 9 to 14) (size 15 to 20)
#    0.000    0.800    4.000    3.000    0.000   11.200 
#    0.000    3.000    0.000    0.000    0.000    0.000 
#    0.000    0.000    0.000    0.000    0.000    0.000 
#
# Total GULP energy -111862.513405 kJ/mol
# GULP energy per Si atom -5593.125670 kJ/mol
# Density = 2.431536 g / cm^3
# Si number density = 24.370834 Si / 1000 Ang^3
#
#
#
# Elastic Constant Matrix: (Units=GPa)
#
#
# Indices 1 2 3 4 5 6 
#
# 1 112.3226 10.4539 62.7191 0.0000 40.7950 0.0000
# 2 10.4539 94.3411 44.6090 0.0000 7.6691 0.0000
# 3 62.7191 44.6090 106.1862 0.0000 -1.1954 0.0000
# 4 0.0000 0.0000 0.0000 44.7588 0.0000 6.5967
# 5 40.7950 7.6691 -1.1954 0.0000 54.2045 0.0000
# 6 0.0000 0.0000 0.0000 6.5967 0.0000 27.0823
#
#
#
# Elastic Compliance Matrix: (Units=1/GPa)
#
#
# Indices 1 2 3 4 5 6 
#
# 1 0.027103 0.008073 -0.019647 0.000000 -0.021974 0.000000
# 2 0.008073 0.015851 -0.011524 0.000000 -0.008573 0.000000
# 3 -0.019647 -0.011524 0.026055 0.000000 0.016992 0.000000
# 4 0.000000 0.000000 0.000000 0.023174 0.000000 -0.005645
# 5 -0.021974 -0.008573 0.016992 0.000000 0.036574 0.000000
# 6 0.000000 0.000000 0.000000 -0.005645 0.000000 0.038299
#
#
# Mechanical properties :
#
#
# Convention : Reuss Voigt Hill
#
# Bulk Modulus (GPa) = 43.83560 60.93489 52.38524
# Shear Modulus (GPa) = 22.63907 38.21365 30.42636
#
# Velocity S-wave (km/s) = 3.05116 3.96410 3.53721
# Velocity P-wave (km/s) = 5.51713 6.78304 6.18257
#
# Compressibility (1/GPa) = 0.02281251
#
# Stress axis : x y z
#
# Youngs Moduli (GPa) = 36.89620 63.08640 38.38070
#
# Poissons Ratio (x) = -0.50931 0.75408
# Poissons Ratio (y) = -0.29787 0.44230
# Poissons Ratio (z) = 0.72491 0.72701
#
# Static dielectric constant tensor:
#      x y z
#    x 1.900070 0.000000 0.033320 
#    y 0.000000 2.076460 0.000000 
#    z 0.033320 0.000000 1.879910 
# 
# From -- ./inp_files/3059.got.cif
#   From: 2010.05.17/outbox.cif.g08.bks.cpg/sg11_2_cif.got.tgz:3059.got - 2010.06.03 12:22:45.
