data_PCOD9167764
_publ_section_title
;
Structure prediction by ZEFSAII (Michael W. Deem and Ramdas Pophale) SiO2 
 PCOD9167764
Probable space group: P 21/M
;
_chemical_formula_sum "Si O2"
_cell_formula_units_Z 28
_cell_length_a 18.000000
_cell_length_b 9.000000
_cell_length_c 15.000000
_cell_angle_alpha 90.000000
_cell_angle_beta 140.000000
_cell_angle_gamma 90.000000
_cell_volume 1561.973892
_symmetry_space_group_name_H-M "P 21/M"
_symmetry_group_IT_number 11
_symmetry_cell_setting 'monoclinic'
loop_
_space_group_symop_operation_xyz
x,y,z
-x,1/2+y,-z
-x,-y,-z
x,1/2-y,z
loop_
_atom_site_type_symbol
_atom_site_label
_atom_site_fract_x
_atom_site_fract_y
_atom_site_fract_z
Si Si1 0.833136 0.921007 0.625466
Si Si2 0.878443 0.427240 0.489242
Si Si3 0.441082 0.576897 0.314165
Si Si4 0.045469 0.574136 0.950558
Si Si5 0.132848 0.570550 0.720474
Si Si6 0.339667 0.582165 0.413106
Si Si7 0.245983 0.930393 0.009221
O O1 0.819833 0.750000 0.588513
O O2 0.956466 0.940971 0.786285
O O3 0.815300 0.015929 0.519876
O O4 0.748573 0.967514 0.626702
O O5 0.889353 0.250000 0.502624
O O6 0.827098 0.466359 0.344025
O O7 0.005375 0.501184 0.611205
O O8 0.482113 0.750000 0.347008
O O9 0.356842 0.572934 0.322939
O O10 0.540150 0.461997 0.430280
O O11 0.373948 0.537718 0.162340
O O12 0.058960 0.750000 0.982521
O O13 0.161280 0.513835 0.010134
O O14 0.000000 0.500000 0.000000
O O15 0.122886 0.750000 0.716021
O O16 0.208696 0.521696 0.875683
O O17 0.304109 0.750000 0.402153
O O18 0.235213 0.750000 0.000248
#
# Coordination Sequence:
#
# PCOD9167764 Si02
#       7
#     4   4   4   4   4   4   4
#     4  11  21  34  52  72 101 137 170 205 249 303
#     4  10  19  30  49  75 102 132 167 209 251 296
#     4   9  18  33  54  75  98 132 170 206 248 299
#     4  10  20  32  47  70 102 135 163 198 245 296
#     4   9  17  32  51  72 101 134 168 205 250 302
#     4  10  20  34  52  74 102 131 169 215 249 290
#     4   9  16  31  52  72  98 132 166 200 244 300
#
# _framework density 17.926036
#
# number of rings (size 3 to 8) (size 9 to 14) (size 15 to 20)
#    0.000    2.286    1.429    2.143    0.000    3.429 
#    0.000    1.429    0.000    0.857    0.000    0.000 
#    0.000    0.000    0.000    0.000    0.000    0.000 
#
# Total GULP energy -155942.054518 kJ/mol
# GULP energy per Si atom -5569.359090 kJ/mol
# Density = 1.788524 g / cm^3
# Si number density = 17.926036 Si / 1000 Ang^3
#
#
#
# Elastic Constant Matrix: (Units=GPa)
#
#
# Indices 1 2 3 4 5 6 
#
# 1 -36.3308 24.1828 -27.7031 0.0000 16.5747 0.0000
# 2 24.1828 3.8782 39.1993 0.0000 -21.6618 0.0000
# 3 -27.7031 39.1993 68.0976 0.0000 -7.7343 0.0000
# 4 0.0000 0.0000 0.0000 16.7821 0.0000 -4.7331
# 5 16.5747 -21.6618 -7.7343 0.0000 11.1876 0.0000
# 6 0.0000 0.0000 0.0000 -4.7331 0.0000 25.4996
#
#
#
# Elastic Compliance Matrix: (Units=1/GPa)
#
#
# Indices 1 2 3 4 5 6 
#
# 1 0.057426 0.075752 -0.014377 0.000000 0.051656 0.000000
# 2 0.075752 0.078835 -0.010823 0.000000 0.032933 0.000000
# 3 -0.014377 -0.010823 0.016392 0.000000 0.011676 0.000000
# 4 0.000000 0.000000 0.000000 0.062879 0.000000 0.011671
# 5 0.051656 0.032933 0.011676 0.000000 0.084693 0.000000
# 6 0.000000 0.000000 0.000000 0.011671 0.000000 0.041383
#
#
# Mechanical properties :
#
#
# Convention : Reuss Voigt Hill
#
# Bulk Modulus (GPa) = 3.94076 11.88920 7.91498
# Shear Modulus (GPa) = 15.38037 10.69158 13.03597
#
# Velocity S-wave (km/s) = 2.93233 2.44484 2.69961
# Velocity P-wave (km/s) = 3.69700 3.82314 3.76060
#
# Compressibility (1/GPa) = 0.25375847
#
# Stress axis : x y z
#
# Youngs Moduli (GPa) = 17.41365 12.68471 61.00417
#
# Poissons Ratio (x) = -0.96089 0.87703
# Poissons Ratio (y) = -1.31912 0.66024
# Poissons Ratio (z) = 0.25035 0.13728
#
# Static dielectric constant tensor:
#      x y z
#    x 1.649160 0.000000 0.036630 
#    y 0.000000 1.554450 0.000000 
#    z 0.036630 0.000000 1.663140 
# 
# From -- ./inp_files/42371.got.cif
#   From: 2010.05.17/outbox.ucp.g08.bks.cvg/sg11_22_cif.got.tgz:42371.got - 2010.06.11 11:38:39.
