data_PCOD9167093
_publ_section_title
;
Structure prediction by ZEFSAII (Michael W. Deem and Ramdas Pophale) SiO2 
 PCOD9167093
Probable space group: P 21/M
;
_chemical_formula_sum "Si O2"
_cell_formula_units_Z 32
_cell_length_a 15.680023
_cell_length_b 14.643920
_cell_length_c 7.671939
_cell_angle_alpha 90.000000
_cell_angle_beta 115.786965
_cell_angle_gamma 90.000000
_cell_volume 1586.182810
_symmetry_space_group_name_H-M "P 21/M"
_symmetry_group_IT_number 11
_symmetry_cell_setting 'monoclinic'
loop_
_space_group_symop_operation_xyz
x,y,z
-x,1/2+y,-z
-x,-y,-z
x,1/2-y,z
loop_
_atom_site_type_symbol
_atom_site_label
_atom_site_fract_x
_atom_site_fract_y
_atom_site_fract_z
Si Si1 0.491323 0.939097 0.757382
Si Si2 0.609824 0.915090 0.562194
Si Si3 0.931218 0.356301 0.017405
Si Si4 0.758155 0.646188 0.435027
Si Si5 0.763815 0.481971 0.910699
Si Si6 0.033727 0.401441 0.459492
Si Si7 0.657426 0.483175 0.139587
Si Si8 0.902681 0.852789 0.103483
O O1 0.539997 0.878697 0.650649
O O2 0.457583 0.033652 0.635330
O O3 0.396613 0.914261 0.778885
O O4 0.574567 0.962456 0.964904
O O5 0.687428 0.852902 0.537390
O O6 0.675996 0.992184 0.711074
O O7 0.912134 0.250000 0.972922
O O8 0.840868 0.417314 0.894045
O O9 0.959264 0.371394 0.245493
O O10 0.017274 0.381064 0.964650
O O11 0.758923 0.750000 0.362687
O O12 0.866600 0.614208 0.554608
O O13 0.715578 0.563050 0.285479
O O14 0.722901 0.438827 0.051600
O O15 0.817874 0.575195 0.013360
O O16 0.053510 0.352554 0.662619
O O17 0.000000 0.500000 0.500000
O O18 0.871371 0.750000 0.032011
#
# Coordination Sequence:
#
# PCOD9167093 Si02
#       8
#     4   4   4   4   4   4   4   4
#     4   8  16  34  54  82 105 134 185 222 281 361
#     4   9  19  32  58  81 108 148 181 235 283 349
#     4  11  24  40  57  80 116 160 200 244 291 343
#     4  11  21  34  53  87 120 148 191 247 299 345
#     4  11  20  35  57  84 112 150 196 239 285 351
#     4  12  23  38  60  84 120 162 197 238 294 357
#     4   9  17  32  58  80 110 147 181 230 287 351
#     4  11  23  38  58  86 121 158 196 249 300 349
#
# _framework density 20.174220999999999
#
# number of rings (size 3 to 8) (size 9 to 14) (size 15 to 20)
#    0.000    1.750    2.500    2.250    1.750    1.500 
#    0.000    1.875    0.000   28.500    0.000    0.000 
#    0.000    0.000    0.000    0.000    0.000    0.000 
#
# Total GULP energy -178219.397236 kJ/mol
# GULP energy per Si atom -5569.356164 kJ/mol
# Density = 2.012830 g / cm^3
# Si number density = 20.174221 Si / 1000 Ang^3
#
#
#
# Elastic Constant Matrix: (Units=GPa)
#
#
# Indices 1 2 3 4 5 6 
#
# 1 108.7299 25.5573 -2.4467 0.0000 -9.2492 0.0000
# 2 25.5573 33.3674 -3.5758 0.0000 6.7785 0.0000
# 3 -2.4467 -3.5758 54.5259 0.0000 8.4188 0.0000
# 4 0.0000 0.0000 0.0000 4.6543 0.0000 -13.2080
# 5 -9.2492 6.7785 8.4188 0.0000 34.3215 0.0000
# 6 0.0000 0.0000 0.0000 -13.2080 0.0000 8.0767
#
#
#
# Elastic Compliance Matrix: (Units=1/GPa)
#
#
# Indices 1 2 3 4 5 6 
#
# 1 0.012126 -0.010533 -0.001011 0.000000 0.005596 0.000000
# 2 -0.010533 0.040890 0.004047 0.000000 -0.011907 0.000000
# 3 -0.001011 0.004047 0.019463 0.000000 -0.005846 0.000000
# 4 0.000000 0.000000 0.000000 -0.059014 0.000000 -0.096507
# 5 0.005596 -0.011907 -0.005846 0.000000 0.034430 0.000000
# 6 0.000000 0.000000 0.000000 -0.096507 0.000000 -0.034008
#
#
# Mechanical properties :
#
#
# Convention : Reuss Voigt Hill
#
# Bulk Modulus (GPa) = 17.39563 26.18808 21.79185
# Shear Modulus (GPa) = 104.07720 21.21639 62.64680
#
# Velocity S-wave (km/s) = 7.19035 3.24645 5.57856
# Velocity P-wave (km/s) = 8.80774 5.20209 7.23319
#
# Compressibility (1/GPa) = 0.05748571
#
# Stress axis : x y z
#
# Youngs Moduli (GPa) = 82.46595 24.45609 51.38071
#
# Poissons Ratio (x) = 0.25760 0.05193
# Poissons Ratio (y) = 0.86862 -0.20796
# Poissons Ratio (z) = 0.08334 -0.09898
#
# Static dielectric constant tensor:
#      x y z
#    x 1.793490 0.000000 -0.067980 
#    y 0.000000 1.518790 0.000000 
#    z -0.067980 0.000000 1.730360 
# 
# From -- ./inp_files/22220.got.cif
#   From: 2010.05.17/outbox.cif.g08.bks.cpg/sg11_12_cif.got.tgz:22220.got - 2010.06.03 12:22:45.
