data_PCOD9167249
_publ_section_title
;
Structure prediction by ZEFSAII (Michael W. Deem and Ramdas Pophale) SiO2 
 PCOD9167249
Probable space group: P 21/M
;
_chemical_formula_sum "Si O2"
_cell_formula_units_Z 24
_cell_length_a 20.161321
_cell_length_b 8.972620
_cell_length_c 11.655978
_cell_angle_alpha 90.000000
_cell_angle_beta 43.948846
_cell_angle_gamma 90.000000
_cell_volume 1463.377509
_symmetry_space_group_name_H-M "P 21/M"
_symmetry_group_IT_number 11
_symmetry_cell_setting 'monoclinic'
loop_
_space_group_symop_operation_xyz
x,y,z
-x,1/2+y,-z
-x,-y,-z
x,1/2-y,z
loop_
_atom_site_type_symbol
_atom_site_label
_atom_site_fract_x
_atom_site_fract_y
_atom_site_fract_z
Si Si1 0.644463 0.929421 0.768360
Si Si2 0.225049 0.071907 0.808309
Si Si3 0.825432 0.929140 0.394167
Si Si4 0.444191 0.570881 0.903030
Si Si5 0.586952 0.428737 0.321614
Si Si6 0.985573 0.928020 0.892741
O O1 0.645232 0.750000 0.776296
O O2 0.742402 0.975321 0.584999
O O3 0.552599 0.970666 0.804489
O O4 0.625035 0.998900 0.916585
O O5 0.242337 0.250000 0.793187
O O6 0.208704 0.035907 0.693715
O O7 0.313832 0.985255 0.749315
O O8 0.124995 0.039023 0.997990
O O9 0.836799 0.750000 0.384748
O O10 0.927759 0.005040 0.288207
O O11 0.437255 0.750000 0.919513
O O12 0.421982 0.526688 0.800826
O O13 0.500000 0.500000 0.500000
O O14 0.580753 0.250000 0.335678
O O15 0.994806 0.750000 0.889180
O O16 0.000000 0.000000 0.000000
#
# Coordination Sequence:
#
# PCOD9167249 Si02
#       6
#     4   4   4   4   4   4
#     4   9  17  31  51  71  93 123 156 192 235 281
#     4   9  18  32  48  69 100 130 155 192 238 280
#     4   9  17  30  49  73 100 126 155 196 241 282
#     4   9  19  34  48  67  96 125 155 193 235 276
#     4  11  22  34  50  71  97 128 159 193 233 281
#     4   9  17  29  46  69  97 127 158 196 239 280
#
# _framework density 16.400416
#
# number of rings (size 3 to 8) (size 9 to 14) (size 15 to 20)
#    0.000    2.667    0.000    3.000    0.000    8.000 
#    0.000    3.333    0.000    1.000    0.000    0.000 
#    0.000    0.000    0.000    0.000    0.000    0.000 
#
# Total GULP energy -133758.379266 kJ/mol
# GULP energy per Si atom -5573.265803 kJ/mol
# Density = 1.636309 g / cm^3
# Si number density = 16.400416 Si / 1000 Ang^3
#
#
#
# Elastic Constant Matrix: (Units=GPa)
#
#
# Indices 1 2 3 4 5 6 
#
# 1 90.7961 41.7469 71.8603 0.0000 -9.7412 0.0000
# 2 41.7469 33.2001 51.8772 0.0000 -8.7293 0.0000
# 3 71.8603 51.8772 175.0534 0.0000 -21.2637 0.0000
# 4 0.0000 0.0000 0.0000 32.3887 0.0000 -3.8752
# 5 -9.7412 -8.7293 -21.2637 0.0000 24.9962 0.0000
# 6 0.0000 0.0000 0.0000 -3.8752 0.0000 26.9125
#
#
#
# Elastic Compliance Matrix: (Units=1/GPa)
#
#
# Indices 1 2 3 4 5 6 
#
# 1 0.026531 -0.030727 -0.002044 0.000000 -0.002130 0.000000
# 2 -0.030727 0.092524 -0.013757 0.000000 0.008634 0.000000
# 3 -0.002044 -0.013757 0.011095 0.000000 0.003837 0.000000
# 4 0.000000 0.000000 0.000000 0.031416 0.000000 0.004524
# 5 -0.002130 0.008634 0.003837 0.000000 0.045455 0.000000
# 6 0.000000 0.000000 0.000000 0.004524 0.000000 0.037809
#
#
# Mechanical properties :
#
#
# Convention : Reuss Voigt Hill
#
# Bulk Modulus (GPa) = 26.95893 70.00204 48.48048
# Shear Modulus (GPa) = 14.27551 25.76382 20.01967
#
# Velocity S-wave (km/s) = 2.95352 3.96779 3.49761
# Velocity P-wave (km/s) = 5.30138 7.98542 6.77759
#
# Compressibility (1/GPa) = 0.03709346
#
# Stress axis : x y z
#
# Youngs Moduli (GPa) = 37.69243 10.80798 90.13466
#
# Poissons Ratio (x) = 0.33210 0.18420
# Poissons Ratio (y) = 1.15818 1.24000
# Poissons Ratio (z) = 0.07703 0.14869
#
# Static dielectric constant tensor:
#      x y z
#    x 1.534190 0.000000 -0.014030 
#    y 0.000000 1.549220 0.000000 
#    z -0.014030 0.000000 1.565760 
# 
# From -- ./inp_files/33766.got.cif
#   From: 2010.05.17/outbox.cif.g08.bks.cpg/sg11_17_cif.got.tgz:33766.got - 2010.06.03 12:22:45.
