data_PCOD9167926
_publ_section_title
;
Structure prediction by ZEFSAII (Michael W. Deem and Ramdas Pophale) SiO2 
 PCOD9167926
Probable space group: P 21/M
;
_chemical_formula_sum "Si O2"
_cell_formula_units_Z 24
_cell_length_a 24.000000
_cell_length_b 9.000000
_cell_length_c 18.000000
_cell_angle_alpha 90.000000
_cell_angle_beta 20.000000
_cell_angle_gamma 90.000000
_cell_volume 1329.774317
_symmetry_space_group_name_H-M "P 21/M"
_symmetry_group_IT_number 11
_symmetry_cell_setting 'monoclinic'
loop_
_space_group_symop_operation_xyz
x,y,z
-x,1/2+y,-z
-x,-y,-z
x,1/2-y,z
loop_
_atom_site_type_symbol
_atom_site_label
_atom_site_fract_x
_atom_site_fract_y
_atom_site_fract_z
Si Si1 0.623459 0.570868 0.130585
Si Si2 0.954562 0.570352 0.633908
Si Si3 0.145411 0.579640 0.533415
Si Si4 0.796188 0.580047 0.057033
Si Si5 0.681688 0.580674 0.559462
Si Si6 0.972269 0.418239 0.958914
O O1 0.623365 0.750000 0.132745
O O2 0.667271 0.519859 0.159198
O O3 0.454628 0.512485 0.311543
O O4 0.776364 0.525410 0.887368
O O5 0.955848 0.750000 0.630127
O O6 0.000000 0.500000 0.500000
O O7 0.092919 0.523456 0.519112
O O8 0.200922 0.750000 0.460673
O O9 0.276304 0.484252 0.412735
O O10 0.971243 0.581144 0.795027
O O11 0.756443 0.750000 0.125295
O O12 0.830652 0.488839 0.087048
O O13 0.627441 0.750000 0.631372
O O14 0.855306 0.574927 0.300087
O O15 0.930259 0.250000 0.026535
O O16 0.000000 0.500000 0.000000
#
# Coordination Sequence:
#
# PCOD9167926 Si02
#       6
#     4   4   4   4   4   4
#     4   9  18  33  52  73  98 129 162 195 238 292
#     4   9  18  32  51  75  99 126 162 200 239 286
#     4   8  15  30  50  69  93 127 162 194 235 288
#     4   8  15  30  51  71  92 123 162 198 234 282
#     4  10  20  32  49  75 100 123 159 203 240 279
#     4  10  20  33  50  73  99 126 159 198 239 285
#
# _framework density 18.048175000000001
#
# number of rings (size 3 to 8) (size 9 to 14) (size 15 to 20)
#    0.000    3.000    0.000    3.000    0.000    4.000 
#    0.000    5.000    0.000    0.000    0.000    0.000 
#    0.000    0.000    0.000    0.000    0.000    0.000 
#
# Total GULP energy -133624.547923 kJ/mol
# GULP energy per Si atom -5567.689497 kJ/mol
# Density = 1.800710 g / cm^3
# Si number density = 18.048175 Si / 1000 Ang^3
#
#
#
# Elastic Constant Matrix: (Units=GPa)
#
#
# Indices 1 2 3 4 5 6 
#
# 1 102.5805 51.3504 -16.6168 0.0000 -9.7440 0.0000
# 2 51.3504 38.4290 7.6694 0.0000 -0.4333 0.0000
# 3 -16.6168 7.6694 -25.1458 0.0000 -13.1176 0.0000
# 4 0.0000 0.0000 0.0000 20.0873 0.0000 -0.2424
# 5 -9.7440 -0.4333 -13.1176 0.0000 24.3302 0.0000
# 6 0.0000 0.0000 0.0000 -0.2424 0.0000 27.5984
#
#
#
# Elastic Compliance Matrix: (Units=1/GPa)
#
#
# Indices 1 2 3 4 5 6 
#
# 1 0.016527 -0.018994 -0.015602 0.000000 -0.002131 0.000000
# 2 -0.018994 0.046744 0.023682 0.000000 0.005994 0.000000
# 3 -0.015602 0.023682 -0.014982 0.000000 -0.013904 0.000000
# 4 0.000000 0.000000 0.000000 0.049788 0.000000 0.000437
# 5 -0.002131 0.005994 -0.013904 0.000000 0.032858 0.000000
# 6 0.000000 0.000000 0.000000 0.000437 0.000000 0.036238
#
#
# Mechanical properties :
#
#
# Convention : Reuss Voigt Hill
#
# Bulk Modulus (GPa) = 37.79364 22.29663 30.04513
# Shear Modulus (GPa) = 25.27538 19.30057 22.28798
#
# Velocity S-wave (km/s) = 3.74630 3.27370 3.51795
# Velocity P-wave (km/s) = 6.30071 5.16433 5.76061
#
# Compressibility (1/GPa) = 0.02645948
#
# Stress axis : x y z
#
# Youngs Moduli (GPa) = 60.50843 21.39329 -66.74791
#
# Poissons Ratio (x) = 0.40634 -1.04142
# Poissons Ratio (y) = 1.14928 1.58069
# Poissons Ratio (z) = 0.94407 -0.50663
#
# Static dielectric constant tensor:
#      x y z
#    x 1.639510 0.000000 0.021530 
#    y 0.000000 1.614000 0.000000 
#    z 0.021530 0.000000 1.585670 
# 
# From -- ./inp_files/20505.got.cif
#   From: 2010.05.17/outbox.ucp.g08.bks.cvg/sg11_11_cif.got.tgz:20505.got - 2010.06.11 11:38:39.
