data_PCOD9167998
_publ_section_title
;
Structure prediction by ZEFSAII (Michael W. Deem and Ramdas Pophale) SiO2 
 PCOD9167998
Probable space group: P 21/M
;
_chemical_formula_sum "Si O2"
_cell_formula_units_Z 32
_cell_length_a 21.000000
_cell_length_b 9.000000
_cell_length_c 27.000000
_cell_angle_alpha 90.000000
_cell_angle_beta 160.000000
_cell_angle_gamma 90.000000
_cell_volume 1745.328791
_symmetry_space_group_name_H-M "P 21/M"
_symmetry_group_IT_number 11
_symmetry_cell_setting 'monoclinic'
loop_
_space_group_symop_operation_xyz
x,y,z
-x,1/2+y,-z
-x,-y,-z
x,1/2-y,z
loop_
_atom_site_type_symbol
_atom_site_label
_atom_site_fract_x
_atom_site_fract_y
_atom_site_fract_z
Si Si1 0.278353 0.578120 0.074172
Si Si2 0.298131 0.427262 0.851778
Si Si3 0.315644 0.581098 0.349553
Si Si4 0.014843 0.417816 0.811795
Si Si5 0.000919 0.423484 0.299003
Si Si6 0.050511 0.419351 0.086205
Si Si7 0.699019 0.926910 0.402122
Si Si8 0.995815 0.073226 0.549905
O O1 0.284060 0.750000 0.060270
O O2 0.481895 0.537385 0.242301
O O3 0.200752 0.468662 0.975889
O O4 0.125060 0.572865 0.005224
O O5 0.315170 0.250000 0.865943
O O6 0.168782 0.484616 0.801782
O O7 0.177233 0.469015 0.714870
O O8 0.500000 0.500000 0.000000
O O9 0.500000 0.500000 0.500000
O O10 0.356911 0.750000 0.367340
O O11 0.224849 0.498628 0.237586
O O12 0.157354 0.577702 0.276152
O O13 0.031827 0.250000 0.805092
O O14 0.977743 0.533447 0.741752
O O15 0.961334 0.250000 0.276995
O O16 0.191470 0.459062 0.467225
O O17 0.095526 0.250000 0.109864
O O18 0.000000 0.500000 0.000000
O O19 0.717016 0.750000 0.405969
O O20 0.814239 0.015074 0.445503
O O21 0.991984 0.250000 0.543619
O O22 0.000000 0.000000 0.500000
#
# Coordination Sequence:
#
# PCOD9167998 Si02
#       8
#     4   4   4   4   4   4   4   4
#     4   9  19  36  56  78 106 140 177 217 262 314
#     4  10  21  37  56  79 107 139 177 220 264 313
#     4  10  21  37  56  79 108 142 181 225 272 323
#     4  10  21  36  54  79 109 140 176 219 265 314
#     4  10  20  35  56  80 107 141 177 216 264 315
#     4  10  20  35  55  80 110 144 181 222 269 320
#     4   9  19  36  56  78 104 135 174 217 259 307
#     4  10  21  36  55  79 106 137 172 212 259 310
#
# _framework density 18.334654
#
# number of rings (size 3 to 8) (size 9 to 14) (size 15 to 20)
#    0.000    2.250    0.000    2.250    0.000    6.500 
#    0.000    2.500    0.000    0.000    0.000    0.000 
#    0.000    0.000    0.000    0.000    0.000    0.000 
#
# Total GULP energy -178451.112950 kJ/mol
# GULP energy per Si atom -5576.597280 kJ/mol
# Density = 1.829292 g / cm^3
# Si number density = 18.334654 Si / 1000 Ang^3
#
#
#
# Elastic Constant Matrix: (Units=GPa)
#
#
# Indices 1 2 3 4 5 6 
#
# 1 11.1865 34.1480 15.3850 0.0000 -26.1528 0.0000
# 2 34.1480 71.4658 70.3606 0.0000 -4.3399 0.0000
# 3 15.3850 70.3606 127.6135 0.0000 4.6873 0.0000
# 4 0.0000 0.0000 0.0000 28.2292 0.0000 0.5051
# 5 -26.1528 -4.3399 4.6873 0.0000 11.1014 0.0000
# 6 0.0000 0.0000 0.0000 0.5051 0.0000 29.7538
#
#
#
# Elastic Compliance Matrix: (Units=1/GPa)
#
#
# Indices 1 2 3 4 5 6 
#
# 1 -0.017041 0.005264 0.000560 0.000000 -0.038323 0.000000
# 2 0.005264 0.033728 -0.020489 0.000000 0.034238 0.000000
# 3 0.000560 -0.020489 0.019615 0.000000 -0.014974 0.000000
# 4 0.000000 0.000000 0.000000 0.035435 0.000000 -0.000602
# 5 -0.038323 0.034238 -0.014974 0.000000 0.019504 0.000000
# 6 0.000000 0.000000 0.000000 -0.000602 0.000000 0.033619
#
#
# Mechanical properties :
#
#
# Convention : Reuss Voigt Hill
#
# Bulk Modulus (GPa) = 143.40330 50.00589 96.70460
# Shear Modulus (GPa) = 31.94571 19.84168 25.89369
#
# Velocity S-wave (km/s) = 4.17870 3.29324 3.76211
# Velocity P-wave (km/s) = 10.08296 6.46481 8.46935
#
# Compressibility (1/GPa) = 0.00697334
#
# Stress axis : x y z
#
# Youngs Moduli (GPa) = -58.68321 29.64877 50.98085
#
# Poissons Ratio (x) = -0.15608 -0.02853
# Poissons Ratio (y) = 0.30893 1.04452
# Poissons Ratio (z) = 0.03283 0.60746
#
# Static dielectric constant tensor:
#      x y z
#    x 1.623480 0.000000 -0.016590 
#    y 0.000000 1.615060 0.000000 
#    z -0.016590 0.000000 1.594420 
# 
# From -- ./inp_files/67201.got.cif
#   From: 2010.05.17/outbox.ucp.g08.bks.cvg/sg11_34_cif.got.tgz:67201.got - 2010.06.11 11:38:39.
