data_PCOD9167042
_publ_section_title
;
Structure prediction by ZEFSAII (Michael W. Deem and Ramdas Pophale) SiO2 
 PCOD9167042
Probable space group: P 21/M
;
_chemical_formula_sum "Si O2"
_cell_formula_units_Z 22
_cell_length_a 23.615435
_cell_length_b 10.051810
_cell_length_c 12.942793
_cell_angle_alpha 90.000000
_cell_angle_beta 21.689775
_cell_angle_gamma 90.000000
_cell_volume 1135.475558
_symmetry_space_group_name_H-M "P 21/M"
_symmetry_group_IT_number 11
_symmetry_cell_setting 'monoclinic'
loop_
_space_group_symop_operation_xyz
x,y,z
-x,1/2+y,-z
-x,-y,-z
x,1/2-y,z
loop_
_atom_site_type_symbol
_atom_site_label
_atom_site_fract_x
_atom_site_fract_y
_atom_site_fract_z
Si Si1 0.512998 0.957110 0.752993
Si Si2 0.775791 0.404438 0.871305
Si Si3 0.012684 0.981038 0.306525
Si Si4 0.481736 0.250000 0.882181
Si Si5 0.003664 0.250000 0.207928
Si Si6 0.774553 0.750000 0.347456
Si Si7 0.854266 0.750000 0.455283
Si Si8 0.639816 0.250000 0.835298
O O1 0.672072 0.877493 0.487501
O O2 0.403473 0.934228 0.840044
O O3 0.417486 0.880408 0.005652
O O4 0.525620 0.113101 0.751785
O O5 0.800910 0.250000 0.801438
O O6 0.874721 0.491330 0.622441
O O7 0.846783 0.428579 0.863209
O O8 0.951524 0.878078 0.325374
O O9 0.054944 0.118941 0.181488
O O10 0.300809 0.250000 0.213884
O O11 0.563943 0.250000 0.852982
O O12 0.820533 0.250000 0.518247
O O13 0.071110 0.250000 0.979203
O O14 0.806482 0.750000 0.415982
#
# Coordination Sequence:
#
# PCOD9167042 Si02
#       8
#     4   4   4   2   2   2   2   2
#     4  11  21  40  63  94 123 162 200 264 307 371
#     4  11  19  37  65  96 124 155 201 259 314 363
#     4  11  23  36  64  97 129 155 202 261 312 364
#     4  12  22  33  63  97 123 153 213 261 315 355
#     4  12  24  46  59  92 122 176 208 249 310 375
#     4  11  28  42  63  83 132 173 214 244 306 372
#     4  12  22  39  60 101 127 160 204 264 303 369
#     4  11  20  38  63  85 130 162 203 250 318 361
#
# _framework density 19.375142
#
# number of rings (size 3 to 8) (size 9 to 14) (size 15 to 20)
#    0.000    0.727    9.091    0.545    2.545    1.455 
#    0.000    0.909    0.000    0.000    0.000    0.000 
#    0.000    0.000    0.000    0.000    0.000    0.000 
#
# Total GULP energy -122901.110946 kJ/mol
# GULP energy per Si atom -5586.414134 kJ/mol
# Density = 1.933104 g / cm^3
# Si number density = 19.375142 Si / 1000 Ang^3
#
#
#
# Elastic Constant Matrix: (Units=GPa)
#
#
# Indices 1 2 3 4 5 6 
#
# 1 86.5929 33.1792 9.1674 0.0000 -34.6645 0.0000
# 2 33.1792 140.6845 17.3949 0.0000 -13.5334 0.0000
# 3 9.1674 17.3949 42.4580 0.0000 0.9099 0.0000
# 4 0.0000 0.0000 0.0000 -6.7232 0.0000 -8.4329
# 5 -34.6645 -13.5334 0.9099 0.0000 28.0162 0.0000
# 6 0.0000 0.0000 0.0000 -8.4329 0.0000 19.0640
#
#
#
# Elastic Compliance Matrix: (Units=1/GPa)
#
#
# Indices 1 2 3 4 5 6 
#
# 1 0.024970 -0.002387 -0.005054 0.000000 0.029907 0.000000
# 2 -0.002387 0.008124 -0.002836 0.000000 0.001063 0.000000
# 3 -0.005054 -0.002836 0.025987 0.000000 -0.008468 0.000000
# 4 0.000000 0.000000 0.000000 -0.095661 0.000000 -0.042316
# 5 0.029907 0.001063 -0.008468 0.000000 0.073485 0.000000
# 6 0.000000 0.000000 0.000000 -0.042316 0.000000 0.033737
#
#
# Mechanical properties :
#
#
# Convention : Reuss Voigt Hill
#
# Bulk Modulus (GPa) = 25.95588 43.24649 34.60119
# Shear Modulus (GPa) = 48.05919 22.07100 35.06510
#
# Velocity S-wave (km/s) = 4.98582 3.37878 4.25879
# Velocity P-wave (km/s) = 6.82423 6.13112 6.48694
#
# Compressibility (1/GPa) = 0.03852691
#
# Stress axis : x y z
#
# Youngs Moduli (GPa) = 40.04794 123.09293 38.48041
#
# Poissons Ratio (x) = 0.29384 0.19449
# Poissons Ratio (y) = 0.09560 0.10912
# Poissons Ratio (z) = 0.20242 0.34906
#
# Static dielectric constant tensor:
#      x y z
#    x 1.680130 0.000000 -0.011940 
#    y 0.000000 1.675400 0.000000 
#    z -0.011940 0.000000 1.676240 
# 
# From -- ./inp_files/56066.got.cif
#   From: 2010.05.17/outbox.cif.g08.bks.cpg/sg11_29_cif.got.tgz:56066.got - 2010.06.03 12:22:45.
