data_PCOD9167259
_publ_section_title
;
Structure prediction by ZEFSAII (Michael W. Deem and Ramdas Pophale) SiO2 
 PCOD9167259
Probable space group: P 21/M
;
_chemical_formula_sum "Si O2"
_cell_formula_units_Z 32
_cell_length_a 21.132832
_cell_length_b 8.714376
_cell_length_c 28.917007
_cell_angle_alpha 90.000000
_cell_angle_beta 156.276080
_cell_angle_gamma 90.000000
_cell_volume 2142.544094
_symmetry_space_group_name_H-M "P 21/M"
_symmetry_group_IT_number 11
_symmetry_cell_setting 'monoclinic'
loop_
_space_group_symop_operation_xyz
x,y,z
-x,1/2+y,-z
-x,-y,-z
x,1/2-y,z
loop_
_atom_site_type_symbol
_atom_site_label
_atom_site_fract_x
_atom_site_fract_y
_atom_site_fract_z
Si Si1 0.720446 0.069053 0.516637
Si Si2 0.060531 0.432902 0.265401
Si Si3 0.825009 0.932589 0.232992
Si Si4 0.274854 0.932868 0.932798
Si Si5 0.612772 0.432095 0.171107
Si Si6 0.840967 0.568289 0.510180
Si Si7 0.633527 0.433083 0.556837
Si Si8 0.166257 0.566841 0.594192
O O1 0.717841 0.250000 0.506039
O O2 0.604774 0.033668 0.482532
O O3 0.883847 0.019543 0.650727
O O4 0.715904 0.978662 0.466008
O O5 0.078960 0.250000 0.283896
O O6 0.193608 0.492831 0.319122
O O7 0.877232 0.465539 0.136627
O O8 0.831129 0.750000 0.230153
O O9 0.773869 0.014637 0.151348
O O10 0.697325 0.976519 0.186470
O O11 0.992896 0.991404 0.364402
O O12 0.301236 0.750000 0.950450
O O13 0.431808 0.019261 0.052446
O O14 0.626722 0.250000 0.171120
O O15 0.704972 0.465139 0.280290
O O16 0.862531 0.750000 0.523733
O O17 0.794994 0.507092 0.429164
O O18 0.500000 0.500000 0.500000
O O19 0.643818 0.250000 0.568444
O O20 0.151907 0.750000 0.579385
O O21 0.000000 0.500000 0.500000
#
# Coordination Sequence:
#
# PCOD9167259 Si02
#       8
#     4   4   4   4   4   4   4   4
#     4   9  18  30  46  70  97 130 164 194 237 286
#     4   9  17  29  46  67  96 129 160 191 231 281
#     4  12  22  33  51  70  93 123 159 204 252 300
#     4  11  22  35  51  70  97 128 162 202 247 297
#     4  11  24  38  51  68  92 122 163 208 253 300
#     4  12  22  33  52  73  97 127 165 209 254 302
#     4   9  17  27  45  70 102 136 165 195 233 284
#     4  11  23  38  55  71  92 124 164 212 260 304
#
# _framework density 14.935515000000001
#
# number of rings (size 3 to 8) (size 9 to 14) (size 15 to 20)
#    0.750    0.750    2.500    4.500    0.000    3.000 
#    0.000    0.000    0.000    0.000    0.000    0.000 
#    0.000    1.000    0.000    3.250    0.000    4.000 
#
# Total GULP energy -178312.708881 kJ/mol
# GULP energy per Si atom -5572.272153 kJ/mol
# Density = 1.490152 g / cm^3
# Si number density = 14.935515 Si / 1000 Ang^3
#
#
#
# Elastic Constant Matrix: (Units=GPa)
#
#
# Indices 1 2 3 4 5 6 
#
# 1 87.7801 17.4593 29.1006 0.0000 12.0081 0.0000
# 2 17.4593 41.9698 14.0006 0.0000 1.2669 0.0000
# 3 29.1006 14.0006 55.3888 0.0000 2.1035 0.0000
# 4 0.0000 0.0000 0.0000 21.3798 0.0000 2.0257
# 5 12.0081 1.2669 2.1035 0.0000 16.7043 0.0000
# 6 0.0000 0.0000 0.0000 2.0257 0.0000 24.8654
#
#
#
# Elastic Compliance Matrix: (Units=1/GPa)
#
#
# Indices 1 2 3 4 5 6 
#
# 1 0.015891 -0.003982 -0.006953 0.000000 -0.010246 0.000000
# 2 -0.003982 0.027041 -0.004797 0.000000 0.001416 0.000000
# 3 -0.006953 -0.004797 0.022825 0.000000 0.002488 0.000000
# 4 0.000000 0.000000 0.000000 0.047137 0.000000 -0.003840
# 5 -0.010246 0.001416 0.002488 0.000000 0.066809 0.000000
# 6 0.000000 0.000000 0.000000 -0.003840 0.000000 0.040529
#
#
# Mechanical properties :
#
#
# Convention : Reuss Voigt Hill
#
# Bulk Modulus (GPa) = 29.16045 34.02886 31.59465
# Shear Modulus (GPa) = 19.00224 20.89511 19.94868
#
# Velocity S-wave (km/s) = 3.57078 3.74441 3.65862
# Velocity P-wave (km/s) = 6.04709 6.44418 6.24879
#
# Compressibility (1/GPa) = 0.03429302
#
# Stress axis : x y z
#
# Youngs Moduli (GPa) = 62.92960 36.98156 43.81093
#
# Poissons Ratio (x) = 0.14725 0.30463
# Poissons Ratio (y) = 0.25057 0.21015
# Poissons Ratio (z) = 0.43757 0.17739
#
# Static dielectric constant tensor:
#      x y z
#    x 1.519920 0.000000 0.011750 
#    y 0.000000 1.496810 0.000000 
#    z 0.011750 0.000000 1.475620 
# 
# From -- ./inp_files/69471.got.cif
#   From: 2010.05.17/outbox.cif.g08.bks.cpg/sg11_35_cif.got.tgz:69471.got - 2010.06.03 12:22:45.
