data_PCOD9167640
_publ_section_title
;
Structure prediction by ZEFSAII (Michael W. Deem and Ramdas Pophale) SiO2 
 PCOD9167640
Probable space group: P 21/M
;
_chemical_formula_sum "Si O2"
_cell_formula_units_Z 32
_cell_length_a 21.882613
_cell_length_b 7.325340
_cell_length_c 12.229589
_cell_angle_alpha 90.000000
_cell_angle_beta 144.763695
_cell_angle_gamma 90.000000
_cell_volume 1131.037461
_symmetry_space_group_name_H-M "P 21/M"
_symmetry_group_IT_number 11
_symmetry_cell_setting 'monoclinic'
loop_
_space_group_symop_operation_xyz
x,y,z
-x,1/2+y,-z
-x,-y,-z
x,1/2-y,z
loop_
_atom_site_type_symbol
_atom_site_label
_atom_site_fract_x
_atom_site_fract_y
_atom_site_fract_z
Si Si1 0.185385 0.462203 0.670885
Si Si2 0.176328 0.457129 0.255977
Si Si3 0.452200 0.037508 0.607737
Si Si4 0.660297 0.528972 0.768532
Si Si5 0.423671 0.531462 0.008790
Si Si6 0.290943 0.467347 0.617782
Si Si7 0.008035 0.028094 0.844213
Si Si8 0.881936 0.972303 0.203473
O O1 0.159536 0.250000 0.620021
O O2 0.309001 0.470538 0.891138
O O3 0.204163 0.544737 0.577645
O O4 0.118555 0.541427 0.672798
O O5 0.201472 0.250000 0.260137
O O6 0.271062 0.538643 0.467229
O O7 0.085578 0.453605 0.218137
O O8 0.114994 0.535809 0.063535
O O9 0.427689 0.250000 0.593922
O O10 0.364321 0.968353 0.392564
O O11 0.560758 0.032766 0.695178
O O12 0.490171 0.958141 0.779785
O O13 0.658682 0.750000 0.764933
O O14 0.771423 0.473365 0.984015
O O15 0.427673 0.750000 0.017458
O O16 0.398919 0.483513 0.844949
O O17 0.275840 0.250000 0.586828
O O18 0.004104 0.250000 0.845158
O O19 0.023711 0.975389 0.740807
O O20 0.881732 0.750000 0.207707
#
# Coordination Sequence:
#
# PCOD9167640 Si02
#       8
#     4   4   4   4   4   4   4   4
#     4   8  14  25  40  57  80 110 137 161 193 241
#     4   9  17  32  48  64  83 103 133 173 211 246
#     4   9  16  23  34  57  85 110 139 173 201 230
#     4   9  15  24  38  54  79 115 145 165 194 239
#     4   9  15  23  36  59  85 106 133 171 206 231
#     4   8  15  27  44  60  78 107 138 167 199 243
#     4   9  18  30  47  66  84 105 133 170 208 246
#     4   9  15  26  43  62  83 112 142 165 197 246
#
# _framework density 28.292607
#
# number of rings (size 3 to 8) (size 9 to 14) (size 15 to 20)
#    0.750    2.500    1.250    0.000    0.000    1.000 
#    0.000    1.875    0.000    0.000    0.000    0.875 
#    0.000    0.000    0.000    0.000    0.000    0.000 
#
# Total GULP energy -178782.595272 kJ/mol
# GULP energy per Si atom -5586.956102 kJ/mol
# Density = 2.822821 g / cm^3
# Si number density = 28.292607 Si / 1000 Ang^3
#
#
#
# Elastic Constant Matrix: (Units=GPa)
#
#
# Indices 1 2 3 4 5 6 
#
# 1 132.1248 -0.0029 38.6453 0.0000 -38.9337 0.0000
# 2 -0.0029 143.2643 14.6307 0.0000 -0.2051 0.0000
# 3 38.6453 14.6307 146.5516 0.0000 -13.0812 0.0000
# 4 0.0000 0.0000 0.0000 15.1116 0.0000 0.8640
# 5 -38.9337 -0.2051 -13.0812 0.0000 67.1618 0.0000
# 6 0.0000 0.0000 0.0000 0.8640 0.0000 0.8543
#
#
#
# Elastic Compliance Matrix: (Units=1/GPa)
#
#
# Indices 1 2 3 4 5 6 
#
# 1 0.009730 0.000224 -0.002121 0.000000 0.005228 0.000000
# 2 0.000224 0.007058 -0.000764 0.000000 0.000003 0.000000
# 3 -0.002121 -0.000764 0.007479 0.000000 0.000225 0.000000
# 4 0.000000 0.000000 0.000000 0.070235 0.000000 -0.071026
# 5 0.005228 0.000003 0.000225 0.000000 0.017964 0.000000
# 6 0.000000 0.000000 0.000000 -0.071026 0.000000 1.242325
#
#
# Mechanical properties :
#
#
# Convention : Reuss Voigt Hill
#
# Bulk Modulus (GPa) = 52.78264 58.72078 55.75171
# Shear Modulus (GPa) = 3.65918 41.20338 22.43128
#
# Velocity S-wave (km/s) = 1.13848 3.82033 2.81878
# Velocity P-wave (km/s) = 4.51937 6.34506 5.50838
#
# Compressibility (1/GPa) = 0.01894562
#
# Stress axis : x y z
#
# Youngs Moduli (GPa) = 102.77941 141.68143 133.70368
#
# Poissons Ratio (x) = -0.03178 0.28364
# Poissons Ratio (y) = -0.02306 0.10209
# Poissons Ratio (z) = 0.21804 0.10818
#
# Static dielectric constant tensor:
#      x y z
#    x 2.314320 0.000000 0.084590 
#    y 0.000000 2.005210 0.000000 
#    z 0.084590 0.000000 2.300490 
# 
# From -- ./inp_files/44096.got.cif
#   From: 2010.05.17/outbox.cif.g08.bks.cpg/sg11_23_cif.got.tgz:44096.got - 2010.06.03 12:22:45.
