data_PCOD9167973
_publ_section_title
;
Structure prediction by ZEFSAII (Michael W. Deem and Ramdas Pophale) SiO2 
 PCOD9167973
Probable space group: P 21/M
;
_chemical_formula_sum "Si O2"
_cell_formula_units_Z 32
_cell_length_a 24.000000
_cell_length_b 9.000000
_cell_length_c 24.000000
_cell_angle_alpha 90.000000
_cell_angle_beta 20.000000
_cell_angle_gamma 90.000000
_cell_volume 1773.032423
_symmetry_space_group_name_H-M "P 21/M"
_symmetry_group_IT_number 11
_symmetry_cell_setting 'monoclinic'
loop_
_space_group_symop_operation_xyz
x,y,z
-x,1/2+y,-z
-x,-y,-z
x,1/2-y,z
loop_
_atom_site_type_symbol
_atom_site_label
_atom_site_fract_x
_atom_site_fract_y
_atom_site_fract_z
Si Si1 0.530030 0.418610 0.913785
Si Si2 0.127988 0.930264 0.125426
Si Si3 0.930397 0.070084 0.948037
Si Si4 0.299803 0.426294 0.632747
Si Si5 0.637223 0.574102 0.294504
Si Si6 0.476451 0.570493 0.848112
Si Si7 0.149852 0.429572 0.525761
Si Si8 0.085445 0.581398 0.470836
O O1 0.465665 0.250000 0.975456
O O2 0.464976 0.507502 0.921506
O O3 0.723730 0.411933 0.722907
O O4 0.500000 0.500000 0.000000
O O5 0.128865 0.750000 0.127439
O O6 0.975106 0.977935 0.307967
O O7 0.097396 0.970963 0.090242
O O8 0.310134 0.977939 0.973262
O O9 0.922419 0.250000 0.961281
O O10 0.783505 0.000897 0.122254
O O11 0.115714 0.024805 0.790343
O O12 0.311403 0.250000 0.609505
O O13 0.455333 0.505674 0.457805
O O14 0.321377 0.446900 0.678874
O O15 0.632841 0.750000 0.287149
O O16 0.477310 0.750000 0.848775
O O17 0.656304 0.525802 0.654334
O O18 0.149056 0.250000 0.524995
O O19 0.077013 0.492719 0.536624
O O20 0.023714 0.750000 0.535205
O O21 0.000000 0.500000 0.500000
#
# Coordination Sequence:
#
# PCOD9167973 Si02
#       8
#     4   4   4   4   4   4   4   4
#     4  10  21  35  52  76 104 133 166 208 259 317
#     4   9  19  34  55  80 103 136 182 224 268 321
#     4  10  20  35  56  83 112 146 190 236 278 330
#     4   9  19  35  56  82 113 151 192 233 280 333
#     4  10  20  34  54  82 116 152 188 232 285 334
#     4   9  18  34  54  75 102 134 169 215 266 315
#     4   9  18  34  53  73 101 134 169 213 261 312
#     4  10  21  35  52  76 103 131 164 207 259 315
#
# _framework density 18.048175000000001
#
# number of rings (size 3 to 8) (size 9 to 14) (size 15 to 20)
#    0.000    2.500    0.000    1.500    1.750    3.500 
#    0.000    5.000    0.000    3.000    0.000    0.000 
#    0.000    0.000    0.000    0.000    0.000    0.000 
#
# Total GULP energy -178382.565246 kJ/mol
# GULP energy per Si atom -5574.455164 kJ/mol
# Density = 1.800710 g / cm^3
# Si number density = 18.048175 Si / 1000 Ang^3
#
#
#
# Elastic Constant Matrix: (Units=GPa)
#
#
# Indices 1 2 3 4 5 6 
#
# 1 95.6121 37.7227 82.7795 0.0000 -9.6897 0.0000
# 2 37.7227 42.5930 50.6348 0.0000 0.6189 0.0000
# 3 82.7795 50.6348 163.3352 0.0000 -3.4499 0.0000
# 4 0.0000 0.0000 0.0000 26.7255 0.0000 2.5624
# 5 -9.6897 0.6189 -3.4499 0.0000 27.6582 0.0000
# 6 0.0000 0.0000 0.0000 2.5624 0.0000 19.4848
#
#
#
# Elastic Compliance Matrix: (Units=1/GPa)
#
#
# Indices 1 2 3 4 5 6 
#
# 1 0.021979 -0.010293 -0.007802 0.000000 0.006957 0.000000
# 2 -0.010293 0.042144 -0.007965 0.000000 -0.005543 0.000000
# 3 -0.007802 -0.007965 0.012525 0.000000 -0.000993 0.000000
# 4 0.000000 0.000000 0.000000 0.037895 0.000000 -0.004984
# 5 0.006957 -0.005543 -0.000993 0.000000 0.038593 0.000000
# 6 0.000000 0.000000 0.000000 -0.004984 0.000000 0.051977
#
#
# Mechanical properties :
#
#
# Convention : Reuss Voigt Hill
#
# Bulk Modulus (GPa) = 40.76921 71.53492 56.15207
# Shear Modulus (GPa) = 18.83884 23.46726 21.15305
#
# Velocity S-wave (km/s) = 3.23431 3.60982 3.42721
# Velocity P-wave (km/s) = 6.04862 7.55619 6.84404
#
# Compressibility (1/GPa) = 0.02452831
#
# Stress axis : x y z
#
# Youngs Moduli (GPa) = 45.49724 23.72836 79.84273
#
# Poissons Ratio (x) = 0.24423 0.62290
# Poissons Ratio (y) = 0.46829 0.63598
# Poissons Ratio (z) = 0.35495 0.18901
#
# Static dielectric constant tensor:
#      x y z
#    x 1.604250 0.000000 -0.013330 
#    y 0.000000 1.623090 0.000000 
#    z -0.013330 0.000000 1.629280 
# 
# From -- ./inp_files/69971.got.cif
#   From: 2010.05.17/outbox.ucp.g08.bks.cvg/sg11_35_cif.got.tgz:69971.got - 2010.06.11 11:38:39.
