data_PCOD9167361
_publ_section_title
;
Structure prediction by ZEFSAII (Michael W. Deem and Ramdas Pophale) SiO2 
 PCOD9167361
Probable space group: P 21/M
;
_chemical_formula_sum "Si O2"
_cell_formula_units_Z 16
_cell_length_a 5.106543
_cell_length_b 25.279161
_cell_length_c 5.117661
_cell_angle_alpha 90.000000
_cell_angle_beta 89.000949
_cell_angle_gamma 90.000000
_cell_volume 660.533942
_symmetry_space_group_name_H-M "P 21/M"
_symmetry_group_IT_number 11
_symmetry_cell_setting 'monoclinic'
loop_
_space_group_symop_operation_xyz
x,y,z
-x,1/2+y,-z
-x,-y,-z
x,1/2-y,z
loop_
_atom_site_type_symbol
_atom_site_label
_atom_site_fract_x
_atom_site_fract_y
_atom_site_fract_z
Si Si1 0.136630 0.810184 0.146643
Si Si2 0.961925 0.916031 0.020343
Si Si3 0.516641 0.050794 0.680459
Si Si4 0.687139 0.137825 0.346910
O O1 0.063394 0.750000 0.101543
O O2 0.085737 0.905335 0.733865
O O3 0.233836 0.819809 0.437295
O O4 0.344514 0.830919 0.924087
O O5 0.204423 0.939213 0.184703
O O6 0.917163 0.854983 0.109806
O O7 0.705040 0.948376 0.091702
O O8 0.474638 0.100785 0.485552
O O9 0.500000 0.000000 0.500000
#
# Coordination Sequence:
#
# PCOD9167361 Si02
#       4
#     4   4   4   4
#     4   9  18  40  66  91 128 171 213 270 334 383
#     4   9  23  39  64  96 130 164 222 265 321 393
#     4  11  22  42  67  95 133 177 216 271 329 384
#     4   9  21  39  63  95 131 162 221 267 317 398
#
# _framework density 24.222823999999999
#
# number of rings (size 3 to 8) (size 9 to 14) (size 15 to 20)
#    1.500    1.000    0.000    1.500    0.000    6.000 
#    0.000    6.250    0.000    0.000    0.000    0.000 
#    0.000    0.000    0.000    0.000    0.000    0.000 
#
# Total GULP energy -89176.385789 kJ/mol
# GULP energy per Si atom -5573.524112 kJ/mol
# Density = 2.416769 g / cm^3
# Si number density = 24.222824 Si / 1000 Ang^3
#
#
#
# Elastic Constant Matrix: (Units=GPa)
#
#
# Indices 1 2 3 4 5 6 
#
# 1 89.3682 -6.0146 24.3923 0.0000 -16.4466 0.0000
# 2 -6.0146 112.8133 19.1003 0.0000 -14.4525 0.0000
# 3 24.3923 19.1003 156.1176 0.0000 -4.3748 0.0000
# 4 0.0000 0.0000 0.0000 39.8250 0.0000 2.7952
# 5 -16.4466 -14.4525 -4.3748 0.0000 18.5930 0.0000
# 6 0.0000 0.0000 0.0000 2.7952 0.0000 15.5770
#
#
#
# Elastic Compliance Matrix: (Units=1/GPa)
#
#
# Indices 1 2 3 4 5 6 
#
# 1 0.014761 0.003082 -0.002265 0.000000 0.014920 0.000000
# 2 0.003082 0.010644 -0.001485 0.000000 0.010651 0.000000
# 3 -0.002265 -0.001485 0.006898 0.000000 -0.001535 0.000000
# 4 0.000000 0.000000 0.000000 0.025430 0.000000 -0.004563
# 5 0.014920 0.010651 -0.001535 0.000000 0.074899 0.000000
# 6 0.000000 0.000000 0.000000 -0.004563 0.000000 0.065016
#
#
# Mechanical properties :
#
#
# Convention : Reuss Voigt Hill
#
# Bulk Modulus (GPa) = 32.29352 48.13944 40.21648
# Shear Modulus (GPa) = 23.88827 36.18708 30.03768
#
# Velocity S-wave (km/s) = 3.14377 3.86933 3.52526
# Velocity P-wave (km/s) = 5.15156 6.31498 5.76270
#
# Compressibility (1/GPa) = 0.03096597
#
# Stress axis : x y z
#
# Youngs Moduli (GPa) = 67.74599 93.94564 144.96813
#
# Poissons Ratio (x) = -0.28953 0.32839
# Poissons Ratio (y) = -0.20878 0.21533
# Poissons Ratio (z) = 0.15346 0.13954
#
# Static dielectric constant tensor:
#      x y z
#    x 1.980130 0.000000 0.011940 
#    y 0.000000 1.925210 0.000000 
#    z 0.011940 0.000000 1.953970 
# 
# From -- ./inp_files/540.got.cif
#   From: 2010.05.17/outbox.cif.g08.bks.cpg/sg11_1_cif.got.tgz:540.got - 2010.06.03 12:22:45.
