data_PCOD9167872
_publ_section_title
;
Structure prediction by ZEFSAII (Michael W. Deem and Ramdas Pophale) SiO2 
 PCOD9167872
Probable space group: P 21/M
;
_chemical_formula_sum "Si O2"
_cell_formula_units_Z 28
_cell_length_a 30.000000
_cell_length_b 9.000000
_cell_length_c 30.000000
_cell_angle_alpha 90.000000
_cell_angle_beta 170.000000
_cell_angle_gamma 90.000000
_cell_volume 1406.550239
_symmetry_space_group_name_H-M "P 21/M"
_symmetry_group_IT_number 11
_symmetry_cell_setting 'monoclinic'
loop_
_space_group_symop_operation_xyz
x,y,z
-x,1/2+y,-z
-x,-y,-z
x,1/2-y,z
loop_
_atom_site_type_symbol
_atom_site_label
_atom_site_fract_x
_atom_site_fract_y
_atom_site_fract_z
Si Si1 0.618946 0.414184 0.381079
Si Si2 0.663507 0.926815 0.336411
Si Si3 0.045082 0.576165 0.954926
Si Si4 0.524376 0.428482 0.475629
Si Si5 0.239546 0.927866 0.760456
Si Si6 0.187340 0.930404 0.812583
Si Si7 0.911208 0.584066 0.088760
O O1 0.629728 0.250000 0.370275
O O2 0.637685 0.537185 0.362328
O O3 0.853068 0.424565 0.645549
O O4 0.354486 0.424570 0.146969
O O5 0.666773 0.750000 0.333129
O O6 0.925694 0.989088 0.575262
O O7 0.424608 0.989090 0.074190
O O8 0.038988 0.750000 0.961029
O O9 0.071429 0.548978 0.928587
O O10 0.786830 0.492788 0.714522
O O11 0.285477 0.492782 0.213169
O O12 0.500000 0.500000 0.500000
O O13 0.523899 0.250000 0.476119
O O14 0.242502 0.750000 0.757488
O O15 0.213348 0.962586 0.786674
O O16 0.000000 0.000000 0.500000
O O17 0.500000 0.000000 0.000000
O O18 0.185309 0.750000 0.814602
O O19 0.922223 0.750000 0.077739
#
# Coordination Sequence:
#
# PCOD9167872 Si02
#       7
#     4   4   4   4   4   4   4
#     4  10  21  36  55  81 114 149 188 237 294 348
#     4  10  19  34  56  79 104 142 190 232 282 347
#     4  12  25  42  65  96 127 159 206 259 304 352
#     4  12  25  44  67  93 127 167 207 250 305 365
#     4  11  22  39  61  86 118 155 198 245 298 356
#     4   9  19  35  55  78 108 147 186 231 288 351
#     4  10  21  38  58  81 114 157 195 232 292 361
#
# _framework density 19.906860999999999
#
# number of rings (size 3 to 8) (size 9 to 14) (size 15 to 20)
#    0.000    1.429    0.000    6.000    0.000    4.571 
#    0.000    4.286    0.000    0.000    0.000    0.000 
#    0.000    0.000    0.000    0.000    0.000    0.000 
#
# Total GULP energy -156363.704489 kJ/mol
# GULP energy per Si atom -5584.418017 kJ/mol
# Density = 1.986155 g / cm^3
# Si number density = 19.906861 Si / 1000 Ang^3
#
#
#
# Elastic Constant Matrix: (Units=GPa)
#
#
# Indices 1 2 3 4 5 6 
#
# 1 72.5185 36.1232 68.5471 0.0000 3.9433 0.0000
# 2 36.1232 100.6161 60.3761 0.0000 2.1400 0.0000
# 3 68.5471 60.3761 200.7686 0.0000 7.3613 0.0000
# 4 0.0000 0.0000 0.0000 -12.1802 0.0000 -4.0298
# 5 3.9433 2.1400 7.3613 0.0000 24.6737 0.0000
# 6 0.0000 0.0000 0.0000 -4.0298 0.0000 33.5606
#
#
#
# Elastic Compliance Matrix: (Units=1/GPa)
#
#
# Indices 1 2 3 4 5 6 
#
# 1 0.021686 -0.004080 -0.006130 0.000000 -0.001283 0.000000
# 2 -0.004080 0.012895 -0.002495 0.000000 0.000278 0.000000
# 3 -0.006130 -0.002495 0.007866 0.000000 -0.001151 0.000000
# 4 0.000000 0.000000 0.000000 -0.078963 0.000000 -0.009482
# 5 -0.001283 0.000278 -0.001151 0.000000 0.041053 0.000000
# 6 0.000000 0.000000 0.000000 -0.009482 0.000000 0.028658
#
#
# Mechanical properties :
#
#
# Convention : Reuss Voigt Hill
#
# Bulk Modulus (GPa) = 58.69569 78.22177 68.45873
# Shear Modulus (GPa) = 77.77891 23.13462 50.45676
#
# Velocity S-wave (km/s) = 6.25749 3.41272 5.03998
# Velocity P-wave (km/s) = 9.04198 7.41000 8.26636
#
# Compressibility (1/GPa) = 0.01703703
#
# Stress axis : x y z
#
# Youngs Moduli (GPa) = 46.11245 77.55071 127.12413
#
# Poissons Ratio (x) = 0.31641 0.77929
# Poissons Ratio (y) = 0.18814 0.31717
# Poissons Ratio (z) = 0.28268 0.19349
#
# Static dielectric constant tensor:
#      x y z
#    x 1.700490 0.000000 -0.002510 
#    y 0.000000 1.690100 0.000000 
#    z -0.002510 0.000000 1.672010 
# 
# From -- ./inp_files/73875.got.cif
#   From: 2010.05.17/outbox.ucp.g08.bks.cvg/sg11_37_cif.got.tgz:73875.got - 2010.06.11 11:38:39.
