data_PCOD9167307
_publ_section_title
;
Structure prediction by ZEFSAII (Michael W. Deem and Ramdas Pophale) SiO2 
 PCOD9167307
Probable space group: P 21/M
;
_chemical_formula_sum "Si O2"
_cell_formula_units_Z 32
_cell_length_a 15.555444
_cell_length_b 23.331883
_cell_length_c 8.953406
_cell_angle_alpha 90.000000
_cell_angle_beta 150.306605
_cell_angle_gamma 90.000000
_cell_volume 1609.682142
_symmetry_space_group_name_H-M "P 21/M"
_symmetry_group_IT_number 11
_symmetry_cell_setting 'monoclinic'
loop_
_space_group_symop_operation_xyz
x,y,z
-x,1/2+y,-z
-x,-y,-z
x,1/2-y,z
loop_
_atom_site_type_symbol
_atom_site_label
_atom_site_fract_x
_atom_site_fract_y
_atom_site_fract_z
Si Si1 0.333885 0.502193 0.357633
Si Si2 0.910788 0.631860 0.642922
Si Si3 0.066104 0.317310 0.645827
Si Si4 0.732134 0.368140 0.642922
Si Si5 0.976252 0.997807 0.642367
Si Si6 0.231273 0.611383 0.640813
Si Si7 0.579723 0.817310 0.645827
Si Si8 0.409540 0.111383 0.640813
O O1 0.500000 0.500000 0.500000
O O2 0.316612 0.565309 0.400432
O O3 0.355169 0.452847 0.512116
O O4 0.160086 0.491036 0.000000
O O5 0.905417 0.668826 0.484849
O O6 0.916181 0.565309 0.599568
O O7 0.744920 0.639452 0.497615
O O8 0.086828 0.643369 1.000000
O O9 0.031785 0.250000 0.614136
O O10 0.907355 0.354407 0.468500
O O11 0.240083 0.332456 0.000000
O O12 0.752694 0.360548 0.497615
O O13 0.579433 0.331174 0.484849
O O14 0.843053 0.047153 0.487885
O O15 0.000000 0.000000 0.500000
O O16 0.414992 0.610191 1.000000
O O17 0.582351 0.750000 0.614136
O O18 0.561145 0.854407 0.468500
#
# Coordination Sequence:
#
# PCOD9167307 Si02
#       8
#     4   4   4   4   4   4   4   4
#     4  11  22  38  64  96 131 168 209 257 316 381
#     4  11  24  42  66  96 129 168 210 259 317 379
#     4  11  25  45  68  93 124 165 214 268 320 374
#     4  11  24  42  66  96 129 168 210 259 317 379
#     4  11  22  38  64  96 131 168 209 257 316 381
#     4  12  25  41  65  96 130 171 212 259 315 375
#     4  11  25  45  68  93 124 165 214 268 320 374
#     4  12  25  41  65  96 130 171 212 259 315 375
#
# _framework density 19.879701000000001
#
# number of rings (size 3 to 8) (size 9 to 14) (size 15 to 20)
#    0.000    0.750    2.500    5.250    0.000    9.000 
#    0.000    0.000    0.000    0.000    0.000    0.000 
#    0.000    0.000    0.000    0.000    0.000    0.000 
#
# Total GULP energy -179169.061574 kJ/mol
# GULP energy per Si atom -5599.033174 kJ/mol
# Density = 1.983445 g / cm^3
# Si number density = 19.879701 Si / 1000 Ang^3
#
#
#
# Elastic Constant Matrix: (Units=GPa)
#
#
# Indices 1 2 3 4 5 6 
#
# 1 77.3336 -17.5760 7.4607 0.0000 -0.1638 0.0000
# 2 -17.5760 32.9303 21.2411 0.0000 -1.3028 0.0000
# 3 7.4607 21.2411 99.6414 0.0000 -0.5849 0.0000
# 4 0.0000 0.0000 0.0000 29.5385 0.0000 -0.6596
# 5 -0.1638 -1.3028 -0.5849 0.0000 37.3901 0.0000
# 6 0.0000 0.0000 0.0000 -0.6596 0.0000 9.8865
#
#
#
# Elastic Compliance Matrix: (Units=1/GPa)
#
#
# Indices 1 2 3 4 5 6 
#
# 1 0.015669 0.010590 -0.003429 0.000000 0.000384 0.000000
# 2 0.010590 0.042412 -0.009826 0.000000 0.001370 0.000000
# 3 -0.003429 -0.009826 0.012386 0.000000 -0.000164 0.000000
# 4 0.000000 0.000000 0.000000 0.033905 0.000000 0.002262
# 5 0.000384 0.001370 -0.000164 0.000000 0.026792 0.000000
# 6 0.000000 0.000000 0.000000 0.002262 0.000000 0.101299
#
#
# Mechanical properties :
#
#
# Convention : Reuss Voigt Hill
#
# Bulk Modulus (GPa) = 15.35193 25.79521 20.57357
# Shear Modulus (GPa) = 19.26746 28.61499 23.94123
#
# Velocity S-wave (km/s) = 3.11658 3.79807 3.47407
# Velocity P-wave (km/s) = 4.54862 5.67782 5.14429
#
# Compressibility (1/GPa) = 0.06513837
#
# Stress axis : x y z
#
# Youngs Moduli (GPa) = 63.81859 23.57841 80.73357
#
# Poissons Ratio (x) = -0.24970 0.27680
# Poissons Ratio (y) = -0.67584 0.79329
# Poissons Ratio (z) = 0.21880 0.23168
#
# Static dielectric constant tensor:
#      x y z
#    x 1.679650 0.000000 0.000670 
#    y 0.000000 1.690850 0.000000 
#    z 0.000670 0.000000 1.659770 
# 
# From -- ./inp_files/23403.got.cif
#   From: 2010.05.17/outbox.cif.g08.bks.cpg/sg11_12_cif.got.tgz:23403.got - 2010.06.03 12:22:45.
