data_PCOD9167063
_publ_section_title
;
Structure prediction by ZEFSAII (Michael W. Deem and Ramdas Pophale) SiO2 
 PCOD9167063
Probable space group: P 21/M
;
_chemical_formula_sum "Si O2"
_cell_formula_units_Z 32
_cell_length_a 24.102636
_cell_length_b 14.180664
_cell_length_c 11.619152
_cell_angle_alpha 90.000000
_cell_angle_beta 24.102758
_cell_angle_gamma 90.000000
_cell_volume 1621.787885
_symmetry_space_group_name_H-M "P 21/M"
_symmetry_group_IT_number 11
_symmetry_cell_setting 'monoclinic'
loop_
_space_group_symop_operation_xyz
x,y,z
-x,1/2+y,-z
-x,-y,-z
x,1/2-y,z
loop_
_atom_site_type_symbol
_atom_site_label
_atom_site_fract_x
_atom_site_fract_y
_atom_site_fract_z
Si Si1 0.900537 0.088659 0.051429
Si Si2 0.544242 0.956545 0.195470
Si Si3 0.389273 0.645338 0.826724
Si Si4 0.445646 0.141645 0.065847
Si Si5 0.749272 0.147338 0.554910
Si Si6 0.170135 0.051780 0.633673
Si Si7 0.253413 0.952777 0.875653
Si Si8 0.318457 0.143792 0.856994
O O1 0.882311 0.984081 0.142936
O O2 0.797526 0.146406 0.328222
O O3 0.859301 0.085571 0.997802
O O4 0.055556 0.113215 0.788309
O O5 0.394242 0.954002 0.535902
O O6 0.639546 0.890869 0.095068
O O7 0.600883 0.062229 0.099965
O O8 0.537285 0.919095 0.081040
O O9 0.361409 0.750000 0.923065
O O10 0.284029 0.612781 0.927457
O O11 0.537179 0.645790 0.484546
O O12 0.420902 0.250000 0.081323
O O13 0.313849 0.100984 0.377775
O O14 0.587092 0.138846 0.865191
O O15 0.790677 0.250000 0.524203
O O16 0.809951 0.046178 0.476171
O O17 0.233252 0.059534 0.959767
O O18 0.262735 0.250000 0.960959
#
# Coordination Sequence:
#
# PCOD9167063 Si02
#       8
#     4   4   4   4   4   4   4   4
#     4   9  18  34  52  70  99 132 163 203 250 287
#     4   9  15  27  45  70 102 130 156 207 247 291
#     4   8  15  25  42  70 100 130 162 202 249 288
#     4  11  20  31  52  77  99 130 168 207 251 297
#     4   9  18  32  53  73  94 127 166 204 247 293
#     4   9  20  36  48  71 103 130 160 209 253 293
#     4   9  15  26  46  70  97 125 164 203 243 289
#     4   8  14  24  40  66  99 128 160 199 243 289
#
# _framework density 19.731310000000001
#
# number of rings (size 3 to 8) (size 9 to 14) (size 15 to 20)
#    0.750    2.250    1.250    2.250    0.000    1.500 
#    0.000    1.875    0.000    6.750    0.000    1.750 
#    0.000    0.000    0.000    0.000    0.000    0.000 
#
# Total GULP energy -178150.087774 kJ/mol
# GULP energy per Si atom -5567.190243 kJ/mol
# Density = 1.968640 g / cm^3
# Si number density = 19.731310 Si / 1000 Ang^3
#
#
#
# Elastic Constant Matrix: (Units=GPa)
#
#
# Indices 1 2 3 4 5 6 
#
# 1 30.1282 -0.1269 -0.2233 0.0000 1.4900 0.0000
# 2 -0.1269 95.5819 12.1132 0.0000 1.2288 0.0000
# 3 -0.2233 12.1132 52.2384 0.0000 -14.9399 0.0000
# 4 0.0000 0.0000 0.0000 -2.9931 0.0000 -0.4566
# 5 1.4900 1.2288 -14.9399 0.0000 16.7896 0.0000
# 6 0.0000 0.0000 0.0000 -0.4566 0.0000 10.8027
#
#
#
# Elastic Compliance Matrix: (Units=1/GPa)
#
#
# Indices 1 2 3 4 5 6 
#
# 1 0.033377 0.000224 -0.001021 0.000000 -0.003887 0.000000
# 2 0.000224 0.010989 -0.003733 0.000000 -0.004146 0.000000
# 3 -0.001021 -0.003733 0.026972 0.000000 0.024365 0.000000
# 4 0.000000 0.000000 0.000000 -0.331961 0.000000 -0.014030
# 5 -0.003887 -0.004146 0.024365 0.000000 0.081889 0.000000
# 6 0.000000 0.000000 0.000000 -0.014030 0.000000 0.091976
#
#
# Mechanical properties :
#
#
# Convention : Reuss Voigt Hill
#
# Bulk Modulus (GPa) = 16.05692 22.38607 19.22149
# Shear Modulus (GPa) = -87.81626 15.99888 -35.90869
#
# Velocity S-wave (km/s) = -6.67852 2.85061 -4.27064
# Velocity P-wave (km/s) = 7.16343 4.71219 3.81511
#
# Compressibility (1/GPa) = 0.06227845
#
# Stress axis : x y z
#
# Youngs Moduli (GPa) = 29.96069 91.00104 37.07493
#
# Poissons Ratio (x) = -0.02035 0.03785
# Poissons Ratio (y) = -0.00670 0.13839
# Poissons Ratio (z) = 0.03058 0.33969
#
# Static dielectric constant tensor:
#      x y z
#    x 1.696270 0.000000 -0.004730 
#    y 0.000000 1.731790 0.000000 
#    z -0.004730 0.000000 1.709380 
# 
# From -- ./inp_files/56581.got.cif
#   From: 2010.05.17/outbox.cif.g08.bks.cpg/sg11_29_cif.got.tgz:56581.got - 2010.06.03 12:22:45.
