data_PCOD9167917
_publ_section_title
;
Structure prediction by ZEFSAII (Michael W. Deem and Ramdas Pophale) SiO2 
 PCOD9167917
Probable space group: P 21/M
;
_chemical_formula_sum "Si O2"
_cell_formula_units_Z 32
_cell_length_a 15.000000
_cell_length_b 18.000000
_cell_length_c 12.000000
_cell_angle_alpha 90.000000
_cell_angle_beta 150.000000
_cell_angle_gamma 90.000000
_cell_volume 1620.000000
_symmetry_space_group_name_H-M "P 21/M"
_symmetry_group_IT_number 11
_symmetry_cell_setting 'monoclinic'
loop_
_space_group_symop_operation_xyz
x,y,z
-x,1/2+y,-z
-x,-y,-z
x,1/2-y,z
loop_
_atom_site_type_symbol
_atom_site_label
_atom_site_fract_x
_atom_site_fract_y
_atom_site_fract_z
Si Si1 0.543006 0.085910 0.567617
Si Si2 0.366317 0.661575 0.563371
Si Si3 0.209292 0.162348 0.284617
Si Si4 0.051434 0.161388 0.868604
Si Si5 0.859673 0.160222 0.046529
Si Si6 0.794538 0.412576 0.216171
Si Si7 0.489979 0.338887 0.033183
Si Si8 0.849218 0.586527 0.253243
O O1 0.544755 0.123276 0.446784
O O2 0.390531 0.116963 0.484790
O O3 0.500000 0.000000 0.500000
O O4 0.726260 0.112347 0.824280
O O5 0.381670 0.750000 0.562018
O O6 0.446138 0.644774 0.770867
O O7 0.157279 0.642598 0.345420
O O8 0.249299 0.250000 0.333644
O O9 0.058113 0.146615 0.212429
O O10 0.134353 0.146459 0.079306
O O11 0.066964 0.250000 0.863850
O O12 0.137045 0.119320 0.856736
O O13 0.825655 0.250000 0.999503
O O14 0.835707 0.132527 0.147249
O O15 0.617533 0.380826 0.084129
O O16 0.787849 0.500646 0.182817
O O17 0.957199 0.405550 0.480116
O O18 0.500124 0.250000 0.026340
O O19 0.288630 0.368326 0.818621
#
# Coordination Sequence:
#
# PCOD9167917 Si02
#       8
#     4   4   4   4   4   4   4   4
#     4  12  26  40  63  98 132 170 206 264 326 389
#     4  10  20  39  66  95 127 161 208 268 318 369
#     4  10  22  42  67  94 124 166 214 263 317 378
#     4  10  19  37  69  95 121 161 209 265 319 374
#     4  11  25  45  66  91 130 176 219 261 313 389
#     4  11  26  44  63  92 133 173 208 265 323 380
#     4  11  23  41  69  95 122 166 218 268 315 376
#     4  11  24  42  64  95 130 165 210 268 327 377
#
# _framework density 19.753086
#
# number of rings (size 3 to 8) (size 9 to 14) (size 15 to 20)
#    0.000    1.250    2.500    3.000    3.500    6.000 
#    0.000    1.250    0.000    0.000    0.000    0.000 
#    0.000    0.000    0.000    0.000    0.000    0.000 
#
# Total GULP energy -178886.892656 kJ/mol
# GULP energy per Si atom -5590.215396 kJ/mol
# Density = 1.970813 g / cm^3
# Si number density = 19.753086 Si / 1000 Ang^3
#
#
#
# Elastic Constant Matrix: (Units=GPa)
#
#
# Indices 1 2 3 4 5 6 
#
# 1 151.7900 49.2985 6.8772 0.0000 10.1805 0.0000
# 2 49.2985 50.3076 5.9991 0.0000 1.4523 0.0000
# 3 6.8772 5.9991 13.9067 0.0000 15.2503 0.0000
# 4 0.0000 0.0000 0.0000 17.9717 0.0000 7.4154
# 5 10.1805 1.4523 15.2503 0.0000 29.5979 0.0000
# 6 0.0000 0.0000 0.0000 7.4154 0.0000 20.3890
#
#
#
# Elastic Compliance Matrix: (Units=1/GPa)
#
#
# Indices 1 2 3 4 5 6 
#
# 1 0.010132 -0.010510 0.006390 0.000000 -0.006262 0.000000
# 2 -0.010510 0.032794 -0.025632 0.000000 0.015213 0.000000
# 3 0.006390 -0.025632 0.185846 0.000000 -0.096698 0.000000
# 4 0.000000 0.000000 0.000000 0.065468 0.000000 -0.023810
# 5 -0.006262 0.015213 -0.096698 0.000000 0.085017 0.000000
# 6 0.000000 0.000000 0.000000 -0.023810 0.000000 0.057706
#
#
# Mechanical properties :
#
#
# Convention : Reuss Voigt Hill
#
# Bulk Modulus (GPa) = 5.90778 37.81708 21.86243
# Shear Modulus (GPa) = 9.04341 23.84700 16.44521
#
# Velocity S-wave (km/s) = 2.14200 3.47833 2.88850
# Velocity P-wave (km/s) = 3.01908 5.94291 4.71344
#
# Compressibility (1/GPa) = 0.16926820
#
# Stress axis : x y z
#
# Youngs Moduli (GPa) = 98.69786 30.49322 5.38080
#
# Poissons Ratio (x) = 0.32048 -0.03438
# Poissons Ratio (y) = 1.03731 0.13792
# Poissons Ratio (z) = -0.63069 0.78160
#
# Static dielectric constant tensor:
#      x y z
#    x 1.649460 0.000000 0.016480 
#    y 0.000000 1.680400 0.000000 
#    z 0.016480 0.000000 1.739780 
# 
# From -- ./inp_files/40052.got.cif
#   From: 2010.05.17/outbox.ucp.g08.bks.cvg/sg11_21_cif.got.tgz:40052.got - 2010.06.11 11:38:39.
