data_PCOD9167678
_publ_section_title
;
Structure prediction by ZEFSAII (Michael W. Deem and Ramdas Pophale) SiO2 
 PCOD9167678
Probable space group: P 21/M
;
_chemical_formula_sum "Si O2"
_cell_formula_units_Z 32
_cell_length_a 23.022557
_cell_length_b 16.114867
_cell_length_c 14.278335
_cell_angle_alpha 90.000000
_cell_angle_beta 19.072863
_cell_angle_gamma 90.000000
_cell_volume 1731.013419
_symmetry_space_group_name_H-M "P 21/M"
_symmetry_group_IT_number 11
_symmetry_cell_setting 'monoclinic'
loop_
_space_group_symop_operation_xyz
x,y,z
-x,1/2+y,-z
-x,-y,-z
x,1/2-y,z
loop_
_atom_site_type_symbol
_atom_site_label
_atom_site_fract_x
_atom_site_fract_y
_atom_site_fract_z
Si Si1 0.229036 0.158950 0.536733
Si Si2 0.810393 0.937193 0.702262
Si Si3 0.201498 0.545611 0.096030
Si Si4 0.783532 0.488519 0.551940
Si Si5 0.802468 0.990030 0.101881
Si Si6 0.567207 0.408619 0.725018
Si Si7 0.439879 0.085208 0.376679
Si Si8 0.817383 0.158353 0.190088
O O1 0.245764 0.250000 0.467606
O O2 0.249541 0.082531 0.434407
O O3 0.364224 0.148139 0.416246
O O4 0.029300 0.151709 0.883210
O O5 0.769985 0.007413 0.684521
O O6 0.011173 0.909293 0.372440
O O7 0.820328 0.976786 0.789757
O O8 0.637118 0.879275 0.961203
O O9 0.249494 0.498389 0.927183
O O10 0.363955 0.601188 0.883332
O O11 0.649314 0.429462 0.701171
O O12 0.987596 0.469095 0.213941
O O13 0.775148 0.082257 0.185996
O O14 0.690253 0.928358 0.336968
O O15 0.560898 0.496680 0.677978
O O16 0.702317 0.353808 0.458999
O O17 0.782596 0.250000 0.203556
#
# Coordination Sequence:
#
# PCOD9167678 Si02
#       8
#     4   4   4   4   4   4   4   4
#     4   9  17  29  45  66  90 113 140 179 228 276
#     4   9  17  28  43  65  91 118 150 185 217 253
#     4   9  17  28  43  65  91 118 150 185 217 253
#     4   9  16  27  45  68  91 115 146 185 227 266
#     4   9  16  27  45  68  91 115 146 185 227 266
#     4   9  16  27  45  66  88 113 143 181 224 266
#     4   9  16  27  45  66  88 113 143 181 224 266
#     4   9  17  29  45  66  90 113 140 179 228 276
#
# _framework density 18.486281000000002
#
# number of rings (size 3 to 8) (size 9 to 14) (size 15 to 20)
#    0.000    3.000    0.000    1.500    0.000    3.000 
#    0.000    1.250    0.000    2.250    0.000    1.750 
#    0.000   10.000    0.000    0.000    0.000    0.000 
#
# Total GULP energy -178147.768513 kJ/mol
# GULP energy per Si atom -5567.117766 kJ/mol
# Density = 1.844421 g / cm^3
# Si number density = 18.486281 Si / 1000 Ang^3
#
#
#
# Elastic Constant Matrix: (Units=GPa)
#
#
# Indices 1 2 3 4 5 6 
#
# 1 93.7064 -4.0715 18.1700 0.0000 -4.0661 0.0000
# 2 -4.0715 24.1757 -1.0778 0.0000 -4.7315 0.0000
# 3 18.1700 -1.0778 53.8802 0.0000 -5.8669 0.0000
# 4 0.0000 0.0000 0.0000 9.5302 0.0000 -1.5990
# 5 -4.0661 -4.7315 -5.8669 0.0000 25.1219 0.0000
# 6 0.0000 0.0000 0.0000 -1.5990 0.0000 7.1001
#
#
#
# Elastic Compliance Matrix: (Units=1/GPa)
#
#
# Indices 1 2 3 4 5 6 
#
# 1 0.011538 0.002050 -0.003699 0.000000 0.001390 0.000000
# 2 0.002050 0.043479 0.001135 0.000000 0.008786 0.000000
# 3 -0.003699 0.001135 0.020304 0.000000 0.004357 0.000000
# 4 0.000000 0.000000 0.000000 0.109050 0.000000 0.024559
# 5 0.001390 0.008786 0.004357 0.000000 0.042703 0.000000
# 6 0.000000 0.000000 0.000000 0.024559 0.000000 0.146375
#
#
# Mechanical properties :
#
#
# Convention : Reuss Voigt Hill
#
# Bulk Modulus (GPa) = 13.45986 21.97817 17.71902
# Shear Modulus (GPa) = 12.52376 18.93321 15.72848
#
# Velocity S-wave (km/s) = 2.60563 3.20375 2.92005
# Velocity P-wave (km/s) = 4.04342 5.05965 4.57981
#
# Compressibility (1/GPa) = 0.07429495
#
# Stress axis : x y z
#
# Youngs Moduli (GPa) = 86.66848 22.99946 49.25110
#
# Poissons Ratio (x) = -0.04716 0.18216
# Poissons Ratio (y) = -0.17770 -0.05590
# Poissons Ratio (z) = 0.32056 -0.02610
#
# Static dielectric constant tensor:
#      x y z
#    x 1.645100 0.000000 -0.010820 
#    y 0.000000 1.616620 0.000000 
#    z -0.010820 0.000000 1.712010 
# 
# From -- ./inp_files/55934.got.cif
#   From: 2010.05.17/outbox.cif.g08.bks.cpg/sg11_28_cif.got.tgz:55934.got - 2010.06.03 12:22:45.
