data_PCOD9167263
_publ_section_title
;
Structure prediction by ZEFSAII (Michael W. Deem and Ramdas Pophale) SiO2 
 PCOD9167263
Probable space group: P 21/M
;
_chemical_formula_sum "Si O2"
_cell_formula_units_Z 32
_cell_length_a 16.608559
_cell_length_b 19.672274
_cell_length_c 9.567317
_cell_angle_alpha 90.000000
_cell_angle_beta 143.405452
_cell_angle_gamma 90.000000
_cell_volume 1863.507406
_symmetry_space_group_name_H-M "P 21/M"
_symmetry_group_IT_number 11
_symmetry_cell_setting 'monoclinic'
loop_
_space_group_symop_operation_xyz
x,y,z
-x,1/2+y,-z
-x,-y,-z
x,1/2-y,z
loop_
_atom_site_type_symbol
_atom_site_label
_atom_site_fract_x
_atom_site_fract_y
_atom_site_fract_z
Si Si1 0.860764 0.965425 0.024583
Si Si2 0.583332 0.450238 0.016728
Si Si3 0.840227 0.459822 0.557899
Si Si4 0.152313 0.394480 0.293327
Si Si5 0.568977 0.327731 0.545206
Si Si6 0.149641 0.611652 0.121660
Si Si7 0.441921 0.328501 0.679929
Si Si8 0.572724 0.541204 0.727879
O O1 0.008453 0.952297 0.291492
O O2 0.862666 0.929677 0.877615
O O3 0.727538 0.940372 0.913637
O O4 0.842141 0.045091 0.965529
O O5 0.727781 0.440358 0.289958
O O6 0.500000 0.500000 0.000000
O O7 0.514860 0.378565 0.888983
O O8 0.579033 0.490538 0.865409
O O9 0.824213 0.540102 0.573792
O O10 0.830286 0.417041 0.690419
O O11 0.283220 0.347429 0.466708
O O12 0.004282 0.362200 0.111531
O O13 0.536109 0.250000 0.459862
O O14 0.730010 0.339221 0.757185
O O15 0.505873 0.339038 0.613106
O O16 0.507515 0.388519 0.366226
O O17 0.461693 0.250000 0.741756
O O18 0.500000 0.500000 0.500000
#
# Coordination Sequence:
#
# PCOD9167263 Si02
#       8
#     4   4   4   4   4   4   4   4
#     4   9  16  31  56  85 109 139 185 234 280 327
#     4  12  22  35  57  83 114 151 191 233 281 339
#     4   9  19  32  54  85 115 140 181 236 277 333
#     4   9  16  33  56  83 111 142 182 230 284 332
#     4  11  22  35  54  84 113 144 191 237 281 333
#     4   9  17  32  56  83 115 142 175 234 284 329
#     4  11  22  36  56  83 113 148 189 235 285 337
#     4  12  20  35  60  82 109 149 193 234 281 330
#
# _framework density 17.17192
#
# number of rings (size 3 to 8) (size 9 to 14) (size 15 to 20)
#    0.000    1.750    5.000    2.250    0.000    1.000 
#    0.000    2.500    0.000    1.500    0.000    0.000 
#    0.000    0.000    0.000    0.000    0.000    0.000 
#
# Total GULP energy -178290.389085 kJ/mol
# GULP energy per Si atom -5571.574659 kJ/mol
# Density = 1.713284 g / cm^3
# Si number density = 17.171920 Si / 1000 Ang^3
#
#
#
# Elastic Constant Matrix: (Units=GPa)
#
#
# Indices 1 2 3 4 5 6 
#
# 1 59.7912 12.5571 36.1862 0.0000 29.6601 0.0000
# 2 12.5571 83.8954 43.5238 0.0000 16.3357 0.0000
# 3 36.1862 43.5238 127.3865 0.0000 19.6880 0.0000
# 4 0.0000 0.0000 0.0000 14.3373 0.0000 0.9683
# 5 29.6601 16.3357 19.6880 0.0000 29.4777 0.0000
# 6 0.0000 0.0000 0.0000 0.9683 0.0000 19.5144
#
#
#
# Elastic Compliance Matrix: (Units=1/GPa)
#
#
# Indices 1 2 3 4 5 6 
#
# 1 0.037760 0.004929 -0.006820 0.000000 -0.036170 0.000000
# 2 0.004929 0.015903 -0.005247 0.000000 -0.010269 0.000000
# 3 -0.006820 -0.005247 0.011229 0.000000 0.002270 0.000000
# 4 0.000000 0.000000 0.000000 0.069983 0.000000 -0.003472
# 5 -0.036170 -0.010269 0.002270 0.000000 0.074492 0.000000
# 6 0.000000 0.000000 0.000000 -0.003472 0.000000 0.051417
#
#
# Mechanical properties :
#
#
# Convention : Reuss Voigt Hill
#
# Bulk Modulus (GPa) = 19.75625 50.62305 35.18965
# Shear Modulus (GPa) = 17.12729 24.58627 20.85678
#
# Velocity S-wave (km/s) = 3.16159 3.78798 3.48887
# Velocity P-wave (km/s) = 4.98573 6.97681 6.06355
#
# Compressibility (1/GPa) = 0.05061689
#
# Stress axis : x y z
#
# Youngs Moduli (GPa) = 26.48316 62.88022 89.05224
#
# Poissons Ratio (x) = -0.30996 0.60737
# Poissons Ratio (y) = -0.13055 0.46724
# Poissons Ratio (z) = 0.18062 0.32992
#
# Static dielectric constant tensor:
#      x y z
#    x 1.567540 0.000000 0.051410 
#    y 0.000000 1.575310 0.000000 
#    z 0.051410 0.000000 1.591890 
# 
# From -- ./inp_files/23095.got.cif
#   From: 2010.05.17/outbox.cif.g08.bks.cpg/sg11_12_cif.got.tgz:23095.got - 2010.06.03 12:22:45.
