data_PCOD9167192
_publ_section_title
;
Structure prediction by ZEFSAII (Michael W. Deem and Ramdas Pophale) SiO2 
 PCOD9167192
Probable space group: P 21/M
;
_chemical_formula_sum "Si O2"
_cell_formula_units_Z 26
_cell_length_a 9.375949
_cell_length_b 7.489223
_cell_length_c 16.495133
_cell_angle_alpha 90.000000
_cell_angle_beta 124.121015
_cell_angle_gamma 90.000000
_cell_volume 958.874814
_symmetry_space_group_name_H-M "P 21/M"
_symmetry_group_IT_number 11
_symmetry_cell_setting 'monoclinic'
loop_
_space_group_symop_operation_xyz
x,y,z
-x,1/2+y,-z
-x,-y,-z
x,1/2-y,z
loop_
_atom_site_type_symbol
_atom_site_label
_atom_site_fract_x
_atom_site_fract_y
_atom_site_fract_z
Si Si1 0.848033 0.540328 0.041344
Si Si2 0.875608 0.037526 0.358165
Si Si3 0.754829 0.956617 0.548605
Si Si4 0.639766 0.250000 0.898441
Si Si5 0.353963 0.961554 0.862385
Si Si6 0.541730 0.046849 0.342076
Si Si7 0.826049 0.048066 0.754536
O O1 0.856678 0.750000 0.023728
O O2 0.701297 0.514953 0.064885
O O3 0.023186 0.474081 0.141749
O O4 0.790928 0.406971 0.953127
O O5 0.885888 0.250000 0.377585
O O6 0.818362 0.018776 0.246886
O O7 0.712373 0.967608 0.355525
O O8 0.066472 0.965098 0.430972
O O9 0.735870 0.750000 0.521452
O O10 0.594549 0.048929 0.453800
O O11 0.785384 0.963668 0.654434
O O12 0.491541 0.407317 0.866287
O O13 0.400940 0.750000 0.875553
O O14 0.518898 0.250000 0.306642
O O15 0.364750 0.948579 0.266727
O O16 0.879603 0.250000 0.754550
#
# Coordination Sequence:
#
# PCOD9167192 Si02
#       7
#     4   4   4   2   4   4   4
#     4  11  23  37  59  93 127 161 205 260 318 376
#     4   9  21  40  62  90 126 166 207 255 309 372
#     4  11  21  38  63  92 126 161 209 261 307 358
#     4  12  24  36  62  96 124 164 200 262 326 378
#     4  11  21  37  60  93 127 160 204 259 318 378
#     4  11  23  40  62  89 123 172 210 251 307 372
#     4  11  24  41  60  90 125 166 211 258 305 369
#
# _framework density 27.115113999999998
#
# number of rings (size 3 to 8) (size 9 to 14) (size 15 to 20)
#    0.000    1.231    3.077    3.231    2.154    0.000 
#    4.154    0.000    0.000    0.923    0.000    0.000 
#    0.000    0.000    0.000    0.000    0.000    0.000 
#
# Total GULP energy -145159.125023 kJ/mol
# GULP energy per Si atom -5583.043270 kJ/mol
# Density = 2.705340 g / cm^3
# Si number density = 27.115114 Si / 1000 Ang^3
#
#
#
# Elastic Constant Matrix: (Units=GPa)
#
#
# Indices 1 2 3 4 5 6 
#
# 1 96.3049 -0.4294 24.9833 0.0000 12.2092 0.0000
# 2 -0.4294 168.0314 27.8211 0.0000 11.8085 0.0000
# 3 24.9833 27.8211 147.6909 0.0000 35.8760 0.0000
# 4 0.0000 0.0000 0.0000 7.4336 0.0000 23.6621
# 5 12.2092 11.8085 35.8760 0.0000 56.8431 0.0000
# 6 0.0000 0.0000 0.0000 23.6621 0.0000 10.4878
#
#
#
# Elastic Compliance Matrix: (Units=1/GPa)
#
#
# Indices 1 2 3 4 5 6 
#
# 1 0.010978 0.000391 -0.001581 0.000000 -0.001442 0.000000
# 2 0.000391 0.006177 -0.001060 0.000000 -0.000698 0.000000
# 3 -0.001581 -0.001060 0.008388 0.000000 -0.004734 0.000000
# 4 0.000000 0.000000 0.000000 -0.021762 0.000000 0.049098
# 5 -0.001442 -0.000698 -0.004734 0.000000 0.021035 0.000000
# 6 0.000000 0.000000 0.000000 0.049098 0.000000 -0.015425
#
#
# Mechanical properties :
#
#
# Convention : Reuss Voigt Hill
#
# Bulk Modulus (GPa) = 47.51986 57.41969 52.46978
# Shear Modulus (GPa) = 239.17257 38.92970 139.05113
#
# Velocity S-wave (km/s) = 9.40201 3.79320 7.16890
# Velocity P-wave (km/s) = 11.63731 6.35663 9.37640
#
# Compressibility (1/GPa) = 0.02104383
#
# Stress axis : x y z
#
# Youngs Moduli (GPa) = 91.08944 161.89471 119.21816
#
# Poissons Ratio (x) = -0.06331 0.18843
# Poissons Ratio (y) = -0.03562 0.12639
# Poissons Ratio (z) = 0.14397 0.17163
#
# Static dielectric constant tensor:
#      x y z
#    x 2.259110 0.000000 -0.080960 
#    y 0.000000 1.967370 0.000000 
#    z -0.080960 0.000000 2.181670 
# 
# From -- ./inp_files/63404.got.cif
#   From: 2010.05.17/outbox.cif.g08.bks.cpg/sg11_32_cif.got.tgz:63404.got - 2010.06.03 12:22:45.
