data_PCOD9167320
_publ_section_title
;
Structure prediction by ZEFSAII (Michael W. Deem and Ramdas Pophale) SiO2 
 PCOD9167320
Probable space group: P 21/M
;
_chemical_formula_sum "Si O2"
_cell_formula_units_Z 28
_cell_length_a 18.983532
_cell_length_b 14.945009
_cell_length_c 9.567511
_cell_angle_alpha 90.000000
_cell_angle_beta 150.596771
_cell_angle_gamma 90.000000
_cell_volume 1332.637275
_symmetry_space_group_name_H-M "P 21/M"
_symmetry_group_IT_number 11
_symmetry_cell_setting 'monoclinic'
loop_
_space_group_symop_operation_xyz
x,y,z
-x,1/2+y,-z
-x,-y,-z
x,1/2-y,z
loop_
_atom_site_type_symbol
_atom_site_label
_atom_site_fract_x
_atom_site_fract_y
_atom_site_fract_z
Si Si1 0.048838 0.025166 0.238470
Si Si2 0.270997 0.529591 0.213138
Si Si3 0.497594 0.506120 0.828719
Si Si4 0.114765 0.653936 0.482682
Si Si5 0.636796 0.146952 0.879629
Si Si6 0.255003 0.352373 0.740621
Si Si7 0.793530 0.847734 0.030947
O O1 0.155187 0.107574 0.446914
O O2 0.137837 0.938756 0.444609
O O3 0.900468 0.042114 0.066774
O O4 0.000000 0.000000 0.000000
O O5 0.346520 0.528270 0.494354
O O6 0.346745 0.600903 0.242594
O O7 0.290609 0.432260 0.174185
O O8 0.551574 0.416715 0.841122
O O9 0.500000 0.500000 0.000000
O O10 0.607464 0.586904 0.992253
O O11 0.155489 0.750000 0.485800
O O12 0.945140 0.654907 0.214913
O O13 0.202768 0.648799 0.777724
O O14 0.586777 0.250000 0.789247
O O15 0.292568 0.250000 0.777114
O O16 0.173165 0.358377 0.747515
O O17 0.722893 0.750000 0.892026
#
# Coordination Sequence:
#
# PCOD9167320 Si02
#       7
#     4   4   4   4   4   4   4
#     4  11  22  39  64  96 132 173 209 264 324 391
#     4  11  23  40  66  98 130 168 218 274 323 384
#     4  12  26  45  64  93 134 178 218 268 333 398
#     4   9  18  35  61  92 124 160 207 262 322 382
#     4  11  23  41  67  94 127 172 223 276 328 389
#     4  11  23  41  66  93 127 167 214 265 323 386
#     4   9  18  35  64  98 126 158 210 271 323 375
#
# _framework density 21.010968999999999
#
# number of rings (size 3 to 8) (size 9 to 14) (size 15 to 20)
#    0.000    1.429    2.857    2.143    0.000    6.286 
#    0.000    2.857    0.000    0.000    0.000    0.000 
#    0.000    0.000    0.000    0.000    0.000    0.000 
#
# Total GULP energy -156260.508808 kJ/mol
# GULP energy per Si atom -5580.732457 kJ/mol
# Density = 2.096315 g / cm^3
# Si number density = 21.010969 Si / 1000 Ang^3
#
#
#
# Elastic Constant Matrix: (Units=GPa)
#
#
# Indices 1 2 3 4 5 6 
#
# 1 44.7676 23.2351 0.5669 0.0000 -10.7052 0.0000
# 2 23.2351 139.7212 32.4398 0.0000 0.2430 0.0000
# 3 0.5669 32.4398 104.6381 0.0000 -8.8313 0.0000
# 4 0.0000 0.0000 0.0000 -4.9278 0.0000 5.6929
# 5 -10.7052 0.2430 -8.8313 0.0000 32.3870 0.0000
# 6 0.0000 0.0000 0.0000 5.6929 0.0000 2.3773
#
#
#
# Elastic Compliance Matrix: (Units=1/GPa)
#
#
# Indices 1 2 3 4 5 6 
#
# 1 0.027248 -0.005068 0.002238 0.000000 0.009655 0.000000
# 2 -0.005068 0.008671 -0.002874 0.000000 -0.002524 0.000000
# 3 0.002238 -0.002874 0.010747 0.000000 0.003692 0.000000
# 4 0.000000 0.000000 0.000000 -0.053878 0.000000 0.129021
# 5 0.009655 -0.002524 0.003692 0.000000 0.035094 0.000000
# 6 0.000000 0.000000 0.000000 0.129021 0.000000 0.111680
#
#
# Mechanical properties :
#
#
# Convention : Reuss Voigt Hill
#
# Bulk Modulus (GPa) = 28.36047 44.62336 36.49191
# Shear Modulus (GPa) = 30.72708 21.49298 26.11003
#
# Velocity S-wave (km/s) = 3.82832 3.20181 3.52900
# Velocity P-wave (km/s) = 5.75053 5.91211 5.83188
#
# Compressibility (1/GPa) = 0.03526035
#
# Stress axis : x y z
#
# Youngs Moduli (GPa) = 36.69962 115.32050 93.04773
#
# Poissons Ratio (x) = 0.58442 -0.20827
# Poissons Ratio (y) = 0.18598 0.26741
# Poissons Ratio (z) = -0.08215 0.33142
#
# Static dielectric constant tensor:
#      x y z
#    x 1.799400 0.000000 0.006920 
#    y 0.000000 1.799110 0.000000 
#    z 0.006920 0.000000 1.747080 
# 
# From -- ./inp_files/26941.got.cif
#   From: 2010.05.17/outbox.cif.g08.bks.cpg/sg11_14_cif.got.tgz:26941.got - 2010.06.03 12:22:45.
