data_PCOD9167095
_publ_section_title
;
Structure prediction by ZEFSAII (Michael W. Deem and Ramdas Pophale) SiO2 
 PCOD9167095
Probable space group: P 21/M
;
_chemical_formula_sum "Si O2"
_cell_formula_units_Z 32
_cell_length_a 15.839792
_cell_length_b 21.718245
_cell_length_c 11.230891
_cell_angle_alpha 90.000000
_cell_angle_beta 25.341939
_cell_angle_gamma 90.000000
_cell_volume 1653.681941
_symmetry_space_group_name_H-M "P 21/M"
_symmetry_group_IT_number 11
_symmetry_cell_setting 'monoclinic'
loop_
_space_group_symop_operation_xyz
x,y,z
-x,1/2+y,-z
-x,-y,-z
x,1/2-y,z
loop_
_atom_site_type_symbol
_atom_site_label
_atom_site_fract_x
_atom_site_fract_y
_atom_site_fract_z
Si Si1 0.786192 0.597111 0.002992
Si Si2 0.651584 0.488980 0.039194
Si Si3 0.797341 0.970989 0.399834
Si Si4 0.082237 0.618513 0.413072
Si Si5 0.587251 0.178204 0.608565
Si Si6 0.269572 0.417893 0.274488
Si Si7 0.964325 0.400463 0.089631
Si Si8 0.573171 0.181966 0.913707
O O1 0.971762 0.602382 0.676919
O O2 0.866282 0.615198 0.030043
O O3 0.720360 0.526017 0.068892
O O4 0.603106 0.639678 0.193764
O O5 0.432893 0.464416 0.338274
O O6 0.797640 0.437590 0.800616
O O7 0.647772 0.541425 0.939860
O O8 0.811515 0.963777 0.523151
O O9 0.864415 0.037601 0.269709
O O10 0.931015 0.920120 0.165548
O O11 0.229930 0.672243 0.260710
O O12 0.899008 0.627620 0.558692
O O13 0.565941 0.250000 0.604043
O O14 0.790203 0.148949 0.301557
O O15 0.603823 0.175152 0.731950
O O16 0.434575 0.375128 0.121108
O O17 0.491031 0.250000 0.039252
#
# Coordination Sequence:
#
# PCOD9167095 Si02
#       8
#     4   4   4   4   4   4   4   4
#     4  11  21  37  60  91 121 151 196 243 296 357
#     4  11  20  35  61  91 122 153 186 241 303 363
#     4  11  22  38  64  87 121 161 192 242 302 352
#     4  11  21  34  60  89 118 152 188 241 304 356
#     4  11  23  41  62  87 119 157 202 249 289 342
#     4  11  21  38  59  87 122 155 190 237 305 360
#     4  11  23  41  59  90 120 155 203 246 288 347
#     4  11  22  36  59  87 117 151 197 248 294 345
#
# _framework density 19.350760000000001
#
# number of rings (size 3 to 8) (size 9 to 14) (size 15 to 20)
#    0.000    1.000    6.250    3.375    0.000    2.000 
#    2.250    0.625    0.000    1.500    0.000    0.000 
#    0.000    0.000    0.000    0.000    0.000    0.000 
#
# Total GULP energy -178572.643311 kJ/mol
# GULP energy per Si atom -5580.395103 kJ/mol
# Density = 1.930672 g / cm^3
# Si number density = 19.350760 Si / 1000 Ang^3
#
#
#
# Elastic Constant Matrix: (Units=GPa)
#
#
# Indices 1 2 3 4 5 6 
#
# 1 3.3676 -11.5720 13.6474 0.0000 -13.1474 0.0000
# 2 -11.5720 64.4261 31.6655 0.0000 -3.6035 0.0000
# 3 13.6474 31.6655 81.4594 0.0000 -8.9932 0.0000
# 4 0.0000 0.0000 0.0000 15.5898 0.0000 0.4665
# 5 -13.1474 -3.6035 -8.9932 0.0000 20.8540 0.0000
# 6 0.0000 0.0000 0.0000 0.4665 0.0000 18.6890
#
#
#
# Elastic Compliance Matrix: (Units=1/GPa)
#
#
# Indices 1 2 3 4 5 6 
#
# 1 -0.088905 -0.028898 0.020358 0.000000 -0.052265 0.000000
# 2 -0.028898 0.009795 -0.000830 0.000000 -0.016885 0.000000
# 3 0.020358 -0.000830 0.011118 0.000000 0.017486 0.000000
# 4 0.000000 0.000000 0.000000 0.064192 0.000000 -0.001602
# 5 -0.052265 -0.016885 0.017486 0.000000 0.019625 0.000000
# 6 0.000000 0.000000 0.000000 -0.001602 0.000000 0.053547
#
#
# Mechanical properties :
#
#
# Convention : Reuss Voigt Hill
#
# Bulk Modulus (GPa) = -11.52972 24.08164 6.27596
# Shear Modulus (GPa) = 84.45706 18.72739 51.59222
#
# Velocity S-wave (km/s) = 6.61363 3.11430 5.16909
# Velocity P-wave (km/s) = 7.23526 5.04020 6.23508
#
# Compressibility (1/GPa) = -0.08673240
#
# Stress axis : x y z
#
# Youngs Moduli (GPa) = -11.24791 102.09796 89.94077
#
# Poissons Ratio (x) = 2.95047 -1.83105
# Poissons Ratio (y) = -0.32505 0.07465
# Poissons Ratio (z) = 0.22899 0.08473
#
# Static dielectric constant tensor:
#      x y z
#    x 1.705250 0.000000 -0.024990 
#    y 0.000000 1.673300 0.000000 
#    z -0.024990 0.000000 1.676530 
# 
# From -- ./inp_files/42025.got.cif
#   From: 2010.05.17/outbox.cif.g08.bks.cpg/sg11_22_cif.got.tgz:42025.got - 2010.06.03 12:22:45.
