data_PCOD9167651
_publ_section_title
;
Structure prediction by ZEFSAII (Michael W. Deem and Ramdas Pophale) SiO2 
 PCOD9167651
Probable space group: P 21/M
;
_chemical_formula_sum "Si O2"
_cell_formula_units_Z 24
_cell_length_a 7.399571
_cell_length_b 15.668775
_cell_length_c 13.053242
_cell_angle_alpha 90.000000
_cell_angle_beta 46.470467
_cell_angle_gamma 90.000000
_cell_volume 1097.260237
_symmetry_space_group_name_H-M "P 21/M"
_symmetry_group_IT_number 11
_symmetry_cell_setting 'monoclinic'
loop_
_space_group_symop_operation_xyz
x,y,z
-x,1/2+y,-z
-x,-y,-z
x,1/2-y,z
loop_
_atom_site_type_symbol
_atom_site_label
_atom_site_fract_x
_atom_site_fract_y
_atom_site_fract_z
Si Si1 0.635884 0.080112 0.669769
Si Si2 0.044216 0.654371 0.801303
Si Si3 0.190164 0.115560 0.443808
Si Si4 0.403727 0.841375 0.864266
Si Si5 0.760400 0.982714 0.019635
Si Si6 0.511265 0.102856 0.505530
O O1 0.454271 0.068349 0.835953
O O2 0.478206 0.119074 0.637780
O O3 0.898079 0.127920 0.572772
O O4 0.728373 0.983925 0.604247
O O5 0.938552 0.750000 0.836910
O O6 0.225382 0.652639 0.831919
O O7 0.219258 0.634310 0.636891
O O8 0.856409 0.576329 0.890880
O O9 0.321728 0.156022 0.293494
O O10 0.320989 0.141800 0.498826
O O11 0.358268 0.750000 0.931451
O O12 0.345582 0.922622 0.956916
O O13 0.000000 0.000000 0.000000
O O14 0.500000 0.000000 0.500000
#
# Coordination Sequence:
#
# PCOD9167651 Si02
#       6
#     4   4   4   4   4   4
#     4   9  16  28  49  73  97 126 165 209 251 298
#     4   9  17  30  48  70 101 138 169 205 261 317
#     4   8  15  27  45  71 100 125 160 209 256 302
#     4   8  14  26  46  69  93 129 172 210 255 308
#     4   9  16  28  48  72 100 137 172 208 258 312
#     4   9  16  29  51  73  94 126 165 207 253 300
#
# _framework density 21.87266
#
# number of rings (size 3 to 8) (size 9 to 14) (size 15 to 20)
#    0.000    3.333    0.000    3.000    0.000    0.000 
#    0.000    2.500    0.000   32.000    0.000    0.000 
#    0.000    0.000    0.000    0.000    0.000    0.000 
#
# Total GULP energy -133779.361214 kJ/mol
# GULP energy per Si atom -5574.140051 kJ/mol
# Density = 2.182288 g / cm^3
# Si number density = 21.872660 Si / 1000 Ang^3
#
#
#
# Elastic Constant Matrix: (Units=GPa)
#
#
# Indices 1 2 3 4 5 6 
#
# 1 42.3310 1.1601 1.3504 0.0000 -15.0509 0.0000
# 2 1.1601 123.2900 36.1233 0.0000 0.1670 0.0000
# 3 1.3504 36.1233 52.5721 0.0000 -13.8370 0.0000
# 4 0.0000 0.0000 0.0000 17.3005 0.0000 1.9137
# 5 -15.0509 0.1670 -13.8370 0.0000 24.4483 0.0000
# 6 0.0000 0.0000 0.0000 1.9137 0.0000 -0.7078
#
#
#
# Elastic Compliance Matrix: (Units=1/GPa)
#
#
# Indices 1 2 3 4 5 6 
#
# 1 0.031862 -0.002396 0.007044 0.000000 0.023618 0.000000
# 2 -0.002396 0.010822 -0.009144 0.000000 -0.006724 0.000000
# 3 0.007044 -0.009144 0.030882 0.000000 0.021877 0.000000
# 4 0.000000 0.000000 0.000000 0.044494 0.000000 0.120300
# 5 0.023618 -0.006724 0.021877 0.000000 0.067870 0.000000
# 6 0.000000 0.000000 0.000000 0.120300 0.000000 -1.087527
#
#
# Mechanical properties :
#
#
# Convention : Reuss Voigt Hill
#
# Bulk Modulus (GPa) = 15.48623 32.82895 24.15759
# Shear Modulus (GPa) = -5.73999 20.17881 7.21941
#
# Velocity S-wave (km/s) = -1.62172 3.04066 1.81874
# Velocity P-wave (km/s) = 1.89444 5.23156 3.93434
#
# Compressibility (1/GPa) = 0.06457348
#
# Stress axis : x y z
#
# Youngs Moduli (GPa) = 31.38571 92.40631 32.38166
#
# Poissons Ratio (x) = 0.22137 -0.22809
# Poissons Ratio (y) = 0.07519 0.29610
# Poissons Ratio (z) = -0.22108 0.84497
#
# Static dielectric constant tensor:
#      x y z
#    x 1.868470 0.000000 -0.022600 
#    y 0.000000 1.860510 0.000000 
#    z -0.022600 0.000000 1.745550 
# 
# From -- ./inp_files/32111.got.cif
#   From: 2010.05.17/outbox.cif.g08.bks.cpg/sg11_17_cif.got.tgz:32111.got - 2010.06.03 12:22:45.
