data_PCOD9167413
_publ_section_title
;
Structure prediction by ZEFSAII (Michael W. Deem and Ramdas Pophale) SiO2 
 PCOD9167413
Probable space group: P 21/M
;
_chemical_formula_sum "Si O2"
_cell_formula_units_Z 16
_cell_length_a 13.469237
_cell_length_b 11.716820
_cell_length_c 6.606800
_cell_angle_alpha 90.000000
_cell_angle_beta 136.038041
_cell_angle_gamma 90.000000
_cell_volume 723.796364
_symmetry_space_group_name_H-M "P 21/M"
_symmetry_group_IT_number 11
_symmetry_cell_setting 'monoclinic'
loop_
_space_group_symop_operation_xyz
x,y,z
-x,1/2+y,-z
-x,-y,-z
x,1/2-y,z
loop_
_atom_site_type_symbol
_atom_site_label
_atom_site_fract_x
_atom_site_fract_y
_atom_site_fract_z
Si Si1 0.675162 0.250000 0.649325
Si Si2 0.186606 0.250000 0.020644
Si Si3 0.352139 0.875848 0.771254
Si Si4 0.861173 0.936630 0.380976
Si Si5 0.541875 0.750000 0.300955
Si Si6 0.012747 0.250000 0.141146
O O1 0.638454 0.360808 0.455966
O O2 0.575946 0.250000 0.696128
O O3 0.843778 0.250000 0.936919
O O4 0.308886 0.250000 0.369610
O O5 0.043217 0.250000 0.946189
O O6 0.195306 0.357388 0.883881
O O7 0.283534 0.750000 0.721776
O O8 0.255874 0.974024 0.715731
O O9 0.505957 0.858973 0.104952
O O10 0.914240 0.858227 0.644159
O O11 0.000000 0.000000 0.500000
#
# Coordination Sequence:
#
# PCOD9167413 Si02
#       6
#     2   2   4   4   2   2
#     4   9  18  37  64  86 118 167 204 241 298 360
#     4  11  26  41  60  96 126 155 200 255 306 356
#     4   8  21  37  59  87 117 157 207 244 296 357
#     4  11  23  39  63  90 126 159 201 253 303 359
#     4   9  20  41  62  86 126 159 202 247 300 362
#     4  11  24  39  62  94 124 157 204 253 302 358
#
# _framework density 22.105665999999999
#
# number of rings (size 3 to 8) (size 9 to 14) (size 15 to 20)
#    1.500    0.500    0.000    3.000    3.500   11.000 
#    0.000    2.500    0.000    0.000    0.000    0.000 
#    0.000    0.000    0.000    0.000    0.000    0.000 
#
# Total GULP energy -89311.218498 kJ/mol
# GULP energy per Si atom -5581.951156 kJ/mol
# Density = 2.205535 g / cm^3
# Si number density = 22.105666 Si / 1000 Ang^3
#
#
#
# Elastic Constant Matrix: (Units=GPa)
#
#
# Indices 1 2 3 4 5 6 
#
# 1 81.1134 19.9498 8.0095 0.0000 -6.4101 0.0000
# 2 19.9498 78.8630 15.9044 0.0000 -2.3372 0.0000
# 3 8.0095 15.9044 114.6741 0.0000 8.5938 0.0000
# 4 0.0000 0.0000 0.0000 4.4303 0.0000 4.9347
# 5 -6.4101 -2.3372 8.5938 0.0000 37.0079 0.0000
# 6 0.0000 0.0000 0.0000 4.9347 0.0000 16.2251
#
#
#
# Elastic Compliance Matrix: (Units=1/GPa)
#
#
# Indices 1 2 3 4 5 6 
#
# 1 0.013354 -0.003178 -0.000662 0.000000 0.002266 0.000000
# 2 -0.003178 0.013860 -0.001755 0.000000 0.000732 0.000000
# 3 -0.000662 -0.001755 0.009187 0.000000 -0.002359 0.000000
# 4 0.000000 0.000000 0.000000 0.341359 0.000000 -0.103822
# 5 0.002266 0.000732 -0.002359 0.000000 0.028008 0.000000
# 6 0.000000 0.000000 0.000000 -0.103822 0.000000 0.093210
#
#
# Mechanical properties :
#
#
# Convention : Reuss Voigt Hill
#
# Bulk Modulus (GPa) = 39.66426 40.26421 39.96423
# Shear Modulus (GPa) = 9.64189 26.91845 18.28017
#
# Velocity S-wave (km/s) = 2.09074 3.49337 2.87878
# Velocity P-wave (km/s) = 4.87957 5.87584 5.40073
#
# Compressibility (1/GPa) = 0.02521162
#
# Stress axis : x y z
#
# Youngs Moduli (GPa) = 74.88176 72.15148 108.85186
#
# Poissons Ratio (x) = 0.22927 0.07204
# Poissons Ratio (y) = 0.23794 0.19106
# Poissons Ratio (z) = 0.04956 0.12664
#
# Static dielectric constant tensor:
#      x y z
#    x 1.782440 0.000000 0.003290 
#    y 0.000000 1.882300 0.000000 
#    z 0.003290 0.000000 1.867870 
# 
# From -- ./inp_files/3906.got.cif
#   From: 2010.05.17/outbox.cif.g08.bks.cpg/sg11_2_cif.got.tgz:3906.got - 2010.06.03 12:22:45.
