data_PCOD9167628
_publ_section_title
;
Structure prediction by ZEFSAII (Michael W. Deem and Ramdas Pophale) SiO2 
 PCOD9167628
Probable space group: P 21/M
;
_chemical_formula_sum "Si O2"
_cell_formula_units_Z 32
_cell_length_a 7.028587
_cell_length_b 9.392268
_cell_length_c 22.722076
_cell_angle_alpha 90.000000
_cell_angle_beta 108.568614
_cell_angle_gamma 90.000000
_cell_volume 1421.898934
_symmetry_space_group_name_H-M "P 21/M"
_symmetry_group_IT_number 11
_symmetry_cell_setting 'monoclinic'
loop_
_space_group_symop_operation_xyz
x,y,z
-x,1/2+y,-z
-x,-y,-z
x,1/2-y,z
loop_
_atom_site_type_symbol
_atom_site_label
_atom_site_fract_x
_atom_site_fract_y
_atom_site_fract_z
Si Si1 0.770654 0.588399 0.191693
Si Si2 0.605287 0.582953 0.423612
Si Si3 0.371972 0.915574 0.291720
Si Si4 0.961819 0.584626 0.325633
Si Si5 0.727266 0.912231 0.959026
Si Si6 0.702971 0.087526 0.844855
Si Si7 0.238233 0.912610 0.921315
Si Si8 0.188424 0.582644 0.457450
O O1 0.854494 0.750000 0.198584
O O2 0.532883 0.600786 0.162670
O O3 0.843390 0.498074 0.143399
O O4 0.815009 0.525238 0.260989
O O5 0.654624 0.750000 0.424354
O O6 0.547890 0.528900 0.352186
O O7 0.397220 0.574740 0.440615
O O8 0.767597 0.501953 0.478792
O O9 0.424144 0.750000 0.284287
O O10 0.173209 0.916671 0.311638
O O11 0.308333 0.974836 0.222332
O O12 0.904873 0.750000 0.329477
O O13 0.017889 0.526639 0.395487
O O14 0.797462 0.750000 0.971395
O O15 0.482601 0.908387 0.938145
O O16 0.785494 0.984532 0.903084
O O17 0.794480 0.007006 0.020629
O O18 0.785689 0.250000 0.854628
O O19 0.169131 0.750000 0.915209
O O20 0.153416 0.750000 0.465670
#
# Coordination Sequence:
#
# PCOD9167628 Si02
#       8
#     4   4   4   4   4   4   4   4
#     4   9  16  26  42  63  83 104 133 167 200 236
#     4   8  13  22  37  56  76  99 130 166 199 231
#     4   8  14  25  41  60  82 108 135 163 199 242
#     4   8  14  25  41  60  82 108 135 163 199 242
#     4   9  16  26  41  61  84 108 134 166 202 237
#     4   9  16  26  42  63  83 104 133 167 200 236
#     4   9  16  26  41  61  84 108 134 166 202 237
#     4   8  13  22  37  56  76  99 130 166 199 231
#
# _framework density 22.505116999999998
#
# number of rings (size 3 to 8) (size 9 to 14) (size 15 to 20)
#    0.000    3.500    0.000    2.250    0.000    3.000 
#    0.000    1.250    0.000    3.750    0.000    0.000 
#    0.000    0.000    0.000    0.000    0.000    0.000 
#
# Total GULP energy -178555.693581 kJ/mol
# GULP energy per Si atom -5579.865424 kJ/mol
# Density = 2.245389 g / cm^3
# Si number density = 22.505117 Si / 1000 Ang^3
#
#
#
# Elastic Constant Matrix: (Units=GPa)
#
#
# Indices 1 2 3 4 5 6 
#
# 1 62.2876 6.5400 24.6569 0.0000 -2.1402 0.0000
# 2 6.5400 82.8285 90.3726 0.0000 -2.1784 0.0000
# 3 24.6569 90.3726 225.6555 0.0000 -13.1876 0.0000
# 4 0.0000 0.0000 0.0000 36.0823 0.0000 2.0879
# 5 -2.1402 -2.1784 -13.1876 0.0000 44.9869 0.0000
# 6 0.0000 0.0000 0.0000 2.0879 0.0000 2.5437
#
#
#
# Elastic Compliance Matrix: (Units=1/GPa)
#
#
# Indices 1 2 3 4 5 6 
#
# 1 0.016849 0.001193 -0.002308 0.000000 0.000183 0.000000
# 2 0.001193 0.021628 -0.008880 0.000000 -0.001499 0.000000
# 3 -0.002308 -0.008880 0.008351 0.000000 0.001908 0.000000
# 4 0.000000 0.000000 0.000000 0.029096 0.000000 -0.023883
# 5 0.000183 -0.001499 0.001908 0.000000 0.022724 0.000000
# 6 0.000000 0.000000 0.000000 -0.023883 0.000000 0.412734
#
#
# Mechanical properties :
#
#
# Convention : Reuss Voigt Hill
#
# Bulk Modulus (GPa) = 37.25970 68.21228 52.73599
# Shear Modulus (GPa) = 9.25378 33.33605 21.29492
#
# Velocity S-wave (km/s) = 2.02997 3.85290 3.07942
# Velocity P-wave (km/s) = 4.69962 7.08298 6.01061
#
# Compressibility (1/GPa) = 0.02683865
#
# Stress axis : x y z
#
# Youngs Moduli (GPa) = 59.34974 46.23627 119.73905
#
# Poissons Ratio (x) = -0.05515 0.27637
# Poissons Ratio (y) = -0.07079 1.06325
# Poissons Ratio (z) = 0.13698 0.41057
#
# Static dielectric constant tensor:
#      x y z
#    x 1.958200 0.000000 0.003260 
#    y 0.000000 1.766780 0.000000 
#    z 0.003260 0.000000 1.862180 
# 
# From -- ./inp_files/43656.got.cif
#   From: 2010.05.17/outbox.cif.g08.bks.cpg/sg11_22_cif.got.tgz:43656.got - 2010.06.03 12:22:45.
