data_PCOD9167669
_publ_section_title
;
Structure prediction by ZEFSAII (Michael W. Deem and Ramdas Pophale) SiO2 
 PCOD9167669
Probable space group: P 21/M
;
_chemical_formula_sum "Si O2"
_cell_formula_units_Z 28
_cell_length_a 13.676158
_cell_length_b 17.797623
_cell_length_c 7.895918
_cell_angle_alpha 90.000000
_cell_angle_beta 150.000100
_cell_angle_gamma 90.000000
_cell_volume 960.942571
_symmetry_space_group_name_H-M "P 21/M"
_symmetry_group_IT_number 11
_symmetry_cell_setting 'monoclinic'
loop_
_space_group_symop_operation_xyz
x,y,z
-x,1/2+y,-z
-x,-y,-z
x,1/2-y,z
loop_
_atom_site_type_symbol
_atom_site_label
_atom_site_fract_x
_atom_site_fract_y
_atom_site_fract_z
Si Si1 0.573071 0.331400 0.625507
Si Si2 0.500001 0.840070 0.000002
Si Si3 0.979368 0.168600 0.406299
Si Si4 0.234168 0.054213 0.393720
Si Si5 0.052437 0.831401 0.031804
Si Si6 0.425385 0.054213 0.191216
Si Si7 0.840447 0.054213 0.415063
O O1 0.475090 0.250000 0.486811
O O2 0.740497 0.332396 0.020266
O O3 0.433147 0.401057 0.379358
O O4 0.720231 0.332396 0.680958
O O5 0.500000 0.750000 1.000000
O O6 0.596691 0.879455 0.980983
O O7 0.287602 0.879455 0.690912
O O8 0.615709 0.879455 0.328109
O O9 0.036635 0.250000 0.561547
O O10 0.039273 0.167604 0.298778
O O11 0.013065 0.098943 0.579920
O O12 0.053788 0.098943 0.040723
O O13 0.362375 0.987505 0.506501
O O14 0.144125 0.012495 0.425875
O O15 0.011723 0.750000 0.048355
O O16 0.281749 0.987505 0.919373
#
# Coordination Sequence:
#
# PCOD9167669 Si02
#       7
#     4   4   4   4   4   4   4
#     4   8  16  29  43  59  78 106 139 164 189 231
#     4   9  16  26  43  60  82 110 130 159 199 239
#     4   8  16  29  43  59  78 106 139 164 189 231
#     4   9  17  27  40  63  86 102 128 165 203 238
#     4   8  16  29  43  59  78 106 139 164 189 231
#     4   9  17  27  40  63  86 102 128 165 203 238
#     4   9  17  27  40  63  86 102 128 165 203 238
#
# _framework density 29.138057
#
# number of rings (size 3 to 8) (size 9 to 14) (size 15 to 20)
#    0.857    2.571    0.000    3.000    0.000    1.714 
#    0.000    0.000    0.000    0.000    0.000    0.000 
#    0.000    0.000    0.000    0.000    0.000    0.000 
#
# Total GULP energy -156473.734501 kJ/mol
# GULP energy per Si atom -5588.347661 kJ/mol
# Density = 2.907174 g / cm^3
# Si number density = 29.138057 Si / 1000 Ang^3
#
#
#
# Elastic Constant Matrix: (Units=GPa)
#
#
# Indices 1 2 3 4 5 6 
#
# 1 64.0283 30.9515 -7.5867 0.0000 -0.0015 0.0000
# 2 30.9515 271.1267 30.9556 0.0000 -0.0007 0.0000
# 3 -7.5867 30.9556 64.0405 0.0000 -0.0009 0.0000
# 4 0.0000 0.0000 0.0000 42.5164 0.0000 0.0000
# 5 -0.0015 -0.0007 -0.0009 0.0000 35.8080 0.0000
# 6 0.0000 0.0000 0.0000 0.0000 0.0000 42.5156
#
#
#
# Elastic Compliance Matrix: (Units=1/GPa)
#
#
# Indices 1 2 3 4 5 6 
#
# 1 0.017108 -0.002312 0.003144 0.000000 0.000001 0.000000
# 2 -0.002312 0.004216 -0.002312 0.000000 0.000000 0.000000
# 3 0.003144 -0.002312 0.017105 0.000000 0.000001 0.000000
# 4 0.000000 0.000000 0.000000 0.023520 0.000000 0.000000
# 5 0.000001 0.000000 0.000001 0.000000 0.027927 0.000000
# 6 0.000000 0.000000 0.000000 0.000000 0.000000 0.023521
#
#
# Mechanical properties :
#
#
# Convention : Reuss Voigt Hill
#
# Bulk Modulus (GPa) = 28.19246 56.42625 42.30935
# Shear Modulus (GPa) = 39.00757 47.15968 43.08363
#
# Velocity S-wave (km/s) = 3.66282 4.02741 3.84943
# Velocity P-wave (km/s) = 5.25212 6.40577 5.85742
#
# Compressibility (1/GPa) = 0.03547048
#
# Stress axis : x y z
#
# Youngs Moduli (GPa) = 58.45102 237.17941 58.46195
#
# Poissons Ratio (x) = 0.54838 -0.18383
# Poissons Ratio (y) = 0.13514 0.13516
# Poissons Ratio (z) = -0.18379 0.54834
#
# Static dielectric constant tensor:
#      x y z
#    x 2.345880 0.000000 0.000000 
#    y 0.000000 2.107360 0.000000 
#    z 0.000000 0.000000 2.345900 
# 
# From -- ./inp_files/43469.got.cif
#   From: 2010.05.17/outbox.cif.g08.bks.cpg/sg11_22_cif.got.tgz:43469.got - 2010.06.03 12:22:45.
