data_PCOD9167492
_publ_section_title
;
Structure prediction by ZEFSAII (Michael W. Deem and Ramdas Pophale) SiO2 
 PCOD9167492
Probable space group: P 21/M
;
_chemical_formula_sum "Si O2"
_cell_formula_units_Z 16
_cell_length_a 10.745328
_cell_length_b 10.935452
_cell_length_c 7.395365
_cell_angle_alpha 90.000000
_cell_angle_beta 50.552194
_cell_angle_gamma 90.000000
_cell_volume 671.039228
_symmetry_space_group_name_H-M "P 21/M"
_symmetry_group_IT_number 11
_symmetry_cell_setting 'monoclinic'
loop_
_space_group_symop_operation_xyz
x,y,z
-x,1/2+y,-z
-x,-y,-z
x,1/2-y,z
loop_
_atom_site_type_symbol
_atom_site_label
_atom_site_fract_x
_atom_site_fract_y
_atom_site_fract_z
Si Si1 0.845607 0.381055 0.010736
Si Si2 0.578476 0.388934 0.537916
Si Si3 0.058867 0.117366 0.266556
Si Si4 0.728566 0.054496 0.762971
O O1 0.930453 0.250000 0.911511
O O2 0.755852 0.383172 0.283643
O O3 0.939865 0.503716 0.872655
O O4 0.707282 0.387240 0.980194
O O5 0.500000 0.500000 0.500000
O O6 0.510658 0.250000 0.582634
O O7 0.598042 0.422149 0.731062
O O8 0.079252 0.250000 0.165086
O O9 0.896547 0.112408 0.533111
O O10 0.212546 0.083825 0.251742
#
# Coordination Sequence:
#
# PCOD9167492 Si02
#       4
#     4   4   4   4
#     4   9  19  36  58  82 111 146 180 221 283 330
#     4  11  24  40  57  80 109 150 191 227 273 324
#     4   9  18  34  60  88 112 142 181 221 275 333
#     4   9  20  36  60  79 119 144 175 224 281 323
#
# _framework density 23.843613999999999
#
# number of rings (size 3 to 8) (size 9 to 14) (size 15 to 20)
#    1.500    1.000    0.000    2.250    0.000    4.000 
#    0.000    0.000    0.000    0.000    0.000    0.000 
#    0.000    0.000    0.000    0.000    0.000    0.000 
#
# Total GULP energy -89112.100292 kJ/mol
# GULP energy per Si atom -5569.506268 kJ/mol
# Density = 2.378934 g / cm^3
# Si number density = 23.843614 Si / 1000 Ang^3
#
#
#
# Elastic Constant Matrix: (Units=GPa)
#
#
# Indices 1 2 3 4 5 6 
#
# 1 109.4230 44.0293 4.8212 0.0000 32.0555 0.0000
# 2 44.0293 216.7750 5.5390 0.0000 -7.7176 0.0000
# 3 4.8212 5.5390 51.4402 0.0000 16.0449 0.0000
# 4 0.0000 0.0000 0.0000 19.4874 0.0000 -3.1510
# 5 32.0555 -7.7176 16.0449 0.0000 41.9864 0.0000
# 6 0.0000 0.0000 0.0000 -3.1510 0.0000 2.1312
#
#
#
# Elastic Compliance Matrix: (Units=1/GPa)
#
#
# Indices 1 2 3 4 5 6 
#
# 1 0.014003 -0.003361 0.002926 0.000000 -0.012427 0.000000
# 2 -0.003361 0.005485 -0.001579 0.000000 0.004178 0.000000
# 3 0.002926 -0.001579 0.022846 0.000000 -0.011254 0.000000
# 4 0.000000 0.000000 0.000000 0.067438 0.000000 0.099709
# 5 -0.012427 0.004178 -0.011254 0.000000 0.038373 0.000000
# 6 0.000000 0.000000 0.000000 0.099709 0.000000 0.616640
#
#
# Mechanical properties :
#
#
# Convention : Reuss Voigt Hill
#
# Bulk Modulus (GPa) = 26.10613 54.04635 40.07624
# Shear Modulus (GPa) = 6.39728 34.27092 20.33410
#
# Velocity S-wave (km/s) = 1.63977 3.79531 2.92346
# Velocity P-wave (km/s) = 3.81547 6.47473 5.31413
#
# Compressibility (1/GPa) = 0.03830518
#
# Stress axis : x y z
#
# Youngs Moduli (GPa) = 71.41415 182.32002 43.77089
#
# Poissons Ratio (x) = 0.61283 -0.12805
# Poissons Ratio (y) = 0.24004 0.06910
# Poissons Ratio (z) = -0.20893 0.28782
#
# Static dielectric constant tensor:
#      x y z
#    x 2.051580 0.000000 0.007430 
#    y 0.000000 1.945790 0.000000 
#    z 0.007430 0.000000 1.875430 
# 
# From -- ./inp_files/16494.got.cif
#   From: 2010.05.17/outbox.cif.g08.bks.cpg/sg11_9_cif.got.tgz:16494.got - 2010.06.03 12:22:45.
