data_PCOD9167566
_publ_section_title
;
Structure prediction by ZEFSAII (Michael W. Deem and Ramdas Pophale) SiO2 
 PCOD9167566
Probable space group: P 21/M
;
_chemical_formula_sum "Si O2"
_cell_formula_units_Z 32
_cell_length_a 14.354644
_cell_length_b 13.696348
_cell_length_c 19.621706
_cell_angle_alpha 90.000000
_cell_angle_beta 154.166963
_cell_angle_gamma 90.000000
_cell_volume 1681.014744
_symmetry_space_group_name_H-M "P 21/M"
_symmetry_group_IT_number 11
_symmetry_cell_setting 'monoclinic'
loop_
_space_group_symop_operation_xyz
x,y,z
-x,1/2+y,-z
-x,-y,-z
x,1/2-y,z
loop_
_atom_site_type_symbol
_atom_site_label
_atom_site_fract_x
_atom_site_fract_y
_atom_site_fract_z
Si Si1 0.849551 0.363596 0.129377
Si Si2 0.599838 0.641547 0.786758
Si Si3 0.729303 0.361651 0.208658
Si Si4 0.332788 0.363337 0.481645
Si Si5 0.323913 0.502064 0.267047
Si Si6 0.980537 0.138137 0.016335
Si Si7 0.497529 0.497169 0.156127
Si Si8 0.222392 0.138897 0.569456
O O1 0.827515 0.250000 0.094284
O O2 0.761826 0.370653 0.149106
O O3 0.101059 0.386729 0.298695
O O4 0.707776 0.435165 0.991265
O O5 0.512380 0.750000 0.725303
O O6 0.854410 0.645284 0.938886
O O7 0.525862 0.573055 0.675811
O O8 0.555221 0.590380 0.827553
O O9 0.653554 0.250000 0.172519
O O10 0.584022 0.445558 0.145077
O O11 0.966279 0.370866 0.397063
O O12 0.380431 0.250000 0.498120
O O13 0.527051 0.432736 0.587777
O O14 0.304080 0.372074 0.545120
O O15 0.219053 0.577351 0.142790
O O16 0.126922 0.432266 0.160681
O O17 0.939299 0.250000 0.011426
O O18 0.672073 0.563698 0.309359
O O19 0.274550 0.250000 0.624660
#
# Coordination Sequence:
#
# PCOD9167566 Si02
#       8
#     4   4   4   4   4   4   4   4
#     4   9  20  34  46  65  95 123 159 201 231 265
#     4   9  18  29  43  69 100 121 148 191 233 275
#     4   9  19  33  47  64  89 125 159 193 233 278
#     4   9  16  29  47  69  94 124 156 190 229 276
#     4   9  14  27  48  70  94 125 156 181 227 283
#     4   8  15  26  43  72 100 120 149 191 231 270
#     4  12  18  29  49  70  90 126 159 188 236 280
#     4   9  17  29  45  69  95 114 151 200 238 271
#
# _framework density 19.03612
#
# number of rings (size 3 to 8) (size 9 to 14) (size 15 to 20)
#    0.750    2.000    1.250    3.375    0.000    0.000 
#    0.000    0.000    0.000    3.750    0.000    0.000 
#    0.000    0.000    0.000    0.000    0.000    0.000 
#
# Total GULP energy -178191.215367 kJ/mol
# GULP energy per Si atom -5568.475480 kJ/mol
# Density = 1.899279 g / cm^3
# Si number density = 19.036120 Si / 1000 Ang^3
#
#
#
# Elastic Constant Matrix: (Units=GPa)
#
#
# Indices 1 2 3 4 5 6 
#
# 1 35.4989 11.0369 -2.6183 0.0000 -3.8399 0.0000
# 2 11.0369 116.6828 40.1941 0.0000 1.3986 0.0000
# 3 -2.6183 40.1941 44.8594 0.0000 7.1399 0.0000
# 4 0.0000 0.0000 0.0000 24.6791 0.0000 2.5513
# 5 -3.8399 1.3986 7.1399 0.0000 13.7213 0.0000
# 6 0.0000 0.0000 0.0000 2.5513 0.0000 18.9554
#
#
#
# Elastic Compliance Matrix: (Units=1/GPa)
#
#
# Indices 1 2 3 4 5 6 
#
# 1 0.030696 -0.004690 0.004962 0.000000 0.006486 0.000000
# 2 -0.004690 0.013426 -0.012949 0.000000 0.004057 0.000000
# 3 0.004962 -0.012949 0.036801 0.000000 -0.016441 0.000000
# 4 0.000000 0.000000 0.000000 0.041092 0.000000 -0.005531
# 5 0.006486 0.004057 -0.016441 0.000000 0.082836 0.000000
# 6 0.000000 0.000000 0.000000 -0.005531 0.000000 0.053500
#
#
# Mechanical properties :
#
#
# Convention : Reuss Voigt Hill
#
# Bulk Modulus (GPa) = 17.99632 32.69627 25.34630
# Shear Modulus (GPa) = 16.54382 21.36640 18.95511
#
# Velocity S-wave (km/s) = 2.95121 3.35388 3.15897
# Velocity P-wave (km/s) = 4.59207 5.67549 5.16228
#
# Compressibility (1/GPa) = 0.05556690
#
# Stress axis : x y z
#
# Youngs Moduli (GPa) = 32.57775 74.48304 27.17350
#
# Poissons Ratio (x) = 0.34936 -0.13483
# Poissons Ratio (y) = 0.15280 0.35187
# Poissons Ratio (z) = -0.16165 0.96449
#
# Static dielectric constant tensor:
#      x y z
#    x 1.679900 0.000000 0.007790 
#    y 0.000000 1.680720 0.000000 
#    z 0.007790 0.000000 1.643020 
# 
# From -- ./inp_files/69645.got.cif
#   From: 2010.05.17/outbox.cif.g08.bks.cpg/sg11_35_cif.got.tgz:69645.got - 2010.06.03 12:22:45.
