data_PCOD9167186
_publ_section_title
;
Structure prediction by ZEFSAII (Michael W. Deem and Ramdas Pophale) SiO2 
 PCOD9167186
Probable space group: P 21/M
;
_chemical_formula_sum "Si O2"
_cell_formula_units_Z 28
_cell_length_a 9.797522
_cell_length_b 7.762553
_cell_length_c 27.770316
_cell_angle_alpha 90.000000
_cell_angle_beta 37.323279
_cell_angle_gamma 90.000000
_cell_volume 1280.552791
_symmetry_space_group_name_H-M "P 21/M"
_symmetry_group_IT_number 11
_symmetry_cell_setting 'monoclinic'
loop_
_space_group_symop_operation_xyz
x,y,z
-x,1/2+y,-z
-x,-y,-z
x,1/2-y,z
loop_
_atom_site_type_symbol
_atom_site_label
_atom_site_fract_x
_atom_site_fract_y
_atom_site_fract_z
Si Si1 0.968199 0.050994 0.900138
Si Si2 0.857214 0.041898 0.311731
Si Si3 0.600002 0.542690 0.524751
Si Si4 0.321573 0.053412 0.934435
Si Si5 0.244598 0.449234 0.133502
Si Si6 0.057680 0.543705 0.360498
Si Si7 0.444889 0.038465 0.793006
O O1 0.967724 0.250000 0.886421
O O2 0.223099 0.983465 0.826455
O O3 0.802521 0.959523 0.909687
O O4 0.874874 0.037187 0.980540
O O5 0.848816 0.250000 0.313163
O O6 0.598096 0.978856 0.384482
O O7 0.019357 0.985431 0.223428
O O8 0.974531 0.989776 0.329142
O O9 0.500000 0.500000 0.500000
O O10 0.611675 0.750000 0.526123
O O11 0.856694 0.476447 0.451344
O O12 0.250231 0.250000 0.947340
O O13 0.400755 0.983480 0.860618
O O14 0.541008 0.047318 0.906794
O O15 0.281692 0.250000 0.136539
O O16 0.067065 0.750000 0.364234
O O17 0.312331 0.477630 0.293516
O O18 0.448540 0.250000 0.792048
#
# Coordination Sequence:
#
# PCOD9167186 Si02
#       7
#     4   4   4   4   4   4   4
#     4  11  23  38  53  73 102 135 171 210 254 301
#     4   9  17  29  46  73 104 131 163 203 246 292
#     4   8  14  24  43  71 101 129 157 197 245 291
#     4  11  21  37  58  78 100 127 167 214 259 304
#     4  11  22  36  53  75 104 137 172 208 249 299
#     4   9  15  28  50  75 101 129 163 201 247 297
#     4   9  19  34  54  78 103 131 167 209 250 301
#
# _framework density 21.865556999999999
#
# number of rings (size 3 to 8) (size 9 to 14) (size 15 to 20)
#    0.000    2.286    1.429    2.143    0.000    0.571 
#    0.000    3.571    0.000    0.857    0.000    0.000 
#    0.000    0.000    0.000    0.000    0.000    0.286 
#
# Total GULP energy -156223.712188 kJ/mol
# GULP energy per Si atom -5579.418292 kJ/mol
# Density = 2.181579 g / cm^3
# Si number density = 21.865557 Si / 1000 Ang^3
#
#
#
# Elastic Constant Matrix: (Units=GPa)
#
#
# Indices 1 2 3 4 5 6 
#
# 1 49.2609 0.6017 7.1139 0.0000 -20.1209 0.0000
# 2 0.6017 39.2032 7.1176 0.0000 -2.4329 0.0000
# 3 7.1139 7.1176 115.7812 0.0000 -31.2628 0.0000
# 4 0.0000 0.0000 0.0000 9.4408 0.0000 1.4799
# 5 -20.1209 -2.4329 -31.2628 0.0000 27.7583 0.0000
# 6 0.0000 0.0000 0.0000 1.4799 0.0000 7.7564
#
#
#
# Elastic Compliance Matrix: (Units=1/GPa)
#
#
# Indices 1 2 3 4 5 6 
#
# 1 0.031572 0.000258 0.006078 0.000000 0.029754 0.000000
# 2 0.000258 0.025807 -0.001352 0.000000 0.000926 0.000000
# 3 0.006078 -0.001352 0.013658 0.000000 0.019669 0.000000
# 4 0.000000 0.000000 0.000000 0.109189 0.000000 -0.020833
# 5 0.029754 0.000926 0.019669 0.000000 0.079827 0.000000
# 6 0.000000 0.000000 0.000000 -0.020833 0.000000 0.132900
#
#
# Mechanical properties :
#
#
# Convention : Reuss Voigt Hill
#
# Bulk Modulus (GPa) = 12.34480 25.99022 19.16751
# Shear Modulus (GPa) = 12.19553 21.61857 16.90705
#
# Velocity S-wave (km/s) = 2.36424 3.14778 2.78371
# Velocity P-wave (km/s) = 3.62089 5.01234 4.37232
#
# Compressibility (1/GPa) = 0.08100577
#
# Stress axis : x y z
#
# Youngs Moduli (GPa) = 31.67328 38.74893 73.21887
#
# Poissons Ratio (x) = -0.01001 -0.44504
# Poissons Ratio (y) = -0.00818 0.09901
# Poissons Ratio (z) = -0.19252 0.05240
#
# Static dielectric constant tensor:
#      x y z
#    x 1.761130 0.000000 -0.031740 
#    y 0.000000 1.738080 0.000000 
#    z -0.031740 0.000000 1.861110 
# 
# From -- ./inp_files/70834.got.cif
#   From: 2010.05.17/outbox.cif.g08.bks.cpg/sg11_36_cif.got.tgz:70834.got - 2010.06.03 12:22:45.
