data_PCOD9167771
_publ_section_title
;
Structure prediction by ZEFSAII (Michael W. Deem and Ramdas Pophale) SiO2 
 PCOD9167771
Probable space group: P 21/M
;
_chemical_formula_sum "Si O2"
_cell_formula_units_Z 28
_cell_length_a 18.000000
_cell_length_b 9.000000
_cell_length_c 15.000000
_cell_angle_alpha 90.000000
_cell_angle_beta 40.000000
_cell_angle_gamma 90.000000
_cell_volume 1561.973892
_symmetry_space_group_name_H-M "P 21/M"
_symmetry_group_IT_number 11
_symmetry_cell_setting 'monoclinic'
loop_
_space_group_symop_operation_xyz
x,y,z
-x,1/2+y,-z
-x,-y,-z
x,1/2-y,z
loop_
_atom_site_type_symbol
_atom_site_label
_atom_site_fract_x
_atom_site_fract_y
_atom_site_fract_z
Si Si1 0.627833 0.927144 0.697861
Si Si2 0.156733 0.429095 0.608610
Si Si3 0.964821 0.083200 0.653185
Si Si4 0.990174 0.424797 0.104427
Si Si5 0.616951 0.926420 0.065305
Si Si6 0.761061 0.574091 0.756416
Si Si7 0.184649 0.583299 0.027880
O O1 0.601045 0.750000 0.724302
O O2 0.710891 0.956459 0.537561
O O3 0.701764 0.961418 0.718064
O O4 0.513941 0.023603 0.806968
O O5 0.138673 0.250000 0.630935
O O6 0.078923 0.480892 0.595380
O O7 0.107884 0.503624 0.742098
O O8 0.990194 0.250000 0.598382
O O9 0.886304 0.997851 0.655120
O O10 0.879587 0.092071 0.817610
O O11 0.973336 0.250000 0.113258
O O12 0.110177 0.467110 0.041399
O O13 0.000000 0.500000 0.000000
O O14 0.630899 0.750000 0.064879
O O15 0.689709 0.019697 0.069732
O O16 0.672555 0.965501 0.917727
O O17 0.777016 0.750000 0.746897
O O18 0.183112 0.750000 0.990956
#
# Coordination Sequence:
#
# PCOD9167771 Si02
#       7
#     4   4   4   4   4   4   4
#     4  10  20  33  48  67  98 140 179 215 256 299
#     4   9  19  35  51  71 101 135 170 207 253 307
#     4   8  15  28  46  67  94 128 165 209 256 299
#     4  11  21  35  58  85 108 128 156 197 246 301
#     4  10  19  31  48  72 102 135 177 221 254 291
#     4   9  18  30  45  68  97 132 176 221 258 293
#     4   9  17  32  53  76 102 132 166 203 248 297
#
# _framework density 17.926036
#
# number of rings (size 3 to 8) (size 9 to 14) (size 15 to 20)
#    0.000    2.571    0.000    3.429    0.000    5.714 
#    0.000    0.000    0.000    0.857    0.000    0.000 
#    0.000    0.000    0.000    0.000    0.000    0.000 
#
# Total GULP energy -156067.050060 kJ/mol
# GULP energy per Si atom -5573.823216 kJ/mol
# Density = 1.788524 g / cm^3
# Si number density = 17.926036 Si / 1000 Ang^3
#
#
#
# Elastic Constant Matrix: (Units=GPa)
#
#
# Indices 1 2 3 4 5 6 
#
# 1 23.5748 22.1601 35.7552 0.0000 5.4900 0.0000
# 2 22.1601 45.5308 43.6331 0.0000 -4.5972 0.0000
# 3 35.7552 43.6331 97.9209 0.0000 -10.4942 0.0000
# 4 0.0000 0.0000 0.0000 18.5030 0.0000 -2.3918
# 5 5.4900 -4.5972 -10.4942 0.0000 17.2795 0.0000
# 6 0.0000 0.0000 0.0000 -2.3918 0.0000 27.2957
#
#
#
# Elastic Compliance Matrix: (Units=1/GPa)
#
#
# Indices 1 2 3 4 5 6 
#
# 1 0.272114 -0.064484 -0.087421 0.000000 -0.156703 0.000000
# 2 -0.064484 0.053614 0.003616 0.000000 0.036947 0.000000
# 3 -0.087421 0.003616 0.046637 0.000000 0.057061 0.000000
# 4 0.000000 0.000000 0.000000 0.054664 0.000000 0.004790
# 5 -0.156703 0.036947 0.057061 0.000000 0.152143 0.000000
# 6 0.000000 0.000000 0.000000 0.004790 0.000000 0.037056
#
#
# Mechanical properties :
#
#
# Convention : Reuss Voigt Hill
#
# Bulk Modulus (GPa) = 13.19498 41.12482 27.15990
# Shear Modulus (GPa) = 5.33010 16.98084 11.15547
#
# Velocity S-wave (km/s) = 1.72622 3.08112 2.49731
# Velocity P-wave (km/s) = 3.36896 5.97067 4.84762
#
# Compressibility (1/GPa) = 0.07578641
#
# Stress axis : x y z
#
# Youngs Moduli (GPa) = 3.67493 18.65199 21.44198
#
# Poissons Ratio (x) = 1.20276 1.87447
# Poissons Ratio (y) = 0.23698 -0.07753
# Poissons Ratio (z) = 0.32126 -0.06744
#
# Static dielectric constant tensor:
#      x y z
#    x 1.655200 0.000000 0.006700 
#    y 0.000000 1.613480 0.000000 
#    z 0.006700 0.000000 1.619640 
# 
# From -- ./inp_files/53191.got.cif
#   From: 2010.05.17/outbox.ucp.g08.bks.cvg/sg11_27_cif.got.tgz:53191.got - 2010.06.11 11:38:39.
