data_PCOD9167696
_publ_section_title
;
Structure prediction by ZEFSAII (Michael W. Deem and Ramdas Pophale) SiO2 
 PCOD9167696
Probable space group: P 21/M
;
_chemical_formula_sum "Si O2"
_cell_formula_units_Z 32
_cell_length_a 15.000000
_cell_length_b 15.000000
_cell_length_c 21.000000
_cell_angle_alpha 90.000000
_cell_angle_beta 20.000000
_cell_angle_gamma 90.000000
_cell_volume 1616.045177
_symmetry_space_group_name_H-M "P 21/M"
_symmetry_group_IT_number 11
_symmetry_cell_setting 'monoclinic'
loop_
_space_group_symop_operation_xyz
x,y,z
-x,1/2+y,-z
-x,-y,-z
x,1/2-y,z
loop_
_atom_site_type_symbol
_atom_site_label
_atom_site_fract_x
_atom_site_fract_y
_atom_site_fract_z
Si Si1 0.405897 0.489338 0.257904
Si Si2 0.390517 0.147786 0.643917
Si Si3 0.936953 0.050249 0.872876
Si Si4 0.834416 0.621249 0.769217
Si Si5 0.129109 0.938979 0.322276
Si Si6 0.425702 0.848669 0.338599
Si Si7 0.749760 0.347124 0.878877
Si Si8 0.002395 0.349304 0.198461
O O1 0.340805 0.532493 0.232775
O O2 0.459408 0.572447 0.267313
O O3 0.145247 0.440892 0.457338
O O4 0.654735 0.425640 0.091373
O O5 0.300689 0.250000 0.698943
O O6 0.429807 0.127287 0.692415
O O7 0.689425 0.145121 0.419245
O O8 0.187061 0.088291 0.741471
O O9 0.900540 0.085790 0.825139
O O10 0.939821 0.942736 0.873749
O O11 0.856924 0.517106 0.739480
O O12 0.844447 0.645083 0.836778
O O13 0.111819 0.656946 0.558557
O O14 0.566969 0.646291 0.912987
O O15 0.172823 0.855994 0.247476
O O16 0.512499 0.750000 0.260708
O O17 0.818681 0.250000 0.857497
O O18 0.054515 0.250000 0.136690
#
# Coordination Sequence:
#
# PCOD9167696 Si02
#       8
#     4   4   4   4   4   4   4   4
#     4  10  22  35  59  82 118 159 191 238 299 347
#     4   9  20  39  60  85 114 151 201 246 290 348
#     4  12  22  37  59  91 121 158 190 241 295 357
#     4  10  17  35  58  83 114 147 194 243 287 341
#     4  10  20  39  54  82 122 157 192 236 294 356
#     4   9  19  36  59  84 112 152 202 247 288 343
#     4  12  23  35  58  89 121 156 195 240 294 356
#     4  10  20  35  59  88 115 147 193 248 293 335
#
# _framework density 19.801427
#
# number of rings (size 3 to 8) (size 9 to 14) (size 15 to 20)
#    0.000    1.750    2.500    3.750    0.000    1.500 
#    0.000    1.250    0.000    0.000    0.000    0.000 
#    0.000    0.000    0.000    0.000    0.000    0.000 
#
# Total GULP energy -178164.300168 kJ/mol
# GULP energy per Si atom -5567.634380 kJ/mol
# Density = 1.975636 g / cm^3
# Si number density = 19.801427 Si / 1000 Ang^3
#
#
#
# Elastic Constant Matrix: (Units=GPa)
#
#
# Indices 1 2 3 4 5 6 
#
# 1 91.2563 30.9023 48.9327 0.0000 -20.5294 0.0000
# 2 30.9023 75.0686 22.8886 0.0000 -2.2662 0.0000
# 3 48.9327 22.8886 68.1355 0.0000 -9.3821 0.0000
# 4 0.0000 0.0000 0.0000 -112.2192 0.0000 -77.1754
# 5 -20.5294 -2.2662 -9.3821 0.0000 26.8553 0.0000
# 6 0.0000 0.0000 0.0000 -77.1754 0.0000 -42.5066
#
#
#
# Elastic Compliance Matrix: (Units=1/GPa)
#
#
# Indices 1 2 3 4 5 6 
#
# 1 0.022046 -0.004891 -0.012529 0.000000 0.012063 0.000000
# 2 -0.004891 0.015933 -0.002279 0.000000 -0.003191 0.000000
# 3 -0.012529 -0.002279 0.024262 0.000000 -0.001294 0.000000
# 4 0.000000 0.000000 0.000000 0.035841 0.000000 -0.065073
# 5 0.012063 -0.003191 -0.001294 0.000000 0.045737 0.000000
# 6 0.000000 0.000000 0.000000 -0.065073 0.000000 0.094621
#
#
# Mechanical properties :
#
#
# Convention : Reuss Voigt Hill
#
# Bulk Modulus (GPa) = 43.77648 48.87860 46.32754
# Shear Modulus (GPa) = 17.51603 -16.79165 0.36219
#
# Velocity S-wave (km/s) = 2.97742 -2.91521 0.42815
# Velocity P-wave (km/s) = 5.82888 3.66152 4.86737
#
# Compressibility (1/GPa) = 0.02284332
#
# Stress axis : x y z
#
# Youngs Moduli (GPa) = 45.35885 62.76194 41.21699
#
# Poissons Ratio (x) = 0.30698 0.51640
# Poissons Ratio (y) = 0.22186 0.09394
# Poissons Ratio (z) = 0.56829 0.14304
#
# Static dielectric constant tensor:
#      x y z
#    x 1.656780 0.000000 0.041340 
#    y 0.000000 1.753200 0.000000 
#    z 0.041340 0.000000 1.745420 
# 
# From -- ./inp_files/65725.got.cif
#   From: 2010.05.17/outbox.ucp.g08.bks.cvg/sg11_33_cif.got.tgz:65725.got - 2010.06.11 11:38:39.
