data_PCOD9167151
_publ_section_title
;
Structure prediction by ZEFSAII (Michael W. Deem and Ramdas Pophale) SiO2 
 PCOD9167151
Probable space group: P 21/M
;
_chemical_formula_sum "Si O2"
_cell_formula_units_Z 32
_cell_length_a 27.202040
_cell_length_b 8.569741
_cell_length_c 21.698818
_cell_angle_alpha 90.000000
_cell_angle_beta 159.030255
_cell_angle_gamma 90.000000
_cell_volume 1810.241497
_symmetry_space_group_name_H-M "P 21/M"
_symmetry_group_IT_number 11
_symmetry_cell_setting 'monoclinic'
loop_
_space_group_symop_operation_xyz
x,y,z
-x,1/2+y,-z
-x,-y,-z
x,1/2-y,z
loop_
_atom_site_type_symbol
_atom_site_label
_atom_site_fract_x
_atom_site_fract_y
_atom_site_fract_z
Si Si1 0.986726 0.060416 0.667390
Si Si2 0.407258 0.564229 0.447199
Si Si3 0.283765 0.060952 0.966191
Si Si4 0.395014 0.564381 0.222372
Si Si5 0.109155 0.061265 0.938628
Si Si6 0.896930 0.936746 0.930121
Si Si7 0.594176 0.938477 0.021980
Si Si8 0.701107 0.061345 0.274868
O O1 0.983162 0.250000 0.661706
O O2 0.844060 0.004826 0.471433
O O3 0.010955 0.014863 0.767019
O O4 0.125082 0.013330 0.792739
O O5 0.500000 0.500000 0.500000
O O6 0.405891 0.750000 0.442680
O O7 0.476749 0.509337 0.592056
O O8 0.254998 0.498987 0.261074
O O9 0.288107 0.250000 0.974340
O O10 0.342223 0.010973 0.968600
O O11 0.372587 0.995318 0.126696
O O12 0.404748 0.750000 0.235152
O O13 0.258121 0.509878 0.098495
O O14 0.123259 0.250000 0.953052
O O15 0.063609 0.016235 0.953708
O O16 0.895527 0.750000 0.926399
O O17 0.000000 0.000000 0.000000
O O18 0.598696 0.750000 0.028951
O O19 0.435094 0.986114 0.846251
O O20 0.677809 0.002166 0.178295
O O21 0.703642 0.250000 0.276948
#
# Coordination Sequence:
#
# PCOD9167151 Si02
#       8
#     4   4   4   4   4   4   4   4
#     4   8  15  30  52  74  97 130 175 215 255 312
#     4  12  23  38  61  86 111 146 190 234 278 333
#     4   9  18  34  52  73 103 138 172 216 265 314
#     4  11  21  34  56  84 111 140 180 227 276 329
#     4   9  18  35  57  77 106 146 183 222 273 329
#     4  11  23  39  58  83 116 151 188 234 284 334
#     4   9  18  32  50  73 102 135 171 211 259 314
#     4   9  17  31  51  73  99 134 173 211 255 313
#
# _framework density 17.677199999999999
#
# number of rings (size 3 to 8) (size 9 to 14) (size 15 to 20)
#    0.000    2.250    1.250    3.375    0.000    1.500 
#    2.250    2.500    0.000    0.000    0.000    0.000 
#    0.000    0.000    0.000    0.000    0.000    0.000 
#
# Total GULP energy -178541.177265 kJ/mol
# GULP energy per Si atom -5579.411790 kJ/mol
# Density = 1.763697 g / cm^3
# Si number density = 17.677200 Si / 1000 Ang^3
#
#
#
# Elastic Constant Matrix: (Units=GPa)
#
#
# Indices 1 2 3 4 5 6 
#
# 1 185.6082 39.5081 100.1032 0.0000 -8.9318 0.0000
# 2 39.5081 34.7731 26.0848 0.0000 -1.8361 0.0000
# 3 100.1032 26.0848 149.8112 0.0000 -10.9930 0.0000
# 4 0.0000 0.0000 0.0000 25.4946 0.0000 -4.1176
# 5 -8.9318 -1.8361 -10.9930 0.0000 17.7733 0.0000
# 6 0.0000 0.0000 0.0000 -4.1176 0.0000 23.9681
#
#
#
# Elastic Compliance Matrix: (Units=1/GPa)
#
#
# Indices 1 2 3 4 5 6 
#
# 1 0.009762 -0.007132 -0.005212 0.000000 0.000946 0.000000
# 2 -0.007132 0.038289 -0.001963 0.000000 -0.000843 0.000000
# 3 -0.005212 -0.001963 0.010782 0.000000 0.003847 0.000000
# 4 0.000000 0.000000 0.000000 0.040343 0.000000 0.006931
# 5 0.000946 -0.000843 0.003847 0.000000 0.059031 0.000000
# 6 0.000000 0.000000 0.000000 0.006931 0.000000 0.042913
#
#
# Mechanical properties :
#
#
# Convention : Reuss Voigt Hill
#
# Bulk Modulus (GPa) = 33.09168 77.95385 55.52276
# Shear Modulus (GPa) = 20.85007 27.08029 23.96518
#
# Velocity S-wave (km/s) = 3.43810 3.91824 3.68599
# Velocity P-wave (km/s) = 5.87548 8.04142 7.04222
#
# Compressibility (1/GPa) = 0.03021907
#
# Stress axis : x y z
#
# Youngs Moduli (GPa) = 102.43640 26.11715 92.74983
#
# Poissons Ratio (x) = 0.18626 0.48340
# Poissons Ratio (y) = 0.73056 0.18208
# Poissons Ratio (z) = 0.53388 0.05127
#
# Static dielectric constant tensor:
#      x y z
#    x 1.594670 0.000000 -0.007180 
#    y 0.000000 1.597310 0.000000 
#    z -0.007180 0.000000 1.590480 
# 
# From -- ./inp_files/67169.got.cif
#   From: 2010.05.17/outbox.cif.g08.bks.cpg/sg11_34_cif.got.tgz:67169.got - 2010.06.03 12:22:45.
