data_PCOD9167090
_publ_section_title
;
Structure prediction by ZEFSAII (Michael W. Deem and Ramdas Pophale) SiO2 
 PCOD9167090
Probable space group: P 21/M
;
_chemical_formula_sum "Si O2"
_cell_formula_units_Z 28
_cell_length_a 10.797280
_cell_length_b 20.169559
_cell_length_c 11.843223
_cell_angle_alpha 90.000000
_cell_angle_beta 38.369683
_cell_angle_gamma 90.000000
_cell_volume 1600.978572
_symmetry_space_group_name_H-M "P 21/M"
_symmetry_group_IT_number 11
_symmetry_cell_setting 'monoclinic'
loop_
_space_group_symop_operation_xyz
x,y,z
-x,1/2+y,-z
-x,-y,-z
x,1/2-y,z
loop_
_atom_site_type_symbol
_atom_site_label
_atom_site_fract_x
_atom_site_fract_y
_atom_site_fract_z
Si Si1 0.725175 0.036298 0.458731
Si Si2 0.765861 0.483631 0.680358
Si Si3 0.850848 0.674757 0.118594
Si Si4 0.626459 0.061831 0.020214
Si Si5 0.590459 0.895626 0.479460
Si Si6 0.100903 0.460388 0.035045
Si Si7 0.311849 0.674689 0.859844
O O1 0.716405 0.051588 0.597059
O O2 0.548306 0.071365 0.517345
O O3 0.930520 0.053524 0.249402
O O4 0.703521 0.956944 0.456925
O O5 0.609036 0.544732 0.805417
O O6 0.000000 0.500000 0.500000
O O7 0.716128 0.444885 0.830928
O O8 0.799289 0.750000 0.117596
O O9 0.735022 0.656271 0.315969
O O10 0.815251 0.610642 0.064637
O O11 0.086175 0.673155 0.975965
O O12 0.672402 0.132898 0.038024
O O13 0.736702 0.008232 0.023279
O O14 0.450234 0.861110 0.669955
O O15 0.000000 0.500000 0.000000
O O16 0.373873 0.750000 0.830867
#
# Coordination Sequence:
#
# PCOD9167090 Si02
#       7
#     4   4   4   4   4   4   4
#     4  11  20  34  60  89 117 148 192 250 288 343
#     4  11  23  37  56  87 116 148 198 246 286 339
#     4  11  23  35  54  88 125 155 187 234 300 366
#     4  11  22  38  61  85 118 158 196 245 294 340
#     4  11  20  36  59  87 120 151 188 236 307 347
#     4  12  19  36  61  88 119 152 191 245 299 350
#     4  11  22  37  58  89 123 152 191 242 298 358
#
# _framework density 17.489304000000001
#
# number of rings (size 3 to 8) (size 9 to 14) (size 15 to 20)
#    0.000    0.857    7.143    1.286    0.000    0.000 
#    0.000    0.000    0.000    9.429    0.000    0.000 
#    0.000    0.000    0.000    0.000    0.000    0.000 
#
# Total GULP energy -156277.238255 kJ/mol
# GULP energy per Si atom -5581.329938 kJ/mol
# Density = 1.744950 g / cm^3
# Si number density = 17.489304 Si / 1000 Ang^3
#
#
#
# Elastic Constant Matrix: (Units=GPa)
#
#
# Indices 1 2 3 4 5 6 
#
# 1 59.2264 22.2745 24.7285 0.0000 19.9844 0.0000
# 2 22.2745 100.6916 19.3089 0.0000 16.1011 0.0000
# 3 24.7285 19.3089 110.8996 0.0000 9.2818 0.0000
# 4 0.0000 0.0000 0.0000 6.8252 0.0000 -8.7013
# 5 19.9844 16.1011 9.2818 0.0000 38.1779 0.0000
# 6 0.0000 0.0000 0.0000 -8.7013 0.0000 13.2714
#
#
#
# Elastic Compliance Matrix: (Units=1/GPa)
#
#
# Indices 1 2 3 4 5 6 
#
# 1 0.022829 -0.002746 -0.003786 0.000000 -0.009871 0.000000
# 2 -0.002746 0.011233 -0.001090 0.000000 -0.003035 0.000000
# 3 -0.003786 -0.001090 0.010051 0.000000 -0.000002 0.000000
# 4 0.000000 0.000000 0.000000 0.892678 0.000000 0.585282
# 5 -0.009871 -0.003035 -0.000002 0.000000 0.032641 0.000000
# 6 0.000000 0.000000 0.000000 0.585282 0.000000 0.459088
#
#
# Mechanical properties :
#
#
# Convention : Reuss Voigt Hill
#
# Bulk Modulus (GPa) = 34.63754 44.82684 39.73219
# Shear Modulus (GPa) = 3.44024 25.28862 14.36443
#
# Velocity S-wave (km/s) = 1.40404 3.80669 2.86899
# Velocity P-wave (km/s) = 4.74093 6.70879 5.80880
#
# Compressibility (1/GPa) = 0.02887041
#
# Stress axis : x y z
#
# Youngs Moduli (GPa) = 43.80486 89.02375 99.48964
#
# Poissons Ratio (x) = 0.24442 0.37668
# Poissons Ratio (y) = 0.12027 0.10840
# Poissons Ratio (z) = 0.16585 0.09700
#
# Static dielectric constant tensor:
#      x y z
#    x 1.617610 0.000000 -0.006610 
#    y 0.000000 1.623370 0.000000 
#    z -0.006610 0.000000 1.607820 
# 
# From -- ./inp_files/35988.got.cif
#   From: 2010.05.17/outbox.cif.g08.bks.cpg/sg11_18_cif.got.tgz:35988.got - 2010.06.03 12:22:45.
