data_PCOD9167768
_publ_section_title
;
Structure prediction by ZEFSAII (Michael W. Deem and Ramdas Pophale) SiO2 
 PCOD9167768
Probable space group: P 21/M
;
_chemical_formula_sum "Si O2"
_cell_formula_units_Z 32
_cell_length_a 12.000000
_cell_length_b 9.000000
_cell_length_c 30.000000
_cell_angle_alpha 90.000000
_cell_angle_beta 30.000000
_cell_angle_gamma 90.000000
_cell_volume 1620.000000
_symmetry_space_group_name_H-M "P 21/M"
_symmetry_group_IT_number 11
_symmetry_cell_setting 'monoclinic'
loop_
_space_group_symop_operation_xyz
x,y,z
-x,1/2+y,-z
-x,-y,-z
x,1/2-y,z
loop_
_atom_site_type_symbol
_atom_site_label
_atom_site_fract_x
_atom_site_fract_y
_atom_site_fract_z
Si Si1 0.034677 0.926226 0.630774
Si Si2 0.966459 0.428872 0.270824
Si Si3 0.011746 0.073605 0.156394
Si Si4 0.328634 0.923520 0.866804
Si Si5 0.526345 0.574625 0.655942
Si Si6 0.512930 0.075259 0.569522
Si Si7 0.294600 0.575556 0.317778
Si Si8 0.081897 0.925008 0.041262
O O1 0.986306 0.750000 0.641516
O O2 0.945870 0.971702 0.710530
O O3 0.299776 0.945042 0.532911
O O4 0.928726 0.020292 0.628090
O O5 0.964820 0.250000 0.270247
O O6 0.069035 0.475554 0.187437
O O7 0.713421 0.485900 0.359033
O O8 0.058063 0.250000 0.135877
O O9 0.742391 0.054364 0.245564
O O10 0.119714 0.984352 0.078066
O O11 0.375627 0.750000 0.840747
O O12 0.521168 0.028051 0.782358
O O13 0.112156 0.975598 0.913889
O O14 0.279382 0.937054 0.936541
O O15 0.565724 0.750000 0.636342
O O16 0.599428 0.483508 0.587238
O O17 0.646218 0.512969 0.658025
O O18 0.462617 0.250000 0.589958
O O19 0.297147 0.750000 0.325548
O O20 0.017692 0.750000 0.064889
#
# Coordination Sequence:
#
# PCOD9167768 Si02
#       8
#     4   4   4   4   4   4   4   4
#     4  10  22  39  56  75 104 144 183 218 266 321
#     4   9  19  36  57  79 105 141 180 219 266 316
#     4   9  17  30  52  79 107 138 172 215 265 311
#     4  10  20  34  51  75 109 144 173 209 260 316
#     4  10  20  35  54  76 107 145 176 211 266 322
#     4  10  20  34  56  83 107 134 174 227 272 309
#     4  12  24  36  54  78 106 140 179 222 265 316
#     4  10  19  30  51  81 109 138 174 214 257 308
#
# _framework density 19.753086
#
# number of rings (size 3 to 8) (size 9 to 14) (size 15 to 20)
#    0.000    2.000    1.250    3.750    0.000    5.500 
#    0.000    0.000    0.000    0.750    0.000    0.000 
#    0.000    0.000    0.000    0.000    0.000    0.000 
#
# Total GULP energy -178539.975373 kJ/mol
# GULP energy per Si atom -5579.374230 kJ/mol
# Density = 1.970813 g / cm^3
# Si number density = 19.753086 Si / 1000 Ang^3
#
#
#
# Elastic Constant Matrix: (Units=GPa)
#
#
# Indices 1 2 3 4 5 6 
#
# 1 62.3547 -3.0426 3.6687 0.0000 27.9959 0.0000
# 2 -3.0426 -23.0352 -14.2178 0.0000 9.5501 0.0000
# 3 3.6687 -14.2178 23.4127 0.0000 21.3888 0.0000
# 4 0.0000 0.0000 0.0000 26.3100 0.0000 7.2965
# 5 27.9959 9.5501 21.3888 0.0000 34.6257 0.0000
# 6 0.0000 0.0000 0.0000 7.2965 0.0000 20.8840
#
#
#
# Elastic Compliance Matrix: (Units=1/GPa)
#
#
# Indices 1 2 3 4 5 6 
#
# 1 0.023150 -0.013333 0.004626 0.000000 -0.017898 0.000000
# 2 -0.013333 -0.007624 -0.032846 0.000000 0.033173 0.000000
# 3 0.004626 -0.032846 0.039436 0.000000 -0.019041 0.000000
# 4 0.000000 0.000000 0.000000 0.042086 0.000000 -0.014704
# 5 -0.017898 0.033173 -0.019041 0.000000 0.045964 0.000000
# 6 0.000000 0.000000 0.000000 -0.014704 0.000000 0.053021
#
#
# Mechanical properties :
#
#
# Convention : Reuss Voigt Hill
#
# Bulk Modulus (GPa) = -35.53060 3.94986 -15.79037
# Shear Modulus (GPa) = 18.53520 21.45220 19.99370
#
# Velocity S-wave (km/s) = 3.06656 3.29905 3.18493
# Velocity P-wave (km/s) = 2.34265 4.06394 2.34815
#
# Compressibility (1/GPa) = -0.02814476
#
# Stress axis : x y z
#
# Youngs Moduli (GPa) = 43.19605 -131.15659 25.35776
#
# Poissons Ratio (x) = -1.74876 -0.11731
# Poissons Ratio (y) = 0.57595 0.83290
# Poissons Ratio (z) = -0.19983 -4.30795
#
# Static dielectric constant tensor:
#      x y z
#    x 1.742730 0.000000 -0.002400 
#    y 0.000000 1.650870 0.000000 
#    z -0.002400 0.000000 1.734620 
# 
# From -- ./inp_files/42913.got.cif
#   From: 2010.05.17/outbox.ucp.g08.bks.cvg/sg11_22_cif.got.tgz:42913.got - 2010.06.11 11:38:39.
