data_PCOD9167206
_publ_section_title
;
Structure prediction by ZEFSAII (Michael W. Deem and Ramdas Pophale) SiO2 
 PCOD9167206
Probable space group: P 21/M
;
_chemical_formula_sum "Si O2"
_cell_formula_units_Z 32
_cell_length_a 6.546280
_cell_length_b 17.204791
_cell_length_c 14.496413
_cell_angle_alpha 90.000000
_cell_angle_beta 86.808290
_cell_angle_gamma 90.000000
_cell_volume 1630.160421
_symmetry_space_group_name_H-M "P 21/M"
_symmetry_group_IT_number 11
_symmetry_cell_setting 'monoclinic'
loop_
_space_group_symop_operation_xyz
x,y,z
-x,1/2+y,-z
-x,-y,-z
x,1/2-y,z
loop_
_atom_site_type_symbol
_atom_site_label
_atom_site_fract_x
_atom_site_fract_y
_atom_site_fract_z
Si Si1 0.200935 0.839302 0.955075
Si Si2 0.790871 0.554147 0.217147
Si Si3 0.123147 0.842771 0.289873
Si Si4 0.451525 0.341255 0.204533
Si Si5 0.446752 0.552749 0.632618
Si Si6 0.874969 0.554743 0.886246
Si Si7 0.601679 0.410540 0.880576
Si Si8 0.194395 0.951597 0.460692
O O1 0.130992 0.750000 0.950022
O O2 0.352663 0.857117 0.866176
O O3 0.008495 0.898085 0.957526
O O4 0.339691 0.850096 0.041928
O O5 0.672264 0.510977 0.302570
O O6 0.631613 0.574622 0.140505
O O7 0.907380 0.629833 0.251710
O O8 0.961826 0.494506 0.176649
O O9 0.143054 0.750000 0.293822
O O10 0.290307 0.880321 0.216055
O O11 0.142892 0.884664 0.388467
O O12 0.419830 0.250000 0.207430
O O13 0.501182 0.376744 0.302042
O O14 0.251358 0.383139 0.169713
O O15 0.652187 0.511680 0.592563
O O16 0.312639 0.577389 0.548527
O O17 0.703975 0.490625 0.914602
O O18 0.000000 0.000000 0.500000
#
# Coordination Sequence:
#
# PCOD9167206 Si02
#       8
#     4   4   4   4   4   4   4   4
#     4  11  24  40  60  93 131 167 210 264 322 372
#     4  11  21  41  67  91 122 168 213 255 312 378
#     4  11  24  41  63  96 131 167 211 265 324 373
#     4  11  24  41  63  94 131 168 208 264 323 371
#     4  11  21  42  66  92 119 165 213 253 316 382
#     4  11  21  39  64  90 123 165 220 256 309 380
#     4  11  23  41  66  92 125 170 215 263 312 384
#     4  11  23  40  69  91 123 164 211 263 312 381
#
# _framework density 19.629968000000002
#
# number of rings (size 3 to 8) (size 9 to 14) (size 15 to 20)
#    0.000    1.000    5.000    1.875    0.000    5.500 
#    0.000    1.875    0.000    0.000    0.000    0.000 
#    0.000    0.000    0.000    0.000    0.000    0.000 
#
# Total GULP energy -178864.024686 kJ/mol
# GULP energy per Si atom -5589.500771 kJ/mol
# Density = 1.958529 g / cm^3
# Si number density = 19.629968 Si / 1000 Ang^3
#
#
#
# Elastic Constant Matrix: (Units=GPa)
#
#
# Indices 1 2 3 4 5 6 
#
# 1 99.9649 43.9980 22.9303 0.0000 21.5629 0.0000
# 2 43.9980 99.8673 28.0563 0.0000 26.1522 0.0000
# 3 22.9303 28.0563 75.6532 0.0000 24.4748 0.0000
# 4 0.0000 0.0000 0.0000 27.8900 0.0000 6.1316
# 5 21.5629 26.1522 24.4748 0.0000 30.4013 0.0000
# 6 0.0000 0.0000 0.0000 6.1316 0.0000 21.7524
#
#
#
# Elastic Compliance Matrix: (Units=1/GPa)
#
#
# Indices 1 2 3 4 5 6 
#
# 1 0.013139 -0.004252 -0.000776 0.000000 -0.005037 0.000000
# 2 -0.004252 0.014449 -0.001385 0.000000 -0.008299 0.000000
# 3 -0.000776 -0.001385 0.018124 0.000000 -0.012849 0.000000
# 4 0.000000 0.000000 0.000000 0.038224 0.000000 -0.010775
# 5 -0.005037 -0.008299 -0.012849 0.000000 0.053949 0.000000
# 6 0.000000 0.000000 0.000000 -0.010775 0.000000 0.049009
#
#
# Mechanical properties :
#
#
# Convention : Reuss Voigt Hill
#
# Bulk Modulus (GPa) = 30.40779 51.71717 41.06248
# Shear Modulus (GPa) = 23.73254 28.04214 25.88734
#
# Velocity S-wave (km/s) = 3.48083 3.78370 3.63542
# Velocity P-wave (km/s) = 5.62841 6.74476 6.21171
#
# Compressibility (1/GPa) = 0.03288631
#
# Stress axis : x y z
#
# Youngs Moduli (GPa) = 76.10710 69.21067 55.17596
#
# Poissons Ratio (x) = 0.29426 0.04283
# Poissons Ratio (y) = 0.32358 0.07642
# Poissons Ratio (z) = 0.05907 0.09585
#
# Static dielectric constant tensor:
#      x y z
#    x 1.700450 0.000000 0.003310 
#    y 0.000000 1.667960 0.000000 
#    z 0.003310 0.000000 1.696920 
# 
# From -- ./inp_files/46036.got.cif
#   From: 2010.05.17/outbox.cif.g08.bks.cpg/sg11_24_cif.got.tgz:46036.got - 2010.06.03 12:22:45.
