data_PCOD9167384
_publ_section_title
;
Structure prediction by ZEFSAII (Michael W. Deem and Ramdas Pophale) SiO2 
 PCOD9167384
Probable space group: P 21/M
;
_chemical_formula_sum "Si O2"
_cell_formula_units_Z 28
_cell_length_a 9.576080
_cell_length_b 18.211577
_cell_length_c 7.539227
_cell_angle_alpha 90.000000
_cell_angle_beta 61.472920
_cell_angle_gamma 90.000000
_cell_volume 1155.178596
_symmetry_space_group_name_H-M "P 21/M"
_symmetry_group_IT_number 11
_symmetry_cell_setting 'monoclinic'
loop_
_space_group_symop_operation_xyz
x,y,z
-x,1/2+y,-z
-x,-y,-z
x,1/2-y,z
loop_
_atom_site_type_symbol
_atom_site_label
_atom_site_fract_x
_atom_site_fract_y
_atom_site_fract_z
Si Si1 0.874558 0.513250 0.899134
Si Si2 0.890334 0.673263 0.905826
Si Si3 0.463200 0.332093 0.035883
Si Si4 0.697991 0.054090 0.723955
Si Si5 0.325900 0.167110 0.505083
Si Si6 0.240126 0.485683 0.677678
Si Si7 0.970245 0.171383 0.565180
O O1 0.912873 0.592536 0.965856
O O2 0.760965 0.516189 0.797316
O O3 0.050055 0.484830 0.744157
O O4 0.768559 0.478342 0.121147
O O5 0.922509 0.750000 0.985877
O O6 0.996666 0.672783 0.665095
O O7 0.709316 0.673738 0.950332
O O8 0.535789 0.250000 0.965630
O O9 0.554648 0.400050 0.893392
O O10 0.434046 0.341332 0.264399
O O11 0.846057 0.108118 0.670194
O O12 0.683103 0.032451 0.528396
O O13 0.356730 0.250000 0.560682
O O14 0.328123 0.093557 0.621127
O O15 0.143157 0.166040 0.548009
O O16 0.903215 0.250000 0.661056
#
# Coordination Sequence:
#
# PCOD9167384 Si02
#       7
#     4   4   4   4   4   4   4
#     4  11  23  37  58  90 118 148 197 245 289 345
#     4   9  18  36  57  81 113 153 195 236 277 342
#     4   9  20  36  60  90 117 151 199 234 282 353
#     4  12  20  36  61  85 118 156 178 240 307 329
#     4   9  18  36  57  81 113 153 195 236 277 342
#     4  11  23  37  58  90 118 148 197 245 289 345
#     4   9  16  29  56  83 105 145 195 226 276 341
#
# _framework density 24.238676999999999
#
# number of rings (size 3 to 8) (size 9 to 14) (size 15 to 20)
#    0.000    2.000    2.857    4.286    0.000    2.857 
#    0.000    2.857    0.000    5.143    0.000    0.000 
#    0.000    0.000    0.000    0.000    0.000    0.000 
#
# Total GULP energy -156170.803287 kJ/mol
# GULP energy per Si atom -5577.528689 kJ/mol
# Density = 2.418351 g / cm^3
# Si number density = 24.238677 Si / 1000 Ang^3
#
#
#
# Elastic Constant Matrix: (Units=GPa)
#
#
# Indices 1 2 3 4 5 6 
#
# 1 23.0995 8.8363 12.6603 0.0000 -10.6886 0.0000
# 2 8.8363 123.2728 27.8623 0.0000 -24.2938 0.0000
# 3 12.6603 27.8623 97.8281 0.0000 -19.8377 0.0000
# 4 0.0000 0.0000 0.0000 24.6840 0.0000 -12.9564
# 5 -10.6886 -24.2938 -19.8377 0.0000 23.4415 0.0000
# 6 0.0000 0.0000 0.0000 -12.9564 0.0000 14.3629
#
#
#
# Elastic Compliance Matrix: (Units=1/GPa)
#
#
# Indices 1 2 3 4 5 6 
#
# 1 0.055565 0.001464 -0.002610 0.000000 0.024644 0.000000
# 2 0.001464 0.010302 -0.000994 0.000000 0.010503 0.000000
# 3 -0.002610 -0.000994 0.012546 0.000000 0.008397 0.000000
# 4 0.000000 0.000000 0.000000 0.076945 0.000000 0.069410
# 5 0.024644 0.010503 0.008397 0.000000 0.071886 0.000000
# 6 0.000000 0.000000 0.000000 0.069410 0.000000 0.132237
#
#
# Mechanical properties :
#
#
# Convention : Reuss Voigt Hill
#
# Bulk Modulus (GPa) = 13.48962 38.10200 25.79581
# Shear Modulus (GPa) = 12.87095 25.48712 19.17904
#
# Velocity S-wave (km/s) = 2.30686 3.24621 2.81598
# Velocity P-wave (km/s) = 3.55990 5.45932 4.60853
#
# Compressibility (1/GPa) = 0.07413107
#
# Stress axis : x y z
#
# Youngs Moduli (GPa) = 17.99700 97.07287 79.70952
#
# Poissons Ratio (x) = -0.14208 0.20808
# Poissons Ratio (y) = -0.02634 0.07920
# Poissons Ratio (z) = 0.04698 0.09646
#
# Static dielectric constant tensor:
#      x y z
#    x 1.895440 0.000000 0.024970 
#    y 0.000000 2.262370 0.000000 
#    z 0.024970 0.000000 1.943120 
# 
# From -- ./inp_files/19126.got.cif
#   From: 2010.05.17/outbox.cif.g08.bks.cpg/sg11_10_cif.got.tgz:19126.got - 2010.06.03 12:22:45.
