data_PCOD9167866
_publ_section_title
;
Structure prediction by ZEFSAII (Michael W. Deem and Ramdas Pophale) SiO2 
 PCOD9167866
Probable space group: P 21/M
;
_chemical_formula_sum "Si O2"
_cell_formula_units_Z 28
_cell_length_a 30.000000
_cell_length_b 9.000000
_cell_length_c 30.000000
_cell_angle_alpha 90.000000
_cell_angle_beta 170.000000
_cell_angle_gamma 90.000000
_cell_volume 1406.550239
_symmetry_space_group_name_H-M "P 21/M"
_symmetry_group_IT_number 11
_symmetry_cell_setting 'monoclinic'
loop_
_space_group_symop_operation_xyz
x,y,z
-x,1/2+y,-z
-x,-y,-z
x,1/2-y,z
loop_
_atom_site_type_symbol
_atom_site_label
_atom_site_fract_x
_atom_site_fract_y
_atom_site_fract_z
Si Si1 0.130984 0.920777 0.887698
Si Si2 0.732903 0.750000 0.267603
Si Si3 0.821096 0.423702 0.170884
Si Si4 0.736826 0.250000 0.262923
Si Si5 0.390332 0.571704 0.594772
Si Si6 0.297917 0.512962 0.695283
Si Si7 0.974771 0.929964 0.023269
Si Si8 0.448802 0.930073 0.550203
O O1 0.141239 0.750000 0.913623
O O2 0.151753 0.919731 0.855056
O O3 0.866092 0.996844 0.639964
O O4 0.365505 0.013340 0.138226
O O5 0.715887 0.875746 0.286436
O O6 0.998065 0.750000 0.502262
O O7 0.498106 0.750000 0.002304
O O8 0.813290 0.250000 0.178621
O O9 0.060437 0.507827 0.428141
O O10 0.562706 0.507836 0.929746
O O11 0.719593 0.375431 0.282034
O O12 0.371889 0.750000 0.579184
O O13 0.424850 0.525162 0.577517
O O14 0.976255 0.750000 0.021671
O O15 0.209389 0.978617 0.285178
O O16 0.711803 0.979281 0.787076
O O17 0.000000 0.000000 0.000000
O O18 0.449721 0.750000 0.550900
#
# Coordination Sequence:
#
# PCOD9167866 Si02
#       8
#     4   2   4   2   4   4   4   4
#     4  11  24  42  66  93 128 163 208 262 314 375
#     4  12  22  42  66  86 122 158 208 226 290 362
#     4  11  22  43  65  87 115 166 204 230 290 375
#     4  12  26  40  58 100 122 150 186 264 300 326
#     4  11  22  42  65  96 123 164 215 258 315 381
#     4  12  23  42  65  88 121 158 199 240 292 359
#     4  10  19  34  54  81 112 155 200 248 300 358
#     4   9  19  35  58  79 115 159 199 244 303 375
#
# _framework density 19.906860999999999
#
# number of rings (size 3 to 8) (size 9 to 14) (size 15 to 20)
#    0.000    1.143    1.429    5.571    0.000    4.571 
#    7.714    4.286    0.000    0.000    0.000    0.000 
#    0.000    0.000    0.000    0.000    0.000    0.000 
#
# Total GULP energy -156112.446327 kJ/mol
# GULP energy per Si atom -5575.444512 kJ/mol
# Density = 1.986155 g / cm^3
# Si number density = 19.906861 Si / 1000 Ang^3
#
#
#
# Elastic Constant Matrix: (Units=GPa)
#
#
# Indices 1 2 3 4 5 6 
#
# 1 123.2233 17.1504 70.5189 0.0000 13.8940 0.0000
# 2 17.1504 30.6416 -13.9761 0.0000 18.1078 0.0000
# 3 70.5189 -13.9761 154.9309 0.0000 28.1495 0.0000
# 4 0.0000 0.0000 0.0000 -9.2635 0.0000 -2.7899
# 5 13.8940 18.1078 28.1495 0.0000 40.1629 0.0000
# 6 0.0000 0.0000 0.0000 -2.7899 0.0000 38.0174
#
#
#
# Elastic Compliance Matrix: (Units=1/GPa)
#
#
# Indices 1 2 3 4 5 6 
#
# 1 0.016474 -0.021887 -0.011723 0.000000 0.012386 0.000000
# 2 -0.021887 0.087160 0.027031 0.000000 -0.050671 0.000000
# 3 -0.011723 0.027031 0.017998 0.000000 -0.020747 0.000000
# 4 0.000000 0.000000 0.000000 -0.105617 0.000000 -0.007751
# 5 0.012386 -0.050671 -0.020747 0.000000 0.058000 0.000000
# 6 0.000000 0.000000 0.000000 -0.007751 0.000000 0.025735
#
#
# Mechanical properties :
#
#
# Convention : Reuss Voigt Hill
#
# Bulk Modulus (GPa) = 9.21882 50.68692 29.95287
# Shear Modulus (GPa) = 33.54198 29.45686 31.49942
#
# Velocity S-wave (km/s) = 4.10926 3.85090 3.98218
# Velocity P-wave (km/s) = 5.21112 6.72978 6.01854
#
# Compressibility (1/GPa) = 0.10847371
#
# Stress axis : x y z
#
# Youngs Moduli (GPa) = 60.70121 11.47321 55.56057
#
# Poissons Ratio (x) = 0.25112 0.65135
# Poissons Ratio (y) = 1.32858 -1.50187
# Poissons Ratio (z) = 0.71161 -0.31014
#
# Static dielectric constant tensor:
#      x y z
#    x 1.630690 0.000000 0.004300 
#    y 0.000000 1.590910 0.000000 
#    z 0.004300 0.000000 1.665030 
# 
# From -- ./inp_files/73891.got.cif
#   From: 2010.05.17/outbox.ucp.g08.bks.cvg/sg11_37_cif.got.tgz:73891.got - 2010.06.11 11:38:39.
