data_PCOD9167516
_publ_section_title
;
Structure prediction by ZEFSAII (Michael W. Deem and Ramdas Pophale) SiO2 
 PCOD9167516
Probable space group: P 21/M
;
_chemical_formula_sum "Si O2"
_cell_formula_units_Z 20
_cell_length_a 4.987325
_cell_length_b 25.229609
_cell_length_c 8.020768
_cell_angle_alpha 90.000000
_cell_angle_beta 124.655192
_cell_angle_gamma 90.000000
_cell_volume 830.189122
_symmetry_space_group_name_H-M "P 21/M"
_symmetry_group_IT_number 11
_symmetry_cell_setting 'monoclinic'
loop_
_space_group_symop_operation_xyz
x,y,z
-x,1/2+y,-z
-x,-y,-z
x,1/2-y,z
loop_
_atom_site_type_symbol
_atom_site_label
_atom_site_fract_x
_atom_site_fract_y
_atom_site_fract_z
Si Si1 0.248012 0.549755 0.691878
Si Si2 0.494233 0.145659 0.025750
Si Si3 0.814213 0.485104 0.765652
Si Si4 0.380486 0.117326 0.618387
Si Si5 0.793199 0.811505 0.743239
O O1 0.424771 0.584848 0.895937
O O2 0.517485 0.527881 0.660885
O O3 0.070594 0.499994 0.713978
O O4 0.965367 0.587574 0.524151
O O5 0.264025 0.166387 0.091096
O O6 0.827204 0.178730 0.159768
O O7 0.379390 0.147149 0.794961
O O8 0.668490 0.426385 0.722826
O O9 0.000000 0.500000 0.000000
O O10 0.404191 0.155069 0.465201
O O11 0.708954 0.750000 0.704941
#
# Coordination Sequence:
#
# PCOD9167516 Si02
#       5
#     4   4   4   4   4
#     4  11  24  44  66 107 150 190 237 289 343 435
#     4  11  25  46  74 102 143 186 238 300 366 432
#     4  12  24  42  69 106 157 198 234 287 356 432
#     4  11  26  46  77 105 145 198 246 289 371 437
#     4  11  27  49  71 104 139 179 247 318 370 432
#
# _framework density 24.090896000000001
#
# number of rings (size 3 to 8) (size 9 to 14) (size 15 to 20)
#    0.000    0.800    2.000    4.800    0.000    9.600 
#    0.000    0.000    0.000    0.000    0.000    0.000 
#    0.000    0.000    0.000    0.000    0.000    0.000 
#
# Total GULP energy -112197.567082 kJ/mol
# GULP energy per Si atom -5609.878354 kJ/mol
# Density = 2.403606 g / cm^3
# Si number density = 24.090896 Si / 1000 Ang^3
#
#
#
# Elastic Constant Matrix: (Units=GPa)
#
#
# Indices 1 2 3 4 5 6 
#
# 1 98.6958 25.5697 4.5536 0.0000 -20.7556 0.0000
# 2 25.5697 130.4539 46.0207 0.0000 -14.0451 0.0000
# 3 4.5536 46.0207 109.0137 0.0000 -29.2657 0.0000
# 4 0.0000 0.0000 0.0000 17.3388 0.0000 -1.0409
# 5 -20.7556 -14.0451 -29.2657 0.0000 44.2456 0.0000
# 6 0.0000 0.0000 0.0000 -1.0409 0.0000 29.2417
#
#
#
# Elastic Compliance Matrix: (Units=1/GPa)
#
#
# Indices 1 2 3 4 5 6 
#
# 1 0.011996 -0.002459 0.002235 0.000000 0.006325 0.000000
# 2 -0.002459 0.009517 -0.004151 0.000000 -0.000878 0.000000
# 3 0.002235 -0.004151 0.013083 0.000000 0.008384 0.000000
# 4 0.000000 0.000000 0.000000 0.057798 0.000000 0.002057
# 5 0.006325 -0.000878 0.008384 0.000000 0.030835 0.000000
# 6 0.000000 0.000000 0.000000 0.002057 0.000000 0.034271
#
#
# Mechanical properties :
#
#
# Convention : Reuss Voigt Hill
#
# Bulk Modulus (GPa) = 38.68871 54.49461 46.59166
# Shear Modulus (GPa) = 28.59345 35.63318 32.11331
#
# Velocity S-wave (km/s) = 3.44888 3.85010 3.65500
# Velocity P-wave (km/s) = 5.65279 6.51413 6.09868
#
# Compressibility (1/GPa) = 0.02584733
#
# Stress axis : x y z
#
# Youngs Moduli (GPa) = 83.35965 105.07263 76.43573
#
# Poissons Ratio (x) = 0.25835 -0.17083
# Poissons Ratio (y) = 0.20496 0.31726
# Poissons Ratio (z) = -0.18630 0.43612
#
# Static dielectric constant tensor:
#      x y z
#    x 1.890490 0.000000 0.007170 
#    y 0.000000 1.874390 0.000000 
#    z 0.007170 0.000000 2.025250 
# 
# From -- ./inp_files/10479.got.cif
#   From: 2010.05.17/outbox.cif.g08.bks.cpg/sg11_6_cif.got.tgz:10479.got - 2010.06.03 12:22:45.
