data_PCOD9167049
_publ_section_title
;
Structure prediction by ZEFSAII (Michael W. Deem and Ramdas Pophale) SiO2 
 PCOD9167049
Probable space group: P 21/M
;
_chemical_formula_sum "Si O2"
_cell_formula_units_Z 32
_cell_length_a 11.414618
_cell_length_b 18.419978
_cell_length_c 14.878942
_cell_angle_alpha 90.000000
_cell_angle_beta 150.987490
_cell_angle_gamma 90.000000
_cell_volume 1517.276713
_symmetry_space_group_name_H-M "P 21/M"
_symmetry_group_IT_number 11
_symmetry_cell_setting 'monoclinic'
loop_
_space_group_symop_operation_xyz
x,y,z
-x,1/2+y,-z
-x,-y,-z
x,1/2-y,z
loop_
_atom_site_type_symbol
_atom_site_label
_atom_site_fract_x
_atom_site_fract_y
_atom_site_fract_z
Si Si1 0.383172 0.330014 0.883547
Si Si2 0.135414 0.666325 0.089336
Si Si3 0.300295 0.427077 0.261471
Si Si4 0.543877 0.042300 0.239765
Si Si5 0.259071 0.921404 0.327386
Si Si6 0.162256 0.887128 0.711279
Si Si7 0.854831 0.534691 0.185168
Si Si8 0.373413 0.374037 0.674229
O O1 0.279314 0.250000 0.828879
O O2 0.215407 0.395833 0.803146
O O3 0.431222 0.342269 0.810892
O O4 0.630762 0.338575 0.105333
O O5 0.075714 0.750000 0.035802
O O6 0.123615 0.642980 0.185886
O O7 0.410627 0.650612 0.244947
O O8 0.950867 0.615332 0.911095
O O9 0.427461 0.421855 0.249690
O O10 0.478842 0.400490 0.459849
O O11 0.266689 0.512128 0.261800
O O12 0.751785 0.089172 0.330924
O O13 0.631348 0.961691 0.322831
O O14 0.337289 0.031936 0.025289
O O15 0.113092 0.952773 0.313757
O O16 0.897673 0.852813 0.534660
O O17 0.160246 0.961726 0.767690
#
# Coordination Sequence:
#
# PCOD9167049 Si02
#       8
#     4   4   4   4   4   4   4   4
#     4  11  25  42  60  92 137 174 208 261 329 392
#     4  12  27  45  64  94 138 178 213 262 326 395
#     4  11  24  43  70  99 125 170 221 276 317 379
#     4  11  19  41  71  99 128 160 216 281 322 368
#     4  11  24  41  71  98 127 167 225 272 323 375
#     4  11  24  40  70  99 127 166 219 272 321 379
#     4  11  21  41  68 101 128 167 216 275 325 377
#     4  12  23  41  70  96 127 170 217 268 321 383
#
# _framework density 21.090418
#
# number of rings (size 3 to 8) (size 9 to 14) (size 15 to 20)
#    0.000    0.750    5.000    3.375    3.500    2.000 
#    0.000    0.000    0.000    0.000    0.000    0.000 
#    0.000    0.000    0.000    0.000    0.000    0.000 
#
# Total GULP energy -179043.512875 kJ/mol
# GULP energy per Si atom -5595.109777 kJ/mol
# Density = 2.104241 g / cm^3
# Si number density = 21.090418 Si / 1000 Ang^3
#
#
#
# Elastic Constant Matrix: (Units=GPa)
#
#
# Indices 1 2 3 4 5 6 
#
# 1 91.9693 17.8776 12.4557 0.0000 3.6207 0.0000
# 2 17.8776 58.4082 24.7879 0.0000 -12.8002 0.0000
# 3 12.4557 24.7879 81.7884 0.0000 15.1298 0.0000
# 4 0.0000 0.0000 0.0000 -1.5732 0.0000 -0.6315
# 5 3.6207 -12.8002 15.1298 0.0000 24.2208 0.0000
# 6 0.0000 0.0000 0.0000 -0.6315 0.0000 6.1837
#
#
#
# Elastic Compliance Matrix: (Units=1/GPa)
#
#
# Indices 1 2 3 4 5 6 
#
# 1 0.011942 -0.004925 0.000549 0.000000 -0.004731 0.000000
# 2 -0.004925 0.029216 -0.012547 0.000000 0.024014 0.000000
# 3 0.000549 -0.012547 0.019433 0.000000 -0.018852 0.000000
# 4 0.000000 0.000000 0.000000 -0.610625 0.000000 -0.062361
# 5 -0.004731 0.024014 -0.018852 0.000000 0.066461 0.000000
# 6 0.000000 0.000000 0.000000 -0.062361 0.000000 0.155348
#
#
# Mechanical properties :
#
#
# Convention : Reuss Voigt Hill
#
# Bulk Modulus (GPa) = 37.38924 38.04537 37.71731
# Shear Modulus (GPa) = -17.51533 17.56922 0.02695
#
# Velocity S-wave (km/s) = -2.88494 2.88938 0.11315
# Velocity P-wave (km/s) = 2.58251 5.40460 4.23551
#
# Compressibility (1/GPa) = 0.02674566
#
# Stress axis : x y z
#
# Youngs Moduli (GPa) = 83.73461 34.22811 51.45899
#
# Poissons Ratio (x) = 0.16858 -0.02826
# Poissons Ratio (y) = 0.41242 0.64564
# Poissons Ratio (z) = -0.04599 0.42945
#
# Static dielectric constant tensor:
#      x y z
#    x 1.775590 0.000000 0.008870 
#    y 0.000000 1.718700 0.000000 
#    z 0.008870 0.000000 1.787300 
# 
# From -- ./inp_files/50737.got.cif
#   From: 2010.05.17/outbox.cif.g08.bks.cpg/sg11_26_cif.got.tgz:50737.got - 2010.06.03 12:22:45.
