data_PCOD9167210
_publ_section_title
;
Structure prediction by ZEFSAII (Michael W. Deem and Ramdas Pophale) SiO2 
 PCOD9167210
Probable space group: P 21/M
;
_chemical_formula_sum "Si O2"
_cell_formula_units_Z 24
_cell_length_a 24.799238
_cell_length_b 8.537883
_cell_length_c 17.260676
_cell_angle_alpha 90.000000
_cell_angle_beta 160.517700
_cell_angle_gamma 90.000000
_cell_volume 1218.884460
_symmetry_space_group_name_H-M "P 21/M"
_symmetry_group_IT_number 11
_symmetry_cell_setting 'monoclinic'
loop_
_space_group_symop_operation_xyz
x,y,z
-x,1/2+y,-z
-x,-y,-z
x,1/2-y,z
loop_
_atom_site_type_symbol
_atom_site_label
_atom_site_fract_x
_atom_site_fract_y
_atom_site_fract_z
Si Si1 0.200649 0.562382 0.130310
Si Si2 0.319593 0.062162 0.746157
Si Si3 0.731330 0.937074 0.945919
Si Si4 0.963786 0.437582 0.536173
Si Si5 0.395013 0.437327 0.540054
Si Si6 0.826782 0.940464 0.616759
O O1 0.208377 0.750000 0.149797
O O2 0.267761 0.516052 0.137109
O O3 0.301370 0.483462 0.335015
O O4 0.012725 0.510588 0.879193
O O5 0.321337 0.250000 0.748675
O O6 0.243366 0.008027 0.560926
O O7 0.203018 0.002526 0.655964
O O8 0.500000 0.000000 0.000000
O O9 0.733874 0.750000 0.939513
O O10 0.571281 0.986390 0.775146
O O11 0.891250 0.985978 0.209566
O O12 0.958271 0.250000 0.527246
O O13 0.000000 0.500000 0.500000
O O14 0.412524 0.250000 0.567858
O O15 0.287813 0.490873 0.468015
O O16 0.827738 0.750000 0.617888
#
# Coordination Sequence:
#
# PCOD9167210 Si02
#       6
#     4   4   4   4   4   4
#     4  11  21  40  65  90 122 164 208 256 311 366
#     4  11  23  43  67  96 128 165 209 256 314 377
#     4  11  24  42  62  91 125 162 208 256 307 368
#     4  11  25  44  67  95 126 164 209 261 317 376
#     4  11  23  39  61  92 126 165 207 254 307 367
#     4   9  21  40  63  90 124 163 204 250 309 369
#
# _framework density 19.690135000000001
#
# number of rings (size 3 to 8) (size 9 to 14) (size 15 to 20)
#    0.000    1.333    1.667    3.500    2.333    2.000 
#    0.000    5.000    0.000    0.000    0.000    0.000 
#    0.000    0.000    0.000    0.000    0.000    0.000 
#
# Total GULP energy -134255.742816 kJ/mol
# GULP energy per Si atom -5593.989284 kJ/mol
# Density = 1.964532 g / cm^3
# Si number density = 19.690135 Si / 1000 Ang^3
#
#
#
# Elastic Constant Matrix: (Units=GPa)
#
#
# Indices 1 2 3 4 5 6 
#
# 1 110.1229 15.6197 24.1916 0.0000 12.9563 0.0000
# 2 15.6197 26.4147 18.4469 0.0000 2.6312 0.0000
# 3 24.1916 18.4469 111.2142 0.0000 17.4463 0.0000
# 4 0.0000 0.0000 0.0000 32.3668 0.0000 2.7522
# 5 12.9563 2.6312 17.4463 0.0000 35.9886 0.0000
# 6 0.0000 0.0000 0.0000 2.7522 0.0000 24.1615
#
#
#
# Elastic Compliance Matrix: (Units=1/GPa)
#
#
# Indices 1 2 3 4 5 6 
#
# 1 0.010363 -0.005183 -0.000940 0.000000 -0.002896 0.000000
# 2 -0.005183 0.045413 -0.006686 0.000000 0.001787 0.000000
# 3 -0.000940 -0.006686 0.011013 0.000000 -0.004511 0.000000
# 4 0.000000 0.000000 0.000000 0.031198 0.000000 -0.003554
# 5 -0.002896 0.001787 -0.004511 0.000000 0.030886 0.000000
# 6 0.000000 0.000000 0.000000 -0.003554 0.000000 0.041793
#
#
# Mechanical properties :
#
#
# Convention : Reuss Voigt Hill
#
# Bulk Modulus (GPa) = 24.28827 40.47423 32.38125
# Shear Modulus (GPa) = 23.80869 31.13629 27.47249
#
# Velocity S-wave (km/s) = 3.48108 3.98089 3.73935
# Velocity P-wave (km/s) = 5.34034 6.45989 5.92661
#
# Compressibility (1/GPa) = 0.04117214
#
# Stress axis : x y z
#
# Youngs Moduli (GPa) = 96.49539 22.01992 90.80341
#
# Poissons Ratio (x) = 0.11413 0.08538
# Poissons Ratio (y) = 0.50013 0.60707
# Poissons Ratio (z) = 0.09073 0.14721
#
# Static dielectric constant tensor:
#      x y z
#    x 1.655890 0.000000 -0.000460 
#    y 0.000000 1.670090 0.000000 
#    z -0.000460 0.000000 1.668940 
# 
# From -- ./inp_files/61890.got.cif
#   From: 2010.05.17/outbox.cif.g08.bks.cpg/sg11_31_cif.got.tgz:61890.got - 2010.06.03 12:22:45.
