data_PCOD9167742
_publ_section_title
;
Structure prediction by ZEFSAII (Michael W. Deem and Ramdas Pophale) SiO2 
 PCOD9167742
Probable space group: P 21/M
;
_chemical_formula_sum "Si O2"
_cell_formula_units_Z 32
_cell_length_a 21.000000
_cell_length_b 9.000000
_cell_length_c 27.000000
_cell_angle_alpha 90.000000
_cell_angle_beta 160.000000
_cell_angle_gamma 90.000000
_cell_volume 1745.328791
_symmetry_space_group_name_H-M "P 21/M"
_symmetry_group_IT_number 11
_symmetry_cell_setting 'monoclinic'
loop_
_space_group_symop_operation_xyz
x,y,z
-x,1/2+y,-z
-x,-y,-z
x,1/2-y,z
loop_
_atom_site_type_symbol
_atom_site_label
_atom_site_fract_x
_atom_site_fract_y
_atom_site_fract_z
Si Si1 0.888902 0.072377 0.805080
Si Si2 0.321055 0.429979 0.610991
Si Si3 0.722597 0.929372 0.591826
Si Si4 0.703249 0.070315 0.146157
Si Si5 0.735479 0.070141 0.901158
Si Si6 0.996114 0.427946 0.444427
Si Si7 0.673349 0.070185 0.743506
Si Si8 0.032112 0.430464 0.316645
O O1 0.893748 0.250000 0.806575
O O2 0.817414 0.023729 0.806872
O O3 0.744968 0.009385 0.660074
O O4 0.091663 0.003387 0.945513
O O5 0.329193 0.250000 0.612796
O O6 0.532100 0.478163 0.771056
O O7 0.202979 0.479640 0.476902
O O8 0.188852 0.470125 0.559197
O O9 0.719434 0.750000 0.595543
O O10 0.534032 0.972895 0.425359
O O11 0.902844 0.970873 0.690490
O O12 0.687424 0.250000 0.133031
O O13 0.825649 0.029291 0.283945
O O14 0.835388 0.022694 0.196384
O O15 0.500000 0.000000 0.000000
O O16 0.751370 0.250000 0.915773
O O17 0.730633 0.022419 0.839948
O O18 0.990442 0.250000 0.443663
O O19 0.000000 0.500000 0.500000
O O20 0.670224 0.250000 0.742840
O O21 0.030068 0.250000 0.317329
#
# Coordination Sequence:
#
# PCOD9167742 Si02
#       8
#     4   4   4   4   4   4   4   4
#     4  11  23  35  45  73 116 141 156 200 265 313
#     4   8  14  29  55  79  96 122 170 222 250 277
#     4  10  18  34  58  78  95 128 178 218 248 292
#     4   9  18  33  53  78 105 132 165 206 251 298
#     4  10  18  34  58  78  95 128 178 218 248 292
#     4   9  18  33  53  78 105 132 165 206 251 298
#     4   9  18  33  57  79  96 127 174 218 253 295
#     4   8  14  29  55  79  96 122 170 222 250 277
#
# _framework density 18.334654
#
# number of rings (size 3 to 8) (size 9 to 14) (size 15 to 20)
#    0.000    2.750    1.250    2.625    0.000    0.500 
#    2.250    3.125    0.000    1.500    0.000    0.000 
#    0.000    0.000    0.000    0.000    0.000    0.000 
#
# Total GULP energy -178229.806783 kJ/mol
# GULP energy per Si atom -5569.681462 kJ/mol
# Density = 1.829292 g / cm^3
# Si number density = 18.334654 Si / 1000 Ang^3
#
#
#
# Elastic Constant Matrix: (Units=GPa)
#
#
# Indices 1 2 3 4 5 6 
#
# 1 63.0383 16.1204 29.9760 0.0000 7.0645 0.0000
# 2 16.1204 8.9835 14.5129 0.0000 2.7733 0.0000
# 3 29.9760 14.5129 83.2511 0.0000 21.8124 0.0000
# 4 0.0000 0.0000 0.0000 21.9510 0.0000 -3.6958
# 5 7.0645 2.7733 21.8124 0.0000 26.7780 0.0000
# 6 0.0000 0.0000 0.0000 -3.6958 0.0000 19.7655
#
#
#
# Elastic Compliance Matrix: (Units=1/GPa)
#
#
# Indices 1 2 3 4 5 6 
#
# 1 0.029578 -0.050147 -0.001556 0.000000 -0.001342 0.000000
# 2 -0.050147 0.241194 -0.026586 0.000000 0.009906 0.000000
# 3 -0.001556 -0.026586 0.020822 0.000000 -0.013797 0.000000
# 4 0.000000 0.000000 0.000000 0.047037 0.000000 0.008795
# 5 -0.001342 0.009906 -0.013797 0.000000 0.047910 0.000000
# 6 0.000000 0.000000 0.000000 0.008795 0.000000 0.052238
#
#
# Mechanical properties :
#
#
# Convention : Reuss Voigt Hill
#
# Bulk Modulus (GPa) = 7.40660 30.72127 19.06393
# Shear Modulus (GPa) = 7.80809 20.00979 13.90894
#
# Velocity S-wave (km/s) = 2.06589 3.30716 2.75728
# Velocity P-wave (km/s) = 3.12073 5.60137 4.53400
#
# Compressibility (1/GPa) = 0.13501476
#
# Stress axis : x y z
#
# Youngs Moduli (GPa) = 33.80931 4.14604 48.02688
#
# Poissons Ratio (x) = 0.20791 0.07475
# Poissons Ratio (y) = 1.69544 1.27683
# Poissons Ratio (z) = 0.05262 0.11023
#
# Static dielectric constant tensor:
#      x y z
#    x 1.679910 0.000000 0.015260 
#    y 0.000000 1.614760 0.000000 
#    z 0.015260 0.000000 1.607310 
# 
# From -- ./inp_files/67151.got.cif
#   From: 2010.05.17/outbox.ucp.g08.bks.cvg/sg11_34_cif.got.tgz:67151.got - 2010.06.11 11:38:39.
