data_PCOD9167363
_publ_section_title
;
Structure prediction by ZEFSAII (Michael W. Deem and Ramdas Pophale) SiO2 
 PCOD9167363
Probable space group: P 21/M
;
_chemical_formula_sum "Si O2"
_cell_formula_units_Z 20
_cell_length_a 7.131721
_cell_length_b 20.498060
_cell_length_c 7.133087
_cell_angle_alpha 90.000000
_cell_angle_beta 122.957559
_cell_angle_gamma 90.000000
_cell_volume 874.953094
_symmetry_space_group_name_H-M "P 21/M"
_symmetry_group_IT_number 11
_symmetry_cell_setting 'monoclinic'
loop_
_space_group_symop_operation_xyz
x,y,z
-x,1/2+y,-z
-x,-y,-z
x,1/2-y,z
loop_
_atom_site_type_symbol
_atom_site_label
_atom_site_fract_x
_atom_site_fract_y
_atom_site_fract_z
Si Si1 0.585592 0.567353 0.142853
Si Si2 0.488533 0.825110 0.782364
Si Si3 0.887089 0.903615 0.832644
Si Si4 0.733063 0.450226 0.712125
Si Si5 0.918272 0.399449 0.476978
O O1 0.215504 0.475848 0.204029
O O2 0.849078 0.578914 0.302320
O O3 0.500000 0.500000 0.000000
O O4 0.501685 0.626902 0.968304
O O5 0.528262 0.750000 0.847973
O O6 0.689416 0.851790 0.758790
O O7 0.232122 0.834788 0.571542
O O8 0.513280 0.070965 0.701769
O O9 0.079177 0.902910 0.095658
O O10 0.747967 0.447533 0.495428
O O11 0.016219 0.598773 0.705114
#
# Coordination Sequence:
#
# PCOD9167363 Si02
#       5
#     4   4   4   4   4
#     4  12  24  46  76 111 147 187 244 310 364 426
#     4  12  28  48  70 104 149 198 246 296 367 448
#     4  11  23  44  74 107 148 182 234 302 366 431
#     4  11  22  42  75 114 138 179 241 305 363 426
#     4  12  26  43  75 108 140 191 237 296 370 437
#
# _framework density 22.858367000000001
#
# number of rings (size 3 to 8) (size 9 to 14) (size 15 to 20)
#    0.000    0.400    6.000    3.000    2.800    3.200 
#    0.000    3.000    0.000    0.000    0.000    0.000 
#    0.000    0.000    0.000    0.000    0.000    0.000 
#
# Total GULP energy -111606.775800 kJ/mol
# GULP energy per Si atom -5580.338790 kJ/mol
# Density = 2.280634 g / cm^3
# Si number density = 22.858367 Si / 1000 Ang^3
#
#
#
# Elastic Constant Matrix: (Units=GPa)
#
#
# Indices 1 2 3 4 5 6 
#
# 1 221.9461 50.9795 68.9010 0.0000 -10.7283 0.0000
# 2 50.9795 151.0313 38.0214 0.0000 4.2931 0.0000
# 3 68.9010 38.0214 103.9851 0.0000 4.4298 0.0000
# 4 0.0000 0.0000 0.0000 21.5558 0.0000 4.7722
# 5 -10.7283 4.2931 4.4298 0.0000 32.2769 0.0000
# 6 0.0000 0.0000 0.0000 4.7722 0.0000 21.2139
#
#
#
# Elastic Compliance Matrix: (Units=1/GPa)
#
#
# Indices 1 2 3 4 5 6 
#
# 1 0.006054 -0.001191 -0.003690 0.000000 0.002677 0.000000
# 2 -0.001191 0.007538 -0.001919 0.000000 -0.001135 0.000000
# 3 -0.003690 -0.001919 0.012880 0.000000 -0.002739 0.000000
# 4 0.000000 0.000000 0.000000 0.048823 0.000000 -0.010983
# 5 0.002677 -0.001135 -0.002739 0.000000 0.032399 0.000000
# 6 0.000000 0.000000 0.000000 -0.010983 0.000000 0.049610
#
#
# Mechanical properties :
#
#
# Convention : Reuss Voigt Hill
#
# Bulk Modulus (GPa) = 77.68205 88.08516 82.88360
# Shear Modulus (GPa) = 28.53971 36.28002 32.40987
#
# Velocity S-wave (km/s) = 3.53731 3.98825 3.76953
# Velocity P-wave (km/s) = 7.12329 7.73479 7.43533
#
# Compressibility (1/GPa) = 0.01287299
#
# Stress axis : x y z
#
# Youngs Moduli (GPa) = 165.17873 132.65386 77.63817
#
# Poissons Ratio (x) = 0.15794 0.28650
# Poissons Ratio (y) = 0.19666 0.14900
# Poissons Ratio (z) = 0.60953 0.25458
#
# Static dielectric constant tensor:
#      x y z
#    x 1.872170 0.000000 0.021490 
#    y 0.000000 1.816780 0.000000 
#    z 0.021490 0.000000 2.005810 
# 
# From -- ./inp_files/13629.got.cif
#   From: 2010.05.17/outbox.cif.g08.bks.cpg/sg11_7_cif.got.tgz:13629.got - 2010.06.03 12:22:45.
