data_PCOD9167622
_publ_section_title
;
Structure prediction by ZEFSAII (Michael W. Deem and Ramdas Pophale) SiO2 
 PCOD9167622
Probable space group: P 21/M
;
_chemical_formula_sum "Si O2"
_cell_formula_units_Z 24
_cell_length_a 6.919209
_cell_length_b 16.977947
_cell_length_c 9.207640
_cell_angle_alpha 90.000000
_cell_angle_beta 116.772997
_cell_angle_gamma 90.000000
_cell_volume 965.702301
_symmetry_space_group_name_H-M "P 21/M"
_symmetry_group_IT_number 11
_symmetry_cell_setting 'monoclinic'
loop_
_space_group_symop_operation_xyz
x,y,z
-x,1/2+y,-z
-x,-y,-z
x,1/2-y,z
loop_
_atom_site_type_symbol
_atom_site_label
_atom_site_fract_x
_atom_site_fract_y
_atom_site_fract_z
Si Si1 0.014159 0.664989 0.235388
Si Si2 0.488878 0.834556 0.252959
Si Si3 0.633194 0.835136 0.871941
Si Si4 0.860814 0.496178 0.627339
Si Si5 0.506712 0.003550 0.254549
Si Si6 0.853182 0.665597 0.628332
O O1 0.993184 0.750000 0.306776
O O2 0.251310 0.666226 0.243391
O O3 0.005207 0.584323 0.322219
O O4 0.833661 0.661820 0.050562
O O5 0.513210 0.750000 0.183619
O O6 0.664250 0.836332 0.442456
O O7 0.514655 0.917918 0.181603
O O8 0.520887 0.750000 0.851830
O O9 0.502258 0.916168 0.837399
O O10 0.732712 0.834044 0.742838
O O11 0.713959 0.499121 0.723257
O O12 0.695919 0.490745 0.437720
O O13 0.973365 0.581700 0.659665
O O14 0.969667 0.750000 0.654633
#
# Coordination Sequence:
#
# PCOD9167622 Si02
#       6
#     4   4   4   4   4   4
#     4   9  15  19  22  28  35  40  44  49  55  59
#     4   8  13  20  26  29  33  39  44  48  53  60
#     4   9  15  19  22  28  35  40  44  49  55  59
#     4   8  13  19  25  30  33  38  45  49  53  59
#     4   8  13  19  25  30  33  38  45  49  53  59
#     4   8  13  20  26  29  33  39  44  48  53  60
#
# _framework density 24.852381999999999
#
# number of rings (size 3 to 8) (size 9 to 14) (size 15 to 20)
#    0.000    3.667    0.000    3.000    0.000    8.000 
#    0.000    0.000    0.000    0.000    0.000    0.000 
#    0.000    0.000    0.000    0.000    0.000    0.000 
#
# Total GULP energy -133942.413631 kJ/mol
# GULP energy per Si atom -5580.933901 kJ/mol
# Density = 2.479582 g / cm^3
# Si number density = 24.852382 Si / 1000 Ang^3
#
#
#
# Elastic Constant Matrix: (Units=GPa)
#
#
# Indices 1 2 3 4 5 6 
#
# 1 93.7748 11.6137 12.2961 0.0000 1.0770 0.0000
# 2 11.6137 367.7510 60.1876 0.0000 12.5356 0.0000
# 3 12.2961 60.1876 35.1789 0.0000 -14.1680 0.0000
# 4 0.0000 0.0000 0.0000 20.3821 0.0000 14.2151
# 5 1.0770 12.5356 -14.1680 0.0000 27.5882 0.0000
# 6 0.0000 0.0000 0.0000 14.2151 0.0000 -27.0246
#
#
#
# Elastic Compliance Matrix: (Units=1/GPa)
#
#
# Indices 1 2 3 4 5 6 
#
# 1 0.011637 0.001121 -0.008036 0.000000 -0.005091 0.000000
# 2 0.001121 0.005035 -0.012538 0.000000 -0.008771 0.000000
# 3 -0.008036 -0.012538 0.069478 0.000000 0.041692 0.000000
# 4 0.000000 0.000000 0.000000 0.035895 0.000000 0.018881
# 5 -0.005091 -0.008771 0.041692 0.000000 0.061842 0.000000
# 6 0.000000 0.000000 0.000000 0.018881 0.000000 -0.027072
#
#
# Mechanical properties :
#
#
# Convention : Reuss Voigt Hill
#
# Bulk Modulus (GPa) = 21.16703 73.87773 47.52238
# Shear Modulus (GPa) = 23.64410 31.69629 27.67020
#
# Velocity S-wave (km/s) = 3.08779 3.57512 3.34036
# Velocity P-wave (km/s) = 4.60958 6.84348 5.83444
#
# Compressibility (1/GPa) = 0.04724327
#
# Stress axis : x y z
#
# Youngs Moduli (GPa) = 85.93138 198.61470 14.39307
#
# Poissons Ratio (x) = -0.22270 0.11567
# Poissons Ratio (y) = -0.09635 0.18047
# Poissons Ratio (z) = 0.69056 2.49031
#
# Static dielectric constant tensor:
#      x y z
#    x 1.916510 0.000000 -0.013860 
#    y 0.000000 2.088700 0.000000 
#    z -0.013860 0.000000 1.867840 
# 
# From -- ./inp_files/32181.got.cif
#   From: 2010.05.17/outbox.cif.g08.bks.cpg/sg11_17_cif.got.tgz:32181.got - 2010.06.03 12:22:45.
