data_PCOD9167521
_publ_section_title
;
Structure prediction by ZEFSAII (Michael W. Deem and Ramdas Pophale) SiO2 
 PCOD9167521
Probable space group: P 21/M
;
_chemical_formula_sum "Si O2"
_cell_formula_units_Z 20
_cell_length_a 5.991630
_cell_length_b 27.035745
_cell_length_c 5.048654
_cell_angle_alpha 90.000000
_cell_angle_beta 86.632167
_cell_angle_gamma 90.000000
_cell_volume 816.409870
_symmetry_space_group_name_H-M "P 21/M"
_symmetry_group_IT_number 11
_symmetry_cell_setting 'monoclinic'
loop_
_space_group_symop_operation_xyz
x,y,z
-x,1/2+y,-z
-x,-y,-z
x,1/2-y,z
loop_
_atom_site_type_symbol
_atom_site_label
_atom_site_fract_x
_atom_site_fract_y
_atom_site_fract_z
Si Si1 0.583122 0.622299 0.257260
Si Si2 0.791645 0.340498 0.401291
Si Si3 0.238076 0.935449 0.903937
Si Si4 0.050374 0.193857 0.896796
Si Si5 0.845193 0.531534 0.314639
O O1 0.455722 0.660109 0.459856
O O2 0.704541 0.578804 0.414281
O O3 0.754914 0.654160 0.072195
O O4 0.409721 0.593856 0.078321
O O5 0.819618 0.398614 0.332185
O O6 0.951845 0.320154 0.617545
O O7 0.855579 0.313321 0.127083
O O8 0.314143 0.988947 0.795665
O O9 0.012424 0.946702 0.081732
O O10 0.129864 0.250000 0.897741
O O11 0.000000 0.500000 0.500000
#
# Coordination Sequence:
#
# PCOD9167521 Si02
#       5
#     4   4   4   4   4
#     4  12  25  47  78 112 152 204 251 310 383 453
#     4  12  26  52  76 111 152 196 251 316 376 457
#     4  11  24  44  74 113 157 200 251 309 371 460
#     4  12  29  52  78 109 151 196 256 327 388 448
#     4  11  24  45  73 115 158 207 248 305 377 454
#
# _framework density 24.497496999999999
#
# number of rings (size 3 to 8) (size 9 to 14) (size 15 to 20)
#    0.000    0.400    4.000    3.600    2.800    8.000 
#    0.000    0.000    0.000    0.000    0.000    0.000 
#    0.000    0.000    0.000    0.000    0.000    0.000 
#
# Total GULP energy -111992.734682 kJ/mol
# GULP energy per Si atom -5599.636734 kJ/mol
# Density = 2.444174 g / cm^3
# Si number density = 24.497497 Si / 1000 Ang^3
#
#
#
# Elastic Constant Matrix: (Units=GPa)
#
#
# Indices 1 2 3 4 5 6 
#
# 1 64.1017 49.5027 18.3138 0.0000 8.5056 0.0000
# 2 49.5027 151.9515 20.8244 0.0000 0.4023 0.0000
# 3 18.3138 20.8244 90.8098 0.0000 4.8955 0.0000
# 4 0.0000 0.0000 0.0000 30.5504 0.0000 1.0229
# 5 8.5056 0.4023 4.8955 0.0000 36.4621 0.0000
# 6 0.0000 0.0000 0.0000 1.0229 0.0000 22.8516
#
#
#
# Elastic Compliance Matrix: (Units=1/GPa)
#
#
# Indices 1 2 3 4 5 6 
#
# 1 0.022317 -0.006893 -0.002663 0.000000 -0.004772 0.000000
# 2 -0.006893 0.008924 -0.000743 0.000000 0.001609 0.000000
# 3 -0.002663 -0.000743 0.011771 0.000000 -0.000951 0.000000
# 4 0.000000 0.000000 0.000000 0.032782 0.000000 -0.001467
# 5 -0.004772 0.001609 -0.000951 0.000000 0.028649 0.000000
# 6 0.000000 0.000000 0.000000 -0.001467 0.000000 0.043826
#
#
# Mechanical properties :
#
#
# Convention : Reuss Voigt Hill
#
# Bulk Modulus (GPa) = 44.61406 53.79388 49.20397
# Shear Modulus (GPa) = 28.35453 32.52098 30.43775
#
# Velocity S-wave (km/s) = 3.40582 3.64747 3.52871
# Velocity P-wave (km/s) = 5.80666 6.30439 6.06064
#
# Compressibility (1/GPa) = 0.02241446
#
# Stress axis : x y z
#
# Youngs Moduli (GPa) = 44.80819 112.05455 84.95657
#
# Poissons Ratio (x) = 0.77239 0.22622
# Poissons Ratio (y) = 0.30886 0.06313
# Poissons Ratio (z) = 0.11932 0.08327
#
# Static dielectric constant tensor:
#      x y z
#    x 1.985280 0.000000 0.009430 
#    y 0.000000 1.925200 0.000000 
#    z 0.009430 0.000000 1.973600 
# 
# From -- ./inp_files/769.got.cif
#   From: 2010.05.17/outbox.cif.g08.bks.cpg/sg11_1_cif.got.tgz:769.got - 2010.06.03 12:22:45.
