data_PCOD9167541
_publ_section_title
;
Structure prediction by ZEFSAII (Michael W. Deem and Ramdas Pophale) SiO2 
 PCOD9167541
Probable space group: P 21/M
;
_chemical_formula_sum "Si O2"
_cell_formula_units_Z 18
_cell_length_a 17.743112
_cell_length_b 9.812586
_cell_length_c 8.720110
_cell_angle_alpha 90.000000
_cell_angle_beta 147.998996
_cell_angle_gamma 90.000000
_cell_volume 804.557560
_symmetry_space_group_name_H-M "P 21/M"
_symmetry_group_IT_number 11
_symmetry_cell_setting 'monoclinic'
loop_
_space_group_symop_operation_xyz
x,y,z
-x,1/2+y,-z
-x,-y,-z
x,1/2-y,z
loop_
_atom_site_type_symbol
_atom_site_label
_atom_site_fract_x
_atom_site_fract_y
_atom_site_fract_z
Si Si1 0.498107 0.750000 0.311438
Si Si2 0.071945 0.750000 0.404187
Si Si3 0.599159 0.250000 0.524886
Si Si4 0.862626 0.552258 0.559495
Si Si5 0.916041 0.250000 0.207970
Si Si6 0.180416 0.250000 0.241113
Si Si7 0.559908 0.527474 0.934863
O O1 0.499959 0.750000 0.496433
O O2 0.653867 0.750000 0.507361
O O3 0.422567 0.885980 0.123660
O O4 0.132884 0.610976 0.436929
O O5 0.091042 0.750000 0.620013
O O6 0.907836 0.750000 0.067218
O O7 0.554377 0.380506 0.349342
O O8 0.760557 0.250000 0.862768
O O9 0.858748 0.619729 0.720963
O O10 0.994267 0.619408 0.696617
O O11 0.714797 0.592818 0.222170
O O12 0.500000 0.500000 0.000000
#
# Coordination Sequence:
#
# PCOD9167541 Si02
#       7
#     2   2   2   4   2   2   4
#     4  12  26  45  72 107 154 185 250 291 373 419
#     4  12  26  43  76 103 150 192 238 302 367 421
#     4  12  28  47  75 109 148 191 237 303 362 436
#     4  11  25  48  72 106 145 188 244 297 362 432
#     4  11  27  48  72 109 147 190 245 291 367 431
#     4  11  25  43  71 108 143 194 242 299 353 431
#     4  12  25  47  76 107 146 189 241 299 361 432
#
# _framework density 22.372543
#
# number of rings (size 3 to 8) (size 9 to 14) (size 15 to 20)
#    0.000    0.444    2.222    6.000    6.222    3.556 
#    0.000    0.000    0.000    0.000    0.000    0.000 
#    0.000    0.000    0.000    0.000    0.000    0.000 
#
# Total GULP energy -100828.350939 kJ/mol
# GULP energy per Si atom -5601.575052 kJ/mol
# Density = 2.232162 g / cm^3
# Si number density = 22.372543 Si / 1000 Ang^3
#
#
#
# Elastic Constant Matrix: (Units=GPa)
#
#
# Indices 1 2 3 4 5 6 
#
# 1 119.5475 44.5814 35.7454 0.0000 -16.9883 0.0000
# 2 44.5814 167.7979 46.8906 0.0000 -11.3835 0.0000
# 3 35.7454 46.8906 173.0837 0.0000 -8.4637 0.0000
# 4 0.0000 0.0000 0.0000 42.6721 0.0000 -4.6666
# 5 -16.9883 -11.3835 -8.4637 0.0000 43.4437 0.0000
# 6 0.0000 0.0000 0.0000 -4.6666 0.0000 18.7736
#
#
#
# Elastic Compliance Matrix: (Units=1/GPa)
#
#
# Indices 1 2 3 4 5 6 
#
# 1 0.009978 -0.002064 -0.001350 0.000000 0.003098 0.000000
# 2 -0.002064 0.006955 -0.001422 0.000000 0.000738 0.000000
# 3 -0.001350 -0.001422 0.006459 0.000000 0.000358 0.000000
# 4 0.000000 0.000000 0.000000 0.024089 0.000000 0.005988
# 5 0.003098 0.000738 0.000358 0.000000 0.024493 0.000000
# 6 0.000000 0.000000 0.000000 0.005988 0.000000 0.054755
#
#
# Mechanical properties :
#
#
# Convention : Reuss Voigt Hill
#
# Bulk Modulus (GPa) = 72.87972 79.42933 76.15452
# Shear Modulus (GPa) = 35.46719 43.19199 39.32959
#
# Velocity S-wave (km/s) = 3.98590 4.39860 4.19733
# Velocity P-wave (km/s) = 7.33686 7.83435 7.58968
#
# Compressibility (1/GPa) = 0.01372124
#
# Stress axis : x y z
#
# Youngs Moduli (GPa) = 100.21615 143.77538 154.81975
#
# Poissons Ratio (x) = 0.29670 0.20904
# Poissons Ratio (y) = 0.20681 0.22015
# Poissons Ratio (z) = 0.13531 0.20445
#
# Static dielectric constant tensor:
#      x y z
#    x 1.774380 0.000000 -0.003370 
#    y 0.000000 1.854860 0.000000 
#    z -0.003370 0.000000 1.832800 
# 
# From -- ./inp_files/24689.got.cif
#   From: 2010.05.17/outbox.cif.g08.bks.cpg/sg11_13_cif.got.tgz:24689.got - 2010.06.03 12:22:45.
