data_PCOD9167416
_publ_section_title
;
Structure prediction by ZEFSAII (Michael W. Deem and Ramdas Pophale) SiO2 
 PCOD9167416
Probable space group: P 21/M
;
_chemical_formula_sum "Si O2"
_cell_formula_units_Z 20
_cell_length_a 12.799115
_cell_length_b 17.023796
_cell_length_c 6.821184
_cell_angle_alpha 90.000000
_cell_angle_beta 47.794144
_cell_angle_gamma 90.000000
_cell_volume 1100.929548
_symmetry_space_group_name_H-M "P 21/M"
_symmetry_group_IT_number 11
_symmetry_cell_setting 'monoclinic'
loop_
_space_group_symop_operation_xyz
x,y,z
-x,1/2+y,-z
-x,-y,-z
x,1/2-y,z
loop_
_atom_site_type_symbol
_atom_site_label
_atom_site_fract_x
_atom_site_fract_y
_atom_site_fract_z
Si Si1 0.202895 0.342226 0.454122
Si Si2 0.919074 0.560819 0.742846
Si Si3 0.054205 0.657757 0.915079
Si Si4 0.296987 0.556839 0.778631
Si Si5 0.452711 0.043236 0.256650
O O1 0.232194 0.250000 0.405196
O O2 0.154462 0.376261 0.306175
O O3 0.337837 0.390720 0.354727
O O4 0.074685 0.353944 0.769569
O O5 0.000000 0.500000 0.500000
O O6 0.020763 0.604652 0.767705
O O7 0.803865 0.511255 0.007908
O O8 0.061509 0.750000 0.857120
O O9 0.196275 0.626999 0.837730
O O10 0.411885 0.576713 0.799049
O O11 0.380149 0.520699 0.490027
O O12 0.500000 0.000000 0.000000
#
# Coordination Sequence:
#
# PCOD9167416 Si02
#       5
#     4   4   4   4   4
#     4  11  23  40  63  92 125 163 207 263 321 365
#     4  12  21  38  67  93 120 159 213 255 310 373
#     4  11  24  41  62  94 127 159 205 265 321 365
#     4  11  23  39  64  91 119 162 211 249 305 372
#     4  11  23  41  63  90 122 166 213 251 299 371
#
# _framework density 18.166466
#
# number of rings (size 3 to 8) (size 9 to 14) (size 15 to 20)
#    0.000    0.800    6.000    2.400    0.000    0.800 
#    0.000    1.000    0.000    0.000    0.000    0.000 
#    0.000    0.000    0.000    0.000    0.000    0.000 
#
# Total GULP energy -111812.862840 kJ/mol
# GULP energy per Si atom -5590.643142 kJ/mol
# Density = 1.812512 g / cm^3
# Si number density = 18.166466 Si / 1000 Ang^3
#
#
#
# Elastic Constant Matrix: (Units=GPa)
#
#
# Indices 1 2 3 4 5 6 
#
# 1 148.7802 48.9734 39.8833 0.0000 -8.5805 0.0000
# 2 48.9734 74.4820 35.9758 0.0000 -4.3517 0.0000
# 3 39.8833 35.9758 101.7192 0.0000 6.3235 0.0000
# 4 0.0000 0.0000 0.0000 26.3881 0.0000 1.8571
# 5 -8.5805 -4.3517 6.3235 0.0000 29.8961 0.0000
# 6 0.0000 0.0000 0.0000 1.8571 0.0000 24.7255
#
#
#
# Elastic Compliance Matrix: (Units=1/GPa)
#
#
# Indices 1 2 3 4 5 6 
#
# 1 0.008962 -0.004816 -0.001953 0.000000 0.002284 0.000000
# 2 -0.004816 0.019175 -0.005048 0.000000 0.002477 0.000000
# 3 -0.001953 -0.005048 0.012628 0.000000 -0.003966 0.000000
# 4 0.000000 0.000000 0.000000 0.038097 0.000000 -0.002861
# 5 0.002284 0.002477 -0.003966 0.000000 0.035304 0.000000
# 6 0.000000 0.000000 0.000000 -0.002861 0.000000 0.040659
#
#
# Mechanical properties :
#
#
# Convention : Reuss Voigt Hill
#
# Bulk Modulus (GPa) = 58.36572 63.84961 61.10767
# Shear Modulus (GPa) = 27.14897 29.54519 28.34708
#
# Velocity S-wave (km/s) = 3.87001 4.03719 3.95448
# Velocity P-wave (km/s) = 7.22270 7.54686 7.38656
#
# Compressibility (1/GPa) = 0.01713334
#
# Stress axis : x y z
#
# Youngs Moduli (GPa) = 111.58573 52.15017 79.18701
#
# Poissons Ratio (x) = 0.25115 0.15461
# Poissons Ratio (y) = 0.53739 0.39970
# Poissons Ratio (z) = 0.21787 0.26323
#
# Static dielectric constant tensor:
#      x y z
#    x 1.619570 0.000000 0.001200 
#    y 0.000000 1.587590 0.000000 
#    z 0.001200 0.000000 1.612260 
# 
# From -- ./inp_files/1876.got.cif
#   From: 2010.05.17/outbox.cif.g08.bks.cpg/sg11_1_cif.got.tgz:1876.got - 2010.06.03 12:22:45.
