data_PCOD9167248
_publ_section_title
;
Structure prediction by ZEFSAII (Michael W. Deem and Ramdas Pophale) SiO2 
 PCOD9167248
Probable space group: P 21/M
;
_chemical_formula_sum "Si O2"
_cell_formula_units_Z 28
_cell_length_a 27.021225
_cell_length_b 7.618971
_cell_length_c 20.846800
_cell_angle_alpha 90.000000
_cell_angle_beta 19.081408
_cell_angle_gamma 90.000000
_cell_volume 1403.041850
_symmetry_space_group_name_H-M "P 21/M"
_symmetry_group_IT_number 11
_symmetry_cell_setting 'monoclinic'
loop_
_space_group_symop_operation_xyz
x,y,z
-x,1/2+y,-z
-x,-y,-z
x,1/2-y,z
loop_
_atom_site_type_symbol
_atom_site_label
_atom_site_fract_x
_atom_site_fract_y
_atom_site_fract_z
Si Si1 0.479622 0.965051 0.888191
Si Si2 0.272067 0.960204 0.813893
Si Si3 0.777150 0.538658 0.597958
Si Si4 0.414370 0.461286 0.509450
Si Si5 0.656976 0.535904 0.545579
Si Si6 0.163885 0.954555 0.327164
Si Si7 0.953889 0.535459 0.256982
O O1 0.480255 0.750000 0.888227
O O2 0.610294 0.020212 0.778724
O O3 0.537004 0.017403 0.747236
O O4 0.313958 0.033120 0.109756
O O5 0.271602 0.750000 0.822325
O O6 0.423734 0.028227 0.662869
O O7 0.292114 0.996190 0.713914
O O8 0.117438 0.027500 0.034192
O O9 0.775111 0.750000 0.598782
O O10 0.821397 0.486372 0.615041
O O11 0.897060 0.479925 0.396973
O O12 0.423641 0.250000 0.494755
O O13 0.377477 0.526507 0.483650
O O14 0.655306 0.750000 0.546549
O O15 0.821823 0.483316 0.369459
O O16 0.178265 0.750000 0.298137
O O17 0.000000 0.000000 0.500000
O O18 0.957000 0.750000 0.253670
#
# Coordination Sequence:
#
# PCOD9167248 Si02
#       7
#     4   4   4   4   4   4   4
#     4   8  16  31  52  74  95 123 159 198 239 287
#     4   9  17  29  44  64  91 122 154 186 224 272
#     4   9  17  33  55  75  95 122 158 199 243 287
#     4   9  17  28  44  65  89 119 153 188 226 268
#     4   8  14  27  47  70  91 113 150 194 230 270
#     4  11  22  34  49  73 102 130 161 196 236 281
#     4   8  15  28  48  71  91 115 150 190 229 274
#
# _framework density 19.956638999999999
#
# number of rings (size 3 to 8) (size 9 to 14) (size 15 to 20)
#    0.000    3.143    0.000    2.571    0.000    1.714 
#    0.000    5.714    0.000    8.571    0.000    0.000 
#    0.000    0.000    0.000    0.000    0.000    0.000 
#
# Total GULP energy -156131.421982 kJ/mol
# GULP energy per Si atom -5576.122214 kJ/mol
# Density = 1.991122 g / cm^3
# Si number density = 19.956639 Si / 1000 Ang^3
#
#
#
# Elastic Constant Matrix: (Units=GPa)
#
#
# Indices 1 2 3 4 5 6 
#
# 1 -138.7848 -13.2014 -10.9908 0.0000 -19.2399 0.0000
# 2 -13.2014 36.8192 2.6852 0.0000 -5.6100 0.0000
# 3 -10.9908 2.6852 163.5341 0.0000 -8.8262 0.0000
# 4 0.0000 0.0000 0.0000 10.3159 0.0000 6.1443
# 5 -19.2399 -5.6100 -8.8262 0.0000 8.3852 0.0000
# 6 0.0000 0.0000 0.0000 6.1443 0.0000 19.2123
#
#
#
# Elastic Compliance Matrix: (Units=1/GPa)
#
#
# Indices 1 2 3 4 5 6 
#
# 1 -0.004741 -0.003840 -0.001041 0.000000 -0.014544 0.000000
# 2 -0.003840 0.027194 -0.000210 0.000000 0.009161 0.000000
# 3 -0.001041 -0.000210 0.006268 0.000000 0.004070 0.000000
# 4 0.000000 0.000000 0.000000 0.119748 0.000000 -0.038297
# 5 -0.014544 0.009161 0.004070 0.000000 0.096299 0.000000
# 6 0.000000 0.000000 0.000000 -0.038297 0.000000 0.064298
#
#
# Mechanical properties :
#
#
# Convention : Reuss Voigt Hill
#
# Bulk Modulus (GPa) = 53.94046 2.06163 28.00104
# Shear Modulus (GPa) = 15.36442 13.12104 14.24273
#
# Velocity S-wave (km/s) = 2.77770 2.56691 2.67438
# Velocity P-wave (km/s) = 6.11351 3.13380 4.85776
#
# Compressibility (1/GPa) = 0.01853896
#
# Stress axis : x y z
#
# Youngs Moduli (GPa) = -210.90427 36.77272 159.53824
#
# Poissons Ratio (x) = 0.14121 0.16601
# Poissons Ratio (y) = -0.80990 0.03353
# Poissons Ratio (z) = -0.21946 0.00773
#
# Static dielectric constant tensor:
#      x y z
#    x 1.584440 0.000000 0.060980 
#    y 0.000000 1.764350 0.000000 
#    z 0.060980 0.000000 1.670020 
# 
# From -- ./inp_files/61914.got.cif
#   From: 2010.05.17/outbox.cif.g08.bks.cpg/sg11_31_cif.got.tgz:61914.got - 2010.06.03 12:22:45.
