data_PCOD9167940
_publ_section_title
;
Structure prediction by ZEFSAII (Michael W. Deem and Ramdas Pophale) SiO2 
 PCOD9167940
Probable space group: P 21/M
;
_chemical_formula_sum "Si O2"
_cell_formula_units_Z 32
_cell_length_a 15.000000
_cell_length_b 9.000000
_cell_length_c 27.000000
_cell_angle_alpha 90.000000
_cell_angle_beta 30.000000
_cell_angle_gamma 90.000000
_cell_volume 1822.500000
_symmetry_space_group_name_H-M "P 21/M"
_symmetry_group_IT_number 11
_symmetry_cell_setting 'monoclinic'
loop_
_space_group_symop_operation_xyz
x,y,z
-x,1/2+y,-z
-x,-y,-z
x,1/2-y,z
loop_
_atom_site_type_symbol
_atom_site_label
_atom_site_fract_x
_atom_site_fract_y
_atom_site_fract_z
Si Si1 0.424402 0.428070 0.588085
Si Si2 0.538979 0.916849 0.059059
Si Si3 0.689699 0.921067 0.761883
Si Si4 0.236182 0.914379 0.119526
Si Si5 0.964293 0.574699 0.365286
Si Si6 0.110580 0.923109 0.697785
Si Si7 0.331396 0.572334 0.432560
Si Si8 0.197491 0.425080 0.406193
O O1 0.500000 0.500000 0.500000
O O2 0.417712 0.250000 0.584559
O O3 0.231070 0.504593 0.682138
O O4 0.526074 0.454640 0.591549
O O5 0.613555 0.750000 0.023733
O O6 0.378295 0.914663 0.095772
O O7 0.463772 0.967401 0.147556
O O8 0.664430 0.045932 0.978483
O O9 0.651912 0.750000 0.793345
O O10 0.734943 0.930015 0.682705
O O11 0.860132 0.978471 0.710650
O O12 0.152178 0.750000 0.159483
O O13 0.095080 0.045003 0.193297
O O14 0.000418 0.750000 0.346173
O O15 0.864431 0.517677 0.364367
O O16 0.837113 0.526325 0.470379
O O17 0.150451 0.750000 0.670888
O O18 0.296028 0.750000 0.449803
O O19 0.340331 0.513270 0.372016
O O20 0.183325 0.250000 0.426969
O O21 0.000000 0.500000 0.500000
#
# Coordination Sequence:
#
# PCOD9167940 Si02
#       8
#     4   4   4   4   4   4   4   4
#     4  11  23  37  55  77 105 141 181 222 266 317
#     4  10  20  33  52  77 106 141 177 216 265 315
#     4  11  22  35  52  76 107 143 181 219 263 315
#     4  10  20  34  52  76 108 141 176 217 263 316
#     4  12  22  32  51  75 105 143 181 220 264 313
#     4  12  23  35  53  77 108 143 181 221 263 316
#     4  11  23  38  54  75 105 140 181 226 269 311
#     4  11  23  36  54  77 106 142 182 222 266 315
#
# _framework density 17.558299000000002
#
# number of rings (size 3 to 8) (size 9 to 14) (size 15 to 20)
#    0.000    1.000    3.750    4.500    0.000    4.000 
#    0.000    0.000    0.000    0.000    0.000    0.875 
#    0.000    0.000    0.000    0.000    0.000    0.000 
#
# Total GULP energy -178258.277941 kJ/mol
# GULP energy per Si atom -5570.571186 kJ/mol
# Density = 1.751834 g / cm^3
# Si number density = 17.558299 Si / 1000 Ang^3
#
#
#
# Elastic Constant Matrix: (Units=GPa)
#
#
# Indices 1 2 3 4 5 6 
#
# 1 86.6833 38.7315 2.9657 0.0000 3.6171 0.0000
# 2 38.7315 106.1066 9.9442 0.0000 8.2638 0.0000
# 3 2.9657 9.9442 25.5626 0.0000 14.6304 0.0000
# 4 0.0000 0.0000 0.0000 22.3842 0.0000 -0.1678
# 5 3.6171 8.2638 14.6304 0.0000 14.9056 0.0000
# 6 0.0000 0.0000 0.0000 -0.1678 0.0000 27.3037
#
#
#
# Elastic Compliance Matrix: (Units=1/GPa)
#
#
# Indices 1 2 3 4 5 6 
#
# 1 0.013816 -0.005026 0.001543 0.000000 -0.002081 0.000000
# 2 -0.005026 0.011707 -0.002178 0.000000 -0.003133 0.000000
# 3 0.001543 -0.002178 0.089704 0.000000 -0.087215 0.000000
# 4 0.000000 0.000000 0.000000 0.044676 0.000000 0.000274
# 5 -0.002081 -0.003133 -0.087215 0.000000 0.154935 0.000000
# 6 0.000000 0.000000 0.000000 0.000274 0.000000 0.036627
#
#
# Mechanical properties :
#
#
# Convention : Reuss Voigt Hill
#
# Bulk Modulus (GPa) = 9.62406 35.73728 22.68067
# Shear Modulus (GPa) = 12.58112 24.03277 18.30694
#
# Velocity S-wave (km/s) = 2.67972 3.70366 3.23249
# Velocity P-wave (km/s) = 3.88170 6.21990 5.18434
#
# Compressibility (1/GPa) = 0.10390625
#
# Stress axis : x y z
#
# Youngs Moduli (GPa) = 72.38069 85.41811 11.14781
#
# Poissons Ratio (x) = 0.42928 -0.01720
# Poissons Ratio (y) = 0.36376 0.02428
# Poissons Ratio (z) = -0.11170 0.18603
#
# Static dielectric constant tensor:
#      x y z
#    x 1.610870 0.000000 0.017110 
#    y 0.000000 1.578530 0.000000 
#    z 0.017110 0.000000 1.736470 
# 
# From -- ./inp_files/71607.got.cif
#   From: 2010.05.17/outbox.ucp.g08.bks.cvg/sg11_36_cif.got.tgz:71607.got - 2010.06.11 11:38:39.
