data_PCOD9167748
_publ_section_title
;
Structure prediction by ZEFSAII (Michael W. Deem and Ramdas Pophale) SiO2 
 PCOD9167748
Probable space group: P 21/M
;
_chemical_formula_sum "Si O2"
_cell_formula_units_Z 32
_cell_length_a 9.000000
_cell_length_b 15.000000
_cell_length_c 21.000000
_cell_angle_alpha 90.000000
_cell_angle_beta 140.000000
_cell_angle_gamma 90.000000
_cell_volume 1822.302873
_symmetry_space_group_name_H-M "P 21/M"
_symmetry_group_IT_number 11
_symmetry_cell_setting 'monoclinic'
loop_
_space_group_symop_operation_xyz
x,y,z
-x,1/2+y,-z
-x,-y,-z
x,1/2-y,z
loop_
_atom_site_type_symbol
_atom_site_label
_atom_site_fract_x
_atom_site_fract_y
_atom_site_fract_z
Si Si1 0.465781 0.855669 0.720141
Si Si2 0.199204 0.640677 0.085231
Si Si3 0.447118 0.649091 0.865158
Si Si4 0.517148 0.356081 0.694225
Si Si5 0.807911 0.520208 0.753364
Si Si6 0.895790 0.853805 0.667377
Si Si7 0.934404 0.857319 0.532739
Si Si8 0.806893 0.513998 0.021333
O O1 0.491577 0.750000 0.712804
O O2 0.502946 0.863335 0.808335
O O3 0.651944 0.918162 0.748256
O O4 0.203899 0.885467 0.615154
O O5 0.164555 0.750000 0.063400
O O6 0.408011 0.632811 0.206392
O O7 0.981674 0.587571 0.045723
O O8 0.232684 0.576604 0.033916
O O9 0.519578 0.750000 0.907961
O O10 0.169482 0.646989 0.773215
O O11 0.571066 0.571409 0.945618
O O12 0.548759 0.250000 0.690920
O O13 0.691205 0.422426 0.714567
O O14 0.258475 0.381154 0.583795
O O15 0.799783 0.572508 0.684030
O O16 0.059407 0.511496 0.869696
O O17 0.815252 0.750000 0.649886
O O18 0.861436 0.879140 0.581727
O O19 0.947163 0.750000 0.535863
#
# Coordination Sequence:
#
# PCOD9167748 Si02
#       8
#     4   4   4   4   4   4   4   4
#     4   9  17  30  50  75  98 121 155 199 242 281
#     4   9  17  29  46  71 100 127 156 195 240 280
#     4   9  17  32  52  69  91 127 164 195 232 283
#     4   9  18  32  49  69  95 129 166 195 228 283
#     4  11  21  30  47  75 102 126 155 199 243 278
#     4   9  19  34  51  72  96 122 155 198 246 288
#     4   8  16  33  53  70  94 127 159 194 235 284
#     4  10  19  29  45  69  98 129 161 194 233 281
#
# _framework density 17.560198
#
# number of rings (size 3 to 8) (size 9 to 14) (size 15 to 20)
#    0.000    2.750    0.000    4.500    0.000    4.000 
#    0.000    0.000    0.000    0.750    0.000    2.625 
#    0.000    0.000    0.000    0.000    0.000    0.000 
#
# Total GULP energy -178142.897683 kJ/mol
# GULP energy per Si atom -5566.965553 kJ/mol
# Density = 1.752023 g / cm^3
# Si number density = 17.560198 Si / 1000 Ang^3
#
#
#
# Elastic Constant Matrix: (Units=GPa)
#
#
# Indices 1 2 3 4 5 6 
#
# 1 19.9223 12.1136 -2.1229 0.0000 1.6294 0.0000
# 2 12.1136 93.4954 26.5807 0.0000 -1.9011 0.0000
# 3 -2.1229 26.5807 112.1283 0.0000 3.8453 0.0000
# 4 0.0000 0.0000 0.0000 32.6433 0.0000 2.1767
# 5 1.6294 -1.9011 3.8453 0.0000 12.5240 0.0000
# 6 0.0000 0.0000 0.0000 2.1767 0.0000 23.2382
#
#
#
# Elastic Compliance Matrix: (Units=1/GPa)
#
#
# Indices 1 2 3 4 5 6 
#
# 1 0.056514 -0.008490 0.003415 0.000000 -0.009690 0.000000
# 2 -0.008490 0.012829 -0.003342 0.000000 0.004078 0.000000
# 3 0.003415 -0.003342 0.009912 0.000000 -0.003995 0.000000
# 4 0.000000 0.000000 0.000000 0.030827 0.000000 -0.002888
# 5 -0.009690 0.004078 -0.003995 0.000000 0.082953 0.000000
# 6 0.000000 0.000000 0.000000 -0.002888 0.000000 0.043303
#
#
# Mechanical properties :
#
#
# Convention : Reuss Voigt Hill
#
# Bulk Modulus (GPa) = 16.02025 33.18764 24.60395
# Shear Modulus (GPa) = 18.24964 26.27941 22.26453
#
# Velocity S-wave (km/s) = 3.22726 3.87270 3.56462
# Velocity P-wave (km/s) = 4.79893 6.23999 5.56629
#
# Compressibility (1/GPa) = 0.06242098
#
# Stress axis : x y z
#
# Youngs Moduli (GPa) = 17.69480 77.95038 100.88593
#
# Poissons Ratio (x) = 0.66180 -0.34451
# Poissons Ratio (y) = 0.15023 0.33713
# Poissons Ratio (z) = -0.06043 0.26049
#
# Static dielectric constant tensor:
#      x y z
#    x 1.627760 0.000000 0.012930 
#    y 0.000000 1.607790 0.000000 
#    z 0.012930 0.000000 1.615410 
# 
# From -- ./inp_files/63825.got.cif
#   From: 2010.05.17/outbox.ucp.g08.bks.cvg/sg11_32_cif.got.tgz:63825.got - 2010.06.11 11:38:39.
