data_PCOD9167052
_publ_section_title
;
Structure prediction by ZEFSAII (Michael W. Deem and Ramdas Pophale) SiO2 
 PCOD9167052
Probable space group: P 21/M
;
_chemical_formula_sum "Si O2"
_cell_formula_units_Z 24
_cell_length_a 17.162231
_cell_length_b 7.662710
_cell_length_c 22.972838
_cell_angle_alpha 90.000000
_cell_angle_beta 155.989213
_cell_angle_gamma 90.000000
_cell_volume 1229.327739
_symmetry_space_group_name_H-M "P 21/M"
_symmetry_group_IT_number 11
_symmetry_cell_setting 'monoclinic'
loop_
_space_group_symop_operation_xyz
x,y,z
-x,1/2+y,-z
-x,-y,-z
x,1/2-y,z
loop_
_atom_site_type_symbol
_atom_site_label
_atom_site_fract_x
_atom_site_fract_y
_atom_site_fract_z
Si Si1 0.118912 0.963074 0.399358
Si Si2 0.558330 0.959038 0.694599
Si Si3 0.857027 0.040936 0.454342
Si Si4 0.063034 0.035555 0.842430
Si Si5 0.299903 0.955017 0.332462
Si Si6 0.421650 0.463483 0.161125
O O1 0.117883 0.750000 0.398206
O O2 0.337999 0.017876 0.535073
O O3 0.076456 0.021179 0.436245
O O4 0.979546 0.019927 0.252721
O O5 0.550698 0.750000 0.691849
O O6 0.622813 0.018721 0.802618
O O7 0.684268 0.004221 0.724931
O O8 0.845441 0.250000 0.450489
O O9 0.638642 0.979227 0.295619
O O10 0.000000 0.000000 0.500000
O O11 0.064849 0.250000 0.843871
O O12 0.884514 0.972195 0.759961
O O13 0.261134 0.977951 0.006480
O O14 0.280714 0.750000 0.325001
O O15 0.500000 0.000000 0.500000
O O16 0.420499 0.250000 0.159810
#
# Coordination Sequence:
#
# PCOD9167052 Si02
#       6
#     4   4   4   4   4   4
#     4   8  14  27  47  67  90 123 158 185 223 278
#     4   9  16  30  48  68  93 124 161 197 228 268
#     4   9  17  31  52  73  91 117 153 192 233 281
#     4   9  16  28  47  70  93 123 162 197 224 269
#     4  11  20  29  46  70  96 126 164 200 232 267
#     4   8  16  30  49  70  94 124 158 191 229 279
#
# _framework density 19.522867000000002
#
# number of rings (size 3 to 8) (size 9 to 14) (size 15 to 20)
#    0.000    3.000    1.667    2.500    0.000    0.667 
#    0.000    4.167    0.000    3.000    0.000    0.000 
#    0.000    0.000    0.000    0.000    0.000    0.000 
#
# Total GULP energy -133791.518902 kJ/mol
# GULP energy per Si atom -5574.646621 kJ/mol
# Density = 1.947843 g / cm^3
# Si number density = 19.522867 Si / 1000 Ang^3
#
#
#
# Elastic Constant Matrix: (Units=GPa)
#
#
# Indices 1 2 3 4 5 6 
#
# 1 177.7614 3.6059 107.6934 0.0000 -10.4648 0.0000
# 2 3.6059 29.7347 8.2161 0.0000 -3.0173 0.0000
# 3 107.6934 8.2161 166.6153 0.0000 -31.8250 0.0000
# 4 0.0000 0.0000 0.0000 4.2761 0.0000 2.6958
# 5 -10.4648 -3.0173 -31.8250 0.0000 27.1576 0.0000
# 6 0.0000 0.0000 0.0000 2.6958 0.0000 24.2445
#
#
#
# Elastic Compliance Matrix: (Units=1/GPa)
#
#
# Indices 1 2 3 4 5 6 
#
# 1 0.009683 0.000335 -0.007158 0.000000 -0.004619 0.000000
# 2 0.000335 0.034223 -0.001486 0.000000 0.002190 0.000000
# 3 -0.007158 -0.001486 0.013068 0.000000 0.012391 0.000000
# 4 0.000000 0.000000 0.000000 0.251490 0.000000 -0.027964
# 5 -0.004619 0.002190 0.012391 0.000000 0.049806 0.000000
# 6 0.000000 0.000000 0.000000 -0.027964 0.000000 0.044356
#
#
# Mechanical properties :
#
#
# Convention : Reuss Voigt Hill
#
# Bulk Modulus (GPa) = 24.77857 68.12691 46.45274
# Shear Modulus (GPa) = 11.55547 28.10869 19.83208
#
# Velocity S-wave (km/s) = 2.43553 3.79856 3.19068
# Velocity P-wave (km/s) = 4.54188 7.36278 6.11716
#
# Compressibility (1/GPa) = 0.04035745
#
# Stress axis : x y z
#
# Youngs Moduli (GPa) = 103.27300 29.22018 76.52111
#
# Poissons Ratio (x) = -0.00978 0.54771
# Poissons Ratio (y) = -0.03457 0.11368
# Poissons Ratio (z) = 0.73918 0.04341
#
# Static dielectric constant tensor:
#      x y z
#    x 1.687260 0.000000 -0.008930 
#    y 0.000000 1.727150 0.000000 
#    z -0.008930 0.000000 1.667600 
# 
# From -- ./inp_files/20867.got.cif
#   From: 2010.05.17/outbox.cif.g08.bks.cpg/sg11_11_cif.got.tgz:20867.got - 2010.06.03 12:22:45.
