data_PCOD9167702
_publ_section_title
;
Structure prediction by ZEFSAII (Michael W. Deem and Ramdas Pophale) SiO2 
 PCOD9167702
Probable space group: P 21/M
;
_chemical_formula_sum "Si O2"
_cell_formula_units_Z 32
_cell_length_a 27.000000
_cell_length_b 9.000000
_cell_length_c 21.000000
_cell_angle_alpha 90.000000
_cell_angle_beta 160.000000
_cell_angle_gamma 90.000000
_cell_volume 1745.328791
_symmetry_space_group_name_H-M "P 21/M"
_symmetry_group_IT_number 11
_symmetry_cell_setting 'monoclinic'
loop_
_space_group_symop_operation_xyz
x,y,z
-x,1/2+y,-z
-x,-y,-z
x,1/2-y,z
loop_
_atom_site_type_symbol
_atom_site_label
_atom_site_fract_x
_atom_site_fract_y
_atom_site_fract_z
Si Si1 0.386421 0.569508 0.578016
Si Si2 0.109346 0.072412 0.723228
Si Si3 0.326194 0.570860 0.647302
Si Si4 0.343902 0.927543 0.389283
Si Si5 0.812367 0.571891 0.401483
Si Si6 0.356022 0.070205 0.921603
Si Si7 0.657566 0.427313 0.748211
Si Si8 0.704062 0.426860 0.944752
O O1 0.410700 0.750000 0.607095
O O2 0.311220 0.534241 0.554336
O O3 0.303766 0.525153 0.412626
O O4 0.541591 0.487312 0.761674
O O5 0.089392 0.250000 0.694865
O O6 0.221132 0.023428 0.802983
O O7 0.956295 0.990534 0.541849
O O8 0.190468 0.024001 0.885364
O O9 0.317248 0.750000 0.643010
O O10 0.216108 0.496621 0.563635
O O11 0.488880 0.521152 0.864533
O O12 0.337512 0.750000 0.383328
O O13 0.273027 0.972151 0.235860
O O14 0.509031 0.982132 0.578858
O O15 0.820833 0.750000 0.415553
O O16 0.680745 0.528495 0.195115
O O17 0.358152 0.250000 0.927396
O O18 0.622644 0.250000 0.703110
O O19 0.741337 0.448107 0.915195
O O20 0.712058 0.250000 0.968656
#
# Coordination Sequence:
#
# PCOD9167702 Si02
#       8
#     4   4   4   4   4   4   4   4
#     4   9  16  28  48  70  97 132 170 204 238 288
#     4  11  21  37  56  74  98 133 168 206 250 298
#     4  10  19  35  54  75 102 135 168 203 245 294
#     4   8  13  22  38  62  91 127 163 195 234 283
#     4  11  23  37  52  76 103 129 164 209 253 300
#     4   9  19  36  57  76  99 127 165 208 249 296
#     4   8  14  23  36  60  96 128 156 194 242 286
#     4  10  18  28  45  71 101 131 163 204 248 292
#
# _framework density 18.334654
#
# number of rings (size 3 to 8) (size 9 to 14) (size 15 to 20)
#    0.000    2.500    1.250    1.875    0.000    1.000 
#    0.000    2.500    0.000    0.000    0.000    0.875 
#    0.000    0.000    0.000    0.000    0.000    0.000 
#
# Total GULP energy -178155.635161 kJ/mol
# GULP energy per Si atom -5567.363599 kJ/mol
# Density = 1.829292 g / cm^3
# Si number density = 18.334654 Si / 1000 Ang^3
#
#
#
# Elastic Constant Matrix: (Units=GPa)
#
#
# Indices 1 2 3 4 5 6 
#
# 1 78.7111 10.6160 8.0551 0.0000 -18.9673 0.0000
# 2 10.6160 23.9344 -1.4128 0.0000 0.9741 0.0000
# 3 8.0551 -1.4128 11.1719 0.0000 -0.9980 0.0000
# 4 0.0000 0.0000 0.0000 19.9152 0.0000 0.3458
# 5 -18.9673 0.9741 -0.9980 0.0000 25.9507 0.0000
# 6 0.0000 0.0000 0.0000 0.3458 0.0000 16.5596
#
#
#
# Elastic Compliance Matrix: (Units=1/GPa)
#
#
# Indices 1 2 3 4 5 6 
#
# 1 0.018615 -0.009597 -0.013433 0.000000 0.013449 0.000000
# 2 -0.009597 0.047092 0.012132 0.000000 -0.008315 0.000000
# 3 -0.013433 0.012132 0.100156 0.000000 -0.006422 0.000000
# 4 0.000000 0.000000 0.000000 0.050231 0.000000 -0.001049
# 5 0.013449 -0.008315 -0.006422 0.000000 0.048430 0.000000
# 6 0.000000 0.000000 0.000000 -0.001049 0.000000 0.060410
#
#
# Mechanical properties :
#
#
# Convention : Reuss Voigt Hill
#
# Bulk Modulus (GPa) = 6.94127 16.48156 11.71142
# Shear Modulus (GPa) = 12.66616 18.92236 15.79426
#
# Velocity S-wave (km/s) = 2.63122 3.21605 2.93822
# Velocity P-wave (km/s) = 3.60904 4.77487 4.23229
#
# Compressibility (1/GPa) = 0.14406587
#
# Stress axis : x y z
#
# Youngs Moduli (GPa) = 53.72126 21.23506 9.98438
#
# Poissons Ratio (x) = 0.20379 0.13413
# Poissons Ratio (y) = 0.51555 -0.12113
# Poissons Ratio (z) = 0.72166 -0.25762
#
# Static dielectric constant tensor:
#      x y z
#    x 1.683900 0.000000 -0.057390 
#    y 0.000000 1.606680 0.000000 
#    z -0.057390 0.000000 1.647400 
# 
# From -- ./inp_files/66433.got.cif
#   From: 2010.05.17/outbox.ucp.g08.bks.cvg/sg11_34_cif.got.tgz:66433.got - 2010.06.11 11:38:39.
