data_PCOD9167007
_publ_section_title
;
Structure prediction by ZEFSAII (Michael W. Deem and Ramdas Pophale) SiO2 
 PCOD9167007
Probable space group: P 21/M
;
_chemical_formula_sum "Si O2"
_cell_formula_units_Z 22
_cell_length_a 9.249443
_cell_length_b 19.925487
_cell_length_c 5.094084
_cell_angle_alpha 90.000000
_cell_angle_beta 106.460023
_cell_angle_gamma 90.000000
_cell_volume 900.362162
_symmetry_space_group_name_H-M "P 21/M"
_symmetry_group_IT_number 11
_symmetry_cell_setting 'monoclinic'
loop_
_space_group_symop_operation_xyz
x,y,z
-x,1/2+y,-z
-x,-y,-z
x,1/2-y,z
loop_
_atom_site_type_symbol
_atom_site_label
_atom_site_fract_x
_atom_site_fract_y
_atom_site_fract_z
Si Si1 0.825347 0.561217 0.877281
Si Si2 0.312251 0.750000 0.508841
Si Si3 0.000000 0.500000 0.500000
Si Si4 0.530378 0.750000 0.116815
Si Si5 0.597344 0.061248 0.777252
Si Si6 0.739023 0.110575 0.360871
Si Si7 0.711554 0.615421 0.322201
O O1 0.692868 0.506258 0.821870
O O2 0.766746 0.619378 0.649648
O O3 0.961681 0.534582 0.771999
O O4 0.840370 0.585630 0.189361
O O5 0.402805 0.750000 0.281027
O O6 0.213911 0.683957 0.517627
O O7 0.443274 0.750000 0.797239
O O8 0.141136 0.552521 0.536858
O O9 0.636290 0.684404 0.196252
O O10 0.604543 0.093340 0.493203
O O11 0.422289 0.060233 0.758057
O O12 0.679026 0.107917 0.034476
#
# Coordination Sequence:
#
# PCOD9167007 Si02
#       7
#     4   2   2   2   4   4   4
#     4  11  24  39  65  88 133 170 216 261 333 376
#     4  12  20  42  64  96 124 176 212 274 330 416
#     4  10  26  46  62  94 130 180 222 274 296 390
#     4  12  24  40  66  94 142 156 216 266 350 406
#     4  11  21  39  63  98 127 161 208 279 331 402
#     4  11  22  39  67  92 130 171 224 268 333 379
#     4  12  22  40  62  99 126 168 206 274 332 403
#
# _framework density 24.434612000000001
#
# number of rings (size 3 to 8) (size 9 to 14) (size 15 to 20)
#    0.000    0.727    3.636    5.455    0.000    6.545 
#    0.000    1.818    0.000    0.000    0.000    0.000 
#    0.000    0.000    0.000    0.000    0.000    0.000 
#
# Total GULP energy -122674.974355 kJ/mol
# GULP energy per Si atom -5576.135198 kJ/mol
# Density = 2.437900 g / cm^3
# Si number density = 24.434612 Si / 1000 Ang^3
#
#
#
# Elastic Constant Matrix: (Units=GPa)
#
#
# Indices 1 2 3 4 5 6 
#
# 1 108.5368 20.2001 19.2486 0.0000 -36.1565 0.0000
# 2 20.2001 81.8874 15.9922 0.0000 -22.0306 0.0000
# 3 19.2486 15.9922 121.9953 0.0000 -34.9596 0.0000
# 4 0.0000 0.0000 0.0000 32.1829 0.0000 -2.8313
# 5 -36.1565 -22.0306 -34.9596 0.0000 36.3859 0.0000
# 6 0.0000 0.0000 0.0000 -2.8313 0.0000 25.7474
#
#
#
# Elastic Compliance Matrix: (Units=1/GPa)
#
#
# Indices 1 2 3 4 5 6 
#
# 1 0.014328 0.000545 0.002542 0.000000 0.017010 0.000000
# 2 0.000545 0.014674 0.000955 0.000000 0.010344 0.000000
# 3 0.002542 0.000955 0.011813 0.000000 0.014454 0.000000
# 4 0.000000 0.000000 0.000000 0.031376 0.000000 0.003450
# 5 0.017010 0.010344 0.014454 0.000000 0.064537 0.000000
# 6 0.000000 0.000000 0.000000 0.003450 0.000000 0.039218
#
#
# Mechanical properties :
#
#
# Convention : Reuss Voigt Hill
#
# Bulk Modulus (GPa) = 20.45029 47.03349 33.74189
# Shear Modulus (GPa) = 27.15032 35.99513 31.57273
#
# Velocity S-wave (km/s) = 3.33700 3.84229 3.59852
# Velocity P-wave (km/s) = 4.82026 6.24298 5.57717
#
# Compressibility (1/GPa) = 0.04889907
#
# Stress axis : x y z
#
# Youngs Moduli (GPa) = 69.79510 68.14903 84.65383
#
# Poissons Ratio (x) = -0.03718 -0.21523
# Poissons Ratio (y) = -0.03807 -0.08080
# Poissons Ratio (z) = -0.17745 -0.06505
#
# Static dielectric constant tensor:
#      x y z
#    x 3.261640 0.000000 2.698060 
#    y 0.000000 1.902360 0.000000 
#    z 2.698060 0.000000 7.082020 
# 
# From -- ./inp_files/2415.got.cif
#   From: 2010.05.17/outbox.cif.g08.bks.cpg/sg11_2_cif.got.tgz:2415.got - 2010.06.03 12:22:45.
