data_PCOD9167676
_publ_section_title
;
Structure prediction by ZEFSAII (Michael W. Deem and Ramdas Pophale) SiO2 
 PCOD9167676
Probable space group: P 21/M
;
_chemical_formula_sum "Si O2"
_cell_formula_units_Z 24
_cell_length_a 20.206238
_cell_length_b 9.578410
_cell_length_c 16.664836
_cell_angle_alpha 90.000000
_cell_angle_beta 160.911873
_cell_angle_gamma 90.000000
_cell_volume 1054.768141
_symmetry_space_group_name_H-M "P 21/M"
_symmetry_group_IT_number 11
_symmetry_cell_setting 'monoclinic'
loop_
_space_group_symop_operation_xyz
x,y,z
-x,1/2+y,-z
-x,-y,-z
x,1/2-y,z
loop_
_atom_site_type_symbol
_atom_site_label
_atom_site_fract_x
_atom_site_fract_y
_atom_site_fract_z
Si Si1 0.594036 0.589845 0.987640
Si Si2 0.367427 0.090873 0.606487
Si Si3 0.813689 0.090341 0.368888
Si Si4 0.030535 0.909518 0.740281
Si Si5 0.270479 0.408327 0.319809
Si Si6 0.246699 0.907788 0.146105
O O1 0.651277 0.750000 0.037719
O O2 0.535227 0.504714 0.840294
O O3 0.387180 0.594477 0.804419
O O4 0.751110 0.506143 0.222788
O O5 0.440824 0.250000 0.675825
O O6 0.184446 0.099419 0.459597
O O7 0.275668 0.038629 0.417273
O O8 0.857520 0.250000 0.395990
O O9 0.988709 0.017320 0.621468
O O10 0.079776 0.750000 0.770569
O O11 0.179645 0.959633 0.981725
O O12 0.191244 0.250000 0.225748
O O13 0.510973 0.400965 0.575705
O O14 0.179143 0.503479 0.145290
O O15 0.165891 0.750000 0.058908
#
# Coordination Sequence:
#
# PCOD9167676 Si02
#       6
#     4   4   4   4   4   4
#     4   9  16  26  42  65  92 120 148 179 217 261
#     4   9  17  29  45  66  91 117 146 182 222 260
#     4   9  16  26  42  65  92 120 148 179 217 261
#     4   9  17  29  45  66  91 117 146 182 222 260
#     4   9  18  32  48  65  87 117 150 182 219 264
#     4   9  18  32  48  65  87 117 150 182 219 264
#
# _framework density 22.753817000000002
#
# number of rings (size 3 to 8) (size 9 to 14) (size 15 to 20)
#    0.000    3.000    0.000    1.000    0.000    6.000 
#    0.000    0.000    0.000    1.000    0.000    0.000 
#    0.000    0.000    0.000    0.000    0.000    0.000 
#
# Total GULP energy -134141.091394 kJ/mol
# GULP energy per Si atom -5589.212141 kJ/mol
# Density = 2.270203 g / cm^3
# Si number density = 22.753817 Si / 1000 Ang^3
#
#
#
# Elastic Constant Matrix: (Units=GPa)
#
#
# Indices 1 2 3 4 5 6 
#
# 1 89.0077 46.3692 31.2162 0.0000 -24.5889 0.0000
# 2 46.3692 131.5730 75.7045 0.0000 -55.1203 0.0000
# 3 31.2162 75.7045 132.9111 0.0000 -44.5692 0.0000
# 4 0.0000 0.0000 0.0000 25.4516 0.0000 -18.1522
# 5 -24.5889 -55.1203 -44.5692 0.0000 55.6193 0.0000
# 6 0.0000 0.0000 0.0000 -18.1522 0.0000 20.3030
#
#
#
# Elastic Compliance Matrix: (Units=1/GPa)
#
#
# Indices 1 2 3 4 5 6 
#
# 1 0.013933 -0.003815 -0.000413 0.000000 0.002049 0.000000
# 2 -0.003815 0.016033 -0.004750 0.000000 0.010397 0.000000
# 3 -0.000413 -0.004750 0.011878 0.000000 0.004629 0.000000
# 4 0.000000 0.000000 0.000000 0.108431 0.000000 0.096944
# 5 0.002049 0.010397 0.004629 0.000000 0.032897 0.000000
# 6 0.000000 0.000000 0.000000 0.096944 0.000000 0.135928
#
#
# Mechanical properties :
#
#
# Convention : Reuss Voigt Hill
#
# Bulk Modulus (GPa) = 41.85870 73.34130 57.60000
# Shear Modulus (GPa) = 14.49197 33.62159 24.05678
#
# Velocity S-wave (km/s) = 2.52643 3.84816 3.25509
# Velocity P-wave (km/s) = 5.19103 7.21436 6.28465
#
# Compressibility (1/GPa) = 0.02388990
#
# Stress axis : x y z
#
# Youngs Moduli (GPa) = 71.77266 62.37005 84.18598
#
# Poissons Ratio (x) = 0.23792 0.03474
# Poissons Ratio (y) = 0.27378 0.39989
# Poissons Ratio (z) = 0.02962 0.29627
#
# Static dielectric constant tensor:
#      x y z
#    x 1.888140 0.000000 0.066880 
#    y 0.000000 1.797750 0.000000 
#    z 0.066880 0.000000 1.868460 
# 
# From -- ./inp_files/33835.got.cif
#   From: 2010.05.17/outbox.cif.g08.bks.cpg/sg11_17_cif.got.tgz:33835.got - 2010.06.03 12:22:45.
