data_PCOD9167894
_publ_section_title
;
Structure prediction by ZEFSAII (Michael W. Deem and Ramdas Pophale) SiO2 
 PCOD9167894
Probable space group: P 21/M
;
_chemical_formula_sum "Si O2"
_cell_formula_units_Z 28
_cell_length_a 27.000000
_cell_length_b 9.000000
_cell_length_c 9.000000
_cell_angle_alpha 90.000000
_cell_angle_beta 40.000000
_cell_angle_gamma 90.000000
_cell_volume 1405.776502
_symmetry_space_group_name_H-M "P 21/M"
_symmetry_group_IT_number 11
_symmetry_cell_setting 'monoclinic'
loop_
_space_group_symop_operation_xyz
x,y,z
-x,1/2+y,-z
-x,-y,-z
x,1/2-y,z
loop_
_atom_site_type_symbol
_atom_site_label
_atom_site_fract_x
_atom_site_fract_y
_atom_site_fract_z
Si Si1 0.966125 0.930306 0.230206
Si Si2 0.184600 0.570604 0.516500
Si Si3 0.442338 0.924819 0.924586
Si Si4 0.680049 0.572198 0.972342
Si Si5 0.876618 0.429159 0.013780
Si Si6 0.263469 0.570801 0.851892
Si Si7 0.612499 0.925367 0.643072
O O1 0.959802 0.750000 0.234462
O O2 0.883207 0.006320 0.433326
O O3 0.033301 0.970626 0.193001
O O4 0.000000 0.000000 0.000000
O O5 0.188596 0.750000 0.497238
O O6 0.262858 0.494758 0.284009
O O7 0.161306 0.528644 0.739441
O O8 0.421982 0.750000 0.971148
O O9 0.534537 0.936100 0.723994
O O10 0.403736 0.007686 0.875267
O O11 0.409210 0.003687 0.148758
O O12 0.680623 0.750000 0.969919
O O13 0.710200 0.508305 0.058564
O O14 0.875262 0.250000 0.017564
O O15 0.821846 0.476848 0.006028
O O16 0.266148 0.750000 0.862123
O O17 0.320814 0.517173 0.590179
O O18 0.631625 0.750000 0.614698
#
# Coordination Sequence:
#
# PCOD9167894 Si02
#       7
#     4   4   4   4   4   4   4
#     4   9  16  30  52  81 112 142 181 229 278 327
#     4  10  19  35  58  84 111 142 183 230 283 340
#     4  10  21  39  62  86 113 147 185 226 276 332
#     4  12  25  39  55  80 113 148 188 234 282 333
#     4   8  17  33  56  82 108 140 181 227 272 325
#     4  11  22  38  58  80 111 152 191 229 279 335
#     4  10  21  38  61  89 116 143 182 231 277 325
#
# _framework density 19.917818
#
# number of rings (size 3 to 8) (size 9 to 14) (size 15 to 20)
#    0.000    2.000    0.000    5.143    0.000    3.429 
#    0.000    8.571    0.000    0.000    0.000    0.000 
#    0.000    0.000    0.000    0.000    0.000    0.000 
#
# Total GULP energy -156349.278327 kJ/mol
# GULP energy per Si atom -5583.902797 kJ/mol
# Density = 1.987248 g / cm^3
# Si number density = 19.917818 Si / 1000 Ang^3
#
#
#
# Elastic Constant Matrix: (Units=GPa)
#
#
# Indices 1 2 3 4 5 6 
#
# 1 144.1472 42.4072 -0.2899 0.0000 -16.5214 0.0000
# 2 42.4072 118.3309 -0.5371 0.0000 -11.7949 0.0000
# 3 -0.2899 -0.5371 2.9020 0.0000 -13.1057 0.0000
# 4 0.0000 0.0000 0.0000 29.6758 0.0000 -2.5916
# 5 -16.5214 -11.7949 -13.1057 0.0000 21.8758 0.0000
# 6 0.0000 0.0000 0.0000 -2.5916 0.0000 29.8572
#
#
#
# Elastic Compliance Matrix: (Units=1/GPa)
#
#
# Indices 1 2 3 4 5 6 
#
# 1 0.007513 -0.002986 -0.010877 0.000000 -0.002452 0.000000
# 2 -0.002986 0.009274 -0.008100 0.000000 -0.002108 0.000000
# 3 -0.010877 -0.008100 -0.167206 0.000000 -0.112754 0.000000
# 4 0.000000 0.000000 0.000000 0.033955 0.000000 0.002947
# 5 -0.002452 -0.002108 -0.112754 0.000000 -0.024826 0.000000
# 6 0.000000 0.000000 0.000000 0.002947 0.000000 0.033749
#
#
# Mechanical properties :
#
#
# Convention : Reuss Voigt Hill
#
# Bulk Modulus (GPa) = -5.14549 38.72670 16.79061
# Shear Modulus (GPa) = -38.94154 31.20175 -3.86990
#
# Velocity S-wave (km/s) = -4.42646 3.96223 -1.39540
# Velocity P-wave (km/s) = 5.35852 6.35750 2.41910
#
# Compressibility (1/GPa) = -0.19434495
#
# Stress axis : x y z
#
# Youngs Moduli (GPa) = 133.10319 107.82546 -5.98064
#
# Poissons Ratio (x) = 0.32200 -0.06505
# Poissons Ratio (y) = 0.39748 -0.04844
# Poissons Ratio (z) = 1.44771 0.87340
#
# Static dielectric constant tensor:
#      x y z
#    x 1.764920 0.000000 -0.029190 
#    y 0.000000 1.654690 0.000000 
#    z -0.029190 0.000000 1.710100 
# 
# From -- ./inp_files/28330.got.cif
#   From: 2010.05.17/outbox.ucp.g08.bks.cvg/sg11_15_cif.got.tgz:28330.got - 2010.06.11 11:38:39.
