data_PCOD9167781
_publ_section_title
;
Structure prediction by ZEFSAII (Michael W. Deem and Ramdas Pophale) SiO2 
 PCOD9167781
Probable space group: P 21/M
;
_chemical_formula_sum "Si O2"
_cell_formula_units_Z 32
_cell_length_a 15.000000
_cell_length_b 9.000000
_cell_length_c 24.000000
_cell_angle_alpha 90.000000
_cell_angle_beta 150.000000
_cell_angle_gamma 90.000000
_cell_volume 1620.000000
_symmetry_space_group_name_H-M "P 21/M"
_symmetry_group_IT_number 11
_symmetry_cell_setting 'monoclinic'
loop_
_space_group_symop_operation_xyz
x,y,z
-x,1/2+y,-z
-x,-y,-z
x,1/2-y,z
loop_
_atom_site_type_symbol
_atom_site_label
_atom_site_fract_x
_atom_site_fract_y
_atom_site_fract_z
Si Si1 0.637371 0.928301 0.617486
Si Si2 0.414180 0.084018 0.902143
Si Si3 0.096475 0.571652 0.424096
Si Si4 0.774827 0.074943 0.295730
Si Si5 0.503074 0.930483 0.665414
Si Si6 0.773688 0.084280 0.033120
Si Si7 0.024255 0.927937 0.254559
Si Si8 0.412268 0.070637 0.165265
O O1 0.624576 0.750000 0.607758
O O2 0.602113 0.974337 0.662254
O O3 0.500000 0.000000 0.500000
O O4 0.822235 0.989451 0.696017
O O5 0.338599 0.250000 0.874392
O O6 0.287948 0.974077 0.800124
O O7 0.573913 0.106291 0.945995
O O8 0.500000 0.000000 0.000000
O O9 0.088659 0.750000 0.422383
O O10 0.297481 0.522674 0.546470
O O11 0.047843 0.532974 0.333015
O O12 0.962755 0.508572 0.398411
O O13 0.802033 0.250000 0.314109
O O14 0.612078 0.036748 0.249216
O O15 0.501964 0.750000 0.666412
O O16 0.586551 0.977861 0.769516
O O17 0.857570 0.250000 0.073705
O O18 0.856633 0.986433 0.128136
O O19 0.740664 0.002866 0.956185
O O20 0.038736 0.750000 0.258458
O O21 0.393134 0.250000 0.151175
#
# Coordination Sequence:
#
# PCOD9167781 Si02
#       8
#     4   4   4   4   4   4   4   4
#     4  11  21  38  62  88 116 145 181 227 283 339
#     4  10  19  31  49  73 104 143 185 230 278 328
#     4  10  20  35  55  81 114 150 187 230 281 335
#     4  10  20  32  49  78 111 146 188 230 271 321
#     4   9  19  38  61  83 109 147 188 228 280 337
#     4  10  21  36  54  80 112 146 186 233 281 327
#     4  11  22  37  58  86 116 148 187 229 282 338
#     4   9  19  38  60  79 109 152 193 230 272 329
#
# _framework density 19.753086
#
# number of rings (size 3 to 8) (size 9 to 14) (size 15 to 20)
#    0.000    2.000    1.250    2.625    0.000    5.500 
#    0.000    2.500    0.000    0.000    0.000    0.000 
#    0.000    0.000    0.000    0.000    0.000    0.000 
#
# Total GULP energy -178230.904529 kJ/mol
# GULP energy per Si atom -5569.715767 kJ/mol
# Density = 1.970813 g / cm^3
# Si number density = 19.753086 Si / 1000 Ang^3
#
#
#
# Elastic Constant Matrix: (Units=GPa)
#
#
# Indices 1 2 3 4 5 6 
#
# 1 46.0055 18.7830 -2.0688 0.0000 -15.8327 0.0000
# 2 18.7830 49.7536 8.4259 0.0000 -8.2593 0.0000
# 3 -2.0688 8.4259 39.1612 0.0000 -15.1117 0.0000
# 4 0.0000 0.0000 0.0000 25.8393 0.0000 4.4629
# 5 -15.8327 -8.2593 -15.1117 0.0000 38.2242 0.0000
# 6 0.0000 0.0000 0.0000 4.4629 0.0000 20.0498
#
#
#
# Elastic Compliance Matrix: (Units=1/GPa)
#
#
# Indices 1 2 3 4 5 6 
#
# 1 0.031771 -0.011220 0.009718 0.000000 0.014577 0.000000
# 2 -0.011220 0.025164 -0.006729 0.000000 -0.001870 0.000000
# 3 0.009718 -0.006729 0.033617 0.000000 0.015862 0.000000
# 4 0.000000 0.000000 0.000000 0.040248 0.000000 -0.008959
# 5 0.014577 -0.001870 0.015862 0.000000 0.038066 0.000000
# 6 0.000000 0.000000 0.000000 -0.008959 0.000000 0.051870
#
#
# Mechanical properties :
#
#
# Convention : Reuss Voigt Hill
#
# Bulk Modulus (GPa) = 13.49704 20.57782 17.03743
# Shear Modulus (GPa) = 19.09156 24.14134 21.61645
#
# Velocity S-wave (km/s) = 3.11225 3.49973 3.31166
# Velocity P-wave (km/s) = 4.44550 5.17406 4.82356
#
# Compressibility (1/GPa) = 0.07409034
#
# Stress axis : x y z
#
# Youngs Moduli (GPa) = 31.47504 39.73948 29.74650
#
# Poissons Ratio (x) = 0.44588 -0.28907
# Poissons Ratio (y) = 0.35315 0.20015
# Poissons Ratio (z) = -0.30586 0.26739
#
# Static dielectric constant tensor:
#      x y z
#    x 1.596280 0.000000 -0.292480 
#    y 0.000000 1.686980 0.000000 
#    z -0.292480 0.000000 0.819370 
# 
# From -- ./inp_files/69071.got.cif
#   From: 2010.05.17/outbox.ucp.g08.bks.cvg/sg11_35_cif.got.tgz:69071.got - 2010.06.11 11:38:39.
