data_PCOD9167647
_publ_section_title
;
Structure prediction by ZEFSAII (Michael W. Deem and Ramdas Pophale) SiO2 
 PCOD9167647
Probable space group: P 21/M
;
_chemical_formula_sum "Si O2"
_cell_formula_units_Z 28
_cell_length_a 15.282356
_cell_length_b 11.033282
_cell_length_c 9.687653
_cell_angle_alpha 90.000000
_cell_angle_beta 47.617954
_cell_angle_gamma 90.000000
_cell_volume 1206.596519
_symmetry_space_group_name_H-M "P 21/M"
_symmetry_group_IT_number 11
_symmetry_cell_setting 'monoclinic'
loop_
_space_group_symop_operation_xyz
x,y,z
-x,1/2+y,-z
-x,-y,-z
x,1/2-y,z
loop_
_atom_site_type_symbol
_atom_site_label
_atom_site_fract_x
_atom_site_fract_y
_atom_site_fract_z
Si Si1 0.271229 0.381053 0.761457
Si Si2 0.811088 0.614167 0.466224
Si Si3 0.269520 0.875387 0.825465
Si Si4 0.472630 0.883424 0.838517
Si Si5 0.531934 0.117457 0.617535
Si Si6 0.274311 0.888139 0.258025
Si Si7 0.038976 0.886205 0.367136
O O1 0.234198 0.250000 0.855013
O O2 0.239684 0.385717 0.633964
O O3 0.208143 0.495470 0.897517
O O4 0.413148 0.390905 0.646296
O O5 0.785333 0.750000 0.551815
O O6 0.761282 0.500670 0.607109
O O7 0.954802 0.604184 0.323022
O O8 0.199206 0.750000 0.903121
O O9 0.369479 0.871228 0.834740
O O10 0.349483 0.879949 0.600347
O O11 0.533061 0.750000 0.773974
O O12 0.533886 0.005242 0.719358
O O13 0.404015 0.900251 0.054679
O O14 0.520979 0.250000 0.697499
O O15 0.262799 0.750000 0.328925
O O16 0.180683 0.891892 0.228671
O O17 0.012572 0.750000 0.452276
O O18 0.000000 0.000000 0.500000
#
# Coordination Sequence:
#
# PCOD9167647 Si02
#       7
#     4   4   4   4   4   4   4
#     4   9  16  26  42  64  86 107 135 171 209 245
#     4   9  17  28  43  63  86 112 140 170 205 244
#     4   9  17  29  46  65  82 105 139 175 208 244
#     4   9  16  26  42  64  86 107 135 171 209 245
#     4   9  17  29  46  65  82 105 139 175 208 244
#     4   9  17  28  43  63  86 112 140 170 205 244
#     4   8  14  26  42  59  80 108 142 173 199 234
#
# _framework density 23.205769
#
# number of rings (size 3 to 8) (size 9 to 14) (size 15 to 20)
#    0.000    3.143    0.000    1.714    0.000    2.857 
#    0.000    0.000    0.000    6.857    0.000    6.000 
#    0.000    0.000    0.000    0.000    0.000    0.000 
#
# Total GULP energy -155905.434824 kJ/mol
# GULP energy per Si atom -5568.051244 kJ/mol
# Density = 2.315295 g / cm^3
# Si number density = 23.205769 Si / 1000 Ang^3
#
#
#
# Elastic Constant Matrix: (Units=GPa)
#
#
# Indices 1 2 3 4 5 6 
#
# 1 130.2435 28.6753 19.0808 0.0000 4.1346 0.0000
# 2 28.6753 227.0945 32.2718 0.0000 4.3595 0.0000
# 3 19.0808 32.2718 34.3775 0.0000 -0.3927 0.0000
# 4 0.0000 0.0000 0.0000 18.8111 0.0000 -2.6164
# 5 4.1346 4.3595 -0.3927 0.0000 18.6263 0.0000
# 6 0.0000 0.0000 0.0000 -2.6164 0.0000 -8.3171
#
#
#
# Elastic Compliance Matrix: (Units=1/GPa)
#
#
# Indices 1 2 3 4 5 6 
#
# 1 0.008463 -0.000418 -0.004326 0.000000 -0.001872 0.000000
# 2 -0.000418 0.005133 -0.004601 0.000000 -0.001206 0.000000
# 3 -0.004326 -0.004601 0.035841 0.000000 0.002793 0.000000
# 4 0.000000 0.000000 0.000000 0.050932 0.000000 -0.016022
# 5 -0.001872 -0.001206 0.002793 0.000000 0.054444 0.000000
# 6 0.000000 0.000000 0.000000 -0.016022 0.000000 -0.115194
#
#
# Mechanical properties :
#
#
# Convention : Reuss Voigt Hill
#
# Bulk Modulus (GPa) = 32.52315 61.30792 46.91553
# Shear Modulus (GPa) = 72.93165 26.60325 49.76745
#
# Velocity S-wave (km/s) = 5.61217 3.38954 4.63602
# Velocity P-wave (km/s) = 7.48604 6.46492 6.99414
#
# Compressibility (1/GPa) = 0.03074733
#
# Stress axis : x y z
#
# Youngs Moduli (GPa) = 118.15878 194.81261 27.90112
#
# Poissons Ratio (x) = 0.08141 0.12071
# Poissons Ratio (y) = 0.04938 0.12836
# Poissons Ratio (z) = 0.51121 0.89625
#
# Static dielectric constant tensor:
#      x y z
#    x 1.891580 0.000000 -0.006460 
#    y 0.000000 1.980300 0.000000 
#    z -0.006460 0.000000 1.872330 
# 
# From -- ./inp_files/21425.got.cif
#   From: 2010.05.17/outbox.cif.g08.bks.cpg/sg11_11_cif.got.tgz:21425.got - 2010.06.03 12:22:45.
