data_PCOD9167729
_publ_section_title
;
Structure prediction by ZEFSAII (Michael W. Deem and Ramdas Pophale) SiO2 
 PCOD9167729
Probable space group: P 21/M
;
_chemical_formula_sum "Si O2"
_cell_formula_units_Z 24
_cell_length_a 12.000000
_cell_length_b 9.000000
_cell_length_c 12.000000
_cell_angle_alpha 90.000000
_cell_angle_beta 90.000000
_cell_angle_gamma 90.000000
_cell_volume 1296.000000
_symmetry_space_group_name_H-M "P 21/M"
_symmetry_group_IT_number 11
_symmetry_cell_setting 'monoclinic'
loop_
_space_group_symop_operation_xyz
x,y,z
-x,1/2+y,-z
-x,-y,-z
x,1/2-y,z
loop_
_atom_site_type_symbol
_atom_site_label
_atom_site_fract_x
_atom_site_fract_y
_atom_site_fract_z
Si Si1 0.966972 0.928452 0.620540
Si Si2 0.666472 0.085465 0.199554
Si Si3 0.181138 0.077950 0.653728
Si Si4 0.405020 0.421281 0.262389
Si Si5 0.388795 0.920707 0.044922
Si Si6 0.746499 0.427400 0.575971
O O1 0.963683 0.750000 0.616647
O O2 0.069772 0.991036 0.690466
O O3 0.000000 0.000000 0.500000
O O4 0.847953 0.000021 0.646823
O O5 0.704655 0.250000 0.240103
O O6 0.536767 0.074914 0.235310
O O7 0.729440 0.948281 0.251533
O O8 0.682898 0.082741 0.066937
O O9 0.157971 0.250000 0.630040
O O10 0.234646 0.998733 0.545329
O O11 0.373675 0.250000 0.280566
O O12 0.348723 0.489285 0.151639
O O13 0.366836 0.518487 0.366924
O O14 0.412123 0.750000 0.077656
O O15 0.500000 0.000000 0.000000
O O16 0.755336 0.250000 0.571302
#
# Coordination Sequence:
#
# PCOD9167729 Si02
#       6
#     4   4   4   4   4   4
#     4  10  18  32  52  72  97 128 166 206 245 291
#     4   9  19  34  51  73 102 134 167 204 246 294
#     4  11  21  33  51  75 102 132 168 206 248 296
#     4  10  20  34  52  75 103 133 168 207 249 297
#     4   9  17  31  51  73  98 130 169 208 245 290
#     4  11  21  34  52  74 102 133 167 205 249 298
#
# _framework density 18.518519000000001
#
# number of rings (size 3 to 8) (size 9 to 14) (size 15 to 20)
#    0.000    2.000    0.000    8.500    0.000    4.667 
#    0.000    0.000    0.000    1.000    0.000    0.000 
#    0.000    0.000    0.000    0.000    0.000    0.000 
#
# Total GULP energy -133642.247253 kJ/mol
# GULP energy per Si atom -5568.426969 kJ/mol
# Density = 1.847637 g / cm^3
# Si number density = 18.518519 Si / 1000 Ang^3
#
#
#
# Elastic Constant Matrix: (Units=GPa)
#
#
# Indices 1 2 3 4 5 6 
#
# 1 9.7175 7.2384 -11.8954 0.0000 18.5291 0.0000
# 2 7.2384 150.0381 3.8668 0.0000 21.0529 0.0000
# 3 -11.8954 3.8668 7.4358 0.0000 21.7965 0.0000
# 4 0.0000 0.0000 0.0000 27.8959 0.0000 -0.2045
# 5 18.5291 21.0529 21.7965 0.0000 -0.9666 0.0000
# 6 0.0000 0.0000 0.0000 -0.2045 0.0000 28.3377
#
#
#
# Elastic Compliance Matrix: (Units=1/GPa)
#
#
# Indices 1 2 3 4 5 6 
#
# 1 0.031666 -0.004539 -0.021409 0.000000 0.025391 0.000000
# 2 -0.004539 0.007340 -0.003348 0.000000 -0.002637 0.000000
# 3 -0.021409 -0.003348 0.022635 0.000000 0.027067 0.000000
# 4 0.000000 0.000000 0.000000 0.035849 0.000000 0.000259
# 5 0.025391 -0.002637 0.027067 0.000000 0.005091 0.000000
# 6 0.000000 0.000000 0.000000 0.000259 0.000000 0.035291
#
#
# Mechanical properties :
#
#
# Convention : Reuss Voigt Hill
#
# Bulk Modulus (GPa) = 328.09764 18.40122 173.24943
# Shear Modulus (GPa) = 25.31898 22.25217 23.78557
#
# Velocity S-wave (km/s) = 3.70161 3.47020 3.58777
# Velocity P-wave (km/s) = 13.99381 5.10045 10.53188
#
# Compressibility (1/GPa) = 0.00304787
#
# Stress axis : x y z
#
# Youngs Moduli (GPa) = 31.57962 136.23561 44.18028
#
# Poissons Ratio (x) = 0.61833 0.94587
# Poissons Ratio (y) = 0.14333 0.14793
# Poissons Ratio (z) = 0.67610 0.45618
#
# Static dielectric constant tensor:
#      x y z
#    x 1.735720 0.000000 0.076650 
#    y 0.000000 1.646200 0.000000 
#    z 0.076650 0.000000 1.685840 
# 
# From -- ./inp_files/33769.got.cif
#   From: 2010.05.17/outbox.ucp.g08.bks.cvg/sg11_17_cif.got.tgz:33769.got - 2010.06.11 11:38:39.
