data_PCOD9167540
_publ_section_title
;
Structure prediction by ZEFSAII (Michael W. Deem and Ramdas Pophale) SiO2 
 PCOD9167540
Probable space group: P 21/M
;
_chemical_formula_sum "Si O2"
_cell_formula_units_Z 24
_cell_length_a 19.511165
_cell_length_b 10.884873
_cell_length_c 14.575085
_cell_angle_alpha 90.000000
_cell_angle_beta 20.022588
_cell_angle_gamma 90.000000
_cell_volume 1059.837952
_symmetry_space_group_name_H-M "P 21/M"
_symmetry_group_IT_number 11
_symmetry_cell_setting 'monoclinic'
loop_
_space_group_symop_operation_xyz
x,y,z
-x,1/2+y,-z
-x,-y,-z
x,1/2-y,z
loop_
_atom_site_type_symbol
_atom_site_label
_atom_site_fract_x
_atom_site_fract_y
_atom_site_fract_z
Si Si1 0.545148 0.750000 0.573020
Si Si2 0.962476 0.750000 0.275312
Si Si3 0.268316 0.613461 0.448646
Si Si4 0.313738 0.484920 0.107688
Si Si5 0.266061 0.750000 0.748967
Si Si6 0.982254 0.486117 0.675730
Si Si7 0.482864 0.750000 0.865737
Si Si8 0.766897 0.497506 0.314506
O O1 0.386683 0.750000 0.691410
O O2 0.461827 0.750000 0.781705
O O3 0.668233 0.623901 0.407760
O O4 0.043438 0.629934 0.225815
O O5 0.720858 0.750000 0.585851
O O6 0.037150 0.750000 0.075973
O O7 0.248484 0.750000 0.510968
O O8 0.091931 0.587440 0.599347
O O9 0.260537 0.518351 0.542083
O O10 0.486424 0.593525 0.130674
O O11 0.143750 0.450759 0.394223
O O12 0.215023 0.472281 0.130600
O O13 0.378123 0.627482 0.035413
O O14 0.311879 0.626004 0.635694
O O15 0.000000 0.500000 0.000000
#
# Coordination Sequence:
#
# PCOD9167540 Si02
#       8
#     2   2   4   4   2   4   2   4
#     4  12  24  44  74  99 138 182 233 291 355 418
#     4  12  24  44  75  97 134 185 229 287 352 419
#     4  12  26  45  69  99 140 181 226 288 351 412
#     4  11  25  43  69 102 141 176 235 283 337 425
#     4  12  26  46  70 105 140 177 241 294 354 417
#     4  11  25  44  69 102 135 185 227 282 348 410
#     4  12  22  42  71  99 134 182 225 282 347 412
#     4  12  25  47  69 101 136 185 234 287 350 420
#
# _framework density 22.644971000000002
#
# number of rings (size 3 to 8) (size 9 to 14) (size 15 to 20)
#    0.000    0.333    4.167    5.000    2.333    0.667 
#    3.000    0.000    0.000    0.000    0.000    0.000 
#    0.000    0.000    0.000    0.000    0.000    0.000 
#
# Total GULP energy -134439.954813 kJ/mol
# GULP energy per Si atom -5601.664784 kJ/mol
# Density = 2.259343 g / cm^3
# Si number density = 22.644971 Si / 1000 Ang^3
#
#
#
# Elastic Constant Matrix: (Units=GPa)
#
#
# Indices 1 2 3 4 5 6 
#
# 1 103.4588 34.8102 3.9678 0.0000 -13.3618 0.0000
# 2 34.8102 125.2953 12.1649 0.0000 -11.3889 0.0000
# 3 3.9678 12.1649 44.9103 0.0000 -3.8134 0.0000
# 4 0.0000 0.0000 0.0000 16.5511 0.0000 2.8175
# 5 -13.3618 -11.3889 -3.8134 0.0000 38.6852 0.0000
# 6 0.0000 0.0000 0.0000 2.8175 0.0000 26.8415
#
#
#
# Elastic Compliance Matrix: (Units=1/GPa)
#
#
# Indices 1 2 3 4 5 6 
#
# 1 0.010986 -0.002785 0.000037 0.000000 0.002978 0.000000
# 2 -0.002785 0.009095 -0.002089 0.000000 0.001510 0.000000
# 3 0.000037 -0.002089 0.022970 0.000000 0.001662 0.000000
# 4 0.000000 0.000000 0.000000 0.061518 0.000000 -0.006458
# 5 0.002978 0.001510 0.001662 0.000000 0.027487 0.000000
# 6 0.000000 0.000000 0.000000 -0.006458 0.000000 0.037934
#
#
# Mechanical properties :
#
#
# Convention : Reuss Voigt Hill
#
# Bulk Modulus (GPa) = 29.96164 41.72780 35.84472
# Shear Modulus (GPa) = 26.20674 31.26366 28.73520
#
# Velocity S-wave (km/s) = 3.40558 3.71967 3.56609
# Velocity P-wave (km/s) = 5.35946 6.07577 5.72882
#
# Compressibility (1/GPa) = 0.03337601
#
# Stress axis : x y z
#
# Youngs Moduli (GPa) = 91.02506 109.95086 43.53422
#
# Poissons Ratio (x) = 0.30622 -0.00160
# Poissons Ratio (y) = 0.25351 0.09096
# Poissons Ratio (z) = -0.00334 0.22972
#
# Static dielectric constant tensor:
#      x y z
#    x 1.852990 0.000000 -0.001740 
#    y 0.000000 1.826800 0.000000 
#    z -0.001740 0.000000 1.851830 
# 
# From -- ./inp_files/54806.got.cif
#   From: 2010.05.17/outbox.cif.g08.bks.cpg/sg11_28_cif.got.tgz:54806.got - 2010.06.03 12:22:45.
