data_PCOD9167127
_publ_section_title
;
Structure prediction by ZEFSAII (Michael W. Deem and Ramdas Pophale) SiO2 
 PCOD9167127
Probable space group: P 21/M
;
_chemical_formula_sum "Si O2"
_cell_formula_units_Z 32
_cell_length_a 7.531015
_cell_length_b 9.165531
_cell_length_c 22.449359
_cell_angle_alpha 90.000000
_cell_angle_beta 107.835725
_cell_angle_gamma 90.000000
_cell_volume 1475.108705
_symmetry_space_group_name_H-M "P 21/M"
_symmetry_group_IT_number 11
_symmetry_cell_setting 'monoclinic'
loop_
_space_group_symop_operation_xyz
x,y,z
-x,1/2+y,-z
-x,-y,-z
x,1/2-y,z
loop_
_atom_site_type_symbol
_atom_site_label
_atom_site_fract_x
_atom_site_fract_y
_atom_site_fract_z
Si Si1 0.321781 0.076482 0.666056
Si Si2 0.284967 0.582180 0.544539
Si Si3 0.424222 0.421135 0.082702
Si Si4 0.333348 0.583226 0.786344
Si Si5 0.976900 0.916762 0.835686
Si Si6 0.724540 0.571442 0.703704
Si Si7 0.208572 0.577812 0.963894
Si Si8 0.740057 0.582347 0.575899
O O1 0.312290 0.250000 0.662596
O O2 0.229846 0.006536 0.597855
O O3 0.267708 0.014229 0.724910
O O4 0.532196 0.014305 0.684132
O O5 0.232758 0.750000 0.546178
O O6 0.512932 0.576959 0.561033
O O7 0.211435 0.515283 0.475498
O O8 0.383056 0.250000 0.082647
O O9 0.490835 0.469842 0.155489
O O10 0.606246 0.435558 0.058697
O O11 0.260090 0.500852 0.030641
O O12 0.372710 0.750000 0.769779
O O13 0.163882 0.591985 0.815174
O O14 0.917230 0.750000 0.842149
O O15 0.830774 0.978144 0.773844
O O16 0.042078 0.982882 0.905067
O O17 0.702176 0.750000 0.702517
O O18 0.818149 0.540676 0.649010
O O19 0.822137 0.250000 0.029701
O O20 0.788616 0.750000 0.568259
#
# Coordination Sequence:
#
# PCOD9167127 Si02
#       8
#     4   4   4   4   4   4   4   4
#     4  11  21  31  45  68  96 122 151 189 229 268
#     4   9  16  27  44  64  87 117 151 186 225 267
#     4   8  14  24  40  63  89 116 146 182 223 265
#     4   9  17  31  49  68  92 122 155 188 225 272
#     4   8  15  29  50  72  92 119 154 188 224 271
#     4   9  17  31  50  70  93 122 153 184 225 275
#     4   8  13  23  41  65  90 114 144 183 223 263
#     4   8  14  24  41  66  91 113 142 184 228 266
#
# _framework density 21.693314999999998
#
# number of rings (size 3 to 8) (size 9 to 14) (size 15 to 20)
#    0.000    3.250    0.000    3.750    0.000    3.500 
#    0.000    3.125    0.000    1.500    0.000    0.000 
#    0.000    0.000    0.000    0.000    0.000    0.000 
#
# Total GULP energy -178393.599172 kJ/mol
# GULP energy per Si atom -5574.799974 kJ/mol
# Density = 2.164394 g / cm^3
# Si number density = 21.693315 Si / 1000 Ang^3
#
#
#
# Elastic Constant Matrix: (Units=GPa)
#
#
# Indices 1 2 3 4 5 6 
#
# 1 26.0426 21.3121 83.2218 0.0000 -3.8067 0.0000
# 2 21.3121 56.0971 45.9101 0.0000 -1.4219 0.0000
# 3 83.2218 45.9101 98.8282 0.0000 0.7527 0.0000
# 4 0.0000 0.0000 0.0000 35.0790 0.0000 -2.1857
# 5 -3.8067 -1.4219 0.7527 0.0000 30.7918 0.0000
# 6 0.0000 0.0000 0.0000 -2.1857 0.0000 2.0477
#
#
#
# Elastic Compliance Matrix: (Units=1/GPa)
#
#
# Indices 1 2 3 4 5 6 
#
# 1 -0.018651 -0.009471 0.020130 0.000000 -0.003235 0.000000
# 2 -0.009471 0.024036 -0.003191 0.000000 0.000017 0.000000
# 3 0.020130 -0.003191 -0.005369 0.000000 0.002472 0.000000
# 4 0.000000 0.000000 0.000000 0.030538 0.000000 0.032596
# 5 -0.003235 0.000017 0.002472 0.000000 0.032017 0.000000
# 6 0.000000 0.000000 0.000000 0.032596 0.000000 0.523154
#
#
# Mechanical properties :
#
#
# Convention : Reuss Voigt Hill
#
# Bulk Modulus (GPa) = 66.87688 53.53956 60.20822
# Shear Modulus (GPa) = 8.68398 15.61863 12.15130
#
# Velocity S-wave (km/s) = 2.00294 2.68614 2.36930
# Velocity P-wave (km/s) = 6.02032 5.86125 5.94132
#
# Compressibility (1/GPa) = 0.01495285
#
# Stress axis : x y z
#
# Youngs Moduli (GPa) = -53.61669 41.60398 -186.25642
#
# Poissons Ratio (x) = 0.39401 3.74931
# Poissons Ratio (y) = -0.50778 -0.59434
# Poissons Ratio (z) = 1.07929 0.13276
#
# Static dielectric constant tensor:
#      x y z
#    x 1.895640 0.000000 0.007230 
#    y 0.000000 1.719170 0.000000 
#    z 0.007230 0.000000 1.863300 
# 
# From -- ./inp_files/42179.got.cif
#   From: 2010.05.17/outbox.cif.g08.bks.cpg/sg11_22_cif.got.tgz:42179.got - 2010.06.03 12:22:45.
