data_PCOD9167240
_publ_section_title
;
Structure prediction by ZEFSAII (Michael W. Deem and Ramdas Pophale) SiO2 
 PCOD9167240
Probable space group: P 21/M
;
_chemical_formula_sum "Si O2"
_cell_formula_units_Z 32
_cell_length_a 14.581088
_cell_length_b 8.638320
_cell_length_c 28.485248
_cell_angle_alpha 90.000000
_cell_angle_beta 150.262114
_cell_angle_gamma 90.000000
_cell_volume 1779.712017
_symmetry_space_group_name_H-M "P 21/M"
_symmetry_group_IT_number 11
_symmetry_cell_setting 'monoclinic'
loop_
_space_group_symop_operation_xyz
x,y,z
-x,1/2+y,-z
-x,-y,-z
x,1/2-y,z
loop_
_atom_site_type_symbol
_atom_site_label
_atom_site_fract_x
_atom_site_fract_y
_atom_site_fract_z
Si Si1 0.323933 0.430231 0.558794
Si Si2 0.976515 0.435015 0.639414
Si Si3 0.194785 0.067924 0.603287
Si Si4 0.741671 0.562685 0.919430
Si Si5 0.131277 0.063030 0.125862
Si Si6 0.297650 0.067372 0.298761
Si Si7 0.704107 0.065570 0.602346
Si Si8 0.337106 0.565889 0.763317
O O1 0.353716 0.250000 0.560090
O O2 0.129737 0.485291 0.451238
O O3 0.322926 0.446207 0.614361
O O4 0.484141 0.533857 0.608364
O O5 0.967025 0.250000 0.630360
O O6 0.856688 0.482206 0.631614
O O7 0.189073 0.487423 0.732006
O O8 0.176027 0.250000 0.606652
O O9 0.271055 0.976568 0.681452
O O10 0.000000 0.000000 0.500000
O O11 0.749654 0.750000 0.924098
O O12 0.753209 0.515358 0.869364
O O13 0.550902 0.514130 0.859226
O O14 0.923799 0.495373 0.024687
O O15 0.133422 0.250000 0.127703
O O16 0.209196 0.008748 0.210614
O O17 0.265012 0.250000 0.287984
O O18 0.235769 0.987137 0.319138
O O19 0.689438 0.250000 0.594331
O O20 0.500000 0.000000 0.500000
O O21 0.329700 0.750000 0.766636
#
# Coordination Sequence:
#
# PCOD9167240 Si02
#       8
#     4   4   4   4   4   4   4   4
#     4  11  22  34  51  76 107 145 186 225 269 324
#     4  11  23  37  54  76 106 145 186 229 276 325
#     4  11  22  33  48  72 105 145 184 222 264 316
#     4   9  19  36  58  84 114 147 182 224 273 329
#     4   9  19  36  58  85 114 145 181 225 276 330
#     4  11  22  36  57  83 112 145 181 229 284 335
#     4  11  23  38  57  80 108 145 189 235 283 332
#     4  11  22  36  55  79 110 148 186 226 276 335
#
# _framework density 17.980436000000001
#
# number of rings (size 3 to 8) (size 9 to 14) (size 15 to 20)
#    0.000    1.500    2.500    3.000    0.000    6.000 
#    0.000    2.500    0.000    0.750    0.000    0.000 
#    0.000    0.000    0.000    0.000    0.000    0.000 
#
# Total GULP energy -178684.443916 kJ/mol
# GULP energy per Si atom -5583.888872 kJ/mol
# Density = 1.793951 g / cm^3
# Si number density = 17.980436 Si / 1000 Ang^3
#
#
#
# Elastic Constant Matrix: (Units=GPa)
#
#
# Indices 1 2 3 4 5 6 
#
# 1 119.4228 25.9132 44.7593 0.0000 10.3983 0.0000
# 2 25.9132 27.6230 5.8079 0.0000 -1.1650 0.0000
# 3 44.7593 5.8079 68.6749 0.0000 5.9449 0.0000
# 4 0.0000 0.0000 0.0000 26.8447 0.0000 0.8329
# 5 10.3983 -1.1650 5.9449 0.0000 28.4406 0.0000
# 6 0.0000 0.0000 0.0000 0.8329 0.0000 28.7188
#
#
#
# Elastic Compliance Matrix: (Units=1/GPa)
#
#
# Indices 1 2 3 4 5 6 
#
# 1 0.014292 -0.011905 -0.007957 0.000000 -0.004050 0.000000
# 2 -0.011905 0.046909 0.003309 0.000000 0.005583 0.000000
# 3 -0.007957 0.003309 0.019558 0.000000 -0.001043 0.000000
# 4 0.000000 0.000000 0.000000 0.037285 0.000000 -0.001081
# 5 -0.004050 0.005583 -0.001043 0.000000 0.037088 0.000000
# 6 0.000000 0.000000 0.000000 -0.001081 0.000000 0.034852
#
#
# Mechanical properties :
#
#
# Convention : Reuss Voigt Hill
#
# Bulk Modulus (GPa) = 20.98541 40.96461 30.97501
# Shear Modulus (GPa) = 20.92261 26.08351 23.50306
#
# Velocity S-wave (km/s) = 3.41491 3.81289 3.61937
# Velocity P-wave (km/s) = 5.21971 6.49742 5.89329
#
# Compressibility (1/GPa) = 0.04765215
#
# Stress axis : x y z
#
# Youngs Moduli (GPa) = 69.96985 21.31765 51.12953
#
# Poissons Ratio (x) = 0.25379 0.40686
# Poissons Ratio (y) = 0.83299 -0.16917
# Poissons Ratio (z) = 0.55678 -0.07053
#
# Static dielectric constant tensor:
#      x y z
#    x 1.651120 0.000000 0.009400 
#    y 0.000000 1.611690 0.000000 
#    z 0.009400 0.000000 1.620750 
# 
# From -- ./inp_files/71647.got.cif
#   From: 2010.05.17/outbox.cif.g08.bks.cpg/sg11_36_cif.got.tgz:71647.got - 2010.06.03 12:22:45.
