data_PCOD9167132
_publ_section_title
;
Structure prediction by ZEFSAII (Michael W. Deem and Ramdas Pophale) SiO2 
 PCOD9167132
Probable space group: P 21/M
;
_chemical_formula_sum "Si O2"
_cell_formula_units_Z 28
_cell_length_a 14.424718
_cell_length_b 8.649028
_cell_length_c 14.350814
_cell_angle_alpha 90.000000
_cell_angle_beta 83.092845
_cell_angle_gamma 90.000000
_cell_volume 1777.410377
_symmetry_space_group_name_H-M "P 21/M"
_symmetry_group_IT_number 11
_symmetry_cell_setting 'monoclinic'
loop_
_space_group_symop_operation_xyz
x,y,z
-x,1/2+y,-z
-x,-y,-z
x,1/2-y,z
loop_
_atom_site_type_symbol
_atom_site_label
_atom_site_fract_x
_atom_site_fract_y
_atom_site_fract_z
Si Si1 0.021837 0.935414 0.100413
Si Si2 0.221396 0.562161 0.030036
Si Si3 0.673211 0.063681 0.334547
Si Si4 0.400821 0.065110 0.476802
Si Si5 0.470902 0.063628 0.274733
Si Si6 0.166685 0.936726 0.826597
Si Si7 0.422134 0.935448 0.079077
O O1 0.016655 0.750000 0.100286
O O2 0.130004 0.981560 0.101540
O O3 0.938275 0.001087 0.172792
O O4 0.000000 0.000000 0.000000
O O5 0.223690 0.750000 0.028153
O O6 0.319745 0.508651 0.058491
O O7 0.204310 0.513669 0.924555
O O8 0.672754 0.250000 0.339329
O O9 0.575714 0.018629 0.295483
O O10 0.760479 0.013865 0.261251
O O11 0.672084 0.999571 0.439676
O O12 0.402198 0.250000 0.482084
O O13 0.400158 0.022350 0.367719
O O14 0.500000 0.000000 0.500000
O O15 0.471042 0.250000 0.264686
O O16 0.444347 0.988700 0.180774
O O17 0.163392 0.750000 0.827886
O O18 0.423157 0.750000 0.074216
O O19 0.500000 0.000000 0.000000
#
# Coordination Sequence:
#
# PCOD9167132 Si02
#       7
#     4   4   4   4   4   4   4
#     4   9  16  28  44  61  83 112 144 178 215 259
#     4   8  16  30  44  58  84 119 147 171 210 257
#     4   9  17  29  46  66  92 120 143 175 222 267
#     4   9  17  29  45  63  87 116 147 182 220 261
#     4   9  18  32  45  61  88 120 148 178 215 253
#     4   9  16  28  45  65  89 115 140 174 219 262
#     4  11  21  32  46  64  87 118 152 182 211 251
#
# _framework density 15.753256
#
# number of rings (size 3 to 8) (size 9 to 14) (size 15 to 20)
#    0.000    2.857    0.000    3.857    0.000    5.714 
#    0.000   10.000    0.000    0.000    0.000    1.000 
#    0.000    0.000    0.000    0.000    0.000    0.000 
#
# Total GULP energy -155881.654980 kJ/mol
# GULP energy per Si atom -5567.201964 kJ/mol
# Density = 1.571740 g / cm^3
# Si number density = 15.753256 Si / 1000 Ang^3
#
#
#
# Elastic Constant Matrix: (Units=GPa)
#
#
# Indices 1 2 3 4 5 6 
#
# 1 119.3936 25.0207 70.6498 0.0000 -24.9866 0.0000
# 2 25.0207 21.1165 31.1787 0.0000 -6.6771 0.0000
# 3 70.6498 31.1787 132.8722 0.0000 -24.8061 0.0000
# 4 0.0000 0.0000 0.0000 27.1118 0.0000 -3.9006
# 5 -24.9866 -6.6771 -24.8061 0.0000 27.8113 0.0000
# 6 0.0000 0.0000 0.0000 -3.9006 0.0000 21.3864
#
#
#
# Elastic Compliance Matrix: (Units=1/GPa)
#
#
# Indices 1 2 3 4 5 6 
#
# 1 0.014051 -0.008171 -0.004275 0.000000 0.006849 0.000000
# 2 -0.008171 0.077380 -0.014055 0.000000 -0.001300 0.000000
# 3 -0.004275 -0.014055 0.014098 0.000000 0.005359 0.000000
# 4 0.000000 0.000000 0.000000 0.037878 0.000000 0.006909
# 5 0.006849 -0.001300 0.005359 0.000000 0.046578 0.000000
# 6 0.000000 0.000000 0.000000 0.006909 0.000000 0.048019
#
#
# Mechanical properties :
#
#
# Convention : Reuss Voigt Hill
#
# Bulk Modulus (GPa) = 19.03834 58.56453 38.80144
# Shear Modulus (GPa) = 16.20665 25.03077 20.61871
#
# Velocity S-wave (km/s) = 3.21094 3.99046 3.62173
# Velocity P-wave (km/s) = 5.08512 7.64778 6.49411
#
# Compressibility (1/GPa) = 0.05252558
#
# Stress axis : x y z
#
# Youngs Moduli (GPa) = 71.16851 12.92327 70.93302
#
# Poissons Ratio (x) = 0.10560 0.30325
# Poissons Ratio (y) = 0.58152 0.99699
# Poissons Ratio (z) = 0.30426 0.18164
#
# Static dielectric constant tensor:
#      x y z
#    x 1.536350 0.000000 -0.027720 
#    y 0.000000 1.536180 0.000000 
#    z -0.027720 0.000000 1.538040 
# 
# From -- ./inp_files/50993.got.cif
#   From: 2010.05.17/outbox.cif.g08.bks.cpg/sg11_26_cif.got.tgz:50993.got - 2010.06.03 12:22:45.
