data_PCOD9167830
_publ_section_title
;
Structure prediction by ZEFSAII (Michael W. Deem and Ramdas Pophale) SiO2 
 PCOD9167830
Probable space group: P 21/M
;
_chemical_formula_sum "Si O2"
_cell_formula_units_Z 24
_cell_length_a 21.000000
_cell_length_b 9.000000
_cell_length_c 12.000000
_cell_angle_alpha 90.000000
_cell_angle_beta 140.000000
_cell_angle_gamma 90.000000
_cell_volume 1457.842299
_symmetry_space_group_name_H-M "P 21/M"
_symmetry_group_IT_number 11
_symmetry_cell_setting 'monoclinic'
loop_
_space_group_symop_operation_xyz
x,y,z
-x,1/2+y,-z
-x,-y,-z
x,1/2-y,z
loop_
_atom_site_type_symbol
_atom_site_label
_atom_site_fract_x
_atom_site_fract_y
_atom_site_fract_z
Si Si1 0.929854 0.575765 0.048879
Si Si2 0.224337 0.078767 0.955276
Si Si3 0.610453 0.930832 0.638902
Si Si4 0.893989 0.070399 0.396858
Si Si5 0.235199 0.569751 0.328064
Si Si6 0.864851 0.930293 0.601678
O O1 0.946063 0.750000 0.038794
O O2 0.865446 0.577095 0.075847
O O3 0.031136 0.489583 0.207770
O O4 0.861000 0.489578 0.868866
O O5 0.235840 0.250000 0.931845
O O6 0.188367 0.975629 0.805845
O O7 0.322020 0.038548 0.159473
O O8 0.607161 0.750000 0.622431
O O9 0.500000 0.000000 0.500000
O O10 0.671711 0.003285 0.617448
O O11 0.903250 0.250000 0.417828
O O12 0.864399 0.998260 0.476156
O O13 0.000000 0.000000 0.500000
O O14 0.238386 0.750000 0.335280
O O15 0.219482 0.499455 0.430055
O O16 0.861269 0.750000 0.595603
#
# Coordination Sequence:
#
# PCOD9167830 Si02
#       6
#     4   4   4   4   4   4
#     4  10  19  33  52  76 110 147 186 227 272 327
#     4   9  19  35  55  80 112 146 186 230 271 323
#     4  10  21  39  63  88 113 141 181 231 284 334
#     4  12  23  35  53  78 112 152 193 230 270 325
#     4  11  22  36  54  79 111 144 184 229 280 333
#     4  12  23  35  52  75 109 151 190 227 274 328
#
# _framework density 16.462686000000001
#
# number of rings (size 3 to 8) (size 9 to 14) (size 15 to 20)
#    0.000    1.333    1.667    7.000    0.000    3.333 
#    0.000    0.000    0.000    1.000    0.000    0.000 
#    0.000    0.000    0.000    0.000    0.000    0.000 
#
# Total GULP energy -134019.385148 kJ/mol
# GULP energy per Si atom -5584.141048 kJ/mol
# Density = 1.642522 g / cm^3
# Si number density = 16.462686 Si / 1000 Ang^3
#
#
#
# Elastic Constant Matrix: (Units=GPa)
#
#
# Indices 1 2 3 4 5 6 
#
# 1 125.3634 67.8522 67.7116 0.0000 -10.2454 0.0000
# 2 67.8522 179.7672 54.6035 0.0000 -6.8987 0.0000
# 3 67.7116 54.6035 89.5180 0.0000 4.3230 0.0000
# 4 0.0000 0.0000 0.0000 31.5262 0.0000 -1.1142
# 5 -10.2454 -6.8987 4.3230 0.0000 30.7752 0.0000
# 6 0.0000 0.0000 0.0000 -1.1142 0.0000 33.1073
#
#
#
# Elastic Compliance Matrix: (Units=1/GPa)
#
#
# Indices 1 2 3 4 5 6 
#
# 1 0.015457 -0.002406 -0.010518 0.000000 0.006084 0.000000
# 2 -0.002406 0.007344 -0.002719 0.000000 0.001227 0.000000
# 3 -0.010518 -0.002719 0.021127 0.000000 -0.007079 0.000000
# 4 0.000000 0.000000 0.000000 0.031757 0.000000 0.001069
# 5 0.006084 0.001227 -0.007079 0.000000 0.035789 0.000000
# 6 0.000000 0.000000 0.000000 0.001069 0.000000 0.030241
#
#
# Mechanical properties :
#
#
# Convention : Reuss Voigt Hill
#
# Bulk Modulus (GPa) = 79.09988 86.10925 82.60457
# Shear Modulus (GPa) = 28.21420 32.71382 30.46401
#
# Velocity S-wave (km/s) = 4.14433 4.46258 4.30640
# Velocity P-wave (km/s) = 8.42929 8.88663 8.66098
#
# Compressibility (1/GPa) = 0.01264224
#
# Stress axis : x y z
#
# Youngs Moduli (GPa) = 64.69394 136.16892 47.33215
#
# Poissons Ratio (x) = 0.32762 0.49785
# Poissons Ratio (y) = 0.15565 0.12869
# Poissons Ratio (z) = 0.68047 0.37023
#
# Static dielectric constant tensor:
#      x y z
#    x 1.569960 0.000000 -0.021620 
#    y 0.000000 1.554030 0.000000 
#    z -0.021620 0.000000 1.556580 
# 
# From -- ./inp_files/42661.got.cif
#   From: 2010.05.17/outbox.ucp.g08.bks.cvg/sg11_22_cif.got.tgz:42661.got - 2010.06.11 11:38:39.
