data_PCOD9167110
_publ_section_title
;
Structure prediction by ZEFSAII (Michael W. Deem and Ramdas Pophale) SiO2 
 PCOD9167110
Probable space group: P 21/M
;
_chemical_formula_sum "Si O2"
_cell_formula_units_Z 26
_cell_length_a 6.468591
_cell_length_b 22.556281
_cell_length_c 12.170223
_cell_angle_alpha 90.000000
_cell_angle_beta 41.870190
_cell_angle_gamma 90.000000
_cell_volume 1185.199192
_symmetry_space_group_name_H-M "P 21/M"
_symmetry_group_IT_number 11
_symmetry_cell_setting 'monoclinic'
loop_
_space_group_symop_operation_xyz
x,y,z
-x,1/2+y,-z
-x,-y,-z
x,1/2-y,z
loop_
_atom_site_type_symbol
_atom_site_label
_atom_site_fract_x
_atom_site_fract_y
_atom_site_fract_z
Si Si1 0.865581 0.250000 0.368839
Si Si2 0.120191 0.750000 0.369002
Si Si3 0.464924 0.549535 0.691116
Si Si4 0.770898 0.750000 0.980457
Si Si5 0.647003 0.653971 0.468951
Si Si6 0.824486 0.619453 0.965363
Si Si7 0.448420 0.941817 0.946984
Si Si8 0.284352 0.421050 0.764468
O O1 0.873486 0.250000 0.499250
O O2 0.664859 0.193377 0.407248
O O3 0.182349 0.250000 0.171760
O O4 0.923564 0.693869 0.404572
O O5 0.442931 0.750000 0.174039
O O6 0.640926 0.594264 0.542869
O O7 0.575271 0.551524 0.773665
O O8 0.452706 0.481163 0.661043
O O9 0.116990 0.576836 0.831034
O O10 0.918128 0.686794 0.955169
O O11 0.673865 0.632997 0.333413
O O12 0.610603 0.612956 0.943565
O O13 0.628948 0.595394 0.145896
O O14 0.081622 0.933637 0.085492
O O15 0.500000 0.000000 0.000000
#
# Coordination Sequence:
#
# PCOD9167110 Si02
#       8
#     2   2   4   2   4   4   4   4
#     4  11  25  49  72  96 139 182 225 290 337 415
#     4  11  27  49  66 104 139 174 237 286 333 409
#     4  11  22  39  65  97 131 178 219 271 342 407
#     4  12  24  44  76  96 130 186 230 276 344 406
#     4  11  25  45  65  99 140 172 225 283 342 406
#     4  11  22  41  65 100 128 173 233 273 336 405
#     4  11  20  39  65  95 135 170 224 282 326 403
#     4  11  22  40  66  96 135 175 218 281 341 405
#
# _framework density 21.937239999999999
#
# number of rings (size 3 to 8) (size 9 to 14) (size 15 to 20)
#    0.000    0.923    4.615    3.231    2.154    0.615 
#    0.000    5.385    0.000    0.000    0.000    0.000 
#    0.000    0.000    0.000    0.000    0.000    0.000 
#
# Total GULP energy -145223.373135 kJ/mol
# GULP energy per Si atom -5585.514351 kJ/mol
# Density = 2.188731 g / cm^3
# Si number density = 21.937240 Si / 1000 Ang^3
#
#
#
# Elastic Constant Matrix: (Units=GPa)
#
#
# Indices 1 2 3 4 5 6 
#
# 1 69.4425 3.2690 14.4187 0.0000 20.2900 0.0000
# 2 3.2690 91.9740 -5.9869 0.0000 0.7795 0.0000
# 3 14.4187 -5.9869 84.5409 0.0000 16.1527 0.0000
# 4 0.0000 0.0000 0.0000 23.0667 0.0000 10.8705
# 5 20.2900 0.7795 16.1527 0.0000 23.0395 0.0000
# 6 0.0000 0.0000 0.0000 10.8705 0.0000 27.5634
#
#
#
# Elastic Compliance Matrix: (Units=1/GPa)
#
#
# Indices 1 2 3 4 5 6 
#
# 1 0.019418 -0.000553 -0.000101 0.000000 -0.017011 0.000000
# 2 -0.000553 0.010961 0.000980 0.000000 -0.000571 0.000000
# 3 -0.000101 0.000980 0.013746 0.000000 -0.009581 0.000000
# 4 0.000000 0.000000 0.000000 0.053249 0.000000 -0.021001
# 5 -0.017011 -0.000571 -0.009581 0.000000 0.065122 0.000000
# 6 0.000000 0.000000 0.000000 -0.021001 0.000000 0.044562
#
#
# Mechanical properties :
#
#
# Convention : Reuss Voigt Hill
#
# Bulk Modulus (GPa) = 22.33284 29.92877 26.13081
# Shear Modulus (GPa) = 22.59064 30.35103 26.47084
#
# Velocity S-wave (km/s) = 3.21251 3.72363 3.47747
# Velocity P-wave (km/s) = 4.89517 5.67096 5.29729
#
# Compressibility (1/GPa) = 0.04477710
#
# Stress axis : x y z
#
# Youngs Moduli (GPa) = 51.49938 91.23361 72.74945
#
# Poissons Ratio (x) = 0.05041 0.00732
# Poissons Ratio (y) = 0.02846 -0.07126
# Poissons Ratio (z) = 0.00518 -0.08937
#
# Static dielectric constant tensor:
#      x y z
#    x 1.790630 0.000000 0.005160 
#    y 0.000000 1.835220 0.000000 
#    z 0.005160 0.000000 1.807530 
# 
# From -- ./inp_files/5441.got.cif
#   From: 2010.05.17/outbox.cif.g08.bks.cpg/sg11_3_cif.got.tgz:5441.got - 2010.06.03 12:22:45.
