data_PCOD9167510
_publ_section_title
;
Structure prediction by ZEFSAII (Michael W. Deem and Ramdas Pophale) SiO2 
 PCOD9167510
Probable space group: P 21/M
;
_chemical_formula_sum "Si O2"
_cell_formula_units_Z 22
_cell_length_a 12.420062
_cell_length_b 16.015366
_cell_length_c 8.842565
_cell_angle_alpha 90.000000
_cell_angle_beta 143.259992
_cell_angle_gamma 90.000000
_cell_volume 1052.141881
_symmetry_space_group_name_H-M "P 21/M"
_symmetry_group_IT_number 11
_symmetry_cell_setting 'monoclinic'
loop_
_space_group_symop_operation_xyz
x,y,z
-x,1/2+y,-z
-x,-y,-z
x,1/2-y,z
loop_
_atom_site_type_symbol
_atom_site_label
_atom_site_fract_x
_atom_site_fract_y
_atom_site_fract_z
Si Si1 0.918630 0.750000 0.251644
Si Si2 0.833656 0.250000 0.745122
Si Si3 0.536043 0.750000 0.815431
Si Si4 0.048298 0.597272 0.579029
Si Si5 0.992602 0.101715 0.116141
Si Si6 0.589624 0.420570 0.188749
Si Si7 0.690080 0.503065 0.623876
O O1 0.088496 0.750000 0.334659
O O2 0.929150 0.664897 0.357873
O O3 0.729399 0.750000 0.954334
O O4 0.620710 0.250000 0.485675
O O5 0.913798 0.172463 0.922216
O O6 0.516950 0.835064 0.892689
O O7 0.030539 0.618193 0.734082
O O8 0.246705 0.605841 0.734380
O O9 0.000000 0.500000 0.500000
O O10 0.202703 0.084730 0.315745
O O11 0.847951 0.028726 0.914414
O O12 0.659686 0.451821 0.433066
O O13 0.500000 0.500000 0.000000
O O14 0.500000 0.500000 0.500000
#
# Coordination Sequence:
#
# PCOD9167510 Si02
#       7
#     2   2   2   4   4   4   4
#     4  12  27  45  71 103 143 187 239 296 359 429
#     4  12  25  48  69 102 145 184 234 297 360 424
#     4  12  26  45  70 101 142 187 235 293 361 417
#     4  12  23  46  73 106 142 186 240 296 358 426
#     4  11  25  43  70 100 140 183 233 290 358 424
#     4  12  24  46  72 106 145 186 238 299 356 428
#     4  11  24  43  68 103 138 183 235 289 353 428
#
# _framework density 20.909728000000001
#
# number of rings (size 3 to 8) (size 9 to 14) (size 15 to 20)
#    0.000    0.364    5.455    2.727    5.091    0.000 
#    0.000    0.000    0.000    0.000    0.000    0.000 
#    0.000    0.000    0.000    0.000    0.000    0.000 
#
# Total GULP energy -122697.254325 kJ/mol
# GULP energy per Si atom -5577.147924 kJ/mol
# Density = 2.086214 g / cm^3
# Si number density = 20.909728 Si / 1000 Ang^3
#
#
#
# Elastic Constant Matrix: (Units=GPa)
#
#
# Indices 1 2 3 4 5 6 
#
# 1 108.9305 0.9977 48.4264 0.0000 5.6767 0.0000
# 2 0.9977 91.2201 29.8258 0.0000 -2.3610 0.0000
# 3 48.4264 29.8258 100.7840 0.0000 11.0032 0.0000
# 4 0.0000 0.0000 0.0000 45.4437 0.0000 -6.6107
# 5 5.6767 -2.3610 11.0032 0.0000 50.9216 0.0000
# 6 0.0000 0.0000 0.0000 -6.6107 0.0000 22.4144
#
#
#
# Elastic Compliance Matrix: (Units=1/GPa)
#
#
# Indices 1 2 3 4 5 6 
#
# 1 0.011976 0.001947 -0.006344 0.000000 0.000126 0.000000
# 2 0.001947 0.012548 -0.004802 0.000000 0.001402 0.000000
# 3 -0.006344 -0.004802 0.014685 0.000000 -0.002689 0.000000
# 4 0.000000 0.000000 0.000000 0.022992 0.000000 0.006781
# 5 0.000126 0.001402 -0.002689 0.000000 0.020270 0.000000
# 6 0.000000 0.000000 0.000000 0.006781 0.000000 0.046614
#
#
# Mechanical properties :
#
#
# Convention : Reuss Voigt Hill
#
# Bulk Modulus (GPa) = 48.05378 51.04824 49.55101
# Shear Modulus (GPa) = 32.37917 38.53494 35.45705
#
# Velocity S-wave (km/s) = 3.93940 4.29758 4.12238
# Velocity P-wave (km/s) = 6.61235 7.00658 6.81232
#
# Compressibility (1/GPa) = 0.02081002
#
# Stress axis : x y z
#
# Youngs Moduli (GPa) = 83.49858 79.69712 68.09567
#
# Poissons Ratio (x) = -0.15514 0.43203
# Poissons Ratio (y) = -0.16254 0.32698
# Poissons Ratio (z) = 0.52975 0.38269
#
# Static dielectric constant tensor:
#      x y z
#    x 1.719650 0.000000 0.016540 
#    y 0.000000 1.750680 0.000000 
#    z 0.016540 0.000000 1.736010 
# 
# From -- ./inp_files/18760.got.cif
#   From: 2010.05.17/outbox.cif.g08.bks.cpg/sg11_10_cif.got.tgz:18760.got - 2010.06.03 12:22:45.
