data_PCOD9167531
_publ_section_title
;
Structure prediction by ZEFSAII (Michael W. Deem and Ramdas Pophale) SiO2 
 PCOD9167531
Probable space group: P 21/M
;
_chemical_formula_sum "Si O2"
_cell_formula_units_Z 20
_cell_length_a 5.413994
_cell_length_b 22.251751
_cell_length_c 7.218504
_cell_angle_alpha 90.000000
_cell_angle_beta 105.854610
_cell_angle_gamma 90.000000
_cell_volume 836.537264
_symmetry_space_group_name_H-M "P 21/M"
_symmetry_group_IT_number 11
_symmetry_cell_setting 'monoclinic'
loop_
_space_group_symop_operation_xyz
x,y,z
-x,1/2+y,-z
-x,-y,-z
x,1/2-y,z
loop_
_atom_site_type_symbol
_atom_site_label
_atom_site_fract_x
_atom_site_fract_y
_atom_site_fract_z
Si Si1 0.673213 0.946148 0.456798
Si Si2 0.513283 0.183365 0.471992
Si Si3 0.109289 0.642369 0.181474
Si Si4 0.471182 0.320927 0.028002
Si Si5 0.980590 0.513118 0.211992
O O1 0.814833 0.845823 0.068206
O O2 0.923716 0.959155 0.638628
O O3 0.500000 0.000000 0.500000
O O4 0.716885 0.965441 0.252538
O O5 0.394557 0.250000 0.474886
O O6 0.786801 0.183230 0.631229
O O7 0.377537 0.124589 0.530804
O O8 0.531056 0.172086 0.257277
O O9 0.300662 0.651882 0.048343
O O10 0.140373 0.574747 0.261758
O O11 0.464979 0.250000 0.983678
O O12 0.000000 0.500000 0.000000
#
# Coordination Sequence:
#
# PCOD9167531 Si02
#       5
#     4   4   4   4   4
#     4  11  24  46  71 105 146 186 256 308 363 458
#     4  11  25  47  76 107 149 199 246 313 385 442
#     4  12  25  46  74 108 150 195 256 310 374 456
#     4  11  26  45  71 108 151 198 253 313 375 457
#     4  11  26  43  73 106 146 198 245 313 382 442
#
# _framework density 23.908079000000001
#
# number of rings (size 3 to 8) (size 9 to 14) (size 15 to 20)
#    0.000    0.800    2.000    4.200    2.800    4.000 
#    0.000    6.000    0.000    0.000    0.000    0.000 
#    0.000    0.000    0.000    0.000    0.000    0.000 
#
# Total GULP energy -111714.145244 kJ/mol
# GULP energy per Si atom -5585.707262 kJ/mol
# Density = 2.385366 g / cm^3
# Si number density = 23.908079 Si / 1000 Ang^3
#
#
#
# Elastic Constant Matrix: (Units=GPa)
#
#
# Indices 1 2 3 4 5 6 
#
# 1 118.3484 40.8585 49.2129 0.0000 -29.7072 0.0000
# 2 40.8585 146.6394 26.0934 0.0000 -22.7888 0.0000
# 3 49.2129 26.0934 144.2401 0.0000 -23.4336 0.0000
# 4 0.0000 0.0000 0.0000 46.6289 0.0000 -1.0211
# 5 -29.7072 -22.7888 -23.4336 0.0000 35.3509 0.0000
# 6 0.0000 0.0000 0.0000 -1.0211 0.0000 38.9228
#
#
#
# Elastic Compliance Matrix: (Units=1/GPa)
#
#
# Indices 1 2 3 4 5 6 
#
# 1 0.011933 -0.001748 -0.002588 0.000000 0.007186 0.000000
# 2 -0.001748 0.007889 -0.000273 0.000000 0.003436 0.000000
# 3 -0.002588 -0.000273 0.008386 0.000000 0.003209 0.000000
# 4 0.000000 0.000000 0.000000 0.021458 0.000000 0.000563
# 5 0.007186 0.003436 0.003209 0.000000 0.038669 0.000000
# 6 0.000000 0.000000 0.000000 0.000563 0.000000 0.025707
#
#
# Mechanical properties :
#
#
# Convention : Reuss Voigt Hill
#
# Bulk Modulus (GPa) = 52.65341 71.28418 61.96879
# Shear Modulus (GPa) = 38.58370 43.71807 41.15088
#
# Velocity S-wave (km/s) = 4.02161 4.28084 4.15325
# Velocity P-wave (km/s) = 6.60572 7.36986 6.99823
#
# Compressibility (1/GPa) = 0.01899212
#
# Stress axis : x y z
#
# Youngs Moduli (GPa) = 83.80279 126.75996 119.24033
#
# Poissons Ratio (x) = 0.22154 0.30856
# Poissons Ratio (y) = 0.14646 0.03250
# Poissons Ratio (z) = 0.21686 0.03455
#
# Static dielectric constant tensor:
#      x y z
#    x 2.123630 0.000000 0.048120 
#    y 0.000000 1.916400 0.000000 
#    z 0.048120 0.000000 1.902420 
# 
# From -- ./inp_files/2865.got.cif
#   From: 2010.05.17/outbox.cif.g08.bks.cpg/sg11_2_cif.got.tgz:2865.got - 2010.06.03 12:22:45.
