data_PCOD9167139
_publ_section_title
;
Structure prediction by ZEFSAII (Michael W. Deem and Ramdas Pophale) SiO2 
 PCOD9167139
Probable space group: P 21/M
;
_chemical_formula_sum "Si O2"
_cell_formula_units_Z 32
_cell_length_a 11.516434
_cell_length_b 13.902451
_cell_length_c 9.647282
_cell_angle_alpha 90.000000
_cell_angle_beta 90.660836
_cell_angle_gamma 90.000000
_cell_volume 1544.491357
_symmetry_space_group_name_H-M "P 21/M"
_symmetry_group_IT_number 11
_symmetry_cell_setting 'monoclinic'
loop_
_space_group_symop_operation_xyz
x,y,z
-x,1/2+y,-z
-x,-y,-z
x,1/2-y,z
loop_
_atom_site_type_symbol
_atom_site_label
_atom_site_fract_x
_atom_site_fract_y
_atom_site_fract_z
Si Si1 0.042820 0.943232 0.667316
Si Si2 0.728789 0.136889 0.799009
Si Si3 0.678166 0.858413 0.356715
Si Si4 0.810750 0.136152 0.094672
Si Si5 0.950180 0.854087 0.405033
Si Si6 0.421016 0.859325 0.718073
Si Si7 0.507120 0.957509 0.153845
Si Si8 0.282434 0.954508 0.493435
O O1 0.084388 0.908141 0.816199
O O2 0.162742 0.946684 0.578981
O O3 0.960211 0.877677 0.570213
O O4 0.998775 0.052438 0.668452
O O5 0.750891 0.250000 0.776381
O O6 0.743026 0.074334 0.662213
O O7 0.593758 0.120139 0.833547
O O8 0.796617 0.102242 0.937077
O O9 0.633200 0.750000 0.382353
O O10 0.817574 0.850048 0.352192
O O11 0.621318 0.905158 0.218303
O O12 0.663791 0.940269 0.474482
O O13 0.829255 0.250000 0.090627
O O14 0.689025 0.123797 0.177804
O O15 0.005003 0.750000 0.380664
O O16 0.461683 0.750000 0.736128
O O17 0.507466 0.946044 0.753717
O O18 0.369056 0.877696 0.565094
O O19 0.500000 0.000000 0.000000
#
# Coordination Sequence:
#
# PCOD9167139 Si02
#       8
#     4   4   4   4   4   4   4   4
#     4   9  17  32  55  79 106 134 175 224 263 313
#     4  11  22  34  51  78 110 142 177 219 269 320
#     4   9  19  35  55  79 108 140 180 221 264 318
#     4   9  17  30  50  74 101 134 171 218 263 308
#     4   9  17  29  52  83 105 134 176 221 266 311
#     4   9  17  31  49  71  99 131 174 220 258 301
#     4  11  21  33  52  74 102 141 176 217 260 314
#     4   9  19  34  53  78 107 140 172 221 271 310
#
# _framework density 20.718796000000001
#
# number of rings (size 3 to 8) (size 9 to 14) (size 15 to 20)
#    0.000    2.500    1.250    1.875    0.000    4.000 
#    0.000    1.875    0.000    7.500    0.000    3.500 
#    0.000    0.000    0.000    0.000    0.000    0.000 
#
# Total GULP energy -178312.118305 kJ/mol
# GULP energy per Si atom -5572.253697 kJ/mol
# Density = 2.067164 g / cm^3
# Si number density = 20.718796 Si / 1000 Ang^3
#
#
#
# Elastic Constant Matrix: (Units=GPa)
#
#
# Indices 1 2 3 4 5 6 
#
# 1 47.0461 19.5730 38.2033 0.0000 23.5210 0.0000
# 2 19.5730 115.5946 49.1887 0.0000 15.8324 0.0000
# 3 38.2033 49.1887 166.3229 0.0000 36.7768 0.0000
# 4 0.0000 0.0000 0.0000 19.7038 0.0000 9.3341
# 5 23.5210 15.8324 36.7768 0.0000 34.8257 0.0000
# 6 0.0000 0.0000 0.0000 9.3341 0.0000 13.6271
#
#
#
# Elastic Compliance Matrix: (Units=1/GPa)
#
#
# Indices 1 2 3 4 5 6 
#
# 1 0.033945 -0.001856 -0.003086 0.000000 -0.018823 0.000000
# 2 -0.001856 0.010089 -0.002375 0.000000 -0.000825 0.000000
# 3 -0.003086 -0.002375 0.008772 0.000000 -0.006100 0.000000
# 4 0.000000 0.000000 0.000000 0.075130 0.000000 -0.051462
# 5 -0.018823 -0.000825 -0.006100 0.000000 0.048244 0.000000
# 6 0.000000 0.000000 0.000000 -0.051462 0.000000 0.108633
#
#
# Mechanical properties :
#
#
# Convention : Reuss Voigt Hill
#
# Bulk Modulus (GPa) = 26.19737 60.32151 43.25944
# Shear Modulus (GPa) = 16.01683 28.43122 22.22402
#
# Velocity S-wave (km/s) = 2.78341 3.70840 3.27869
# Velocity P-wave (km/s) = 4.79599 6.89303 5.93782
#
# Compressibility (1/GPa) = 0.03817177
#
# Stress axis : x y z
#
# Youngs Moduli (GPa) = 29.45969 99.11967 113.99456
#
# Poissons Ratio (x) = 0.18402 0.35175
# Poissons Ratio (y) = 0.05469 0.27072
# Poissons Ratio (z) = 0.09090 0.23540
#
# Static dielectric constant tensor:
#      x y z
#    x 1.809180 0.000000 -0.005360 
#    y 0.000000 1.764340 0.000000 
#    z -0.005360 0.000000 1.751730 
# 
# From -- ./inp_files/21921.got.cif
#   From: 2010.05.17/outbox.cif.g08.bks.cpg/sg11_11_cif.got.tgz:21921.got - 2010.06.03 12:22:45.
