data_PCOD9167339
_publ_section_title
;
Structure prediction by ZEFSAII (Michael W. Deem and Ramdas Pophale) SiO2 
 PCOD9167339
Probable space group: P 21/M
;
_chemical_formula_sum "Si O2"
_cell_formula_units_Z 20
_cell_length_a 11.688808
_cell_length_b 9.724210
_cell_length_c 8.818965
_cell_angle_alpha 90.000000
_cell_angle_beta 109.119562
_cell_angle_gamma 90.000000
_cell_volume 947.107179
_symmetry_space_group_name_H-M "P 21/M"
_symmetry_group_IT_number 11
_symmetry_cell_setting 'monoclinic'
loop_
_space_group_symop_operation_xyz
x,y,z
-x,1/2+y,-z
-x,-y,-z
x,1/2-y,z
loop_
_atom_site_type_symbol
_atom_site_label
_atom_site_fract_x
_atom_site_fract_y
_atom_site_fract_z
Si Si1 0.733530 0.477491 0.894320
Si Si2 0.949622 0.750000 0.282030
Si Si3 0.937162 0.250000 0.003537
Si Si4 0.646165 0.750000 0.406905
Si Si5 0.383855 0.750000 0.361400
Si Si6 0.202507 0.750000 0.567640
Si Si7 0.740690 0.528540 0.232631
Si Si8 0.183669 0.250000 0.244605
O O1 0.648199 0.383036 0.754137
O O2 0.769584 0.615064 0.822173
O O3 0.852718 0.383556 0.972719
O O4 0.686312 0.510948 0.041299
O O5 0.863103 0.619004 0.269394
O O6 0.067633 0.750000 0.439053
O O7 0.995270 0.750000 0.128669
O O8 0.038734 0.250000 0.175791
O O9 0.525930 0.750000 0.455366
O O10 0.654117 0.616847 0.303740
O O11 0.762853 0.750000 0.564860
O O12 0.296427 0.750000 0.467720
O O13 0.227297 0.615753 0.678202
#
# Coordination Sequence:
#
# PCOD9167339 Si02
#       8
#     4   2   2   2   2   2   4   2
#     4  11  23  43  69  97 131 175 220 267 323 395
#     4  11  22  42  64 102 142 171 208 266 328 400
#     4  11  22  40  68 102 136 171 222 256 320 405
#     4  11  28  47  65  95 132 173 224 279 327 382
#     4  11  26  48  69  92 128 177 229 269 324 391
#     4  12  23  41  69 100 137 173 214 271 326 386
#     4  11  25  43  64 100 138 168 217 270 333 385
#     4  12  23  40  69  97 133 177 217 263 321 392
#
# _framework density 21.116935000000002
#
# number of rings (size 3 to 8) (size 9 to 14) (size 15 to 20)
#    0.000    0.800    4.000    4.200    0.000    7.200 
#    0.000    2.000    0.000    0.000    0.000    0.000 
#    0.000    0.000    0.000    0.000    0.000    0.000 
#
# Total GULP energy -111986.687903 kJ/mol
# GULP energy per Si atom -5599.334395 kJ/mol
# Density = 2.106887 g / cm^3
# Si number density = 21.116935 Si / 1000 Ang^3
#
#
#
# Elastic Constant Matrix: (Units=GPa)
#
#
# Indices 1 2 3 4 5 6 
#
# 1 51.2805 6.6050 -0.9849 0.0000 -3.9695 0.0000
# 2 6.6050 150.6923 24.3872 0.0000 -10.7848 0.0000
# 3 -0.9849 24.3872 77.8196 0.0000 -23.2800 0.0000
# 4 0.0000 0.0000 0.0000 -201.1080 0.0000 42.7834
# 5 -3.9695 -10.7848 -23.2800 0.0000 22.4520 0.0000
# 6 0.0000 0.0000 0.0000 42.7834 0.0000 -7.4900
#
#
#
# Elastic Compliance Matrix: (Units=1/GPa)
#
#
# Indices 1 2 3 4 5 6 
#
# 1 0.020062 -0.000839 0.002113 0.000000 0.005334 0.000000
# 2 -0.000839 0.007064 -0.001817 0.000000 0.001360 0.000000
# 3 0.002113 -0.001817 0.019276 0.000000 0.019488 0.000000
# 4 0.000000 0.000000 0.000000 0.023108 0.000000 0.131995
# 5 0.005334 0.001360 0.019488 0.000000 0.066343 0.000000
# 6 0.000000 0.000000 0.000000 0.131995 0.000000 0.620457
#
#
# Mechanical properties :
#
#
# Convention : Reuss Voigt Hill
#
# Bulk Modulus (GPa) = 22.06793 37.75631 29.91212
# Shear Modulus (GPa) = 6.47246 -20.57686 -7.05220
#
# Velocity S-wave (km/s) = 1.75263 -3.12496 -1.82944
# Velocity P-wave (km/s) = 3.81689 2.21312 3.11982
#
# Compressibility (1/GPa) = 0.04531463
#
# Stress axis : x y z
#
# Youngs Moduli (GPa) = 49.84490 141.55629 51.87695
#
# Poissons Ratio (x) = 0.11883 -0.10961
# Poissons Ratio (y) = 0.04184 0.09428
# Poissons Ratio (z) = -0.10531 0.25727
#
# Static dielectric constant tensor:
#      x y z
#    x 1.739770 0.000000 -0.007830 
#    y 0.000000 1.726680 0.000000 
#    z -0.007830 0.000000 1.746580 
# 
# From -- ./inp_files/16000.got.cif
#   From: 2010.05.17/outbox.cif.g08.bks.cpg/sg11_8_cif.got.tgz:16000.got - 2010.06.03 12:22:45.
