data_PCOD9167487
_publ_section_title
;
Structure prediction by ZEFSAII (Michael W. Deem and Ramdas Pophale) SiO2 
 PCOD9167487
Probable space group: P 21/M
;
_chemical_formula_sum "Si O2"
_cell_formula_units_Z 32
_cell_length_a 18.650411
_cell_length_b 14.863127
_cell_length_c 13.421804
_cell_angle_alpha 90.000000
_cell_angle_beta 27.484960
_cell_angle_gamma 90.000000
_cell_volume 1717.101720
_symmetry_space_group_name_H-M "P 21/M"
_symmetry_group_IT_number 11
_symmetry_cell_setting 'monoclinic'
loop_
_space_group_symop_operation_xyz
x,y,z
-x,1/2+y,-z
-x,-y,-z
x,1/2-y,z
loop_
_atom_site_type_symbol
_atom_site_label
_atom_site_fract_x
_atom_site_fract_y
_atom_site_fract_z
Si Si1 0.566054 0.646230 0.151632
Si Si2 0.290972 0.642721 0.976522
Si Si3 0.834375 0.140597 0.661216
Si Si4 0.170084 0.359402 0.325510
Si Si5 0.482438 0.004731 0.403501
Si Si6 0.941524 0.857279 0.325972
Si Si7 0.783795 0.146232 0.498511
Si Si8 0.868382 0.504732 0.245679
O O1 0.604526 0.750000 0.130014
O O2 0.558000 0.582403 0.256901
O O3 0.395582 0.645514 0.313207
O O4 0.687731 0.613002 0.918738
O O5 0.317860 0.750000 0.940252
O O6 0.275278 0.613605 0.111763
O O7 0.121243 0.626598 0.136258
O O8 0.423331 0.588983 0.756751
O O9 0.831996 0.250000 0.665351
O O10 0.794254 0.113006 0.599273
O O11 0.008795 0.112178 0.473664
O O12 0.170703 0.250000 0.326648
O O13 0.162347 0.386399 0.450619
O O14 0.302135 0.008506 0.593589
O O15 0.500000 0.000000 0.500000
O O16 0.924022 0.750000 0.334087
O O17 0.896585 0.911006 0.283488
O O18 0.839119 0.250000 0.426336
O O19 0.872931 0.082392 0.312168
O O20 0.000000 0.500000 0.000000
#
# Coordination Sequence:
#
# PCOD9167487 Si02
#       8
#     4   4   4   4   4   4   4   4
#     4   9  19  36  56  78 107 142 176 216 270 325
#     4   9  19  37  59  82 111 145 177 216 270 325
#     4   8  15  30  54  83 110 137 173 215 263 323
#     4   8  15  30  54  83 110 137 173 215 263 323
#     4  11  24  39  55  78 107 142 188 233 272 320
#     4   9  19  37  59  82 111 145 177 216 270 325
#     4   9  19  36  56  78 107 142 176 216 270 325
#     4  11  24  39  55  78 107 142 188 233 272 320
#
# _framework density 18.636054000000001
#
# number of rings (size 3 to 8) (size 9 to 14) (size 15 to 20)
#    0.000    2.750    0.000    2.250    0.000    5.500 
#    0.000   10.000    0.000    0.000    0.000    0.000 
#    0.000    0.000    0.000    0.000    0.000    0.000 
#
# Total GULP energy -178551.435160 kJ/mol
# GULP energy per Si atom -5579.732349 kJ/mol
# Density = 1.859364 g / cm^3
# Si number density = 18.636054 Si / 1000 Ang^3
#
#
#
# Elastic Constant Matrix: (Units=GPa)
#
#
# Indices 1 2 3 4 5 6 
#
# 1 117.2310 53.3149 63.2817 0.0000 42.8043 0.0000
# 2 53.3149 82.1023 60.8465 0.0000 13.7160 0.0000
# 3 63.2817 60.8465 160.2912 0.0000 35.6530 0.0000
# 4 0.0000 0.0000 0.0000 29.0505 0.0000 5.8198
# 5 42.8043 13.7160 35.6530 0.0000 25.6960 0.0000
# 6 0.0000 0.0000 0.0000 5.8198 0.0000 25.8554
#
#
#
# Elastic Compliance Matrix: (Units=1/GPa)
#
#
# Indices 1 2 3 4 5 6 
#
# 1 0.031707 -0.015583 0.004767 0.000000 -0.051113 0.000000
# 2 -0.015583 0.024607 -0.008738 0.000000 0.024947 0.000000
# 3 0.004767 -0.008738 0.012153 0.000000 -0.020138 0.000000
# 4 0.000000 0.000000 0.000000 0.036048 0.000000 -0.008114
# 5 -0.051113 0.024947 -0.020138 0.000000 0.138685 0.000000
# 6 0.000000 0.000000 0.000000 -0.008114 0.000000 0.040503
#
#
# Mechanical properties :
#
#
# Convention : Reuss Voigt Hill
#
# Bulk Modulus (GPa) = 34.06174 79.39008 56.72591
# Shear Modulus (GPa) = 15.03318 28.26581 21.64950
#
# Velocity S-wave (km/s) = 2.84328 3.89874 3.41207
# Velocity P-wave (km/s) = 5.39407 7.93471 6.78438
#
# Compressibility (1/GPa) = 0.02935845
#
# Stress axis : x y z
#
# Youngs Moduli (GPa) = 31.53906 40.63893 82.28488
#
# Poissons Ratio (x) = 0.63328 -0.39222
# Poissons Ratio (y) = 0.49148 0.71897
# Poissons Ratio (z) = -0.15033 0.35508
#
# Static dielectric constant tensor:
#      x y z
#    x 1.618590 0.000000 -0.000050 
#    y 0.000000 1.678620 0.000000 
#    z -0.000050 0.000000 1.618510 
# 
# From -- ./inp_files/41639.got.cif
#   From: 2010.05.17/outbox.cif.g08.bks.cpg/sg11_21_cif.got.tgz:41639.got - 2010.06.03 12:22:45.
