data_PCOD9167736
_publ_section_title
;
Structure prediction by ZEFSAII (Michael W. Deem and Ramdas Pophale) SiO2 
 PCOD9167736
Probable space group: P 21/M
;
_chemical_formula_sum "Si O2"
_cell_formula_units_Z 28
_cell_length_a 27.000000
_cell_length_b 9.000000
_cell_length_c 9.000000
_cell_angle_alpha 90.000000
_cell_angle_beta 140.000000
_cell_angle_gamma 90.000000
_cell_volume 1405.776502
_symmetry_space_group_name_H-M "P 21/M"
_symmetry_group_IT_number 11
_symmetry_cell_setting 'monoclinic'
loop_
_space_group_symop_operation_xyz
x,y,z
-x,1/2+y,-z
-x,-y,-z
x,1/2-y,z
loop_
_atom_site_type_symbol
_atom_site_label
_atom_site_fract_x
_atom_site_fract_y
_atom_site_fract_z
Si Si1 0.687934 0.917655 0.670679
Si Si2 0.092465 0.922343 0.568742
Si Si3 0.425762 0.915069 0.783220
Si Si4 0.063882 0.579060 0.849995
Si Si5 0.300695 0.586091 0.755329
Si Si6 0.245060 0.076413 0.872246
Si Si7 0.812747 0.584032 0.694089
O O1 0.662468 0.750000 0.641943
O O2 0.753848 0.911771 0.697367
O O3 0.617812 0.009982 0.451004
O O4 0.723489 0.980370 0.900182
O O5 0.076340 0.750000 0.498558
O O6 0.097773 0.935301 0.760617
O O7 0.169066 0.981815 0.669853
O O8 0.023768 0.029414 0.363582
O O9 0.446689 0.750000 0.791835
O O10 0.367084 0.916339 0.786471
O O11 0.500000 0.000000 0.000000
O O12 0.072699 0.750000 0.915910
O O13 0.106598 0.467533 0.057246
O O14 0.296660 0.750000 0.812584
O O15 0.308067 0.458941 0.893769
O O16 0.223059 0.541222 0.491458
O O17 0.226595 0.250000 0.840841
O O18 0.814126 0.750000 0.630403
#
# Coordination Sequence:
#
# PCOD9167736 Si02
#       7
#     4   4   4   4   4   4   4
#     4   9  19  34  56  83 111 142 182 224 266 320
#     4  10  20  32  50  76 109 147 185 231 279 324
#     4  10  21  38  62  87 113 142 179 221 266 320
#     4  10  19  31  50  77 108 143 187 235 278 323
#     4  10  22  38  56  82 113 146 181 222 272 328
#     4  11  21  36  56  82 113 147 184 226 275 327
#     4  10  18  33  55  79 107 143 186 232 276 324
#
# _framework density 19.917818
#
# number of rings (size 3 to 8) (size 9 to 14) (size 15 to 20)
#    0.000    2.000    1.429    2.571    0.000    4.571 
#    0.000    1.429    0.000    0.000    0.000    0.000 
#    0.000    0.000    0.000    0.000    0.000    0.000 
#
# Total GULP energy -156002.297408 kJ/mol
# GULP energy per Si atom -5571.510622 kJ/mol
# Density = 1.987248 g / cm^3
# Si number density = 19.917818 Si / 1000 Ang^3
#
#
#
# Elastic Constant Matrix: (Units=GPa)
#
#
# Indices 1 2 3 4 5 6 
#
# 1 -13.1688 9.8341 32.7084 0.0000 -4.8038 0.0000
# 2 9.8341 31.3662 35.7614 0.0000 24.1749 0.0000
# 3 32.7084 35.7614 59.0681 0.0000 10.5080 0.0000
# 4 0.0000 0.0000 0.0000 22.3059 0.0000 3.8487
# 5 -4.8038 24.1749 10.5080 0.0000 6.2319 0.0000
# 6 0.0000 0.0000 0.0000 3.8487 0.0000 21.9447
#
#
#
# Elastic Compliance Matrix: (Units=1/GPa)
#
#
# Indices 1 2 3 4 5 6 
#
# 1 -0.025356 -0.013441 0.023398 0.000000 -0.006859 0.000000
# 2 -0.013441 -0.022993 0.010484 0.000000 0.061157 0.000000
# 3 0.023398 0.010484 0.002360 0.000000 -0.026612 0.000000
# 4 0.000000 0.000000 0.000000 0.046230 0.000000 -0.008108
# 5 -0.006859 0.061157 -0.026612 0.000000 -0.037194 0.000000
# 6 0.000000 0.000000 0.000000 -0.008108 0.000000 0.046991
#
#
# Mechanical properties :
#
#
# Convention : Reuss Voigt Hill
#
# Bulk Modulus (GPa) = -195.81884 25.98592 -84.91646
# Shear Modulus (GPa) = -153.62757 10.02729 -71.80014
#
# Velocity S-wave (km/s) = -8.79194 2.24617 -6.01053
# Velocity P-wave (km/s) = 14.19828 4.44993 9.53386
#
# Compressibility (1/GPa) = -0.00510676
#
# Stress axis : x y z
#
# Youngs Moduli (GPa) = -39.43827 -43.49138 423.72076
#
# Poissons Ratio (x) = -0.58456 -9.91432
# Poissons Ratio (y) = -0.53008 -4.44216
# Poissons Ratio (z) = 0.92279 0.45595
#
# Static dielectric constant tensor:
#      x y z
#    x 1.692900 0.000000 -0.066960 
#    y 0.000000 1.655650 0.000000 
#    z -0.066960 0.000000 1.653720 
# 
# From -- ./inp_files/28021.got.cif
#   From: 2010.05.17/outbox.ucp.g08.bks.cvg/sg11_15_cif.got.tgz:28021.got - 2010.06.11 11:38:39.
