data_PCOD9167597
_publ_section_title
;
Structure prediction by ZEFSAII (Michael W. Deem and Ramdas Pophale) SiO2 
 PCOD9167597
Probable space group: P 21/M
;
_chemical_formula_sum "Si O2"
_cell_formula_units_Z 20
_cell_length_a 9.822401
_cell_length_b 18.767304
_cell_length_c 4.942435
_cell_angle_alpha 90.000000
_cell_angle_beta 87.718397
_cell_angle_gamma 90.000000
_cell_volume 910.366113
_symmetry_space_group_name_H-M "P 21/M"
_symmetry_group_IT_number 11
_symmetry_cell_setting 'monoclinic'
loop_
_space_group_symop_operation_xyz
x,y,z
-x,1/2+y,-z
-x,-y,-z
x,1/2-y,z
loop_
_atom_site_type_symbol
_atom_site_label
_atom_site_fract_x
_atom_site_fract_y
_atom_site_fract_z
Si Si1 0.042254 0.250000 0.803328
Si Si2 0.504990 0.334124 0.089882
Si Si3 0.153815 0.016970 0.395230
Si Si4 0.868534 0.250000 0.318075
Si Si5 0.218343 0.110278 0.889847
Si Si6 0.677562 0.127002 0.560262
O O1 0.125833 0.179892 0.868588
O O2 0.908053 0.250000 0.001828
O O3 0.003772 0.250000 0.491370
O O4 0.491114 0.250000 0.159570
O O5 0.614646 0.342826 0.841248
O O6 0.364450 0.365243 0.988219
O O7 0.557311 0.376687 0.347810
O O8 0.154237 0.054670 0.105582
O O9 0.244248 0.945904 0.388011
O O10 0.220680 0.071612 0.601992
O O11 0.000000 0.000000 0.500000
O O12 0.783050 0.181609 0.414690
#
# Coordination Sequence:
#
# PCOD9167597 Si02
#       6
#     2   4   4   2   4   4
#     4  12  24  42  68  98 130 180 234 280 330 412
#     4  12  24  46  70 103 138 174 235 288 333 402
#     4  12  27  47  68 103 143 181 225 285 343 409
#     4  12  24  42  68 100 130 180 236 276 340 400
#     4  12  26  45  71  99 139 183 225 283 346 397
#     4  12  25  44  71  98 140 179 225 285 340 403
#
# _framework density 21.969180999999999
#
# number of rings (size 3 to 8) (size 9 to 14) (size 15 to 20)
#    0.000    0.000    3.000    7.800    0.000    4.800 
#    0.000    0.000    0.000    0.000    0.000    0.000 
#    0.000    0.000    0.000    0.000    0.000    0.000 
#
# Total GULP energy -112136.721147 kJ/mol
# GULP energy per Si atom -5606.836057 kJ/mol
# Density = 2.191918 g / cm^3
# Si number density = 21.969181 Si / 1000 Ang^3
#
#
#
# Elastic Constant Matrix: (Units=GPa)
#
#
# Indices 1 2 3 4 5 6 
#
# 1 90.2370 24.5764 -9.7171 0.0000 16.7347 0.0000
# 2 24.5764 82.2654 -15.2664 0.0000 -7.0200 0.0000
# 3 -9.7171 -15.2664 65.3056 0.0000 9.7855 0.0000
# 4 0.0000 0.0000 0.0000 45.9549 0.0000 14.0907
# 5 16.7347 -7.0200 9.7855 0.0000 36.0940 0.0000
# 6 0.0000 0.0000 0.0000 14.0907 0.0000 34.7184
#
#
#
# Elastic Compliance Matrix: (Units=1/GPa)
#
#
# Indices 1 2 3 4 5 6 
#
# 1 0.014013 -0.004451 0.002239 0.000000 -0.007970 0.000000
# 2 -0.004451 0.014226 0.002022 0.000000 0.004282 0.000000
# 3 0.002239 0.002022 0.016902 0.000000 -0.005227 0.000000
# 4 0.000000 0.000000 0.000000 0.024853 0.000000 -0.010087
# 5 -0.007970 0.004282 -0.005227 0.000000 0.033651 0.000000
# 6 0.000000 0.000000 0.000000 -0.010087 0.000000 0.032897
#
#
# Mechanical properties :
#
#
# Convention : Reuss Voigt Hill
#
# Bulk Modulus (GPa) = 22.34150 26.33264 24.33707
# Shear Modulus (GPa) = 32.92877 39.23448 36.08162
#
# Velocity S-wave (km/s) = 3.87571 4.23056 4.05702
# Velocity P-wave (km/s) = 5.49725 5.98963 5.74872
#
# Compressibility (1/GPa) = 0.04475976
#
# Stress axis : x y z
#
# Youngs Moduli (GPa) = 71.36080 70.29333 59.16611
#
# Poissons Ratio (x) = 0.31288 -0.13246
# Poissons Ratio (y) = 0.31763 -0.11961
# Poissons Ratio (z) = -0.15976 -0.14211
#
# Static dielectric constant tensor:
#      x y z
#    x 1.815450 0.000000 0.012640 
#    y 0.000000 1.751820 0.000000 
#    z 0.012640 0.000000 1.768220 
# 
# From -- ./inp_files/1966.got.cif
#   From: 2010.05.17/outbox.cif.g08.bks.cpg/sg11_1_cif.got.tgz:1966.got - 2010.06.03 12:22:45.
