data_PCOD9167104
_publ_section_title
;
Structure prediction by ZEFSAII (Michael W. Deem and Ramdas Pophale) SiO2 
 PCOD9167104
Probable space group: P 21/M
;
_chemical_formula_sum "Si O2"
_cell_formula_units_Z 28
_cell_length_a 14.668870
_cell_length_b 15.126460
_cell_length_c 20.824078
_cell_angle_alpha 90.000000
_cell_angle_beta 163.859773
_cell_angle_gamma 90.000000
_cell_volume 1284.480684
_symmetry_space_group_name_H-M "P 21/M"
_symmetry_group_IT_number 11
_symmetry_cell_setting 'monoclinic'
loop_
_space_group_symop_operation_xyz
x,y,z
-x,1/2+y,-z
-x,-y,-z
x,1/2-y,z
loop_
_atom_site_type_symbol
_atom_site_label
_atom_site_fract_x
_atom_site_fract_y
_atom_site_fract_z
Si Si1 0.623654 0.006270 0.380737
Si Si2 0.612546 0.979876 0.234209
Si Si3 0.516371 0.396595 0.492996
Si Si4 0.566684 0.844060 0.419291
Si Si5 0.323018 0.413285 0.852047
Si Si6 0.236717 0.151909 0.929862
Si Si7 0.836898 0.849184 0.869432
O O1 0.734710 0.932164 0.506881
O O2 0.519886 0.958980 0.244499
O O3 0.342567 0.070690 0.215780
O O4 0.938814 0.066904 0.583205
O O5 0.545020 0.908447 0.132053
O O6 0.437321 0.072022 0.097390
O O7 0.000000 0.000000 0.500000
O O8 0.500000 0.500000 0.500000
O O9 0.487926 0.349128 0.541864
O O10 0.231303 0.368740 0.251294
O O11 0.855476 0.371600 0.686150
O O12 0.725410 0.750000 0.509699
O O13 0.210725 0.848639 0.144912
O O14 0.329110 0.348019 0.916646
O O15 0.500000 0.500000 0.000000
O O16 0.301846 0.250000 0.000566
O O17 0.704593 0.750000 0.794272
#
# Coordination Sequence:
#
# PCOD9167104 Si02
#       7
#     4   4   4   4   4   4   4
#     4  11  20  38  61  84 119 163 197 249 311 371
#     4   9  21  38  61  86 115 157 203 254 320 375
#     4  12  23  38  63  94 127 169 201 252 316 377
#     4  11  24  40  58  87 127 164 205 252 302 375
#     4   9  19  38  58  84 115 150 196 249 310 363
#     4  11  21  37  63  93 122 156 209 265 310 368
#     4  11  23  38  61  93 127 161 208 258 309 374
#
# _framework density 21.798694000000001
#
# number of rings (size 3 to 8) (size 9 to 14) (size 15 to 20)
#    0.000    1.429    2.857    2.571    2.000    1.714 
#    0.000    9.286    0.000    0.000    0.000    0.000 
#    0.000    0.000    0.000    0.000    0.000    0.000 
#
# Total GULP energy -156217.136742 kJ/mol
# GULP energy per Si atom -5579.183455 kJ/mol
# Density = 2.174908 g / cm^3
# Si number density = 21.798694 Si / 1000 Ang^3
#
#
#
# Elastic Constant Matrix: (Units=GPa)
#
#
# Indices 1 2 3 4 5 6 
#
# 1 127.2383 23.6701 10.6910 0.0000 -32.7770 0.0000
# 2 23.6701 69.1854 -24.8313 0.0000 19.2990 0.0000
# 3 10.6910 -24.8313 52.6521 0.0000 -12.1667 0.0000
# 4 0.0000 0.0000 0.0000 -13.2007 0.0000 11.8892
# 5 -32.7770 19.2990 -12.1667 0.0000 23.5611 0.0000
# 6 0.0000 0.0000 0.0000 11.8892 0.0000 -2.6273
#
#
#
# Elastic Compliance Matrix: (Units=1/GPa)
#
#
# Indices 1 2 3 4 5 6 
#
# 1 0.030887 -0.030828 -0.005730 0.000000 0.065261 0.000000
# 2 -0.030828 0.051341 0.012314 0.000000 -0.078581 0.000000
# 3 -0.005730 0.012314 0.024743 0.000000 -0.005281 0.000000
# 4 0.000000 0.000000 0.000000 0.024630 0.000000 0.111457
# 5 0.065261 -0.078581 -0.005281 0.000000 0.194870 0.000000
# 6 0.000000 0.000000 0.000000 0.111457 0.000000 0.123751
#
#
# Mechanical properties :
#
#
# Convention : Reuss Voigt Hill
#
# Bulk Modulus (GPa) = 17.09915 29.79282 23.44598
# Shear Modulus (GPa) = 9.64869 17.51635 13.58252
#
# Velocity S-wave (km/s) = 2.10615 2.83777 2.49888
# Velocity P-wave (km/s) = 3.71156 4.94309 4.37092
#
# Compressibility (1/GPa) = 0.05848244
#
# Stress axis : x y z
#
# Youngs Moduli (GPa) = 32.37585 19.47774 40.41501
#
# Poissons Ratio (x) = 0.60047 0.23159
# Poissons Ratio (y) = 0.99809 -0.49768
# Poissons Ratio (z) = 0.18552 -0.23985
#
# Static dielectric constant tensor:
#      x y z
#    x 1.868600 0.000000 -0.007780 
#    y 0.000000 1.817600 0.000000 
#    z -0.007780 0.000000 1.783430 
# 
# From -- ./inp_files/65661.got.cif
#   From: 2010.05.17/outbox.cif.g08.bks.cpg/sg11_33_cif.got.tgz:65661.got - 2010.06.03 12:22:45.
