data_PCOD9167502
_publ_section_title
;
Structure prediction by ZEFSAII (Michael W. Deem and Ramdas Pophale) SiO2 
 PCOD9167502
Probable space group: P 21/M
;
_chemical_formula_sum "Si O2"
_cell_formula_units_Z 24
_cell_length_a 14.944111
_cell_length_b 18.078999
_cell_length_c 8.643960
_cell_angle_alpha 90.000000
_cell_angle_beta 150.222133
_cell_angle_gamma 90.000000
_cell_volume 1159.839199
_symmetry_space_group_name_H-M "P 21/M"
_symmetry_group_IT_number 11
_symmetry_cell_setting 'monoclinic'
loop_
_space_group_symop_operation_xyz
x,y,z
-x,1/2+y,-z
-x,-y,-z
x,1/2-y,z
loop_
_atom_site_type_symbol
_atom_site_label
_atom_site_fract_x
_atom_site_fract_y
_atom_site_fract_z
Si Si1 0.264633 0.453582 0.276020
Si Si2 0.103451 0.911825 0.442377
Si Si3 0.430808 0.665739 0.771184
Si Si4 0.399529 0.616060 0.378996
Si Si5 0.051393 0.664433 0.687880
Si Si6 0.248921 0.433413 0.618312
O O1 0.317540 0.535722 0.300312
O O2 0.412626 0.398880 0.424880
O O3 0.271180 0.449477 0.470600
O O4 0.067147 0.433796 0.917653
O O5 0.239829 0.859078 0.555152
O O6 0.038582 0.872936 0.500951
O O7 0.208776 0.988028 0.638932
O O8 0.472803 0.750000 0.879549
O O9 0.425436 0.658617 0.578217
O O10 0.578711 0.608327 0.055515
O O11 0.255091 0.655612 0.053374
O O12 0.000122 0.750000 0.604447
O O13 0.920597 0.619633 0.605285
#
# Coordination Sequence:
#
# PCOD9167502 Si02
#       6
#     4   4   4   4   4   4
#     4  11  24  42  70 103 128 170 231 275 327 389
#     4  12  24  44  70 101 131 178 225 279 325 400
#     4  12  26  44  67  99 138 177 221 276 342 396
#     4  11  24  43  69  98 138 171 221 279 330 397
#     4  12  26  44  67  99 138 177 221 276 342 396
#     4  12  24  44  70 101 131 178 225 279 325 400
#
# _framework density 20.692523000000001
#
# number of rings (size 3 to 8) (size 9 to 14) (size 15 to 20)
#    0.000    0.333    3.333    6.000    4.667    0.000 
#    0.000    7.500    0.000    0.000    0.000    0.000 
#    0.000    0.000    0.000    0.000    0.000    0.000 
#
# Total GULP energy -134462.024333 kJ/mol
# GULP energy per Si atom -5602.584347 kJ/mol
# Density = 2.064543 g / cm^3
# Si number density = 20.692523 Si / 1000 Ang^3
#
#
#
# Elastic Constant Matrix: (Units=GPa)
#
#
# Indices 1 2 3 4 5 6 
#
# 1 54.5570 8.8667 -19.1778 0.0000 10.3581 0.0000
# 2 8.8667 86.2772 -19.0960 0.0000 1.2205 0.0000
# 3 -19.1778 -19.0960 49.2635 0.0000 3.7639 0.0000
# 4 0.0000 0.0000 0.0000 -36.6837 0.0000 8.1310
# 5 10.3581 1.2205 3.7639 0.0000 36.3712 0.0000
# 6 0.0000 0.0000 0.0000 8.1310 0.0000 9.7110
#
#
#
# Elastic Compliance Matrix: (Units=1/GPa)
#
#
# Indices 1 2 3 4 5 6 
#
# 1 0.023141 -0.000163 0.009524 0.000000 -0.007570 0.000000
# 2 -0.000163 0.012711 0.004932 0.000000 -0.000890 0.000000
# 3 0.009524 0.004932 0.026346 0.000000 -0.005604 0.000000
# 4 0.000000 0.000000 0.000000 -0.022993 0.000000 0.019252
# 5 -0.007570 -0.000890 -0.005604 0.000000 0.030260 0.000000
# 6 0.000000 0.000000 0.000000 0.019252 0.000000 0.086857
#
#
# Mechanical properties :
#
#
# Convention : Reuss Voigt Hill
#
# Bulk Modulus (GPa) = 11.01518 14.58705 12.80112
# Shear Modulus (GPa) = 31.64571 16.51334 24.07952
#
# Velocity S-wave (km/s) = 3.91491 2.82801 3.41498
# Velocity P-wave (km/s) = 5.07643 4.21050 4.66361
#
# Compressibility (1/GPa) = 0.09078383
#
# Stress axis : x y z
#
# Youngs Moduli (GPa) = 43.21322 78.66897 37.95581
#
# Poissons Ratio (x) = 0.01284 -0.36148
# Poissons Ratio (y) = 0.00705 -0.18719
# Poissons Ratio (z) = -0.41155 -0.38798
#
# Static dielectric constant tensor:
#      x y z
#    x 1.705960 0.000000 0.021660 
#    y 0.000000 1.723940 0.000000 
#    z 0.021660 0.000000 1.717470 
# 
# From -- ./inp_files/22834.got.cif
#   From: 2010.05.17/outbox.cif.g08.bks.cpg/sg11_12_cif.got.tgz:22834.got - 2010.06.03 12:22:45.
