data_PCOD9167432
_publ_section_title
;
Structure prediction by ZEFSAII (Michael W. Deem and Ramdas Pophale) SiO2 
 PCOD9167432
Probable space group: P 21/M
;
_chemical_formula_sum "Si O2"
_cell_formula_units_Z 24
_cell_length_a 15.281308
_cell_length_b 8.740737
_cell_length_c 15.017309
_cell_angle_alpha 90.000000
_cell_angle_beta 40.020193
_cell_angle_gamma 90.000000
_cell_volume 1289.883659
_symmetry_space_group_name_H-M "P 21/M"
_symmetry_group_IT_number 11
_symmetry_cell_setting 'monoclinic'
loop_
_space_group_symop_operation_xyz
x,y,z
-x,1/2+y,-z
-x,-y,-z
x,1/2-y,z
loop_
_atom_site_type_symbol
_atom_site_label
_atom_site_fract_x
_atom_site_fract_y
_atom_site_fract_z
Si Si1 0.605920 0.932642 0.155874
Si Si2 0.909829 0.567632 0.150351
Si Si3 0.880017 0.068018 0.857216
Si Si4 0.109325 0.067164 0.346834
Si Si5 0.422756 0.432997 0.146180
Si Si6 0.615328 0.432858 0.346127
O O1 0.602686 0.750000 0.164464
O O2 0.488014 0.992620 0.182655
O O3 0.595402 0.005397 0.261572
O O4 0.748259 0.985602 0.001106
O O5 0.894537 0.750000 0.149607
O O6 0.763159 0.489723 0.262921
O O7 0.992730 0.541104 0.176631
O O8 0.000000 0.500000 0.000000
O O9 0.853444 0.250000 0.875753
O O10 0.906171 0.006588 0.738309
O O11 0.094332 0.250000 0.351877
O O12 0.262755 0.034973 0.260665
O O13 0.000000 0.000000 0.500000
O O14 0.442346 0.250000 0.133324
O O15 0.500000 0.500000 0.000000
O O16 0.500000 0.500000 0.500000
O O17 0.610567 0.250000 0.349722
#
# Coordination Sequence:
#
# PCOD9167432 Si02
#       6
#     4   4   4   4   4   4
#     4  12  24  40  66  97 129 169 217 266 321 386
#     4  11  23  40  66  98 131 171 217 264 319 384
#     4  11  23  40  66  96 129 169 214 264 318 380
#     4  11  25  43  65  94 130 170 212 265 323 381
#     4  11  23  40  65  96 129 169 217 265 319 381
#     4  12  26  45  67  95 132 172 215 271 331 387
#
# _framework density 18.606328999999999
#
# number of rings (size 3 to 8) (size 9 to 14) (size 15 to 20)
#    0.000    0.667    3.333    5.000    0.000    5.333 
#    0.000    1.667    0.000    0.000    0.000    0.000 
#    0.000    0.000    0.000    0.000    0.000    0.000 
#
# Total GULP energy -134331.293159 kJ/mol
# GULP energy per Si atom -5597.137215 kJ/mol
# Density = 1.856398 g / cm^3
# Si number density = 18.606329 Si / 1000 Ang^3
#
#
#
# Elastic Constant Matrix: (Units=GPa)
#
#
# Indices 1 2 3 4 5 6 
#
# 1 171.6838 116.6882 95.5196 0.0000 6.0254 0.0000
# 2 116.6882 166.3147 95.1818 0.0000 -4.7666 0.0000
# 3 95.5196 95.1818 180.2787 0.0000 4.1691 0.0000
# 4 0.0000 0.0000 0.0000 38.6133 0.0000 0.7130
# 5 6.0254 -4.7666 4.1691 0.0000 33.6450 0.0000
# 6 0.0000 0.0000 0.0000 0.7130 0.0000 39.2547
#
#
#
# Elastic Compliance Matrix: (Units=1/GPa)
#
#
# Indices 1 2 3 4 5 6 
#
# 1 0.012283 -0.007185 -0.002647 0.000000 -0.002890 0.000000
# 2 -0.007185 0.012928 -0.003100 0.000000 0.003503 0.000000
# 3 -0.002647 -0.003100 0.008610 0.000000 -0.001032 0.000000
# 4 0.000000 0.000000 0.000000 0.025906 0.000000 -0.000471
# 5 -0.002890 0.003503 -0.001032 0.000000 0.030864 0.000000
# 6 0.000000 0.000000 0.000000 -0.000471 0.000000 0.025483
#
#
# Mechanical properties :
#
#
# Convention : Reuss Voigt Hill
#
# Bulk Modulus (GPa) = 125.68784 125.89513 125.79148
# Shear Modulus (GPa) = 34.58018 36.36176 35.47097
#
# Velocity S-wave (km/s) = 4.31573 4.42551 4.37096
# Velocity P-wave (km/s) = 9.61934 9.69138 9.65543
#
# Compressibility (1/GPa) = 0.00795622
#
# Stress axis : x y z
#
# Youngs Moduli (GPa) = 81.41535 77.34940 116.14296
#
# Poissons Ratio (x) = 0.55578 0.30748
# Poissons Ratio (y) = 0.58500 0.36000
# Poissons Ratio (z) = 0.21554 0.23976
#
# Static dielectric constant tensor:
#      x y z
#    x 1.617610 0.000000 -0.003610 
#    y 0.000000 1.622420 0.000000 
#    z -0.003610 0.000000 1.595400 
# 
# From -- ./inp_files/51519.got.cif
#   From: 2010.05.17/outbox.cif.g08.bks.cpg/sg11_26_cif.got.tgz:51519.got - 2010.06.03 12:22:45.
