data_PCOD9167169
_publ_section_title
;
Structure prediction by ZEFSAII (Michael W. Deem and Ramdas Pophale) SiO2 
 PCOD9167169
Probable space group: P 21/M
;
_chemical_formula_sum "Si O2"
_cell_formula_units_Z 20
_cell_length_a 9.647141
_cell_length_b 8.638605
_cell_length_c 14.080950
_cell_angle_alpha 90.000000
_cell_angle_beta 134.702015
_cell_angle_gamma 90.000000
_cell_volume 834.077069
_symmetry_space_group_name_H-M "P 21/M"
_symmetry_group_IT_number 11
_symmetry_cell_setting 'monoclinic'
loop_
_space_group_symop_operation_xyz
x,y,z
-x,1/2+y,-z
-x,-y,-z
x,1/2-y,z
loop_
_atom_site_type_symbol
_atom_site_label
_atom_site_fract_x
_atom_site_fract_y
_atom_site_fract_z
Si Si1 0.201390 0.567719 0.875491
Si Si2 0.008200 0.066361 0.608854
Si Si3 0.577625 0.068087 0.415724
Si Si4 0.422929 0.931855 0.160219
Si Si5 0.177492 0.926545 0.219948
O O1 0.228710 0.750000 0.877514
O O2 0.174711 0.490683 0.760295
O O3 0.995433 0.534191 0.829077
O O4 0.365670 0.510534 0.028537
O O5 0.017240 0.250000 0.607162
O O6 0.795544 0.023392 0.549136
O O7 0.000000 0.000000 0.500000
O O8 0.545671 0.250000 0.415924
O O9 0.563270 0.032733 0.294353
O O10 0.393471 0.969689 0.363056
O O11 0.484174 0.750000 0.187640
O O12 0.225331 0.934475 0.130344
O O13 0.127538 0.750000 0.221579
#
# Coordination Sequence:
#
# PCOD9167169 Si02
#       5
#     4   4   4   4   4
#     4  11  21  35  58  87 116 149 186 226 274 329
#     4  11  25  43  60  80 107 145 191 236 280 329
#     4   9  19  36  58  82 112 146 183 227 278 329
#     4   8  18  34  55  86 118 147 181 222 273 332
#     4   9  18  33  56  86 120 149 180 223 274 331
#
# _framework density 23.978598999999999
#
# number of rings (size 3 to 8) (size 9 to 14) (size 15 to 20)
#    1.200    1.200    0.000    2.400    0.000    5.600 
#    0.000    1.000    0.000    0.000    0.000    0.000 
#    0.000    0.000    0.000    0.000    0.000    0.000 
#
# Total GULP energy -111693.901844 kJ/mol
# GULP energy per Si atom -5584.695092 kJ/mol
# Density = 2.392402 g / cm^3
# Si number density = 23.978599 Si / 1000 Ang^3
#
#
#
# Elastic Constant Matrix: (Units=GPa)
#
#
# Indices 1 2 3 4 5 6 
#
# 1 76.5442 -0.5526 20.7221 0.0000 -8.4964 0.0000
# 2 -0.5526 29.6753 15.6437 0.0000 -5.4264 0.0000
# 3 20.7221 15.6437 148.3062 0.0000 -5.4334 0.0000
# 4 0.0000 0.0000 0.0000 34.9095 0.0000 -7.2121
# 5 -8.4964 -5.4264 -5.4334 0.0000 41.5309 0.0000
# 6 0.0000 0.0000 0.0000 -7.2121 0.0000 19.8929
#
#
#
# Elastic Compliance Matrix: (Units=1/GPa)
#
#
# Indices 1 2 3 4 5 6 
#
# 1 0.013944 0.001852 -0.002040 0.000000 0.002828 0.000000
# 2 0.001852 0.036669 -0.003956 0.000000 0.004652 0.000000
# 3 -0.002040 -0.003956 0.007447 0.000000 0.000040 0.000000
# 4 0.000000 0.000000 0.000000 0.030965 0.000000 0.011226
# 5 0.002828 0.004652 0.000040 0.000000 0.025270 0.000000
# 6 0.000000 0.000000 0.000000 0.011226 0.000000 0.054339
#
#
# Mechanical properties :
#
#
# Convention : Reuss Voigt Hill
#
# Bulk Modulus (GPa) = 20.09199 36.23913 28.16556
# Shear Modulus (GPa) = 25.83817 33.84749 29.84283
#
# Velocity S-wave (km/s) = 3.28617 3.76116 3.53166
# Velocity P-wave (km/s) = 4.77450 5.83161 5.32933
#
# Compressibility (1/GPa) = 0.04977109
#
# Stress axis : x y z
#
# Youngs Moduli (GPa) = 71.71600 27.27104 134.28870
#
# Poissons Ratio (x) = -0.05051 0.27396
# Poissons Ratio (y) = -0.13283 0.53128
# Poissons Ratio (z) = 0.14631 0.10789
#
# Static dielectric constant tensor:
#      x y z
#    x 2.073900 0.000000 -0.053480 
#    y 0.000000 1.676480 0.000000 
#    z -0.053480 0.000000 1.996530 
# 
# From -- ./inp_files/48848.got.cif
#   From: 2010.05.17/outbox.cif.g08.bks.cpg/sg11_25_cif.got.tgz:48848.got - 2010.06.03 12:22:45.
