data_PCOD9167539
_publ_section_title
;
Structure prediction by ZEFSAII (Michael W. Deem and Ramdas Pophale) SiO2 
 PCOD9167539
Probable space group: P 21/M
;
_chemical_formula_sum "Si O2"
_cell_formula_units_Z 26
_cell_length_a 6.457961
_cell_length_b 22.256201
_cell_length_c 12.195318
_cell_angle_alpha 90.000000
_cell_angle_beta 136.641291
_cell_angle_gamma 90.000000
_cell_volume 1203.428882
_symmetry_space_group_name_H-M "P 21/M"
_symmetry_group_IT_number 11
_symmetry_cell_setting 'monoclinic'
loop_
_space_group_symop_operation_xyz
x,y,z
-x,1/2+y,-z
-x,-y,-z
x,1/2-y,z
loop_
_atom_site_type_symbol
_atom_site_label
_atom_site_fract_x
_atom_site_fract_y
_atom_site_fract_z
Si Si1 0.837753 0.354592 0.518566
Si Si2 0.483354 0.820474 0.244707
Si Si3 0.279185 0.474737 0.176530
Si Si4 0.169682 0.918813 0.710699
Si Si5 0.352396 0.250000 0.355239
Si Si6 0.541862 0.075217 0.585877
Si Si7 0.935275 0.358226 0.117401
O O1 0.810509 0.370162 0.379509
O O2 0.612983 0.301922 0.462216
O O3 0.735595 0.411178 0.552315
O O4 0.181405 0.335243 0.669160
O O5 0.466951 0.750000 0.270643
O O6 0.429987 0.865650 0.325439
O O7 0.251498 0.835476 0.058489
O O8 0.592504 0.470004 0.230270
O O9 0.334922 0.519491 0.298141
O O10 0.175942 0.407961 0.170457
O O11 0.000000 0.500000 0.000000
O O12 0.254555 0.891432 0.860934
O O13 0.813916 0.934159 0.574464
O O14 0.098795 0.302852 0.238082
#
# Coordination Sequence:
#
# PCOD9167539 Si02
#       7
#     4   4   4   4   2   4   4
#     4  11  25  45  70 104 132 181 227 280 341 411
#     4  11  25  42  68 100 139 178 225 282 352 405
#     4  12  26  46  68 103 140 182 232 284 342 404
#     4  11  25  45  70 101 134 181 229 278 346 403
#     4  12  22  48  72  98 144 174 230 282 342 414
#     4  11  25  46  71  97 140 180 232 283 335 412
#     4  12  26  45  69 104 138 182 227 289 343 411
#
# _framework density 21.604935000000001
#
# number of rings (size 3 to 8) (size 9 to 14) (size 15 to 20)
#    0.000    0.615    6.154    0.462    3.231    6.154 
#    0.000    0.000    0.000    0.000    0.000    0.000 
#    0.000    0.000    0.000    0.000    0.000    0.000 
#
# Total GULP energy -144946.322028 kJ/mol
# GULP energy per Si atom -5574.858540 kJ/mol
# Density = 2.155576 g / cm^3
# Si number density = 21.604935 Si / 1000 Ang^3
#
#
#
# Elastic Constant Matrix: (Units=GPa)
#
#
# Indices 1 2 3 4 5 6 
#
# 1 70.2348 25.5390 21.5967 0.0000 -7.9750 0.0000
# 2 25.5390 117.2275 18.9483 0.0000 0.5410 0.0000
# 3 21.5967 18.9483 48.8423 0.0000 11.6140 0.0000
# 4 0.0000 0.0000 0.0000 36.8509 0.0000 14.2908
# 5 -7.9750 0.5410 11.6140 0.0000 20.6874 0.0000
# 6 0.0000 0.0000 0.0000 14.2908 0.0000 20.8764
#
#
#
# Elastic Compliance Matrix: (Units=1/GPa)
#
#
# Indices 1 2 3 4 5 6 
#
# 1 0.020312 -0.002658 -0.011343 0.000000 0.014268 0.000000
# 2 -0.002658 0.009522 -0.002558 0.000000 0.000162 0.000000
# 3 -0.011343 -0.002558 0.031743 0.000000 -0.022127 0.000000
# 4 0.000000 0.000000 0.000000 0.036944 0.000000 -0.025290
# 5 0.014268 0.000162 -0.022127 0.000000 0.066257 0.000000
# 6 0.000000 0.000000 0.000000 -0.025290 0.000000 0.065213
#
#
# Mechanical properties :
#
#
# Convention : Reuss Voigt Hill
#
# Bulk Modulus (GPa) = 35.13588 40.94141 38.03865
# Shear Modulus (GPa) = 18.34226 27.03100 22.68663
#
# Velocity S-wave (km/s) = 2.91689 3.54100 3.24399
# Velocity P-wave (km/s) = 5.25762 5.97573 5.62814
#
# Compressibility (1/GPa) = 0.02846093
#
# Stress axis : x y z
#
# Youngs Moduli (GPa) = 49.23110 105.01950 31.50271
#
# Poissons Ratio (x) = 0.27910 0.35734
# Poissons Ratio (y) = 0.13084 0.08057
# Poissons Ratio (z) = 0.55844 0.26859
#
# Static dielectric constant tensor:
#      x y z
#    x 1.782890 0.000000 -0.013130 
#    y 0.000000 1.811440 0.000000 
#    z -0.013130 0.000000 1.784070 
# 
# From -- ./inp_files/2984.got.cif
#   From: 2010.05.17/outbox.cif.g08.bks.cpg/sg11_2_cif.got.tgz:2984.got - 2010.06.03 12:22:45.
