data_PCOD9167419
_publ_section_title
;
Structure prediction by ZEFSAII (Michael W. Deem and Ramdas Pophale) SiO2 
 PCOD9167419
Probable space group: P 21/M
;
_chemical_formula_sum "Si O2"
_cell_formula_units_Z 24
_cell_length_a 20.014613
_cell_length_b 14.070252
_cell_length_c 10.289299
_cell_angle_alpha 90.000000
_cell_angle_beta 151.283712
_cell_angle_gamma 90.000000
_cell_volume 1392.206627
_symmetry_space_group_name_H-M "P 21/M"
_symmetry_group_IT_number 11
_symmetry_cell_setting 'monoclinic'
loop_
_space_group_symop_operation_xyz
x,y,z
-x,1/2+y,-z
-x,-y,-z
x,1/2-y,z
loop_
_atom_site_type_symbol
_atom_site_label
_atom_site_fract_x
_atom_site_fract_y
_atom_site_fract_z
Si Si1 0.338868 0.048697 0.368364
Si Si2 0.237288 0.250000 0.275649
Si Si3 0.742854 0.750000 0.164360
Si Si4 0.628176 0.551347 0.886777
Si Si5 0.954863 0.042497 0.061377
Si Si6 0.971020 0.750000 0.323519
Si Si7 0.069836 0.250000 0.258076
Si Si8 0.902704 0.454833 0.446027
O O1 0.324460 0.153914 0.403419
O O2 0.345505 0.059650 0.223382
O O3 0.476184 0.992721 0.646068
O O4 0.200707 0.991048 0.171013
O O5 0.163018 0.250000 0.287590
O O6 0.117334 0.250000 0.960210
O O7 0.858888 0.750000 0.248411
O O8 0.827571 0.750000 0.443077
O O9 0.653171 0.654626 0.992274
O O10 0.745936 0.481988 0.144468
O O11 0.977014 0.155304 0.100518
O O12 0.052115 0.000123 0.340474
O O13 0.000000 0.000000 0.000000
O O14 0.063291 0.843889 0.490775
O O15 0.000000 0.500000 0.500000
#
# Coordination Sequence:
#
# PCOD9167419 Si02
#       8
#     4   2   2   4   4   2   2   4
#     4  11  23  40  64  92 131 164 206 262 317 380
#     4  12  20  43  61  89 121 176 201 243 334 377
#     4  12  20  39  61  93 121 172 204 257 324 360
#     4  11  23  39  64  95 129 162 207 265 317 370
#     4  12  22  40  63  94 123 162 215 258 300 374
#     4  12  20  35  67  85 127 166 212 259 302 374
#     4  12  24  35  67  95 123 164 213 259 308 371
#     4  12  20  38  61  93 121 162 216 258 301 366
#
# _framework density 17.238821999999999
#
# number of rings (size 3 to 8) (size 9 to 14) (size 15 to 20)
#    0.000    0.333   10.000    0.000    0.000    1.333 
#    0.000    5.000    0.000    2.000    0.000    0.000 
#    0.000    0.000    0.000    0.000    0.000    0.000 
#
# Total GULP energy -134156.276620 kJ/mol
# GULP energy per Si atom -5589.844859 kJ/mol
# Density = 1.719959 g / cm^3
# Si number density = 17.238822 Si / 1000 Ang^3
#
#
#
# Elastic Constant Matrix: (Units=GPa)
#
#
# Indices 1 2 3 4 5 6 
#
# 1 87.1781 38.8502 46.8573 0.0000 -7.5560 0.0000
# 2 38.8502 189.7725 55.2144 0.0000 10.2680 0.0000
# 3 46.8573 55.2144 112.2134 0.0000 5.9476 0.0000
# 4 0.0000 0.0000 0.0000 28.1990 0.0000 -0.8444
# 5 -7.5560 10.2680 5.9476 0.0000 35.4255 0.0000
# 6 0.0000 0.0000 0.0000 -0.8444 0.0000 15.0666
#
#
#
# Elastic Compliance Matrix: (Units=1/GPa)
#
#
# Indices 1 2 3 4 5 6 
#
# 1 0.015935 -0.001770 -0.006044 0.000000 0.004927 0.000000
# 2 -0.001770 0.006405 -0.002315 0.000000 -0.001846 0.000000
# 3 -0.006044 -0.002315 0.012720 0.000000 -0.002754 0.000000
# 4 0.000000 0.000000 0.000000 0.035522 0.000000 0.001991
# 5 0.004927 -0.001846 -0.002754 0.000000 0.030276 0.000000
# 6 0.000000 0.000000 0.000000 0.001991 0.000000 0.066484
#
#
# Mechanical properties :
#
#
# Convention : Reuss Voigt Hill
#
# Bulk Modulus (GPa) = 67.55551 74.55643 71.05597
# Shear Modulus (GPa) = 25.96926 32.28769 29.12847
#
# Velocity S-wave (km/s) = 3.88550 4.33247 4.11506
# Velocity P-wave (km/s) = 7.70731 8.26862 7.99289
#
# Compressibility (1/GPa) = 0.01480264
#
# Stress axis : x y z
#
# Youngs Moduli (GPa) = 62.75326 156.12379 78.61405
#
# Poissons Ratio (x) = 0.27638 0.47516
# Poissons Ratio (y) = 0.11109 0.18196
# Poissons Ratio (z) = 0.37930 0.36137
#
# Static dielectric constant tensor:
#      x y z
#    x 1.568150 0.000000 -0.013530 
#    y 0.000000 1.587650 0.000000 
#    z -0.013530 0.000000 1.560170 
# 
# From -- ./inp_files/25015.got.cif
#   From: 2010.05.17/outbox.cif.g08.bks.cpg/sg11_13_cif.got.tgz:25015.got - 2010.06.03 12:22:45.
