data_PCOD9167060
_publ_section_title
;
Structure prediction by ZEFSAII (Michael W. Deem and Ramdas Pophale) SiO2 
 PCOD9167060
Probable space group: P 21/M
;
_chemical_formula_sum "Si O2"
_cell_formula_units_Z 24
_cell_length_a 6.814320
_cell_length_b 9.299555
_cell_length_c 16.508415
_cell_angle_alpha 90.000000
_cell_angle_beta 113.362735
_cell_angle_gamma 90.000000
_cell_volume 960.370421
_symmetry_space_group_name_H-M "P 21/M"
_symmetry_group_IT_number 11
_symmetry_cell_setting 'monoclinic'
loop_
_space_group_symop_operation_xyz
x,y,z
-x,1/2+y,-z
-x,-y,-z
x,1/2-y,z
loop_
_atom_site_type_symbol
_atom_site_label
_atom_site_fract_x
_atom_site_fract_y
_atom_site_fract_z
Si Si1 0.088515 0.913187 0.894947
Si Si2 0.830985 0.417905 0.449327
Si Si3 0.542235 0.417546 0.251763
Si Si4 0.324101 0.078661 0.453961
Si Si5 0.832821 0.081192 0.728450
Si Si6 0.334503 0.411090 0.057510
O O1 0.116390 0.750000 0.871151
O O2 0.877087 0.911883 0.918706
O O3 0.026376 0.020501 0.813025
O O4 0.280664 0.970121 0.982048
O O5 0.831168 0.250000 0.474447
O O6 0.747841 0.434060 0.342558
O O7 0.893644 0.566683 0.516201
O O8 0.585836 0.458071 0.460534
O O9 0.468744 0.250000 0.255106
O O10 0.378650 0.537968 0.256012
O O11 0.529260 0.431701 0.152491
O O12 0.345419 0.250000 0.457258
O O13 0.201018 0.004923 0.359088
O O14 0.847597 0.250000 0.716412
O O15 0.345668 0.250000 0.024108
#
# Coordination Sequence:
#
# PCOD9167060 Si02
#       6
#     4   4   4   4   4   4
#     4   9  16  26  40  64  99 134 166 209 260 310
#     4  11  23  39  57  79 109 144 182 225 269 317
#     4   9  18  32  50  71 101 138 176 218 263 312
#     4  12  23  37  56  80 107 140 180 223 270 322
#     4  11  20  30  49  75 103 137 175 216 263 315
#     4   8  14  25  41  64  94 131 170 209 256 309
#
# _framework density 24.990355000000001
#
# number of rings (size 3 to 8) (size 9 to 14) (size 15 to 20)
#    0.000    2.000    1.667    5.000    0.000    4.667 
#    0.000    0.000    0.000    0.000    0.000    1.167 
#    0.000    0.000    0.000    0.000    0.000    0.000 
#
# Total GULP energy -134111.414221 kJ/mol
# GULP energy per Si atom -5587.975593 kJ/mol
# Density = 2.493348 g / cm^3
# Si number density = 24.990355 Si / 1000 Ang^3
#
#
#
# Elastic Constant Matrix: (Units=GPa)
#
#
# Indices 1 2 3 4 5 6 
#
# 1 143.2470 64.8105 33.8086 0.0000 27.1895 0.0000
# 2 64.8105 155.6333 97.9845 0.0000 10.5106 0.0000
# 3 33.8086 97.9845 172.1694 0.0000 19.2077 0.0000
# 4 0.0000 0.0000 0.0000 44.4988 0.0000 2.9157
# 5 27.1895 10.5106 19.2077 0.0000 44.5580 0.0000
# 6 0.0000 0.0000 0.0000 2.9157 0.0000 50.4077
#
#
#
# Elastic Compliance Matrix: (Units=1/GPa)
#
#
# Indices 1 2 3 4 5 6 
#
# 1 0.009740 -0.004467 0.001235 0.000000 -0.005422 0.000000
# 2 -0.004467 0.012062 -0.006276 0.000000 0.002586 0.000000
# 3 0.001235 -0.006276 0.009514 0.000000 -0.003374 0.000000
# 4 0.000000 0.000000 0.000000 0.022558 0.000000 -0.001305
# 5 -0.005422 0.002586 -0.003374 0.000000 0.026596 0.000000
# 6 0.000000 0.000000 0.000000 -0.001305 0.000000 0.019914
#
#
# Mechanical properties :
#
#
# Convention : Reuss Voigt Hill
#
# Bulk Modulus (GPa) = 81.30854 96.02855 88.66855
# Shear Modulus (GPa) = 40.48572 46.18929 43.33751
#
# Velocity S-wave (km/s) = 4.02936 4.30383 4.16885
# Velocity P-wave (km/s) = 7.36575 7.95028 7.66359
#
# Compressibility (1/GPa) = 0.01229883
#
# Stress axis : x y z
#
# Youngs Moduli (GPa) = 102.67242 82.90272 105.10693
#
# Poissons Ratio (x) = 0.37033 -0.12976
# Poissons Ratio (y) = 0.45864 0.65967
# Poissons Ratio (z) = -0.12675 0.52031
#
# Static dielectric constant tensor:
#      x y z
#    x 2.327860 0.000000 -0.029840 
#    y 0.000000 1.847740 0.000000 
#    z -0.029840 0.000000 1.911220 
# 
# From -- ./inp_files/43613.got.cif
#   From: 2010.05.17/outbox.cif.g08.bks.cpg/sg11_22_cif.got.tgz:43613.got - 2010.06.03 12:22:45.
