data_PCOD9167047
_publ_section_title
;
Structure prediction by ZEFSAII (Michael W. Deem and Ramdas Pophale) SiO2 
 PCOD9167047
Probable space group: P 21/M
;
_chemical_formula_sum "Si O2"
_cell_formula_units_Z 32
_cell_length_a 18.026332
_cell_length_b 14.635370
_cell_length_c 11.813013
_cell_angle_alpha 90.000000
_cell_angle_beta 149.678239
_cell_angle_gamma 90.000000
_cell_volume 1573.398931
_symmetry_space_group_name_H-M "P 21/M"
_symmetry_group_IT_number 11
_symmetry_cell_setting 'monoclinic'
loop_
_space_group_symop_operation_xyz
x,y,z
-x,1/2+y,-z
-x,-y,-z
x,1/2-y,z
loop_
_atom_site_type_symbol
_atom_site_label
_atom_site_fract_x
_atom_site_fract_y
_atom_site_fract_z
Si Si1 0.221967 0.470629 0.003271
Si Si2 0.559164 0.971391 0.886592
Si Si3 0.801163 0.590337 0.385308
Si Si4 0.885405 0.350296 0.273140
Si Si5 0.638278 0.855379 0.391017
Si Si6 0.174364 0.009045 0.206152
Si Si7 0.080102 0.894647 0.424718
Si Si8 0.709846 0.148602 0.491453
O O1 0.182157 0.565913 0.886410
O O2 0.095962 0.397180 0.805839
O O3 0.378399 0.446071 0.155235
O O4 0.210958 0.481265 0.122528
O O5 0.423054 0.907231 0.740317
O O6 0.500178 0.075496 0.805383
O O7 0.688367 0.947356 0.143532
O O8 0.718143 0.643054 0.374469
O O9 0.873527 0.499744 0.533777
O O10 0.938740 0.643251 0.514378
O O11 0.832383 0.250000 0.168602
O O12 0.863017 0.364023 0.377882
O O13 0.605868 0.750000 0.379482
O O14 0.748345 0.907661 0.623273
O O15 0.242182 0.915256 0.342558
O O16 0.000000 0.000000 0.000000
O O17 0.156769 0.845908 0.421752
O O18 0.664779 0.250000 0.464965
#
# Coordination Sequence:
#
# PCOD9167047 Si02
#       8
#     4   4   4   4   4   4   4   4
#     4  11  22  41  69  88 123 175 208 257 320 378
#     4  11  23  43  63  92 133 169 206 253 329 381
#     4  11  19  40  64  89 127 174 202 256 324 377
#     4  11  22  35  62 101 130 158 213 270 315 375
#     4  11  25  41  63  95 129 165 218 267 311 379
#     4  11  22  44  69  89 122 169 214 261 320 366
#     4  11  19  42  65  91 127 163 208 263 318 370
#     4  11  25  41  63  95 129 165 212 262 312 380
#
# _framework density 20.338135000000001
#
# number of rings (size 3 to 8) (size 9 to 14) (size 15 to 20)
#    0.000    1.000    6.250    2.625    0.000    4.500 
#    0.000    1.875    0.000    0.000    0.000    0.000 
#    0.000    0.000    0.000    0.000    0.000    0.000 
#
# Total GULP energy -178657.434654 kJ/mol
# GULP energy per Si atom -5583.044833 kJ/mol
# Density = 2.029184 g / cm^3
# Si number density = 20.338135 Si / 1000 Ang^3
#
#
#
# Elastic Constant Matrix: (Units=GPa)
#
#
# Indices 1 2 3 4 5 6 
#
# 1 109.3937 8.3503 10.9376 0.0000 -11.0808 0.0000
# 2 8.3503 122.3277 17.1286 0.0000 -2.6670 0.0000
# 3 10.9376 17.1286 45.4169 0.0000 -4.8904 0.0000
# 4 0.0000 0.0000 0.0000 4.4237 0.0000 2.0636
# 5 -11.0808 -2.6670 -4.8904 0.0000 40.9248 0.0000
# 6 0.0000 0.0000 0.0000 2.0636 0.0000 9.0927
#
#
#
# Elastic Compliance Matrix: (Units=1/GPa)
#
#
# Indices 1 2 3 4 5 6 
#
# 1 0.009598 -0.000333 -0.001933 0.000000 0.002346 0.000000
# 2 -0.000333 0.008643 -0.003169 0.000000 0.000094 0.000000
# 3 -0.001933 -0.003169 0.023908 0.000000 0.002127 0.000000
# 4 0.000000 0.000000 0.000000 0.252820 0.000000 -0.057376
# 5 0.002346 0.000094 0.002127 0.000000 0.025331 0.000000
# 6 0.000000 0.000000 0.000000 -0.057376 0.000000 0.123000
#
#
# Mechanical properties :
#
#
# Convention : Reuss Voigt Hill
#
# Bulk Modulus (GPa) = 31.97174 38.88569 35.42871
# Shear Modulus (GPa) = 10.76203 26.93637 18.84920
#
# Velocity S-wave (km/s) = 2.30283 3.64322 3.04763
# Velocity P-wave (km/s) = 4.77755 6.07112 5.46276
#
# Compressibility (1/GPa) = 0.03127763
#
# Stress axis : x y z
#
# Youngs Moduli (GPa) = 104.19232 115.69589 41.82686
#
# Poissons Ratio (x) = 0.03857 0.08085
# Poissons Ratio (y) = 0.03473 0.13256
# Poissons Ratio (z) = 0.20141 0.36668
#
# Static dielectric constant tensor:
#      x y z
#    x 1.721410 0.000000 0.026750 
#    y 0.000000 1.761410 0.000000 
#    z 0.026750 0.000000 1.762690 
# 
# From -- ./inp_files/41693.got.cif
#   From: 2010.05.17/outbox.cif.g08.bks.cpg/sg11_21_cif.got.tgz:41693.got - 2010.06.03 12:22:45.
