data_PCOD9167036
_publ_section_title
;
Structure prediction by ZEFSAII (Michael W. Deem and Ramdas Pophale) SiO2 
 PCOD9167036
Probable space group: P 21/M
;
_chemical_formula_sum "Si O2"
_cell_formula_units_Z 28
_cell_length_a 14.710326
_cell_length_b 18.753496
_cell_length_c 6.591208
_cell_angle_alpha 90.000000
_cell_angle_beta 55.891832
_cell_angle_gamma 90.000000
_cell_volume 1505.530687
_symmetry_space_group_name_H-M "P 21/M"
_symmetry_group_IT_number 11
_symmetry_cell_setting 'monoclinic'
loop_
_space_group_symop_operation_xyz
x,y,z
-x,1/2+y,-z
-x,-y,-z
x,1/2-y,z
loop_
_atom_site_type_symbol
_atom_site_label
_atom_site_fract_x
_atom_site_fract_y
_atom_site_fract_z
Si Si1 0.408567 0.166263 0.946799
Si Si2 0.144238 0.069729 0.801092
Si Si3 0.009930 0.925849 0.368459
Si Si4 0.239288 0.545465 0.996808
Si Si5 0.849797 0.831574 0.841877
Si Si6 0.340162 0.036955 0.256947
Si Si7 0.564009 0.064821 0.527653
O O1 0.433335 0.250000 0.957732
O O2 0.486266 0.131453 0.677229
O O3 0.279737 0.162128 0.047978
O O4 0.415263 0.105876 0.114671
O O5 0.036295 0.063384 0.800148
O O6 0.241735 0.067448 0.516107
O O7 0.136338 0.139236 0.948802
O O8 0.178402 0.009194 0.919685
O O9 0.928793 0.873612 0.589931
O O10 0.139053 0.906933 0.205150
O O11 0.000000 0.000000 0.500000
O O12 0.294217 0.499132 0.108232
O O13 0.333873 0.582641 0.746670
O O14 0.880173 0.750000 0.791137
O O15 0.393681 0.973606 0.320185
O O16 0.500000 0.000000 0.500000
#
# Coordination Sequence:
#
# PCOD9167036 Si02
#       7
#     4   4   4   4   4   4   4
#     4  11  21  40  60  87 123 157 197 252 303 359
#     4  11  19  35  61  91 121 149 197 241 305 348
#     4  12  21  37  63  90 122 152 202 246 294 351
#     4  11  22  36  60  95 115 152 201 249 295 350
#     4  11  24  39  58  89 127 157 195 245 306 365
#     4  11  20  38  62  91 122 153 199 253 301 353
#     4  11  23  38  63  88 121 159 208 246 304 355
#
# _framework density 18.598094
#
# number of rings (size 3 to 8) (size 9 to 14) (size 15 to 20)
#    0.000    0.857    7.143    1.714    0.000    1.143 
#    0.000    1.429    0.000    2.571    0.000    0.000 
#    0.000    0.000    0.000    0.000    0.000    0.000 
#
# Total GULP energy -156158.257713 kJ/mol
# GULP energy per Si atom -5577.080633 kJ/mol
# Density = 1.855576 g / cm^3
# Si number density = 18.598094 Si / 1000 Ang^3
#
#
#
# Elastic Constant Matrix: (Units=GPa)
#
#
# Indices 1 2 3 4 5 6 
#
# 1 61.7261 35.2116 46.6084 0.0000 -6.1302 0.0000
# 2 35.2116 92.3121 59.3590 0.0000 -13.1691 0.0000
# 3 46.6084 59.3590 129.5315 0.0000 -19.0329 0.0000
# 4 0.0000 0.0000 0.0000 28.8517 0.0000 -7.5582
# 5 -6.1302 -13.1691 -19.0329 0.0000 44.5648 0.0000
# 6 0.0000 0.0000 0.0000 -7.5582 0.0000 17.7475
#
#
#
# Elastic Compliance Matrix: (Units=1/GPa)
#
#
# Indices 1 2 3 4 5 6 
#
# 1 0.023843 -0.005138 -0.006365 0.000000 -0.000957 0.000000
# 2 -0.005138 0.016578 -0.005476 0.000000 0.001853 0.000000
# 3 -0.006365 -0.005476 0.012967 0.000000 0.003044 0.000000
# 4 0.000000 0.000000 0.000000 0.039012 0.000000 0.016614
# 5 -0.000957 0.001853 0.003044 0.000000 0.024155 0.000000
# 6 0.000000 0.000000 0.000000 0.016614 0.000000 0.063422
#
#
# Mechanical properties :
#
#
# Convention : Reuss Voigt Hill
#
# Bulk Modulus (GPa) = 51.46773 62.88086 57.17429
# Shear Modulus (GPa) = 22.68463 27.72550 25.20506
#
# Velocity S-wave (km/s) = 3.49625 3.86524 3.68537
# Velocity P-wave (km/s) = 6.63567 7.33511 6.99414
#
# Compressibility (1/GPa) = 0.01942965
#
# Stress axis : x y z
#
# Youngs Moduli (GPa) = 41.94111 60.31963 77.11739
#
# Poissons Ratio (x) = 0.30993 0.49087
# Poissons Ratio (y) = 0.21550 0.42229
# Poissons Ratio (z) = 0.26697 0.33031
#
# Static dielectric constant tensor:
#      x y z
#    x 1.695370 0.000000 -0.014810 
#    y 0.000000 1.638290 0.000000 
#    z -0.014810 0.000000 1.695540 
# 
# From -- ./inp_files/6771.got.cif
#   From: 2010.05.17/outbox.cif.g08.bks.cpg/sg11_4_cif.got.tgz:6771.got - 2010.06.03 12:22:45.
