data_PCOD9167873
_publ_section_title
;
Structure prediction by ZEFSAII (Michael W. Deem and Ramdas Pophale) SiO2 
 PCOD9167873
Probable space group: P 21/M
;
_chemical_formula_sum "Si O2"
_cell_formula_units_Z 28
_cell_length_a 15.000000
_cell_length_b 9.000000
_cell_length_c 18.000000
_cell_angle_alpha 90.000000
_cell_angle_beta 40.000000
_cell_angle_gamma 90.000000
_cell_volume 1561.973892
_symmetry_space_group_name_H-M "P 21/M"
_symmetry_group_IT_number 11
_symmetry_cell_setting 'monoclinic'
loop_
_space_group_symop_operation_xyz
x,y,z
-x,1/2+y,-z
-x,-y,-z
x,1/2-y,z
loop_
_atom_site_type_symbol
_atom_site_label
_atom_site_fract_x
_atom_site_fract_y
_atom_site_fract_z
Si Si1 0.543260 0.928563 0.699169
Si Si2 0.471898 0.429036 0.597874
Si Si3 0.010780 0.928073 0.371979
Si Si4 0.171395 0.930266 0.815126
Si Si5 0.788256 0.074030 0.623731
Si Si6 0.020794 0.930032 0.190257
Si Si7 0.766267 0.428600 0.063308
O O1 0.546378 0.750000 0.687287
O O2 0.390886 0.977522 0.824009
O O3 0.567291 0.006896 0.603770
O O4 0.652543 0.981867 0.690004
O O5 0.500000 0.500000 0.500000
O O6 0.476513 0.250000 0.593152
O O7 0.321032 0.494530 0.711619
O O8 0.980088 0.750000 0.395218
O O9 0.149504 0.951084 0.333295
O O10 0.014228 0.969251 0.282102
O O11 0.898086 0.018617 0.491414
O O12 0.175526 0.750000 0.806696
O O13 0.143708 0.967416 0.920538
O O14 0.085358 0.995208 0.800585
O O15 0.764961 0.250000 0.630277
O O16 0.003581 0.750000 0.197312
O O17 0.165535 0.973202 0.057891
O O18 0.762304 0.250000 0.065256
#
# Coordination Sequence:
#
# PCOD9167873 Si02
#       7
#     4   4   4   4   4   4   4
#     4  10  20  36  57  79 106 141 178 217 268 324
#     4  11  22  36  53  77 108 142 179 220 262 314
#     4   9  20  36  55  79 106 137 178 227 273 323
#     4  10  20  34  51  77 111 145 179 216 264 318
#     4  10  20  36  56  78 106 140 178 222 275 328
#     4  10  19  34  56  79 105 140 184 227 270 315
#     4   8  17  34  54  77 106 142 180 220 264 318
#
# _framework density 17.926036
#
# number of rings (size 3 to 8) (size 9 to 14) (size 15 to 20)
#    0.000    2.286    0.000    3.857    2.000    1.143 
#    0.000    4.286    0.000    0.000    0.000    0.000 
#    0.000    0.000    0.000    0.000    0.000    0.000 
#
# Total GULP energy -155894.095083 kJ/mol
# GULP energy per Si atom -5567.646253 kJ/mol
# Density = 1.788524 g / cm^3
# Si number density = 17.926036 Si / 1000 Ang^3
#
#
#
# Elastic Constant Matrix: (Units=GPa)
#
#
# Indices 1 2 3 4 5 6 
#
# 1 120.1513 37.3528 40.8193 0.0000 14.7286 0.0000
# 2 37.3528 43.8230 17.2207 0.0000 6.0130 0.0000
# 3 40.8193 17.2207 59.2961 0.0000 18.5846 0.0000
# 4 0.0000 0.0000 0.0000 14.1474 0.0000 0.8894
# 5 14.7286 6.0130 18.5846 0.0000 36.7627 0.0000
# 6 0.0000 0.0000 0.0000 0.8894 0.0000 35.7233
#
#
#
# Elastic Compliance Matrix: (Units=1/GPa)
#
#
# Indices 1 2 3 4 5 6 
#
# 1 0.013293 -0.008720 -0.006412 0.000000 -0.000658 0.000000
# 2 -0.008720 0.031487 -0.003116 0.000000 -0.000081 0.000000
# 3 -0.006412 -0.003116 0.025214 0.000000 -0.009668 0.000000
# 4 0.000000 0.000000 0.000000 0.070795 0.000000 -0.001763
# 5 -0.000658 -0.000081 -0.009668 0.000000 0.032366 0.000000
# 6 0.000000 0.000000 0.000000 -0.001763 0.000000 0.028037
#
#
# Mechanical properties :
#
#
# Convention : Reuss Voigt Hill
#
# Bulk Modulus (GPa) = 29.85334 46.00620 37.92977
# Shear Modulus (GPa) = 20.09212 25.85187 22.97199
#
# Velocity S-wave (km/s) = 3.35152 3.80167 3.58367
# Velocity P-wave (km/s) = 5.62732 6.70749 6.19101
#
# Compressibility (1/GPa) = 0.03349709
#
# Stress axis : x y z
#
# Youngs Moduli (GPa) = 75.22846 31.75864 39.66122
#
# Poissons Ratio (x) = 0.27694 0.25431
# Poissons Ratio (y) = 0.65601 0.12359
# Poissons Ratio (z) = 0.48237 0.09896
#
# Static dielectric constant tensor:
#      x y z
#    x 1.607110 0.000000 0.026950 
#    y 0.000000 1.594430 0.000000 
#    z 0.026950 0.000000 1.550640 
# 
# From -- ./inp_files/37196.got.cif
#   From: 2010.05.17/outbox.ucp.g08.bks.cvg/sg11_19_cif.got.tgz:37196.got - 2010.06.11 11:38:39.
