data_PCOD9167452
_publ_section_title
;
Structure prediction by ZEFSAII (Michael W. Deem and Ramdas Pophale) SiO2 
 PCOD9167452
Probable space group: P 21/M
;
_chemical_formula_sum "Si O2"
_cell_formula_units_Z 28
_cell_length_a 8.926034
_cell_length_b 23.141901
_cell_length_c 8.987844
_cell_angle_alpha 90.000000
_cell_angle_beta 35.429686
_cell_angle_gamma 90.000000
_cell_volume 1076.264367
_symmetry_space_group_name_H-M "P 21/M"
_symmetry_group_IT_number 11
_symmetry_cell_setting 'monoclinic'
loop_
_space_group_symop_operation_xyz
x,y,z
-x,1/2+y,-z
-x,-y,-z
x,1/2-y,z
loop_
_atom_site_type_symbol
_atom_site_label
_atom_site_fract_x
_atom_site_fract_y
_atom_site_fract_z
Si Si1 0.927901 0.361369 0.415918
Si Si2 0.316789 0.419424 0.308684
Si Si3 0.031780 0.907387 0.915624
Si Si4 0.387158 0.000457 0.759088
Si Si5 0.833728 0.659983 0.325473
Si Si6 0.876222 0.750000 0.892098
Si Si7 0.338576 0.814781 0.094070
Si Si8 0.522312 0.250000 0.509063
O O1 0.079703 0.409416 0.389278
O O2 0.120167 0.309607 0.207589
O O3 0.716982 0.331664 0.690371
O O4 0.821820 0.391171 0.353330
O O5 0.433503 0.482102 0.247493
O O6 0.232501 0.399895 0.542071
O O7 0.514006 0.368691 0.098781
O O8 0.954290 0.851015 0.067720
O O9 0.772799 0.941825 0.081230
O O10 0.184030 0.947946 0.905572
O O11 0.500000 0.000000 0.500000
O O12 0.576970 0.696273 0.508526
O O13 0.052061 0.687193 0.252378
O O14 0.175214 0.750000 0.708048
O O15 0.653691 0.750000 0.197842
O O16 0.448046 0.750000 0.988450
#
# Coordination Sequence:
#
# PCOD9167452 Si02
#       8
#     4   4   4   4   4   2   4   2
#     4  11  27  44  66 105 147 190 235 293 373 443
#     4  11  26  43  70 100 142 189 243 297 373 440
#     4  11  24  45  71 102 142 183 248 310 369 435
#     4  11  24  45  75 101 134 185 247 316 371 429
#     4  11  23  41  68 106 137 189 240 304 363 437
#     4  12  28  45  68 111 152 198 238 307 369 447
#     4  11  24  42  66  98 148 190 233 290 363 447
#     4  12  28  41  74 111 152 190 254 301 373 441
#
# _framework density 26.015913000000001
#
# number of rings (size 3 to 8) (size 9 to 14) (size 15 to 20)
#    0.000    0.857    5.714    0.000    8.000    1.714 
#    0.000    1.429    0.000    0.000    0.000    0.000 
#    0.000    0.000    0.000    0.000    0.000    0.000 
#
# Total GULP energy -156812.457676 kJ/mol
# GULP energy per Si atom -5600.444917 kJ/mol
# Density = 2.595670 g / cm^3
# Si number density = 26.015913 Si / 1000 Ang^3
#
#
#
# Elastic Constant Matrix: (Units=GPa)
#
#
# Indices 1 2 3 4 5 6 
#
# 1 93.4719 12.6529 23.8547 0.0000 2.3155 0.0000
# 2 12.6529 37.6029 20.6182 0.0000 7.4203 0.0000
# 3 23.8547 20.6182 101.2320 0.0000 15.2540 0.0000
# 4 0.0000 0.0000 0.0000 30.7179 0.0000 0.8283
# 5 2.3155 7.4203 15.2540 0.0000 44.2162 0.0000
# 6 0.0000 0.0000 0.0000 0.8283 0.0000 45.1760
#
#
#
# Elastic Compliance Matrix: (Units=1/GPa)
#
#
# Indices 1 2 3 4 5 6 
#
# 1 0.011641 -0.002799 -0.002270 0.000000 0.000643 0.000000
# 2 -0.002799 0.031013 -0.005163 0.000000 -0.003277 0.000000
# 3 -0.002270 -0.005163 0.011937 0.000000 -0.003133 0.000000
# 4 0.000000 0.000000 0.000000 0.032570 0.000000 -0.000597
# 5 0.000643 -0.003277 -0.003133 0.000000 0.024213 0.000000
# 6 0.000000 0.000000 0.000000 -0.000597 0.000000 0.022147
#
#
# Mechanical properties :
#
#
# Convention : Reuss Voigt Hill
#
# Bulk Modulus (GPa) = 29.30303 38.50650 33.90477
# Shear Modulus (GPa) = 30.23690 35.70076 32.96883
#
# Velocity S-wave (km/s) = 3.41287 3.70843 3.56372
# Velocity P-wave (km/s) = 5.17863 5.75933 5.47668
#
# Compressibility (1/GPa) = 0.03412616
#
# Stress axis : x y z
#
# Youngs Moduli (GPa) = 85.90567 32.24423 83.77439
#
# Poissons Ratio (x) = 0.09026 0.19015
# Poissons Ratio (y) = 0.24048 0.43254
# Poissons Ratio (z) = 0.19499 0.16648
#
# Static dielectric constant tensor:
#      x y z
#    x 2.063050 0.000000 -0.052800 
#    y 0.000000 2.062410 0.000000 
#    z -0.052800 0.000000 2.031700 
# 
# From -- ./inp_files/15279.got.cif
#   From: 2010.05.17/outbox.cif.g08.bks.cpg/sg11_8_cif.got.tgz:15279.got - 2010.06.03 12:22:45.
