data_PCOD9167203
_publ_section_title
;
Structure prediction by ZEFSAII (Michael W. Deem and Ramdas Pophale) SiO2 
 PCOD9167203
Probable space group: P 21/M
;
_chemical_formula_sum "Si O2"
_cell_formula_units_Z 30
_cell_length_a 11.856180
_cell_length_b 16.765946
_cell_length_c 14.943980
_cell_angle_alpha 90.000000
_cell_angle_beta 150.701551
_cell_angle_gamma 90.000000
_cell_volume 1453.672474
_symmetry_space_group_name_H-M "P 21/M"
_symmetry_group_IT_number 11
_symmetry_cell_setting 'monoclinic'
loop_
_space_group_symop_operation_xyz
x,y,z
-x,1/2+y,-z
-x,-y,-z
x,1/2-y,z
loop_
_atom_site_type_symbol
_atom_site_label
_atom_site_fract_x
_atom_site_fract_y
_atom_site_fract_z
Si Si1 0.593030 0.908827 0.058589
Si Si2 0.972946 0.595084 0.466507
Si Si3 0.843626 0.904565 0.042385
Si Si4 0.377486 0.166209 0.366924
Si Si5 0.915943 0.750000 0.975768
Si Si6 0.623252 0.086610 0.384931
Si Si7 0.165231 0.035030 0.332435
Si Si8 0.103135 0.660220 0.742009
O O1 0.748260 0.892109 0.252046
O O2 0.749391 0.897614 0.079012
O O3 0.370009 0.853477 0.903687
O O4 0.500000 0.000000 0.000000
O O5 0.000000 0.500000 0.500000
O O6 0.196741 0.618186 0.563165
O O7 0.970328 0.639820 0.558457
O O8 0.927454 0.821437 0.058956
O O9 0.617999 0.931708 0.830312
O O10 0.043167 0.970553 0.184646
O O11 0.424198 0.250000 0.448345
O O12 0.149910 0.182322 0.148890
O O13 0.569631 0.150938 0.424647
O O14 0.348069 0.089815 0.407637
O O15 0.727647 0.011303 0.509128
O O16 0.975439 0.096268 0.239171
O O17 0.058078 0.750000 0.740484
#
# Coordination Sequence:
#
# PCOD9167203 Si02
#       8
#     4   4   4   4   2   4   4   4
#     4  12  21  39  65  98 131 177 215 266 323 403
#     4  12  21  40  66  97 131 172 219 267 326 395
#     4  11  21  39  67  96 131 166 219 272 325 390
#     4   9  22  44  64  90 135 166 210 278 331 377
#     4   8  22  40  60  92 128 164 206 280 326 360
#     4  11  21  38  69  97 123 167 222 264 325 388
#     4  12  23  42  69  95 126 180 222 260 331 407
#     4  12  27  40  64  99 137 179 217 271 337 386
#
# _framework density 20.637385999999999
#
# number of rings (size 3 to 8) (size 9 to 14) (size 15 to 20)
#    0.400    0.533    6.667    0.800    0.933    3.200 
#    1.200    0.000    0.000    1.600    0.000    0.000 
#    0.000    0.000    0.000    0.000    0.000    0.000 
#
# Total GULP energy -167021.833969 kJ/mol
# GULP energy per Si atom -5567.394466 kJ/mol
# Density = 2.059041 g / cm^3
# Si number density = 20.637386 Si / 1000 Ang^3
#
#
#
# Elastic Constant Matrix: (Units=GPa)
#
#
# Indices 1 2 3 4 5 6 
#
# 1 37.0826 5.0575 -16.0125 0.0000 -0.0318 0.0000
# 2 5.0575 114.8654 23.8424 0.0000 -8.0027 0.0000
# 3 -16.0125 23.8424 83.2377 0.0000 -11.6494 0.0000
# 4 0.0000 0.0000 0.0000 14.9945 0.0000 -2.3174
# 5 -0.0318 -8.0027 -11.6494 0.0000 23.4574 0.0000
# 6 0.0000 0.0000 0.0000 -2.3174 0.0000 12.0806
#
#
#
# Elastic Compliance Matrix: (Units=1/GPa)
#
#
# Indices 1 2 3 4 5 6 
#
# 1 0.030320 -0.002594 0.006940 0.000000 0.002603 0.000000
# 2 -0.002594 0.009564 -0.002990 0.000000 0.001774 0.000000
# 3 0.006940 -0.002990 0.015114 0.000000 0.006495 0.000000
# 4 0.000000 0.000000 0.000000 0.068729 0.000000 0.013184
# 5 0.002603 0.001774 0.006495 0.000000 0.046465 0.000000
# 6 0.000000 0.000000 0.000000 0.013184 0.000000 0.085307
#
#
# Mechanical properties :
#
#
# Convention : Reuss Voigt Hill
#
# Bulk Modulus (GPa) = 17.32827 28.99563 23.16195
# Shear Modulus (GPa) = 18.38071 24.92636 21.65353
#
# Velocity S-wave (km/s) = 2.98762 3.47915 3.24271
# Velocity P-wave (km/s) = 4.50732 5.49726 5.02672
#
# Compressibility (1/GPa) = 0.05770916
#
# Stress axis : x y z
#
# Youngs Moduli (GPa) = 32.98201 104.55458 66.16211
#
# Poissons Ratio (x) = 0.27123 -0.45916
# Poissons Ratio (y) = 0.08556 0.19784
# Poissons Ratio (z) = -0.22889 0.31265
#
# Static dielectric constant tensor:
#      x y z
#    x 1.760320 0.000000 0.016550 
#    y 0.000000 1.738060 0.000000 
#    z 0.016550 0.000000 1.752160 
# 
# From -- ./inp_files/50623.got.cif
#   From: 2010.05.17/outbox.cif.g08.bks.cpg/sg11_26_cif.got.tgz:50623.got - 2010.06.03 12:22:45.
