data_PCOD9167615
_publ_section_title
;
Structure prediction by ZEFSAII (Michael W. Deem and Ramdas Pophale) SiO2 
 PCOD9167615
Probable space group: P 21/M
;
_chemical_formula_sum "Si O2"
_cell_formula_units_Z 32
_cell_length_a 10.861122
_cell_length_b 21.885276
_cell_length_c 7.081002
_cell_angle_alpha 90.000000
_cell_angle_beta 119.371319
_cell_angle_gamma 90.000000
_cell_volume 1466.792277
_symmetry_space_group_name_H-M "P 21/M"
_symmetry_group_IT_number 11
_symmetry_cell_setting 'monoclinic'
loop_
_space_group_symop_operation_xyz
x,y,z
-x,1/2+y,-z
-x,-y,-z
x,1/2-y,z
loop_
_atom_site_type_symbol
_atom_site_label
_atom_site_fract_x
_atom_site_fract_y
_atom_site_fract_z
Si Si1 0.073244 0.180054 0.537416
Si Si2 0.459812 0.322319 0.166072
Si Si3 0.369278 0.177265 0.656943
Si Si4 0.099604 0.914905 0.077547
Si Si5 0.174304 0.129489 0.984666
Si Si6 0.759444 0.321278 0.288581
Si Si7 0.328959 0.820660 0.219981
Si Si8 0.057685 0.009959 0.750660
O O1 0.057295 0.250000 0.458060
O O2 0.208957 0.152643 0.529383
O O3 0.121632 0.178974 0.792666
O O4 0.916822 0.151436 0.421186
O O5 0.458243 0.250000 0.208086
O O6 0.621223 0.345403 0.295375
O O7 0.415620 0.329002 0.911731
O O8 0.329198 0.354532 0.171588
O O9 0.359161 0.250000 0.613106
O O10 0.508550 0.157575 0.647704
O O11 0.950370 0.879058 0.958726
O O12 0.218554 0.867437 0.223793
O O13 0.072395 0.966469 0.215885
O O14 0.122518 0.950929 0.901090
O O15 0.167151 0.065931 0.860416
O O16 0.771868 0.250000 0.356636
O O17 0.716274 0.320701 0.035634
O O18 0.318107 0.750000 0.274579
O O19 0.000000 0.000000 0.500000
#
# Coordination Sequence:
#
# PCOD9167615 Si02
#       8
#     4   4   4   4   4   4   4   4
#     4   9  15  25  46  80 113 141 185 224 269 336
#     4   8  13  25  45  74 112 147 182 221 274 336
#     4   7  12  23  40  67 107 146 174 211 262 329
#     4   9  20  34  54  83 108 144 190 227 273 339
#     4   9  17  29  50  80 101 140 185 227 278 319
#     4   8  15  25  43  77 115 149 182 220 268 334
#     4   9  16  27  47  77 113 144 172 217 277 332
#     4   9  20  38  55  79 106 146 193 238 282 315
#
# _framework density 21.816314999999999
#
# number of rings (size 3 to 8) (size 9 to 14) (size 15 to 20)
#    0.750    2.750    0.000    2.625    1.750    1.000 
#    0.000    0.000    0.000    9.000    0.000   14.875 
#    0.000    0.000    0.000    0.000    0.000    0.000 
#
# Total GULP energy -178182.750790 kJ/mol
# GULP energy per Si atom -5568.210962 kJ/mol
# Density = 2.176666 g / cm^3
# Si number density = 21.816315 Si / 1000 Ang^3
#
#
#
# Elastic Constant Matrix: (Units=GPa)
#
#
# Indices 1 2 3 4 5 6 
#
# 1 142.2809 42.3509 48.9942 0.0000 53.9751 0.0000
# 2 42.3509 59.8150 25.3230 0.0000 12.0278 0.0000
# 3 48.9942 25.3230 113.6433 0.0000 24.2174 0.0000
# 4 0.0000 0.0000 0.0000 -12.1033 0.0000 -15.8343
# 5 53.9751 12.0278 24.2174 0.0000 42.8133 0.0000
# 6 0.0000 0.0000 0.0000 -15.8343 0.0000 19.0946
#
#
#
# Elastic Compliance Matrix: (Units=1/GPa)
#
#
# Indices 1 2 3 4 5 6 
#
# 1 0.016620 -0.007452 -0.001689 0.000000 -0.017904 0.000000
# 2 -0.007452 0.022208 -0.002738 0.000000 0.004705 0.000000
# 3 -0.001689 -0.002738 0.010825 0.000000 -0.003224 0.000000
# 4 0.000000 0.000000 0.000000 -0.039629 0.000000 -0.032863
# 5 -0.017904 0.004705 -0.003224 0.000000 0.046431 0.000000
# 6 0.000000 0.000000 0.000000 -0.032863 0.000000 0.025119
#
#
# Mechanical properties :
#
#
# Convention : Reuss Voigt Hill
#
# Bulk Modulus (GPa) = 38.62036 61.00837 49.81436
# Shear Modulus (GPa) = 43.87282 23.23233 33.55257
#
# Velocity S-wave (km/s) = 4.48929 3.26683 3.92594
# Velocity P-wave (km/s) = 6.67927 6.50037 6.59043
#
# Compressibility (1/GPa) = 0.02589308
#
# Stress axis : x y z
#
# Youngs Moduli (GPa) = 60.16690 45.02908 92.37841
#
# Poissons Ratio (x) = 0.33557 0.15607
# Poissons Ratio (y) = 0.44838 0.25297
# Poissons Ratio (z) = 0.10165 0.12331
#
# Static dielectric constant tensor:
#      x y z
#    x 1.905800 0.000000 -0.040980 
#    y 0.000000 1.776210 0.000000 
#    z -0.040980 0.000000 1.868710 
# 
# From -- ./inp_files/19580.got.cif
#   From: 2010.05.17/outbox.cif.g08.bks.cpg/sg11_10_cif.got.tgz:19580.got - 2010.06.03 12:22:45.
