data_PCOD9167044
_publ_section_title
;
Structure prediction by ZEFSAII (Michael W. Deem and Ramdas Pophale) SiO2 
 PCOD9167044
Probable space group: P 21/M
;
_chemical_formula_sum "Si O2"
_cell_formula_units_Z 24
_cell_length_a 9.180880
_cell_length_b 14.032284
_cell_length_c 9.790085
_cell_angle_alpha 90.000000
_cell_angle_beta 73.011305
_cell_angle_gamma 90.000000
_cell_volume 1206.206443
_symmetry_space_group_name_H-M "P 21/M"
_symmetry_group_IT_number 11
_symmetry_cell_setting 'monoclinic'
loop_
_space_group_symop_operation_xyz
x,y,z
-x,1/2+y,-z
-x,-y,-z
x,1/2-y,z
loop_
_atom_site_type_symbol
_atom_site_label
_atom_site_fract_x
_atom_site_fract_y
_atom_site_fract_z
Si Si1 0.614127 0.250000 0.414501
Si Si2 0.981053 0.250000 0.255164
Si Si3 0.955224 0.540725 0.864398
Si Si4 0.026973 0.750000 0.425769
Si Si5 0.903696 0.943666 0.411390
Si Si6 0.623319 0.458374 0.861173
Si Si7 0.566680 0.566673 0.597910
Si Si8 0.623378 0.250000 0.729086
O O1 0.795754 0.250000 0.328511
O O2 0.538897 0.158048 0.367260
O O3 0.552623 0.250000 0.592728
O O4 0.041406 0.155301 0.160570
O O5 0.034133 0.250000 0.400889
O O6 0.793815 0.492521 0.861390
O O7 0.087707 0.507293 0.724151
O O8 0.000000 0.500000 0.000000
O O9 0.982188 0.844355 0.360650
O O10 0.206302 0.750000 0.374414
O O11 0.739309 0.914971 0.507284
O O12 0.000000 0.000000 0.500000
O O13 0.582332 0.510737 0.732783
O O14 0.605619 0.345671 0.826199
O O15 0.500000 0.500000 0.000000
O O16 0.500000 0.500000 0.500000
#
# Coordination Sequence:
#
# PCOD9167044 Si02
#       8
#     2   2   4   2   4   4   4   2
#     4  11  25  41  76 113 142 184 245 306 366 425
#     4  11  24  45  75 102 144 188 248 303 360 431
#     4  12  28  46  72 106 146 195 243 296 363 434
#     4  11  19  39  76 102 128 180 241 299 353 406
#     4  12  22  43  71 102 139 183 245 300 351 428
#     4  12  28  47  71 106 154 192 235 301 365 436
#     4  12  24  43  71 107 143 185 240 296 362 426
#     4  11  22  47  71 107 142 190 234 292 369 426
#
# _framework density 19.897092000000001
#
# number of rings (size 3 to 8) (size 9 to 14) (size 15 to 20)
#    0.000    0.333    6.667    1.500    4.667    3.333 
#    0.000    0.000    0.000    0.000    0.000    0.000 
#    0.000    0.000    0.000    0.000    0.000    0.000 
#
# Total GULP energy -133851.149574 kJ/mol
# GULP energy per Si atom -5577.131232 kJ/mol
# Density = 1.985181 g / cm^3
# Si number density = 19.897092 Si / 1000 Ang^3
#
#
#
# Elastic Constant Matrix: (Units=GPa)
#
#
# Indices 1 2 3 4 5 6 
#
# 1 87.0498 33.3772 21.7774 0.0000 7.3392 0.0000
# 2 33.3772 178.6297 38.8893 0.0000 13.9694 0.0000
# 3 21.7774 38.8893 112.9193 0.0000 14.1302 0.0000
# 4 0.0000 0.0000 0.0000 15.5308 0.0000 -9.4517
# 5 7.3392 13.9694 14.1302 0.0000 36.1348 0.0000
# 6 0.0000 0.0000 0.0000 -9.4517 0.0000 29.0783
#
#
#
# Elastic Compliance Matrix: (Units=1/GPa)
#
#
# Indices 1 2 3 4 5 6 
#
# 1 0.012739 -0.001929 -0.001642 0.000000 -0.001199 0.000000
# 2 -0.001929 0.006434 -0.001663 0.000000 -0.001445 0.000000
# 3 -0.001642 -0.001663 0.010118 0.000000 -0.002980 0.000000
# 4 0.000000 0.000000 0.000000 0.080266 0.000000 0.026090
# 5 -0.001199 -0.001445 -0.002980 0.000000 0.029642 0.000000
# 6 0.000000 0.000000 0.000000 0.026090 0.000000 0.042870
#
#
# Mechanical properties :
#
#
# Convention : Reuss Voigt Hill
#
# Bulk Modulus (GPa) = 53.12761 62.96518 58.04640
# Shear Modulus (GPa) = 25.14944 35.11911 30.13428
#
# Velocity S-wave (km/s) = 3.55910 4.20579 3.89589
# Velocity P-wave (km/s) = 6.60672 7.43633 7.03377
#
# Compressibility (1/GPa) = 0.01882260
#
# Stress axis : x y z
#
# Youngs Moduli (GPa) = 78.49712 155.43284 98.83113
#
# Poissons Ratio (x) = 0.29983 0.16233
# Poissons Ratio (y) = 0.15142 0.16434
# Poissons Ratio (z) = 0.12893 0.25847
#
# Static dielectric constant tensor:
#      x y z
#    x 1.560770 0.000000 0.152400 
#    y 0.000000 1.687710 0.000000 
#    z 0.152400 0.000000 1.634430 
# 
# From -- ./inp_files/12500.got.cif
#   From: 2010.05.17/outbox.cif.g08.bks.cpg/sg11_7_cif.got.tgz:12500.got - 2010.06.03 12:22:45.
