data_PCOD9167096
_publ_section_title
;
Structure prediction by ZEFSAII (Michael W. Deem and Ramdas Pophale) SiO2 
 PCOD9167096
Probable space group: P 21/M
;
_chemical_formula_sum "Si O2"
_cell_formula_units_Z 24
_cell_length_a 9.508699
_cell_length_b 14.611586
_cell_length_c 14.340852
_cell_angle_alpha 90.000000
_cell_angle_beta 150.511843
_cell_angle_gamma 90.000000
_cell_volume 980.784362
_symmetry_space_group_name_H-M "P 21/M"
_symmetry_group_IT_number 11
_symmetry_cell_setting 'monoclinic'
loop_
_space_group_symop_operation_xyz
x,y,z
-x,1/2+y,-z
-x,-y,-z
x,1/2-y,z
loop_
_atom_site_type_symbol
_atom_site_label
_atom_site_fract_x
_atom_site_fract_y
_atom_site_fract_z
Si Si1 0.723893 0.034615 0.397191
Si Si2 0.450031 0.901436 0.518255
Si Si3 0.325661 0.348357 0.535464
Si Si4 0.699503 0.641414 0.987152
Si Si5 0.015060 0.972551 0.902311
Si Si6 0.712581 0.354115 0.081009
O O1 0.763926 0.091832 0.517688
O O2 0.523866 0.097243 0.216268
O O3 0.593692 0.937966 0.359571
O O4 0.000000 0.000000 0.500000
O O5 0.482056 0.840003 0.446165
O O6 0.763331 0.897468 0.748671
O O7 0.500000 0.000000 0.500000
O O8 0.329575 0.250000 0.587737
O O9 0.002334 0.365458 0.310422
O O10 0.750140 0.750000 0.999196
O O11 0.549888 0.632282 0.001122
O O12 0.969662 0.572826 0.139111
O O13 0.271064 0.922748 0.995266
O O14 0.000000 0.000000 0.000000
O O15 0.710233 0.250000 0.046294
#
# Coordination Sequence:
#
# PCOD9167096 Si02
#       6
#     4   4   4   4   4   4
#     4  11  20  35  61  93 128 166 208 265 310 371
#     4   9  20  38  59  86 123 160 207 249 314 371
#     4   9  18  35  60  88 121 164 211 258 310 368
#     4  11  23  39  61  92 128 170 213 258 316 381
#     4  11  21  38  62  93 124 159 208 260 313 369
#     4   9  19  37  61  88 120 163 208 250 312 379
#
# _framework density 24.470210000000002
#
# number of rings (size 3 to 8) (size 9 to 14) (size 15 to 20)
#    0.000    2.000    3.333    0.500    0.000    1.333 
#    0.000    4.167    0.000    7.000    0.000    0.000 
#    0.000    0.000    0.000    0.000    0.000    0.000 
#
# Total GULP energy -133712.339555 kJ/mol
# GULP energy per Si atom -5571.347481 kJ/mol
# Density = 2.441451 g / cm^3
# Si number density = 24.470210 Si / 1000 Ang^3
#
#
#
# Elastic Constant Matrix: (Units=GPa)
#
#
# Indices 1 2 3 4 5 6 
#
# 1 165.0096 67.4872 21.0570 0.0000 2.3086 0.0000
# 2 67.4872 158.2206 13.4691 0.0000 -1.7714 0.0000
# 3 21.0570 13.4691 42.7574 0.0000 10.1866 0.0000
# 4 0.0000 0.0000 0.0000 15.2040 0.0000 -10.0021
# 5 2.3086 -1.7714 10.1866 0.0000 37.0693 0.0000
# 6 0.0000 0.0000 0.0000 -10.0021 0.0000 27.1762
#
#
#
# Elastic Compliance Matrix: (Units=1/GPa)
#
#
# Indices 1 2 3 4 5 6 
#
# 1 0.007659 -0.003021 -0.002859 0.000000 0.000164 0.000000
# 2 -0.003021 0.007717 -0.001151 0.000000 0.000873 0.000000
# 3 -0.002859 -0.001151 0.026889 0.000000 -0.007266 0.000000
# 4 0.000000 0.000000 0.000000 0.086785 0.000000 0.031941
# 5 0.000164 0.000873 -0.007266 0.000000 0.029005 0.000000
# 6 0.000000 0.000000 0.000000 0.031941 0.000000 0.048553
#
#
# Mechanical properties :
#
#
# Convention : Reuss Voigt Hill
#
# Bulk Modulus (GPa) = 35.45850 63.33493 49.39671
# Shear Modulus (GPa) = 21.73246 33.48819 27.61033
#
# Velocity S-wave (km/s) = 2.98337 3.70338 3.36270
# Velocity P-wave (km/s) = 5.13704 6.65021 5.94199
#
# Compressibility (1/GPa) = 0.02820198
#
# Stress axis : x y z
#
# Youngs Moduli (GPa) = 130.57334 129.58736 37.18938
#
# Poissons Ratio (x) = 0.39154 0.10632
# Poissons Ratio (y) = 0.39452 0.04280
# Poissons Ratio (z) = 0.37331 0.14915
#
# Static dielectric constant tensor:
#      x y z
#    x 1.934780 0.000000 0.037970 
#    y 0.000000 1.925630 0.000000 
#    z 0.037970 0.000000 2.524520 
# 
# From -- ./inp_files/47708.got.cif
#   From: 2010.05.17/outbox.cif.g08.bks.cpg/sg11_24_cif.got.tgz:47708.got - 2010.06.03 12:22:45.
