data_PCOD9167725
_publ_section_title
;
Structure prediction by ZEFSAII (Michael W. Deem and Ramdas Pophale) SiO2 
 PCOD9167725
Probable space group: P 21/M
;
_chemical_formula_sum "Si O2"
_cell_formula_units_Z 32
_cell_length_a 24.000000
_cell_length_b 9.000000
_cell_length_c 18.000000
_cell_angle_alpha 90.000000
_cell_angle_beta 30.000000
_cell_angle_gamma 90.000000
_cell_volume 1944.000000
_symmetry_space_group_name_H-M "P 21/M"
_symmetry_group_IT_number 11
_symmetry_cell_setting 'monoclinic'
loop_
_space_group_symop_operation_xyz
x,y,z
-x,1/2+y,-z
-x,-y,-z
x,1/2-y,z
loop_
_atom_site_type_symbol
_atom_site_label
_atom_site_fract_x
_atom_site_fract_y
_atom_site_fract_z
Si Si1 0.295228 0.429976 0.741761
Si Si2 0.960795 0.928914 0.968992
Si Si3 0.878653 0.571400 0.627470
Si Si4 0.173463 0.928443 0.625066
Si Si5 0.174403 0.429406 0.147814
Si Si6 0.913009 0.071047 0.437107
Si Si7 0.376389 0.429777 0.482797
Si Si8 0.383671 0.069066 0.800715
O O1 0.295974 0.250000 0.739977
O O2 0.346733 0.476346 0.602796
O O3 0.357567 0.474715 0.745192
O O4 0.166070 0.477490 0.898949
O O5 0.958837 0.750000 0.977026
O O6 0.055291 0.967181 0.800166
O O7 0.000000 0.000000 0.000000
O O8 0.885278 0.750000 0.616169
O O9 0.810649 0.533598 0.781491
O O10 0.851862 0.505105 0.577691
O O11 0.000000 0.500000 0.500000
O O12 0.189760 0.750000 0.614510
O O13 0.153519 0.961223 0.561481
O O14 0.275509 0.010992 0.547500
O O15 0.173137 0.250000 0.142957
O O16 0.045380 0.475411 0.277794
O O17 0.277686 0.477070 0.975579
O O18 0.915152 0.250000 0.445841
O O19 0.380311 0.250000 0.475798
O O20 0.495859 0.497828 0.320969
O O21 0.391371 0.250000 0.795946
#
# Coordination Sequence:
#
# PCOD9167725 Si02
#       8
#     4   4   4   4   4   4   4   4
#     4   9  18  32  51  72  96 127 162 204 251 291
#     4  10  18  31  50  73  99 129 162 199 245 295
#     4   9  16  28  48  76 106 134 160 193 245 300
#     4  10  20  33  52  74  98 133 173 203 237 298
#     4   8  15  29  51  76 100 126 159 199 241 290
#     4   9  17  31  51  78 105 129 162 202 244 295
#     4  11  22  35  48  68 100 132 165 211 256 287
#     4  10  19  34  54  71  91 128 173 207 239 290
#
# _framework density 16.460905
#
# number of rings (size 3 to 8) (size 9 to 14) (size 15 to 20)
#    0.000    2.500    1.250    2.625    0.000    3.500 
#    0.000    4.375    0.000    2.250    0.000    0.000 
#    0.000    0.000    0.000    0.000    0.000    0.000 
#
# Total GULP energy -178216.988231 kJ/mol
# GULP energy per Si atom -5569.280882 kJ/mol
# Density = 1.642344 g / cm^3
# Si number density = 16.460905 Si / 1000 Ang^3
#
#
#
# Elastic Constant Matrix: (Units=GPa)
#
#
# Indices 1 2 3 4 5 6 
#
# 1 106.9422 28.9386 61.6761 0.0000 15.5583 0.0000
# 2 28.9386 27.3816 25.4651 0.0000 4.4104 0.0000
# 3 61.6761 25.4651 111.6833 0.0000 4.5711 0.0000
# 4 0.0000 0.0000 0.0000 23.1279 0.0000 1.2343
# 5 15.5583 4.4104 4.5711 0.0000 32.7176 0.0000
# 6 0.0000 0.0000 0.0000 1.2343 0.0000 26.3111
#
#
#
# Elastic Compliance Matrix: (Units=1/GPa)
#
#
# Indices 1 2 3 4 5 6 
#
# 1 0.016938 -0.010793 -0.006661 0.000000 -0.005669 0.000000
# 2 -0.010793 0.053989 -0.006298 0.000000 -0.001265 0.000000
# 3 -0.006661 -0.006298 0.013984 0.000000 0.002063 0.000000
# 4 0.000000 0.000000 0.000000 0.043346 0.000000 -0.002033
# 5 -0.005669 -0.001265 0.002063 0.000000 0.033143 0.000000
# 6 0.000000 0.000000 0.000000 -0.002033 0.000000 0.038102
#
#
# Mechanical properties :
#
#
# Convention : Reuss Voigt Hill
#
# Bulk Modulus (GPa) = 26.73320 53.12963 39.93142
# Shear Modulus (GPa) = 19.26982 25.09314 22.18148
#
# Velocity S-wave (km/s) = 3.42518 3.90860 3.67485
# Velocity P-wave (km/s) = 5.64961 7.26057 6.50515
#
# Compressibility (1/GPa) = 0.03740667
#
# Stress axis : x y z
#
# Youngs Moduli (GPa) = 59.04037 18.52244 71.51179
#
# Poissons Ratio (x) = 0.19992 0.47631
# Poissons Ratio (y) = 0.63723 0.45037
# Poissons Ratio (z) = 0.39325 0.11665
#
# Static dielectric constant tensor:
#      x y z
#    x 1.590940 0.000000 0.028620 
#    y 0.000000 1.552500 0.000000 
#    z 0.028620 0.000000 1.571510 
# 
# From -- ./inp_files/61742.got.cif
#   From: 2010.05.17/outbox.ucp.g08.bks.cvg/sg11_31_cif.got.tgz:61742.got - 2010.06.11 11:38:39.
