data_PCOD9167013
_publ_section_title
;
Structure prediction by ZEFSAII (Michael W. Deem and Ramdas Pophale) SiO2 
 PCOD9167013
Probable space group: P 21/M
;
_chemical_formula_sum "Si O2"
_cell_formula_units_Z 24
_cell_length_a 5.063999
_cell_length_b 20.795470
_cell_length_c 11.659807
_cell_angle_alpha 90.000000
_cell_angle_beta 131.021060
_cell_angle_gamma 90.000000
_cell_volume 926.391921
_symmetry_space_group_name_H-M "P 21/M"
_symmetry_group_IT_number 11
_symmetry_cell_setting 'monoclinic'
loop_
_space_group_symop_operation_xyz
x,y,z
-x,1/2+y,-z
-x,-y,-z
x,1/2-y,z
loop_
_atom_site_type_symbol
_atom_site_label
_atom_site_fract_x
_atom_site_fract_y
_atom_site_fract_z
Si Si1 0.396453 0.750000 0.676620
Si Si2 0.740436 0.325190 0.766676
Si Si3 0.311287 0.893750 0.891006
Si Si4 0.717566 0.446113 0.890738
Si Si5 0.484059 0.443087 0.301664
Si Si6 0.823447 0.250000 0.137284
Si Si7 0.067723 0.641643 0.434321
O O1 0.806089 0.750000 0.821202
O O2 0.315912 0.689506 0.575423
O O3 0.145304 0.750000 0.714966
O O4 0.791286 0.250000 0.808998
O O5 0.869311 0.377657 0.895243
O O6 0.897972 0.342171 0.688810
O O7 0.325427 0.340682 0.642702
O O8 0.422327 0.910188 0.794147
O O9 0.900511 0.915532 0.776169
O O10 0.357337 0.818424 0.934089
O O11 0.479740 0.932390 0.046189
O O12 0.521555 0.481098 0.730811
O O13 0.000000 0.500000 0.000000
O O14 0.766962 0.425661 0.478906
#
# Coordination Sequence:
#
# PCOD9167013 Si02
#       7
#     2   4   4   4   4   2   4
#     4  12  20  38  62 102 144 162 220 270 342 404
#     4  12  26  44  70 102 138 176 218 281 345 400
#     4  11  22  39  66  97 133 172 230 276 331 385
#     4  10  27  49  69  95 138 185 233 275 330 401
#     4  11  23  42  68  98 131 180 220 276 330 401
#     4  12  20  34  66 102 128 180 220 280 334 398
#     4  12  23  41  69 101 137 172 220 278 342 406
#
# _framework density 25.906960000000002
#
# number of rings (size 3 to 8) (size 9 to 14) (size 15 to 20)
#    0.000    0.667    5.000    2.500    1.167    6.667 
#    0.000    0.000    0.000    0.000    0.000    0.000 
#    0.000    0.000    0.000    0.000    0.000    0.000 
#
# Total GULP energy -134422.795056 kJ/mol
# GULP energy per Si atom -5600.949794 kJ/mol
# Density = 2.584799 g / cm^3
# Si number density = 25.906960 Si / 1000 Ang^3
#
#
#
# Elastic Constant Matrix: (Units=GPa)
#
#
# Indices 1 2 3 4 5 6 
#
# 1 102.9099 8.0800 29.5892 0.0000 -1.4416 0.0000
# 2 8.0800 176.7924 55.2572 0.0000 -3.4074 0.0000
# 3 29.5892 55.2572 62.9379 0.0000 -5.6552 0.0000
# 4 0.0000 0.0000 0.0000 47.1174 0.0000 2.2799
# 5 -1.4416 -3.4074 -5.6552 0.0000 38.5064 0.0000
# 6 0.0000 0.0000 0.0000 2.2799 0.0000 31.7099
#
#
#
# Elastic Compliance Matrix: (Units=1/GPa)
#
#
# Indices 1 2 3 4 5 6 
#
# 1 0.011568 0.001619 -0.006899 0.000000 -0.000437 0.000000
# 2 0.001619 0.008026 -0.007842 0.000000 -0.000381 0.000000
# 3 -0.006899 -0.007842 0.026279 0.000000 0.002907 0.000000
# 4 0.000000 0.000000 0.000000 0.021298 0.000000 -0.001531
# 5 -0.000437 -0.000381 0.002907 0.000000 0.026347 0.000000
# 6 0.000000 0.000000 0.000000 -0.001531 0.000000 0.031646
#
#
# Mechanical properties :
#
#
# Convention : Reuss Voigt Hill
#
# Bulk Modulus (GPa) = 50.94731 58.72145 54.83438
# Shear Modulus (GPa) = 31.65565 40.11432 35.88499
#
# Velocity S-wave (km/s) = 3.49936 3.93924 3.72580
# Velocity P-wave (km/s) = 6.00296 6.58829 6.30243
#
# Compressibility (1/GPa) = 0.01962812
#
# Stress axis : x y z
#
# Youngs Moduli (GPa) = 86.44758 124.59358 38.05377
#
# Poissons Ratio (x) = -0.20175 0.26254
# Poissons Ratio (y) = -0.13998 0.29842
# Poissons Ratio (z) = 0.59643 0.97708
#
# Static dielectric constant tensor:
#      x y z
#    x 2.023600 0.000000 0.062670 
#    y 0.000000 2.164910 0.000000 
#    z 0.062670 0.000000 2.056670 
# 
# From -- ./inp_files/29923.got.cif
#   From: 2010.05.17/outbox.cif.g08.bks.cpg/sg11_15_cif.got.tgz:29923.got - 2010.06.03 12:22:45.
