data_PCOD9167478
_publ_section_title
;
Structure prediction by ZEFSAII (Michael W. Deem and Ramdas Pophale) SiO2 
 PCOD9167478
Probable space group: P 21/M
;
_chemical_formula_sum "Si O2"
_cell_formula_units_Z 14
_cell_length_a 9.645669
_cell_length_b 6.926751
_cell_length_c 7.638478
_cell_angle_alpha 90.000000
_cell_angle_beta 63.424800
_cell_angle_gamma 90.000000
_cell_volume 456.431159
_symmetry_space_group_name_H-M "P 21/M"
_symmetry_group_IT_number 11
_symmetry_cell_setting 'monoclinic'
loop_
_space_group_symop_operation_xyz
x,y,z
-x,1/2+y,-z
-x,-y,-z
x,1/2-y,z
loop_
_atom_site_type_symbol
_atom_site_label
_atom_site_fract_x
_atom_site_fract_y
_atom_site_fract_z
Si Si1 0.366633 0.503950 0.836578
Si Si2 0.961229 0.250000 0.503341
Si Si3 0.142505 0.250000 0.064872
Si Si4 0.693747 0.975371 0.537598
Si Si5 0.136946 0.750000 0.052540
O O1 0.340112 0.750000 0.914356
O O2 0.344046 0.536606 0.639449
O O3 0.553319 0.484988 0.751496
O O4 0.329024 0.250000 0.883042
O O5 0.105003 0.250000 0.291655
O O6 0.850135 0.426536 0.508535
O O7 0.956592 0.250000 0.713582
O O8 0.183410 0.501116 0.021718
O O9 0.985773 0.250000 0.038178
O O10 0.706638 0.750000 0.516621
#
# Coordination Sequence:
#
# PCOD9167478 Si02
#       5
#     4   2   2   4   2
#     4  11  23  46  77 106 148 194 257 306 375 442
#     4  12  29  47  77 113 157 194 252 312 378 454
#     4  12  25  48  75 106 155 205 240 316 376 448
#     4  11  23  48  81 113 145 199 255 314 375 453
#     4  12  26  47  72 115 150 199 256 302 380 460
#
# _framework density 30.672750000000001
#
# number of rings (size 3 to 8) (size 9 to 14) (size 15 to 20)
#    0.000    0.571    5.714    1.714    4.000    2.286 
#    2.571    0.000    6.286    0.000    0.000    0.000 
#    0.000    0.000    0.000    0.000    0.000    0.000 
#
# Total GULP energy -78527.118492 kJ/mol
# GULP energy per Si atom -5609.079892 kJ/mol
# Density = 3.060294 g / cm^3
# Si number density = 30.672750 Si / 1000 Ang^3
#
#
#
# Elastic Constant Matrix: (Units=GPa)
#
#
# Indices 1 2 3 4 5 6 
#
# 1 120.7414 31.6942 55.4282 0.0000 -54.2932 0.0000
# 2 31.6942 263.4074 30.0205 0.0000 -49.0659 0.0000
# 3 55.4282 30.0205 167.6361 0.0000 -54.5480 0.0000
# 4 0.0000 0.0000 0.0000 83.2728 0.0000 -20.4269
# 5 -54.2932 -49.0659 -54.5480 0.0000 63.5810 0.0000
# 6 0.0000 0.0000 0.0000 -20.4269 0.0000 73.9909
#
#
#
# Elastic Compliance Matrix: (Units=1/GPa)
#
#
# Indices 1 2 3 4 5 6 
#
# 1 0.013634 0.000566 -0.000942 0.000000 0.011272 0.000000
# 2 0.000566 0.004481 0.000406 0.000000 0.004290 0.000000
# 3 -0.000942 0.000406 0.008385 0.000000 0.006703 0.000000
# 4 0.000000 0.000000 0.000000 0.012881 0.000000 0.003556
# 5 0.011272 0.004290 0.006703 0.000000 0.034415 0.000000
# 6 0.000000 0.000000 0.000000 0.003556 0.000000 0.014497
#
#
# Mechanical properties :
#
#
# Convention : Reuss Voigt Hill
#
# Bulk Modulus (GPa) = 37.64703 87.34118 62.49410
# Shear Modulus (GPa) = 51.50080 73.14506 62.32293
#
# Velocity S-wave (km/s) = 4.10206 4.88863 4.51251
# Velocity P-wave (km/s) = 5.89374 7.77187 6.89703
#
# Compressibility (1/GPa) = 0.02656252
#
# Stress axis : x y z
#
# Youngs Moduli (GPa) = 73.34411 223.15828 119.25879
#
# Poissons Ratio (x) = -0.12641 0.11232
# Poissons Ratio (y) = -0.04155 -0.04845
# Poissons Ratio (z) = 0.06907 -0.09067
#
# Static dielectric constant tensor:
#      x y z
#    x 2.199010 0.000000 -0.056280 
#    y 0.000000 3.110780 0.000000 
#    z -0.056280 0.000000 2.070230 
# 
# From -- ./inp_files/15469.got.cif
#   From: 2010.05.17/outbox.cif.g08.bks.cpg/sg11_8_cif.got.tgz:15469.got - 2010.06.03 12:22:45.
