data_PCOD9167382
_publ_section_title
;
Structure prediction by ZEFSAII (Michael W. Deem and Ramdas Pophale) SiO2 
 PCOD9167382
Probable space group: P 21/M
;
_chemical_formula_sum "Si O2"
_cell_formula_units_Z 28
_cell_length_a 18.267128
_cell_length_b 8.937344
_cell_length_c 16.486900
_cell_angle_alpha 90.000000
_cell_angle_beta 25.679775
_cell_angle_gamma 90.000000
_cell_volume 1166.400011
_symmetry_space_group_name_H-M "P 21/M"
_symmetry_group_IT_number 11
_symmetry_cell_setting 'monoclinic'
loop_
_space_group_symop_operation_xyz
x,y,z
-x,1/2+y,-z
-x,-y,-z
x,1/2-y,z
loop_
_atom_site_type_symbol
_atom_site_label
_atom_site_fract_x
_atom_site_fract_y
_atom_site_fract_z
Si Si1 0.730330 0.075961 0.257390
Si Si2 0.673985 0.581645 0.914958
Si Si3 0.852875 0.924965 0.897435
Si Si4 0.536298 0.427903 0.300082
Si Si5 0.930106 0.578458 0.194928
Si Si6 0.337055 0.575740 0.362429
Si Si7 0.157036 0.927177 0.388378
O O1 0.697495 0.250000 0.311509
O O2 0.585771 0.015642 0.340695
O O3 0.783062 0.981895 0.283142
O O4 0.901021 0.075811 0.030857
O O5 0.684492 0.750000 0.870376
O O6 0.827777 0.563751 0.826158
O O7 0.691486 0.464319 0.825699
O O8 0.507592 0.573543 0.136455
O O9 0.823777 0.750000 0.946800
O O10 0.019763 0.979186 0.777278
O O11 0.703244 0.026106 0.082864
O O12 0.523117 0.250000 0.318429
O O13 0.385682 0.492222 0.396091
O O14 0.900113 0.750000 0.248189
O O15 0.300483 0.750000 0.417061
O O16 0.201842 0.513883 0.433229
O O17 0.137009 0.750000 0.415257
O O18 0.000000 0.000000 0.500000
#
# Coordination Sequence:
#
# PCOD9167382 Si02
#       7
#     4   4   4   4   4   4   4
#     4   8  14  22  31  49  80 116 151 186 228 274
#     4   9  18  33  52  73  96 124 160 199 240 286
#     4   9  16  26  40  59  87 120 152 191 236 279
#     4   9  16  25  40  62  86 116 155 195 232 275
#     4   9  15  21  32  52  79 115 156 191 226 272
#     4   9  19  34  51  72  97 126 159 196 241 288
#     4  11  23  37  53  73  98 127 158 195 240 288
#
# _framework density 24.005486999999999
#
# number of rings (size 3 to 8) (size 9 to 14) (size 15 to 20)
#    0.000    2.857    0.000    3.857    0.000    8.000 
#    0.000    0.000    0.000    0.000    0.000    0.000 
#    0.000    1.143    0.000    3.714    0.000   10.000 
#
# Total GULP energy -156535.741823 kJ/mol
# GULP energy per Si atom -5590.562208 kJ/mol
# Density = 2.395085 g / cm^3
# Si number density = 24.005487 Si / 1000 Ang^3
#
#
#
# Elastic Constant Matrix: (Units=GPa)
#
#
# Indices 1 2 3 4 5 6 
#
# 1 193.9906 65.9426 31.5160 0.0000 -31.5094 0.0000
# 2 65.9426 56.7285 0.0808 0.0000 -10.4460 0.0000
# 3 31.5160 0.0808 81.5365 0.0000 -24.3676 0.0000
# 4 0.0000 0.0000 0.0000 17.7358 0.0000 -7.5461
# 5 -31.5094 -10.4460 -24.3676 0.0000 56.8772 0.0000
# 6 0.0000 0.0000 0.0000 -7.5461 0.0000 41.9807
#
#
#
# Elastic Compliance Matrix: (Units=1/GPa)
#
#
# Indices 1 2 3 4 5 6 
#
# 1 0.009696 -0.010892 -0.003130 0.000000 0.002030 0.000000
# 2 -0.010892 0.030572 0.004650 0.000000 0.001573 0.000000
# 3 -0.003130 0.004650 0.015146 0.000000 0.005609 0.000000
# 4 0.000000 0.000000 0.000000 0.061053 0.000000 0.010974
# 5 0.002030 0.001573 0.005609 0.000000 0.021398 0.000000
# 6 0.000000 0.000000 0.000000 0.010974 0.000000 0.025793
#
#
# Mechanical properties :
#
#
# Convention : Reuss Voigt Hill
#
# Bulk Modulus (GPa) = 27.27120 58.59271 42.93196
# Shear Modulus (GPa) = 25.69030 38.96648 32.32839
#
# Velocity S-wave (km/s) = 3.27492 4.03331 3.67373
# Velocity P-wave (km/s) = 5.06805 6.79346 5.99317
#
# Compressibility (1/GPa) = 0.03666872
#
# Stress axis : x y z
#
# Youngs Moduli (GPa) = 103.13820 32.70930 66.02412
#
# Poissons Ratio (x) = 0.35628 0.20667
# Poissons Ratio (y) = 1.12342 -0.30701
# Poissons Ratio (z) = 0.32285 -0.15210
#
# Static dielectric constant tensor:
#      x y z
#    x 1.901810 0.000000 -0.006250 
#    y 0.000000 1.775980 0.000000 
#    z -0.006250 0.000000 2.070630 
# 
# From -- ./inp_files/61304.got.cif
#   From: 2010.05.17/outbox.cif.g08.bks.cpg/sg11_31_cif.got.tgz:61304.got - 2010.06.03 12:22:45.
