data_PCOD9167341
_publ_section_title
;
Structure prediction by ZEFSAII (Michael W. Deem and Ramdas Pophale) SiO2 
 PCOD9167341
Probable space group: P 21/M
;
_chemical_formula_sum "Si O2"
_cell_formula_units_Z 16
_cell_length_a 8.734695
_cell_length_b 17.852119
_cell_length_c 4.776929
_cell_angle_alpha 90.000000
_cell_angle_beta 82.394244
_cell_angle_gamma 90.000000
_cell_volume 738.326715
_symmetry_space_group_name_H-M "P 21/M"
_symmetry_group_IT_number 11
_symmetry_cell_setting 'monoclinic'
loop_
_space_group_symop_operation_xyz
x,y,z
-x,1/2+y,-z
-x,-y,-z
x,1/2-y,z
loop_
_atom_site_type_symbol
_atom_site_label
_atom_site_fract_x
_atom_site_fract_y
_atom_site_fract_z
Si Si1 0.819095 0.665625 0.032781
Si Si2 0.366878 0.960699 0.852406
Si Si3 0.945947 0.447193 0.770915
Si Si4 0.645178 0.896801 0.538530
O O1 0.856114 0.750000 0.936816
O O2 0.678601 0.523492 0.370261
O O3 0.680946 0.662690 0.290329
O O4 0.957912 0.628195 0.180585
O O5 0.466595 0.897251 0.673547
O O6 0.243547 0.119098 0.221528
O O7 0.233425 0.935863 0.098533
O O8 0.000000 0.500000 0.500000
O O9 0.000000 0.500000 0.000000
O O10 0.500000 0.000000 0.000000
#
# Coordination Sequence:
#
# PCOD9167341 Si02
#       4
#     4   4   4   4
#     4  12  25  45  66  98 142 187 229 280 359 423
#     4  11  22  40  70 105 134 166 236 291 344 398
#     4  12  25  40  70 103 136 179 234 290 343 402
#     4  11  23  41  69 100 131 181 224 288 335 417
#
# _framework density 21.67062
#
# number of rings (size 3 to 8) (size 9 to 14) (size 15 to 20)
#    0.000    0.500    5.000    3.750    3.500    0.000 
#    0.000    2.500    0.000    0.000    0.000    0.000 
#    0.000    0.000    0.000    0.000    0.000    0.000 
#
# Total GULP energy -89078.763120 kJ/mol
# GULP energy per Si atom -5567.422695 kJ/mol
# Density = 2.162130 g / cm^3
# Si number density = 21.670620 Si / 1000 Ang^3
#
#
#
# Elastic Constant Matrix: (Units=GPa)
#
#
# Indices 1 2 3 4 5 6 
#
# 1 128.7602 53.3108 69.1690 0.0000 -10.7078 0.0000
# 2 53.3108 100.3324 40.1214 0.0000 -3.4014 0.0000
# 3 69.1690 40.1214 176.7184 0.0000 3.5848 0.0000
# 4 0.0000 0.0000 0.0000 22.5233 0.0000 0.9273
# 5 -10.7078 -3.4014 3.5848 0.0000 51.7613 0.0000
# 6 0.0000 0.0000 0.0000 0.9273 0.0000 21.3165
#
#
#
# Elastic Compliance Matrix: (Units=1/GPa)
#
#
# Indices 1 2 3 4 5 6 
#
# 1 0.011891 -0.004792 -0.003615 0.000000 0.002395 0.000000
# 2 -0.004792 0.012934 -0.001060 0.000000 -0.000068 0.000000
# 3 -0.003615 -0.001060 0.007341 0.000000 -0.001326 0.000000
# 4 0.000000 0.000000 0.000000 0.044478 0.000000 -0.001935
# 5 0.002395 -0.000068 -0.001326 0.000000 0.019902 0.000000
# 6 0.000000 0.000000 0.000000 -0.001935 0.000000 0.046996
#
#
# Mechanical properties :
#
#
# Convention : Reuss Voigt Hill
#
# Bulk Modulus (GPa) = 75.56236 81.22369 78.39303
# Shear Modulus (GPa) = 29.96020 35.33420 32.64720
#
# Velocity S-wave (km/s) = 3.72227 4.04234 3.88560
# Velocity P-wave (km/s) = 7.30876 7.70388 7.50892
#
# Compressibility (1/GPa) = 0.01323410
#
# Stress axis : x y z
#
# Youngs Moduli (GPa) = 84.09375 77.31378 136.21736
#
# Poissons Ratio (x) = 0.37046 0.49245
# Poissons Ratio (y) = 0.40294 0.14435
# Poissons Ratio (z) = 0.30401 0.08193
#
# Static dielectric constant tensor:
#      x y z
#    x 2.088360 0.000000 -0.162870 
#    y 0.000000 1.846410 0.000000 
#    z -0.162870 0.000000 1.934120 
# 
# From -- ./inp_files/4057.got.cif
#   From: 2010.05.17/outbox.cif.g08.bks.cpg/sg11_3_cif.got.tgz:4057.got - 2010.06.03 12:22:45.
