data_PCOD9167427
_publ_section_title
;
Structure prediction by ZEFSAII (Michael W. Deem and Ramdas Pophale) SiO2 
 PCOD9167427
Probable space group: P 21/M
;
_chemical_formula_sum "Si O2"
_cell_formula_units_Z 32
_cell_length_a 13.543781
_cell_length_b 21.604643
_cell_length_c 12.975848
_cell_angle_alpha 90.000000
_cell_angle_beta 20.982015
_cell_angle_gamma 90.000000
_cell_volume 1359.554513
_symmetry_space_group_name_H-M "P 21/M"
_symmetry_group_IT_number 11
_symmetry_cell_setting 'monoclinic'
loop_
_space_group_symop_operation_xyz
x,y,z
-x,1/2+y,-z
-x,-y,-z
x,1/2-y,z
loop_
_atom_site_type_symbol
_atom_site_label
_atom_site_fract_x
_atom_site_fract_y
_atom_site_fract_z
Si Si1 0.040660 0.607956 0.518873
Si Si2 0.061182 0.517976 0.681951
Si Si3 0.328898 0.388197 0.403814
Si Si4 0.135163 0.822594 0.047108
Si Si5 0.208387 0.320815 0.822931
Si Si6 0.274909 0.865990 0.577847
Si Si7 0.478604 0.321612 0.881678
Si Si8 0.653151 0.039875 0.937773
O O1 0.152561 0.557333 0.492565
O O2 0.077772 0.570075 0.377527
O O3 0.761928 0.634462 0.839563
O O4 0.254238 0.664368 0.309394
O O5 0.211168 0.453757 0.557592
O O6 0.131683 0.567267 0.701059
O O7 0.756813 0.497996 0.937554
O O8 0.074163 0.341264 0.657483
O O9 0.464038 0.404934 0.162776
O O10 0.583322 0.360202 0.219448
O O11 0.197230 0.750000 0.987230
O O12 0.960703 0.837363 0.114616
O O13 0.309162 0.250000 0.715056
O O14 0.980916 0.324690 0.135198
O O15 0.472466 0.362870 0.588671
O O16 0.417558 0.840219 0.334332
O O17 0.395969 0.250000 0.963228
O O18 0.500000 0.000000 0.000000
#
# Coordination Sequence:
#
# PCOD9167427 Si02
#       8
#     4   4   4   4   4   4   4   4
#     4  11  24  39  66  96 131 182 228 284 329 407
#     4  11  25  42  68 105 142 173 231 288 351 411
#     4  12  25  45  74 102 138 181 230 288 358 405
#     4  11  26  49  74 103 138 182 235 290 342 409
#     4  11  23  44  74 103 137 185 240 281 331 419
#     4  11  24  41  70 106 141 182 230 284 348 419
#     4  11  23  40  61  95 142 179 217 280 350 402
#     4  12  25  45  74 103 134 184 244 287 341 427
#
# _framework density 23.537123000000001
#
# number of rings (size 3 to 8) (size 9 to 14) (size 15 to 20)
#    0.000    0.750    2.500    5.250    5.250    2.000 
#    0.000    7.500    0.000    0.000    0.000    0.000 
#    0.000    0.000    0.000    0.000    0.000    0.000 
#
# Total GULP energy -178824.729024 kJ/mol
# GULP energy per Si atom -5588.272782 kJ/mol
# Density = 2.348355 g / cm^3
# Si number density = 23.537123 Si / 1000 Ang^3
#
#
#
# Elastic Constant Matrix: (Units=GPa)
#
#
# Indices 1 2 3 4 5 6 
#
# 1 76.7643 45.5903 36.5497 0.0000 -24.7231 0.0000
# 2 45.5903 105.4888 31.3136 0.0000 -18.4414 0.0000
# 3 36.5497 31.3136 131.3967 0.0000 -17.4058 0.0000
# 4 0.0000 0.0000 0.0000 25.2036 0.0000 -3.4757
# 5 -24.7231 -18.4414 -17.4058 0.0000 41.9807 0.0000
# 6 0.0000 0.0000 0.0000 -3.4757 0.0000 33.8529
#
#
#
# Elastic Compliance Matrix: (Units=1/GPa)
#
#
# Indices 1 2 3 4 5 6 
#
# 1 0.021220 -0.006790 -0.003200 0.000000 0.008187 0.000000
# 2 -0.006790 0.012939 -0.001028 0.000000 0.001259 0.000000
# 3 -0.003200 -0.001028 0.008926 0.000000 0.001365 0.000000
# 4 0.000000 0.000000 0.000000 0.040247 0.000000 0.004132
# 5 0.008187 0.001259 0.001365 0.000000 0.029761 0.000000
# 6 0.000000 0.000000 0.000000 0.004132 0.000000 0.029964
#
#
# Mechanical properties :
#
#
# Convention : Reuss Voigt Hill
#
# Bulk Modulus (GPa) = 47.50575 60.06187 53.78381
# Shear Modulus (GPa) = 29.05133 33.55386 31.30260
#
# Velocity S-wave (km/s) = 3.51704 3.77977 3.65077
# Velocity P-wave (km/s) = 6.05969 6.67999 6.37739
#
# Compressibility (1/GPa) = 0.02105008
#
# Stress axis : x y z
#
# Youngs Moduli (GPa) = 47.12623 77.28363 112.02626
#
# Poissons Ratio (x) = 0.52472 0.35847
# Poissons Ratio (y) = 0.31997 0.11519
# Poissons Ratio (z) = 0.15080 0.07946
#
# Static dielectric constant tensor:
#      x y z
#    x 1.990750 0.000000 -0.003330 
#    y 0.000000 1.890710 0.000000 
#    z -0.003330 0.000000 1.926110 
# 
# From -- ./inp_files/52683.got.cif
#   From: 2010.05.17/outbox.cif.g08.bks.cpg/sg11_27_cif.got.tgz:52683.got - 2010.06.03 12:22:45.
