data_PCOD9167057
_publ_section_title
;
Structure prediction by ZEFSAII (Michael W. Deem and Ramdas Pophale) SiO2 
 PCOD9167057
Probable space group: P 21/M
;
_chemical_formula_sum "Si O2"
_cell_formula_units_Z 24
_cell_length_a 20.979486
_cell_length_b 8.791055
_cell_length_c 12.278899
_cell_angle_alpha 90.000000
_cell_angle_beta 39.156125
_cell_angle_gamma 90.000000
_cell_volume 1429.961668
_symmetry_space_group_name_H-M "P 21/M"
_symmetry_group_IT_number 11
_symmetry_cell_setting 'monoclinic'
loop_
_space_group_symop_operation_xyz
x,y,z
-x,1/2+y,-z
-x,-y,-z
x,1/2-y,z
loop_
_atom_site_type_symbol
_atom_site_label
_atom_site_fract_x
_atom_site_fract_y
_atom_site_fract_z
Si Si1 0.611503 0.434245 0.850954
Si Si2 0.772895 0.425931 0.461538
Si Si3 0.059180 0.926720 0.571064
Si Si4 0.891111 0.570357 0.112263
Si Si5 0.771546 0.435166 0.818442
Si Si6 0.142270 0.930315 0.077192
O O1 0.608790 0.250000 0.855439
O O2 0.674915 0.478523 0.658948
O O3 0.677247 0.483683 0.869382
O O4 0.500000 0.500000 0.000000
O O5 0.758290 0.250000 0.447185
O O6 0.863065 0.426900 0.430733
O O7 0.810078 0.522293 0.310533
O O8 0.027579 0.750000 0.596317
O O9 0.126054 0.981221 0.380576
O O10 0.965898 0.030478 0.726268
O O11 0.903848 0.750000 0.092098
O O12 0.856299 0.511514 0.040584
O O13 0.000000 0.500000 0.000000
O O14 0.772550 0.250000 0.814447
O O15 0.777904 0.481106 0.935879
O O16 0.151595 0.750000 0.048402
#
# Coordination Sequence:
#
# PCOD9167057 Si02
#       6
#     4   4   4   4   4   4
#     4   9  18  35  58  81 104 130 163 210 263 309
#     4   9  18  33  52  74 103 136 170 209 255 299
#     4   9  16  29  48  69  99 135 169 206 247 294
#     4  12  23  34  49  71 103 140 178 213 247 295
#     4   8  17  32  49  72 102 135 167 205 257 307
#     4  11  20  30  47  71 102 139 174 205 246 300
#
# _framework density 16.783667000000001
#
# number of rings (size 3 to 8) (size 9 to 14) (size 15 to 20)
#    0.000    2.333    1.667    4.500    0.000    0.667 
#    0.000    5.000    0.000    1.000    0.000    0.000 
#    0.000    0.000    0.000    0.000    0.000    0.000 
#
# Total GULP energy -133829.388315 kJ/mol
# GULP energy per Si atom -5576.224513 kJ/mol
# Density = 1.674547 g / cm^3
# Si number density = 16.783667 Si / 1000 Ang^3
#
#
#
# Elastic Constant Matrix: (Units=GPa)
#
#
# Indices 1 2 3 4 5 6 
#
# 1 99.9516 39.8314 80.7347 0.0000 23.3505 0.0000
# 2 39.8314 60.5918 41.0421 0.0000 13.4125 0.0000
# 3 80.7347 41.0421 104.3271 0.0000 9.0542 0.0000
# 4 0.0000 0.0000 0.0000 28.3286 0.0000 -0.1310
# 5 23.3505 13.4125 9.0542 0.0000 31.3459 0.0000
# 6 0.0000 0.0000 0.0000 -0.1310 0.0000 17.9904
#
#
#
# Elastic Compliance Matrix: (Units=1/GPa)
#
#
# Indices 1 2 3 4 5 6 
#
# 1 0.035035 -0.002379 -0.024617 0.000000 -0.017970 0.000000
# 2 -0.002379 0.024392 -0.007183 0.000000 -0.006590 0.000000
# 3 -0.024617 -0.007183 0.030364 0.000000 0.012641 0.000000
# 4 0.000000 0.000000 0.000000 0.035301 0.000000 0.000257
# 5 -0.017970 -0.006590 0.012641 0.000000 0.044457 0.000000
# 6 0.000000 0.000000 0.000000 0.000257 0.000000 0.055587
#
#
# Mechanical properties :
#
#
# Convention : Reuss Voigt Hill
#
# Bulk Modulus (GPa) = 46.65558 65.34298 55.99928
# Shear Modulus (GPa) = 16.63133 22.41712 19.52422
#
# Velocity S-wave (km/s) = 3.15131 3.65862 3.41440
# Velocity P-wave (km/s) = 6.41089 7.54084 6.99871
#
# Compressibility (1/GPa) = 0.02143366
#
# Stress axis : x y z
#
# Youngs Moduli (GPa) = 28.54301 40.99737 32.93389
#
# Poissons Ratio (x) = 0.09753 0.81072
# Poissons Ratio (y) = 0.06790 0.23656
# Poissons Ratio (z) = 0.70264 0.29448
#
# Static dielectric constant tensor:
#      x y z
#    x 1.587720 0.000000 0.022860 
#    y 0.000000 1.569720 0.000000 
#    z 0.022860 0.000000 1.557730 
# 
# From -- ./inp_files/36996.got.cif
#   From: 2010.05.17/outbox.cif.g08.bks.cpg/sg11_19_cif.got.tgz:36996.got - 2010.06.03 12:22:45.
