data_PCOD9167351
_publ_section_title
;
Structure prediction by ZEFSAII (Michael W. Deem and Ramdas Pophale) SiO2 
 PCOD9167351
Probable space group: P 21/M
;
_chemical_formula_sum "Si O2"
_cell_formula_units_Z 28
_cell_length_a 14.117140
_cell_length_b 17.616737
_cell_length_c 6.538124
_cell_angle_alpha 90.000000
_cell_angle_beta 55.369731
_cell_angle_gamma 90.000000
_cell_volume 1337.946568
_symmetry_space_group_name_H-M "P 21/M"
_symmetry_group_IT_number 11
_symmetry_cell_setting 'monoclinic'
loop_
_space_group_symop_operation_xyz
x,y,z
-x,1/2+y,-z
-x,-y,-z
x,1/2-y,z
loop_
_atom_site_type_symbol
_atom_site_label
_atom_site_fract_x
_atom_site_fract_y
_atom_site_fract_z
Si Si1 0.505162 0.065507 0.321322
Si Si2 0.907271 0.957646 0.967731
Si Si3 0.649598 0.164797 0.428978
Si Si4 0.152997 0.620928 0.100752
Si Si5 0.751341 0.584490 0.519797
Si Si6 0.304888 0.930027 0.240443
Si Si7 0.923765 0.662512 0.591402
O O1 0.560441 0.137759 0.366649
O O2 0.383109 0.085942 0.371416
O O3 0.500000 0.000000 0.500000
O O4 0.596262 0.042728 0.035166
O O5 0.821256 0.913280 0.222844
O O6 0.946144 0.898357 0.745864
O O7 0.847323 0.030205 0.936262
O O8 0.000000 0.000000 0.000000
O O9 0.628984 0.250000 0.519096
O O10 0.640901 0.108449 0.628776
O O11 0.776437 0.156510 0.172099
O O12 0.226839 0.630418 0.216320
O O13 0.025975 0.650239 0.300564
O O14 0.769952 0.500404 0.589911
O O15 0.805403 0.641373 0.618712
O O16 0.923708 0.750000 0.660051
#
# Coordination Sequence:
#
# PCOD9167351 Si02
#       7
#     4   4   4   4   4   4   4
#     4  11  24  42  72 100 129 177 230 277 331 409
#     4  12  23  43  71  98 131 180 234 273 325 409
#     4  11  25  42  67 103 137 170 226 294 342 384
#     4  11  22  44  69  98 132 179 225 274 335 415
#     4  12  23  42  71  98 132 177 227 271 335 414
#     4  11  22  41  72  98 127 173 228 274 336 399
#     4  12  28  43  65 102 144 178 220 283 347 403
#
# _framework density 20.927592000000001
#
# number of rings (size 3 to 8) (size 9 to 14) (size 15 to 20)
#    0.000    0.571    5.714    3.000    0.000    4.000 
#    0.000    1.429    0.000    0.000    0.000    0.000 
#    0.000    0.000    0.000    0.000    0.000    0.000 
#
# Total GULP energy -156460.513540 kJ/mol
# GULP energy per Si atom -5587.875484 kJ/mol
# Density = 2.087996 g / cm^3
# Si number density = 20.927592 Si / 1000 Ang^3
#
#
#
# Elastic Constant Matrix: (Units=GPa)
#
#
# Indices 1 2 3 4 5 6 
#
# 1 108.1092 8.7698 21.9620 0.0000 2.0047 0.0000
# 2 8.7698 88.9548 13.5131 0.0000 5.8534 0.0000
# 3 21.9620 13.5131 93.1939 0.0000 -0.7084 0.0000
# 4 0.0000 0.0000 0.0000 12.4044 0.0000 7.3655
# 5 2.0047 5.8534 -0.7084 0.0000 31.1848 0.0000
# 6 0.0000 0.0000 0.0000 7.3655 0.0000 14.6966
#
#
#
# Elastic Compliance Matrix: (Units=1/GPa)
#
#
# Indices 1 2 3 4 5 6 
#
# 1 0.009759 -0.000588 -0.002219 0.000000 -0.000567 0.000000
# 2 -0.000588 0.011683 -0.001572 0.000000 -0.002191 0.000000
# 3 -0.002219 -0.001572 0.011486 0.000000 0.000699 0.000000
# 4 0.000000 0.000000 0.000000 0.114772 0.000000 -0.057520
# 5 -0.000567 -0.002191 0.000699 0.000000 0.032530 0.000000
# 6 0.000000 0.000000 0.000000 -0.057520 0.000000 0.096870
#
#
# Mechanical properties :
#
#
# Convention : Reuss Voigt Hill
#
# Bulk Modulus (GPa) = 41.37266 42.08307 41.72786
# Shear Modulus (GPa) = 17.01174 28.05803 22.53488
#
# Velocity S-wave (km/s) = 2.85421 3.66556 3.28503
# Velocity P-wave (km/s) = 5.53844 6.16990 5.86268
#
# Compressibility (1/GPa) = 0.02417055
#
# Stress axis : x y z
#
# Youngs Moduli (GPa) = 102.47100 85.59752 87.05883
#
# Poissons Ratio (x) = 0.05030 0.19317
# Poissons Ratio (y) = 0.06022 0.13687
# Poissons Ratio (z) = 0.22737 0.13457
#
# Static dielectric constant tensor:
#      x y z
#    x 1.813840 0.000000 0.014410 
#    y 0.000000 1.751940 0.000000 
#    z 0.014410 0.000000 1.745150 
# 
# From -- ./inp_files/6779.got.cif
#   From: 2010.05.17/outbox.cif.g08.bks.cpg/sg11_4_cif.got.tgz:6779.got - 2010.06.03 12:22:45.
