data_PCOD9167886
_publ_section_title
;
Structure prediction by ZEFSAII (Michael W. Deem and Ramdas Pophale) SiO2 
 PCOD9167886
Probable space group: P 21/M
;
_chemical_formula_sum "Si O2"
_cell_formula_units_Z 32
_cell_length_a 24.000000
_cell_length_b 9.000000
_cell_length_c 24.000000
_cell_angle_alpha 90.000000
_cell_angle_beta 20.000000
_cell_angle_gamma 90.000000
_cell_volume 1773.032423
_symmetry_space_group_name_H-M "P 21/M"
_symmetry_group_IT_number 11
_symmetry_cell_setting 'monoclinic'
loop_
_space_group_symop_operation_xyz
x,y,z
-x,1/2+y,-z
-x,-y,-z
x,1/2-y,z
loop_
_atom_site_type_symbol
_atom_site_label
_atom_site_fract_x
_atom_site_fract_y
_atom_site_fract_z
Si Si1 0.655032 0.570074 0.787400
Si Si2 0.615459 0.424112 0.315963
Si Si3 0.242568 0.075634 0.710528
Si Si4 0.271673 0.569279 0.159376
Si Si5 0.980753 0.569550 0.185824
Si Si6 0.654552 0.571639 0.159967
Si Si7 0.916813 0.430273 0.454391
Si Si8 0.727184 0.428572 0.513544
O O1 0.671242 0.750000 0.774045
O O2 0.705706 0.499656 0.799747
O O3 0.786347 0.500807 0.620760
O O4 0.459070 0.539926 0.959102
O O5 0.649357 0.250000 0.272726
O O6 0.731217 0.480782 0.257640
O O7 0.423562 0.436233 0.512648
O O8 0.637881 0.521933 0.239862
O O9 0.218638 0.250000 0.747083
O O10 0.100347 0.034298 0.799437
O O11 0.252847 0.750000 0.178666
O O12 0.102857 0.500053 0.289873
O O13 0.991239 0.750000 0.179722
O O14 0.842457 0.509023 0.359080
O O15 0.164502 0.501680 0.025000
O O16 0.670098 0.750000 0.138646
O O17 0.471278 0.531135 0.304702
O O18 0.930232 0.250000 0.448942
O O19 0.824579 0.455898 0.480949
O O20 0.730873 0.250000 0.500579
#
# Coordination Sequence:
#
# PCOD9167886 Si02
#       8
#     4   4   4   4   4   4   4   4
#     4  10  21  38  61  90 124 160 197 239 289 345
#     4  10  19  34  58  87 116 149 190 237 291 349
#     4   9  19  35  56  85 117 149 186 234 294 354
#     4  10  21  38  61  91 125 159 197 241 291 344
#     4  11  23  40  63  88 116 150 193 244 297 351
#     4  11  23  40  62  86 116 154 196 241 293 353
#     4  11  23  39  61  87 118 158 200 244 292 345
#     4  10  24  44  62  83 115 156 201 245 291 345
#
# _framework density 18.048175000000001
#
# number of rings (size 3 to 8) (size 9 to 14) (size 15 to 20)
#    0.000    1.750    1.250    2.625    0.000    6.000 
#    0.000    3.750    0.000    0.000    0.000    0.000 
#    0.000    0.000    0.000    0.000    0.000    0.000 
#
# Total GULP energy -178195.556009 kJ/mol
# GULP energy per Si atom -5568.611125 kJ/mol
# Density = 1.800710 g / cm^3
# Si number density = 18.048175 Si / 1000 Ang^3
#
#
#
# Elastic Constant Matrix: (Units=GPa)
#
#
# Indices 1 2 3 4 5 6 
#
# 1 117.0691 37.9320 54.8008 0.0000 -32.5931 0.0000
# 2 37.9320 95.0826 46.0008 0.0000 -13.8214 0.0000
# 3 54.8008 46.0008 134.9977 0.0000 -37.3862 0.0000
# 4 0.0000 0.0000 0.0000 42.2254 0.0000 -6.6221
# 5 -32.5931 -13.8214 -37.3862 0.0000 41.9078 0.0000
# 6 0.0000 0.0000 0.0000 -6.6221 0.0000 33.3902
#
#
#
# Elastic Compliance Matrix: (Units=1/GPa)
#
#
# Indices 1 2 3 4 5 6 
#
# 1 0.012373 -0.002909 -0.002168 0.000000 0.006730 0.000000
# 2 -0.002909 0.013283 -0.003664 0.000000 -0.001150 0.000000
# 3 -0.002168 -0.003664 0.011600 0.000000 0.007455 0.000000
# 4 0.000000 0.000000 0.000000 0.024443 0.000000 0.004848
# 5 0.006730 -0.001150 0.007455 0.000000 0.035367 0.000000
# 6 0.000000 0.000000 0.000000 0.004848 0.000000 0.030910
#
#
# Mechanical properties :
#
#
# Convention : Reuss Voigt Hill
#
# Bulk Modulus (GPa) = 50.56862 69.40184 59.98523
# Shear Modulus (GPa) = 32.88421 37.39907 35.14164
#
# Velocity S-wave (km/s) = 4.27315 4.55706 4.41738
# Velocity P-wave (km/s) = 7.24057 8.13795 7.70234
#
# Compressibility (1/GPa) = 0.01977511
#
# Stress axis : x y z
#
# Youngs Moduli (GPa) = 80.82254 75.28375 86.20388
#
# Poissons Ratio (x) = 0.21900 0.18686
# Poissons Ratio (y) = 0.23512 0.31584
# Poissons Ratio (z) = 0.17520 0.27583
#
# Static dielectric constant tensor:
#      x y z
#    x 1.633680 0.000000 0.003820 
#    y 0.000000 1.614070 0.000000 
#    z 0.003820 0.000000 1.657690 
# 
# From -- ./inp_files/69972.got.cif
#   From: 2010.05.17/outbox.ucp.g08.bks.cvg/sg11_35_cif.got.tgz:69972.got - 2010.06.11 11:38:39.
