data_PCOD9167102
_publ_section_title
;
Structure prediction by ZEFSAII (Michael W. Deem and Ramdas Pophale) SiO2 
 PCOD9167102
Probable space group: P 21/M
;
_chemical_formula_sum "Si O2"
_cell_formula_units_Z 32
_cell_length_a 11.339677
_cell_length_b 16.878752
_cell_length_c 13.287523
_cell_angle_alpha 90.000000
_cell_angle_beta 143.930366
_cell_angle_gamma 90.000000
_cell_volume 1497.370528
_symmetry_space_group_name_H-M "P 21/M"
_symmetry_group_IT_number 11
_symmetry_cell_setting 'monoclinic'
loop_
_space_group_symop_operation_xyz
x,y,z
-x,1/2+y,-z
-x,-y,-z
x,1/2-y,z
loop_
_atom_site_type_symbol
_atom_site_label
_atom_site_fract_x
_atom_site_fract_y
_atom_site_fract_z
Si Si1 0.084562 0.837548 0.684438
Si Si2 0.823431 0.506644 0.190582
Si Si3 0.930132 0.334827 0.092977
Si Si4 0.148826 0.160631 0.043489
Si Si5 0.768136 0.660845 0.285647
Si Si6 0.543223 0.951717 0.670654
Si Si7 0.564587 0.061108 0.852811
Si Si8 0.823816 0.050425 0.713039
O O1 0.189792 0.750000 0.745878
O O2 0.009067 0.836817 0.748454
O O3 0.917281 0.838615 0.483550
O O4 0.184768 0.925008 0.750304
O O5 0.826819 0.588707 0.252975
O O6 0.022816 0.508233 0.258256
O O7 0.630535 0.499446 0.985284
O O8 0.824997 0.250000 0.004559
O O9 0.103856 0.336212 0.131957
O O10 0.775483 0.403728 0.961812
O O11 0.166616 0.250000 0.017273
O O12 0.349862 0.109727 0.181061
O O13 0.964346 0.114782 0.864597
O O14 0.765194 0.750000 0.240538
O O15 0.554678 0.633173 0.181058
O O16 0.364066 0.917033 0.480810
O O17 0.458482 0.020090 0.686020
O O18 0.712419 0.992491 0.715888
#
# Coordination Sequence:
#
# PCOD9167102 Si02
#       8
#     4   4   4   4   4   4   4   4
#     4   9  19  36  59  87 117 155 208 266 319 374
#     4  11  22  40  64  89 127 178 213 262 328 394
#     4   9  18  34  59  88 122 163 204 259 323 378
#     4  11  22  39  61  90 134 175 210 259 322 395
#     4  11  24  40  61  92 127 166 218 274 326 390
#     4  11  22  39  65  99 127 167 219 269 318 386
#     4  11  20  37  62  88 123 162 219 270 323 376
#     4  11  23  40  66  95 132 170 214 261 321 391
#
# _framework density 21.370797
#
# number of rings (size 3 to 8) (size 9 to 14) (size 15 to 20)
#    0.000    1.500    2.500    3.750    0.000    2.500 
#    0.000    0.000    0.000    0.750    0.000    0.000 
#    0.000    0.000    0.000    0.000    0.000    0.000 
#
# Total GULP energy -178322.467160 kJ/mol
# GULP energy per Si atom -5572.577099 kJ/mol
# Density = 2.132216 g / cm^3
# Si number density = 21.370797 Si / 1000 Ang^3
#
#
#
# Elastic Constant Matrix: (Units=GPa)
#
#
# Indices 1 2 3 4 5 6 
#
# 1 29.2001 27.6959 3.3170 0.0000 2.5836 0.0000
# 2 27.6959 164.0839 60.2213 0.0000 -7.8134 0.0000
# 3 3.3170 60.2213 80.3675 0.0000 -18.8474 0.0000
# 4 0.0000 0.0000 0.0000 24.2991 0.0000 -4.3571
# 5 2.5836 -7.8134 -18.8474 0.0000 23.5165 0.0000
# 6 0.0000 0.0000 0.0000 -4.3571 0.0000 15.2156
#
#
#
# Elastic Compliance Matrix: (Units=1/GPa)
#
#
# Indices 1 2 3 4 5 6 
#
# 1 0.042549 -0.008774 0.003742 0.000000 -0.004591 0.000000
# 2 -0.008774 0.010365 -0.007846 0.000000 -0.001880 0.000000
# 3 0.003742 -0.007846 0.021501 0.000000 0.014214 0.000000
# 4 0.000000 0.000000 0.000000 0.043381 0.000000 0.012423
# 5 -0.004591 -0.001880 0.014214 0.000000 0.053795 0.000000
# 6 0.000000 0.000000 0.000000 0.012423 0.000000 0.069279
#
#
# Mechanical properties :
#
#
# Convention : Reuss Voigt Hill
#
# Bulk Modulus (GPa) = 20.55094 50.68000 35.61547
# Shear Modulus (GPa) = 17.67740 24.76740 21.22240
#
# Velocity S-wave (km/s) = 2.87919 3.40801 3.15470
# Velocity P-wave (km/s) = 4.54865 6.26515 5.47459
#
# Compressibility (1/GPa) = 0.04865957
#
# Stress axis : x y z
#
# Youngs Moduli (GPa) = 23.50211 96.47490 46.50961
#
# Poissons Ratio (x) = 0.84645 -0.17402
# Poissons Ratio (y) = 0.20620 0.36491
# Poissons Ratio (z) = -0.08793 0.75693
#
# Static dielectric constant tensor:
#      x y z
#    x 1.828640 0.000000 -0.000890 
#    y 0.000000 1.842570 0.000000 
#    z -0.000890 0.000000 1.752360 
# 
# From -- ./inp_files/50735.got.cif
#   From: 2010.05.17/outbox.cif.g08.bks.cpg/sg11_26_cif.got.tgz:50735.got - 2010.06.03 12:22:45.
