data_PCOD9167624
_publ_section_title
;
Structure prediction by ZEFSAII (Michael W. Deem and Ramdas Pophale) SiO2 
 PCOD9167624
Probable space group: P 21/M
;
_chemical_formula_sum "Si O2"
_cell_formula_units_Z 32
_cell_length_a 24.234143
_cell_length_b 9.567413
_cell_length_c 7.311521
_cell_angle_alpha 90.000000
_cell_angle_beta 115.498888
_cell_angle_gamma 90.000000
_cell_volume 1530.108362
_symmetry_space_group_name_H-M "P 21/M"
_symmetry_group_IT_number 11
_symmetry_cell_setting 'monoclinic'
loop_
_space_group_symop_operation_xyz
x,y,z
-x,1/2+y,-z
-x,-y,-z
x,1/2-y,z
loop_
_atom_site_type_symbol
_atom_site_label
_atom_site_fract_x
_atom_site_fract_y
_atom_site_fract_z
Si Si1 0.806432 0.912357 0.191289
Si Si2 0.193351 0.413229 0.253159
Si Si3 0.439781 0.916507 0.221789
Si Si4 0.573863 0.584498 0.420373
Si Si5 0.940269 0.591539 0.382674
Si Si6 0.941282 0.906904 0.948263
Si Si7 0.691750 0.091009 0.023961
Si Si8 0.690292 0.088451 0.574065
O O1 0.803003 0.750000 0.237802
O O2 0.873630 0.964629 0.348421
O O3 0.805042 0.918415 0.966959
O O4 0.746356 0.993491 0.167208
O O5 0.202115 0.250000 0.315161
O O6 0.247601 0.511907 0.395605
O O7 0.125030 0.457114 0.214539
O O8 0.436485 0.750000 0.273265
O O9 0.507140 0.934327 0.233388
O O10 0.377976 0.943476 0.020579
O O11 0.435628 0.020083 0.389385
O O12 0.587458 0.750000 0.447989
O O13 0.631176 0.498470 0.427427
O O14 0.948243 0.750000 0.464224
O O15 0.934829 0.601831 0.156809
O O16 0.000000 0.500000 0.500000
O O17 0.951333 0.750000 0.892577
O O18 0.000000 0.000000 0.000000
O O19 0.705267 0.250000 0.094735
O O20 0.690189 0.085507 0.797994
O O21 0.687405 0.250000 0.515246
#
# Coordination Sequence:
#
# PCOD9167624 Si02
#       8
#     4   4   4   4   4   4   4   4
#     4   8  14  24  36  50  69  92 120 156 195 233
#     4   8  14  25  38  51  69  94 123 156 194 235
#     4   8  14  21  26  36  55  78 109 149 186 223
#     4   9  14  19  27  37  53  80 111 145 187 228
#     4   9  18  31  45  63  86 110 139 175 211 251
#     4   9  18  31  46  65  88 111 139 175 212 254
#     4   8  13  20  29  42  60  82 112 150 188 226
#     4   9  15  21  29  43  62  83 113 153 190 227
#
# _framework density 20.913550999999998
#
# number of rings (size 3 to 8) (size 9 to 14) (size 15 to 20)
#    0.000    3.500    0.000    3.000    0.000    5.000 
#    0.000    2.500    0.000    0.000    0.000    0.000 
#    0.000    0.000    0.000    0.000    0.000    1.250 
#
# Total GULP energy -178280.534251 kJ/mol
# GULP energy per Si atom -5571.266695 kJ/mol
# Density = 2.086595 g / cm^3
# Si number density = 20.913551 Si / 1000 Ang^3
#
#
#
# Elastic Constant Matrix: (Units=GPa)
#
#
# Indices 1 2 3 4 5 6 
#
# 1 103.9062 76.9365 82.1366 0.0000 64.3044 0.0000
# 2 76.9365 110.1730 63.7131 0.0000 62.5911 0.0000
# 3 82.1366 63.7131 81.3716 0.0000 37.9924 0.0000
# 4 0.0000 0.0000 0.0000 18.4543 0.0000 22.9965
# 5 64.3044 62.5911 37.9924 0.0000 80.3761 0.0000
# 6 0.0000 0.0000 0.0000 22.9965 0.0000 23.9031
#
#
#
# Elastic Compliance Matrix: (Units=1/GPa)
#
#
# Indices 1 2 3 4 5 6 
#
# 1 0.097846 0.002237 -0.081040 0.000000 -0.041717 0.000000
# 2 0.002237 0.023272 -0.014350 0.000000 -0.013129 0.000000
# 3 -0.081040 -0.014350 0.089615 0.000000 0.033650 0.000000
# 4 0.000000 0.000000 0.000000 -0.272478 0.000000 0.262143
# 5 -0.041717 -0.013129 0.033650 0.000000 0.040135 0.000000
# 6 0.000000 0.000000 0.000000 0.262143 0.000000 -0.210365
#
#
# Mechanical properties :
#
#
# Convention : Reuss Voigt Hill
#
# Bulk Modulus (GPa) = 40.93581 82.33591 61.63586
# Shear Modulus (GPa) = -133.23860 29.39101 -51.92380
#
# Velocity S-wave (km/s) = -7.99046 3.75288 -4.98816
# Velocity P-wave (km/s) = 8.09405 7.63111 1.90786
#
# Compressibility (1/GPa) = 0.02442849
#
# Stress axis : x y z
#
# Youngs Moduli (GPa) = 10.22015 42.97044 11.15879
#
# Poissons Ratio (x) = -0.09614 0.90431
# Poissons Ratio (y) = -0.02287 0.16013
# Poissons Ratio (z) = 0.82824 0.61662
#
# Static dielectric constant tensor:
#      x y z
#    x 1.654660 0.000000 0.136240 
#    y 0.000000 1.717780 0.000000 
#    z 0.136240 0.000000 1.652410 
# 
# From -- ./inp_files/44403.got.cif
#   From: 2010.05.17/outbox.cif.g08.bks.cpg/sg11_23_cif.got.tgz:44403.got - 2010.06.03 12:22:45.
