data_PCOD9167245
_publ_section_title
;
Structure prediction by ZEFSAII (Michael W. Deem and Ramdas Pophale) SiO2 
 PCOD9167245
Probable space group: P 21/M
;
_chemical_formula_sum "Si O2"
_cell_formula_units_Z 28
_cell_length_a 11.650884
_cell_length_b 9.028326
_cell_length_c 21.800476
_cell_angle_alpha 90.000000
_cell_angle_beta 129.724294
_cell_angle_gamma 90.000000
_cell_volume 1763.725815
_symmetry_space_group_name_H-M "P 21/M"
_symmetry_group_IT_number 11
_symmetry_cell_setting 'monoclinic'
loop_
_space_group_symop_operation_xyz
x,y,z
-x,1/2+y,-z
-x,-y,-z
x,1/2-y,z
loop_
_atom_site_type_symbol
_atom_site_label
_atom_site_fract_x
_atom_site_fract_y
_atom_site_fract_z
Si Si1 0.977288 0.426845 0.403386
Si Si2 0.343732 0.072473 0.927851
Si Si3 0.524068 0.072267 0.270548
Si Si4 0.889567 0.927805 0.046466
Si Si5 0.239277 0.425398 0.571184
Si Si6 0.195634 0.071622 0.120938
Si Si7 0.737418 0.073899 0.227468
O O1 0.954927 0.250000 0.408513
O O2 0.877200 0.520016 0.416541
O O3 0.902487 0.453381 0.311993
O O4 0.149844 0.459837 0.477606
O O5 0.357607 0.250000 0.933400
O O6 0.218985 0.029294 0.935407
O O7 0.296651 0.016032 0.844912
O O8 0.500000 0.000000 0.000000
O O9 0.527046 0.250000 0.276943
O O10 0.354249 0.023294 0.202362
O O11 0.620631 0.036607 0.242275
O O12 0.608044 0.004323 0.357781
O O13 0.906776 0.750000 0.053255
O O14 0.817194 0.967496 0.955737
O O15 0.051586 0.002058 0.103885
O O16 0.260000 0.250000 0.581836
O O17 0.188349 0.250000 0.122572
O O18 0.722048 0.250000 0.210079
#
# Coordination Sequence:
#
# PCOD9167245 Si02
#       7
#     4   4   4   4   4   4   4
#     4   8  15  27  40  57  87 122 149 180 224 264
#     4  11  22  34  48  67  92 120 149 182 220 261
#     4   9  17  29  44  65  95 124 146 178 226 267
#     4   9  19  34  48  64  88 115 144 183 225 257
#     4   9  15  23  39  63  88 116 151 184 216 262
#     4   9  17  31  50  67  85 114 149 180 216 266
#     4   9  17  30  46  64  91 124 152 180 219 264
#
# _framework density 15.875484
#
# number of rings (size 3 to 8) (size 9 to 14) (size 15 to 20)
#    0.000    2.857    0.000    2.571    0.000    6.857 
#    0.000    2.857    0.000    0.000    0.000    1.000 
#    0.000    0.000    0.000    0.000    0.000    0.000 
#
# Total GULP energy -155897.918330 kJ/mol
# GULP energy per Si atom -5567.782798 kJ/mol
# Density = 1.583935 g / cm^3
# Si number density = 15.875484 Si / 1000 Ang^3
#
#
#
# Elastic Constant Matrix: (Units=GPa)
#
#
# Indices 1 2 3 4 5 6 
#
# 1 74.7599 30.5094 66.0190 0.0000 16.5664 0.0000
# 2 30.5094 25.2476 45.4861 0.0000 6.1103 0.0000
# 3 66.0190 45.4861 152.7702 0.0000 30.9425 0.0000
# 4 0.0000 0.0000 0.0000 30.0921 0.0000 2.9001
# 5 16.5664 6.1103 30.9425 0.0000 26.5029 0.0000
# 6 0.0000 0.0000 0.0000 2.9001 0.0000 21.6811
#
#
#
# Elastic Compliance Matrix: (Units=1/GPa)
#
#
# Indices 1 2 3 4 5 6 
#
# 1 0.029182 -0.029478 -0.001986 0.000000 -0.009127 0.000000
# 2 -0.029478 0.118833 -0.027276 0.000000 0.022874 0.000000
# 3 -0.001986 -0.027276 0.018336 0.000000 -0.013878 0.000000
# 4 0.000000 0.000000 0.000000 0.033665 0.000000 -0.004503
# 5 -0.009127 0.022874 -0.013878 0.000000 0.054366 0.000000
# 6 0.000000 0.000000 0.000000 -0.004503 0.000000 0.046726
#
#
# Mechanical properties :
#
#
# Convention : Reuss Voigt Hill
#
# Bulk Modulus (GPa) = 20.46126 59.64519 40.05323
# Shear Modulus (GPa) = 11.49752 23.03942 17.26847
#
# Velocity S-wave (km/s) = 2.69407 3.81367 3.30167
# Velocity P-wave (km/s) = 4.75331 7.55277 6.31024
#
# Compressibility (1/GPa) = 0.04887284
#
# Stress axis : x y z
#
# Youngs Moduli (GPa) = 34.26805 8.41514 54.53794
#
# Poissons Ratio (x) = 0.24806 0.10829
# Poissons Ratio (y) = 1.01014 1.48758
# Poissons Ratio (z) = 0.06804 0.22953
#
# Static dielectric constant tensor:
#      x y z
#    x 1.506470 0.000000 0.017500 
#    y 0.000000 1.533270 0.000000 
#    z 0.017500 0.000000 1.565680 
# 
# From -- ./inp_files/42137.got.cif
#   From: 2010.05.17/outbox.cif.g08.bks.cpg/sg11_22_cif.got.tgz:42137.got - 2010.06.03 12:22:45.
