data_PCOD9167715
_publ_section_title
;
Structure prediction by ZEFSAII (Michael W. Deem and Ramdas Pophale) SiO2 
 PCOD9167715
Probable space group: P 21/M
;
_chemical_formula_sum "Si O2"
_cell_formula_units_Z 32
_cell_length_a 18.000000
_cell_length_b 9.000000
_cell_length_c 12.000000
_cell_angle_alpha 90.000000
_cell_angle_beta 90.000000
_cell_angle_gamma 90.000000
_cell_volume 1944.000000
_symmetry_space_group_name_H-M "P 21/M"
_symmetry_group_IT_number 11
_symmetry_cell_setting 'monoclinic'
loop_
_space_group_symop_operation_xyz
x,y,z
-x,1/2+y,-z
-x,-y,-z
x,1/2-y,z
loop_
_atom_site_type_symbol
_atom_site_label
_atom_site_fract_x
_atom_site_fract_y
_atom_site_fract_z
Si Si1 0.451575 0.572695 0.250211
Si Si2 0.328803 0.429648 0.399908
Si Si3 0.729030 0.429442 0.370078
Si Si4 0.932746 0.928878 0.655475
Si Si5 0.376893 0.429359 0.816241
Si Si6 0.208569 0.930169 0.229914
Si Si7 0.901652 0.428437 0.414138
Si Si8 0.667304 0.426376 0.948625
O O1 0.450484 0.750000 0.274924
O O2 0.407907 0.486934 0.349488
O O3 0.537282 0.531613 0.220268
O O4 0.397941 0.549113 0.142910
O O5 0.327335 0.250000 0.401186
O O6 0.307944 0.496551 0.520320
O O7 0.264086 0.495355 0.319838
O O8 0.721706 0.250000 0.374911
O O9 0.682475 0.495363 0.267010
O O10 0.818669 0.461748 0.366874
O O11 0.924411 0.750000 0.663001
O O12 0.022747 0.962391 0.657892
O O13 0.874211 0.005090 0.742594
O O14 0.909399 0.987114 0.532328
O O15 0.371888 0.250000 0.810981
O O16 0.354980 0.484614 0.940431
O O17 0.207244 0.750000 0.243268
O O18 0.253208 0.960980 0.112952
O O19 0.903999 0.250000 0.434658
O O20 0.668574 0.250000 0.974381
#
# Coordination Sequence:
#
# PCOD9167715 Si02
#       8
#     4   4   4   4   4   4   4   4
#     4   9  20  38  57  78 106 138 171 217 272 321
#     4  11  21  33  53  81 107 136 177 221 262 309
#     4  11  22  37  55  73 107 150 179 210 260 322
#     4  10  18  29  51  82 109 135 174 219 260 308
#     4  11  23  37  55  79 105 136 179 224 265 311
#     4  10  19  33  53  79 111 143 172 211 266 321
#     4   9  19  33  50  75 108 144 175 211 262 315
#     4   9  19  36  57  78 103 137 177 216 263 319
#
# _framework density 16.460905
#
# number of rings (size 3 to 8) (size 9 to 14) (size 15 to 20)
#    0.000    2.000    1.250    3.750    0.000    5.000 
#    0.000    0.000    0.000    0.750    0.000    0.000 
#    0.000    0.000    0.000    0.000    0.000    0.000 
#
# Total GULP energy -178372.214382 kJ/mol
# GULP energy per Si atom -5574.131699 kJ/mol
# Density = 1.642344 g / cm^3
# Si number density = 16.460905 Si / 1000 Ang^3
#
#
#
# Elastic Constant Matrix: (Units=GPa)
#
#
# Indices 1 2 3 4 5 6 
#
# 1 171.1306 59.6762 63.1923 0.0000 -27.8810 0.0000
# 2 59.6762 91.1047 41.9086 0.0000 -10.7060 0.0000
# 3 63.1923 41.9086 79.9718 0.0000 -15.2849 0.0000
# 4 0.0000 0.0000 0.0000 31.0420 0.0000 -7.8187
# 5 -27.8810 -10.7060 -15.2849 0.0000 30.2515 0.0000
# 6 0.0000 0.0000 0.0000 -7.8187 0.0000 34.8104
#
#
#
# Elastic Compliance Matrix: (Units=1/GPa)
#
#
# Indices 1 2 3 4 5 6 
#
# 1 0.009710 -0.003525 -0.004819 0.000000 0.005267 0.000000
# 2 -0.003525 0.015798 -0.005585 0.000000 -0.000480 0.000000
# 3 -0.004819 -0.005585 0.019938 0.000000 0.003656 0.000000
# 4 0.000000 0.000000 0.000000 0.034146 0.000000 0.007670
# 5 0.005267 -0.000480 0.003656 0.000000 0.039588 0.000000
# 6 0.000000 0.000000 0.000000 0.007670 0.000000 0.030450
#
#
# Mechanical properties :
#
#
# Convention : Reuss Voigt Hill
#
# Bulk Modulus (GPa) = 56.85673 74.64015 65.74844
# Shear Modulus (GPa) = 27.27004 31.04944 29.15974
#
# Velocity S-wave (km/s) = 4.07462 4.34781 4.21343
# Velocity P-wave (km/s) = 7.53340 8.40518 7.98120
#
# Compressibility (1/GPa) = 0.01758807
#
# Stress axis : x y z
#
# Youngs Moduli (GPa) = 102.98381 63.29867 50.15533
#
# Poissons Ratio (x) = 0.22311 0.24170
# Poissons Ratio (y) = 0.36299 0.28014
# Poissons Ratio (z) = 0.49629 0.35355
#
# Static dielectric constant tensor:
#      x y z
#    x 1.572860 0.000000 -0.011820 
#    y 0.000000 1.551870 0.000000 
#    z -0.011820 0.000000 1.547390 
# 
# From -- ./inp_files/40615.got.cif
#   From: 2010.05.17/outbox.ucp.g08.bks.cvg/sg11_21_cif.got.tgz:40615.got - 2010.06.11 11:38:39.
