data_PCOD9167035
_publ_section_title
;
Structure prediction by ZEFSAII (Michael W. Deem and Ramdas Pophale) SiO2 
 PCOD9167035
Probable space group: P 21/M
;
_chemical_formula_sum "Si O2"
_cell_formula_units_Z 28
_cell_length_a 7.743961
_cell_length_b 14.702166
_cell_length_c 10.271739
_cell_angle_alpha 90.000000
_cell_angle_beta 112.770444
_cell_angle_gamma 90.000000
_cell_volume 1078.323367
_symmetry_space_group_name_H-M "P 21/M"
_symmetry_group_IT_number 11
_symmetry_cell_setting 'monoclinic'
loop_
_space_group_symop_operation_xyz
x,y,z
-x,1/2+y,-z
-x,-y,-z
x,1/2-y,z
loop_
_atom_site_type_symbol
_atom_site_label
_atom_site_fract_x
_atom_site_fract_y
_atom_site_fract_z
Si Si1 0.955640 0.350585 0.175116
Si Si2 0.773753 0.852026 0.289463
Si Si3 0.533405 0.395651 0.982753
Si Si4 0.483831 0.148742 0.252347
Si Si5 0.022683 0.850138 0.100106
Si Si6 0.779408 0.499639 0.703050
Si Si7 0.846485 0.140432 0.501469
O O1 0.975043 0.250000 0.239900
O O2 0.747247 0.365431 0.060205
O O3 0.045196 0.433843 0.276996
O O4 0.066306 0.352211 0.068645
O O5 0.745249 0.750000 0.327155
O O6 0.881814 0.855574 0.181218
O O7 0.934451 0.889659 0.432045
O O8 0.568331 0.882060 0.185270
O O9 0.447699 0.350309 0.087827
O O10 0.500000 0.500000 0.000000
O O11 0.441863 0.250000 0.294046
O O12 0.383904 0.067987 0.302011
O O13 0.709473 0.133903 0.338145
O O14 0.114523 0.750000 0.137338
O O15 0.154769 0.936564 0.158245
O O16 0.751396 0.425355 0.581586
O O17 0.847724 0.250000 0.536028
#
# Coordination Sequence:
#
# PCOD9167035 Si02
#       7
#     4   4   4   4   4   4   4
#     4  11  22  34  51  82 121 152 185 238 297 344
#     4   9  17  34  58  81 108 145 187 230 282 343
#     4  12  23  37  57  84 113 150 195 240 286 342
#     4  11  23  39  60  86 118 156 195 236 290 351
#     4   9  18  33  55  82 114 149 186 237 294 343
#     4  11  19  35  58  86 114 149 194 240 286 349
#     4   9  20  38  61  87 115 151 195 243 290 340
#
# _framework density 25.966235000000001
#
# number of rings (size 3 to 8) (size 9 to 14) (size 15 to 20)
#    0.000    1.714    0.000    7.286    0.000    1.143 
#    0.000    2.857    0.000    0.000    0.000   14.000 
#    0.000    0.000    0.000    0.000    0.000    0.000 
#
# Total GULP energy -156324.414646 kJ/mol
# GULP energy per Si atom -5583.014809 kJ/mol
# Density = 2.590713 g / cm^3
# Si number density = 25.966235 Si / 1000 Ang^3
#
#
#
# Elastic Constant Matrix: (Units=GPa)
#
#
# Indices 1 2 3 4 5 6 
#
# 1 94.0285 26.9670 18.3833 0.0000 25.0762 0.0000
# 2 26.9670 162.9645 43.9561 0.0000 10.7464 0.0000
# 3 18.3833 43.9561 127.4900 0.0000 22.1141 0.0000
# 4 0.0000 0.0000 0.0000 17.5097 0.0000 12.3023
# 5 25.0762 10.7464 22.1141 0.0000 44.3681 0.0000
# 6 0.0000 0.0000 0.0000 12.3023 0.0000 30.9213
#
#
#
# Elastic Compliance Matrix: (Units=1/GPa)
#
#
# Indices 1 2 3 4 5 6 
#
# 1 0.012966 -0.001664 -0.000104 0.000000 -0.006873 0.000000
# 2 -0.001664 0.006990 -0.002233 0.000000 0.000360 0.000000
# 3 -0.000104 -0.002233 0.009331 0.000000 -0.004052 0.000000
# 4 0.000000 0.000000 0.000000 0.079270 0.000000 -0.031538
# 5 -0.006873 0.000360 -0.004052 0.000000 0.028356 0.000000
# 6 0.000000 0.000000 0.000000 -0.031538 0.000000 0.044888
#
#
# Mechanical properties :
#
#
# Convention : Reuss Voigt Hill
#
# Bulk Modulus (GPa) = 46.97894 62.56620 54.77257
# Shear Modulus (GPa) = 25.39399 38.23826 31.81612
#
# Velocity S-wave (km/s) = 3.13063 3.84163 3.50421
# Velocity P-wave (km/s) = 5.58564 6.62005 6.12472
#
# Compressibility (1/GPa) = 0.02128613
#
# Stress axis : x y z
#
# Youngs Moduli (GPa) = 77.12674 143.05852 107.16716
#
# Poissons Ratio (x) = 0.23810 0.01109
# Poissons Ratio (y) = 0.12837 0.23926
# Poissons Ratio (z) = 0.00798 0.31939
#
# Static dielectric constant tensor:
#      x y z
#    x 2.194900 0.000000 0.031770 
#    y 0.000000 2.106380 0.000000 
#    z 0.031770 0.000000 2.091760 
# 
# From -- ./inp_files/31965.got.cif
#   From: 2010.05.17/outbox.cif.g08.bks.cpg/sg11_16_cif.got.tgz:31965.got - 2010.06.03 12:22:45.
