data_PCOD9167976
_publ_section_title
;
Structure prediction by ZEFSAII (Michael W. Deem and Ramdas Pophale) SiO2 
 PCOD9167976
Probable space group: P 21/M
;
_chemical_formula_sum "Si O2"
_cell_formula_units_Z 32
_cell_length_a 24.000000
_cell_length_b 9.000000
_cell_length_c 15.000000
_cell_angle_alpha 90.000000
_cell_angle_beta 30.000000
_cell_angle_gamma 90.000000
_cell_volume 1620.000000
_symmetry_space_group_name_H-M "P 21/M"
_symmetry_group_IT_number 11
_symmetry_cell_setting 'monoclinic'
loop_
_space_group_symop_operation_xyz
x,y,z
-x,1/2+y,-z
-x,-y,-z
x,1/2-y,z
loop_
_atom_site_type_symbol
_atom_site_label
_atom_site_fract_x
_atom_site_fract_y
_atom_site_fract_z
Si Si1 0.007144 0.072024 0.343999
Si Si2 0.410895 0.923255 0.882152
Si Si3 0.156948 0.578073 0.277928
Si Si4 0.001152 0.070129 0.148090
Si Si5 0.224706 0.570717 0.781052
Si Si6 0.603967 0.429417 0.305497
Si Si7 0.750634 0.430025 0.448225
Si Si8 0.448495 0.572580 0.160476
O O1 0.008614 0.250000 0.337884
O O2 0.898938 0.027528 0.552239
O O3 0.009364 0.019626 0.239846
O O4 0.108604 0.014427 0.262907
O O5 0.449895 0.750000 0.830061
O O6 0.398693 0.970208 0.795434
O O7 0.483468 0.026640 0.845126
O O8 0.288481 0.926737 0.094624
O O9 0.122735 0.750000 0.311168
O O10 0.010460 0.250000 0.130873
O O11 0.878874 0.028230 0.283777
O O12 0.101942 0.996815 0.955613
O O13 0.218244 0.750000 0.789436
O O14 0.290436 0.525426 0.779737
O O15 0.282475 0.524232 0.607090
O O16 0.500000 0.500000 0.500000
O O17 0.598848 0.250000 0.315500
O O18 0.744373 0.250000 0.458312
O O19 0.674984 0.478468 0.636585
O O20 0.448995 0.750000 0.146846
O O21 0.500000 0.500000 0.000000
#
# Coordination Sequence:
#
# PCOD9167976 Si02
#       8
#     4   4   4   4   4   4   4   4
#     4   9  18  31  50  77 108 143 185 230 277 334
#     4  10  21  37  58  83 112 148 191 235 287 347
#     4   9  18  33  54  76 105 146 184 228 283 334
#     4  10  20  34  55  83 112 149 192 230 283 344
#     4  10  20  37  59  86 117 151 192 236 284 338
#     4  10  21  36  57  85 117 154 194 239 293 347
#     4   9  20  38  60  82 112 153 193 233 285 347
#     4  11  24  42  64  87 114 151 193 242 292 346
#
# _framework density 19.753086
#
# number of rings (size 3 to 8) (size 9 to 14) (size 15 to 20)
#    0.000    2.250    0.000    2.250    1.750    4.000 
#    0.000    2.500    0.000    0.000    0.000    0.000 
#    0.000    0.000    0.000    0.000    0.000    0.000 
#
# Total GULP energy -178464.740116 kJ/mol
# GULP energy per Si atom -5577.023129 kJ/mol
# Density = 1.970813 g / cm^3
# Si number density = 19.753086 Si / 1000 Ang^3
#
#
#
# Elastic Constant Matrix: (Units=GPa)
#
#
# Indices 1 2 3 4 5 6 
#
# 1 72.8779 17.5202 57.7300 0.0000 19.0147 0.0000
# 2 17.5202 9.4502 21.1665 0.0000 4.1258 0.0000
# 3 57.7300 21.1665 102.2556 0.0000 7.2338 0.0000
# 4 0.0000 0.0000 0.0000 28.2424 0.0000 1.9845
# 5 19.0147 4.1258 7.2338 0.0000 29.4087 0.0000
# 6 0.0000 0.0000 0.0000 1.9845 0.0000 25.7050
#
#
#
# Elastic Compliance Matrix: (Units=1/GPa)
#
#
# Indices 1 2 3 4 5 6 
#
# 1 0.034605 -0.030181 -0.012219 0.000000 -0.015135 0.000000
# 2 -0.030181 0.233374 -0.030870 0.000000 -0.005633 0.000000
# 3 -0.012219 -0.030870 0.022596 0.000000 0.006673 0.000000
# 4 0.000000 0.000000 0.000000 0.035601 0.000000 -0.002748
# 5 -0.015135 -0.005633 0.006673 0.000000 0.042938 0.000000
# 6 0.000000 0.000000 0.000000 -0.002748 0.000000 0.039115
#
#
# Mechanical properties :
#
#
# Convention : Reuss Voigt Hill
#
# Bulk Modulus (GPa) = 6.94273 41.93525 24.43899
# Shear Modulus (GPa) = 8.29488 22.54900 15.42194
#
# Velocity S-wave (km/s) = 2.05144 3.38234 2.79720
# Velocity P-wave (km/s) = 3.02218 6.04396 4.77823
#
# Compressibility (1/GPa) = 0.14403555
#
# Stress axis : x y z
#
# Youngs Moduli (GPa) = 28.89723 4.28496 44.25629
#
# Poissons Ratio (x) = 0.12933 0.54077
# Poissons Ratio (y) = 0.87215 1.36618
# Poissons Ratio (z) = 0.35309 0.13228
#
# Static dielectric constant tensor:
#      x y z
#    x 1.713500 0.000000 -0.009900 
#    y 0.000000 1.675040 0.000000 
#    z -0.009900 0.000000 1.715650 
# 
# From -- ./inp_files/55631.got.cif
#   From: 2010.05.17/outbox.ucp.g08.bks.cvg/sg11_28_cif.got.tgz:55631.got - 2010.06.11 11:38:39.
