data_PCOD9167028
_publ_section_title
;
Structure prediction by ZEFSAII (Michael W. Deem and Ramdas Pophale) SiO2 
 PCOD9167028
Probable space group: P 21/M
;
_chemical_formula_sum "Si O2"
_cell_formula_units_Z 24
_cell_length_a 13.708824
_cell_length_b 19.565118
_cell_length_c 14.658402
_cell_angle_alpha 90.000000
_cell_angle_beta 159.967069
_cell_angle_gamma 90.000000
_cell_volume 1346.809519
_symmetry_space_group_name_H-M "P 21/M"
_symmetry_group_IT_number 11
_symmetry_cell_setting 'monoclinic'
loop_
_space_group_symop_operation_xyz
x,y,z
-x,1/2+y,-z
-x,-y,-z
x,1/2-y,z
loop_
_atom_site_type_symbol
_atom_site_label
_atom_site_fract_x
_atom_site_fract_y
_atom_site_fract_z
Si Si1 0.421970 0.071314 0.481267
Si Si2 0.365667 0.460499 0.749420
Si Si3 0.574401 0.169329 0.460438
Si Si4 0.788262 0.447319 0.971822
Si Si5 0.149143 0.441581 0.746955
Si Si6 0.188542 0.389942 0.973355
O O1 0.403647 0.129298 0.388749
O O2 0.672514 0.079897 0.774363
O O3 0.500000 0.000000 0.500000
O O4 0.122351 0.067861 0.271551
O O5 0.562989 0.421662 0.850040
O O6 0.205430 0.421058 0.691065
O O7 0.134383 0.511378 0.500369
O O8 0.595375 0.509010 0.999266
O O9 0.569685 0.250000 0.468727
O O10 0.891936 0.139814 0.747798
O O11 0.441691 0.149696 0.245635
O O12 0.773953 0.530380 0.965404
O O13 0.161078 0.387100 0.838996
#
# Coordination Sequence:
#
# PCOD9167028 Si02
#       6
#     4   4   4   4   4   4
#     4  12  21  35  53  77 104 142 180 222 268 317
#     4   9  17  29  46  79 110 130 163 207 261 314
#     4  12  25  37  51  75 107 143 183 222 263 323
#     4  11  19  32  55  80 104 135 177 219 270 317
#     4   9  17  29  49  74 108 138 158 203 263 316
#     4  11  19  35  54  76 105 141 173 214 270 325
#
# _framework density 17.819891999999999
#
# number of rings (size 3 to 8) (size 9 to 14) (size 15 to 20)
#    0.000    1.333    3.333    6.000    0.000    0.000 
#    0.000    0.000    0.000    0.000    0.000    7.000 
#    0.000    0.000    0.000    0.000    0.000    0.000 
#
# Total GULP energy -133689.698167 kJ/mol
# GULP energy per Si atom -5570.404090 kJ/mol
# Density = 1.777933 g / cm^3
# Si number density = 17.819892 Si / 1000 Ang^3
#
#
#
# Elastic Constant Matrix: (Units=GPa)
#
#
# Indices 1 2 3 4 5 6 
#
# 1 93.9675 31.8170 8.7966 0.0000 -2.6801 0.0000
# 2 31.8170 52.6458 6.2629 0.0000 -4.0078 0.0000
# 3 8.7966 6.2629 103.6354 0.0000 3.2245 0.0000
# 4 0.0000 0.0000 0.0000 2.3730 0.0000 0.4456
# 5 -2.6801 -4.0078 3.2245 0.0000 33.5229 0.0000
# 6 0.0000 0.0000 0.0000 0.4456 0.0000 10.0469
#
#
#
# Elastic Compliance Matrix: (Units=1/GPa)
#
#
# Indices 1 2 3 4 5 6 
#
# 1 0.013425 -0.008021 -0.000660 0.000000 0.000178 0.000000
# 2 -0.008021 0.024121 -0.000849 0.000000 0.002324 0.000000
# 3 -0.000660 -0.000849 0.009791 0.000000 -0.001096 0.000000
# 4 0.000000 0.000000 0.000000 0.424942 0.000000 -0.018848
# 5 0.000178 0.002324 -0.001096 0.000000 0.030228 0.000000
# 6 0.000000 0.000000 0.000000 -0.018848 0.000000 0.100369
#
#
# Mechanical properties :
#
#
# Convention : Reuss Voigt Hill
#
# Bulk Modulus (GPa) = 35.36743 38.22242 36.79492
# Shear Modulus (GPa) = 7.91940 22.74670 15.33305
#
# Velocity S-wave (km/s) = 2.11040 3.57666 2.93652
# Velocity P-wave (km/s) = 5.08219 6.20907 5.67367
#
# Compressibility (1/GPa) = 0.02827460
#
# Stress axis : x y z
#
# Youngs Moduli (GPa) = 74.48863 41.45831 102.13804
#
# Poissons Ratio (x) = 0.33255 0.06744
# Poissons Ratio (y) = 0.59750 0.08673
# Poissons Ratio (z) = 0.04918 0.03520
#
# Static dielectric constant tensor:
#      x y z
#    x 1.745330 0.000000 -0.000830 
#    y 0.000000 1.596580 0.000000 
#    z -0.000830 0.000000 1.642780 
# 
# From -- ./inp_files/52609.got.cif
#   From: 2010.05.17/outbox.cif.g08.bks.cpg/sg11_27_cif.got.tgz:52609.got - 2010.06.03 12:22:45.
