data_PCOD9167564
_publ_section_title
;
Structure prediction by ZEFSAII (Michael W. Deem and Ramdas Pophale) SiO2 
 PCOD9167564
Probable space group: P 21/M
;
_chemical_formula_sum "Si O2"
_cell_formula_units_Z 22
_cell_length_a 5.040530
_cell_length_b 20.125352
_cell_length_c 9.046204
_cell_angle_alpha 90.000000
_cell_angle_beta 102.618702
_cell_angle_gamma 90.000000
_cell_volume 895.503180
_symmetry_space_group_name_H-M "P 21/M"
_symmetry_group_IT_number 11
_symmetry_cell_setting 'monoclinic'
loop_
_space_group_symop_operation_xyz
x,y,z
-x,1/2+y,-z
-x,-y,-z
x,1/2-y,z
loop_
_atom_site_type_symbol
_atom_site_label
_atom_site_fract_x
_atom_site_fract_y
_atom_site_fract_z
Si Si1 0.642000 0.000003 0.854751
Si Si2 0.776795 0.860240 0.548378
Si Si3 0.590860 0.750000 0.301483
Si Si4 0.001851 0.750000 0.086853
Si Si5 0.500000 0.500000 0.500000
Si Si6 0.913529 0.110493 0.026677
Si Si7 0.646592 0.173069 0.262267
O O1 0.482065 0.991516 0.683053
O O2 0.877615 0.944520 0.888999
O O3 0.500000 0.000000 0.000000
O O4 0.778375 0.073850 0.869920
O O5 0.639185 0.814573 0.407629
O O6 0.709607 0.936859 0.517365
O O7 0.625907 0.837243 0.679537
O O8 0.096150 0.844942 0.601179
O O9 0.308018 0.750000 0.183151
O O10 0.816010 0.750000 0.205318
O O11 0.955918 0.681034 0.996792
O O12 0.691179 0.128145 0.124161
O O13 0.669924 0.250000 0.221617
#
# Coordination Sequence:
#
# PCOD9167564 Si02
#       7
#     4   4   2   2   2   4   4
#     4  11  26  51  74 111 153 204 254 323 376 469
#     4  12  26  45  75 109 152 197 252 321 373 462
#     4  12  26  48  68 112 154 196 258 317 385 456
#     4  12  28  44  76 106 148 206 248 319 391 450
#     4  12  26  48  78 112 152 202 260 310 396 444
#     4  11  26  47  74 109 153 196 262 313 389 458
#     4  12  23  48  74 109 147 200 253 316 386 450
#
# _framework density 24.567191000000001
#
# number of rings (size 3 to 8) (size 9 to 14) (size 15 to 20)
#    0.000    0.364    4.545    3.273    5.091    0.727 
#    3.273    0.000    0.000    0.000    0.000    0.000 
#    0.000    0.000    0.000    0.000    0.000    0.000 
#
# Total GULP energy -122788.963673 kJ/mol
# GULP energy per Si atom -5581.316531 kJ/mol
# Density = 2.451128 g / cm^3
# Si number density = 24.567191 Si / 1000 Ang^3
#
#
#
# Elastic Constant Matrix: (Units=GPa)
#
#
# Indices 1 2 3 4 5 6 
#
# 1 83.8464 3.4473 39.0946 0.0000 -5.1506 0.0000
# 2 3.4473 140.7375 39.4132 0.0000 7.0638 0.0000
# 3 39.0946 39.4132 148.8943 0.0000 -13.6907 0.0000
# 4 0.0000 0.0000 0.0000 49.9317 0.0000 6.7654
# 5 -5.1506 7.0638 -13.6907 0.0000 43.8793 0.0000
# 6 0.0000 0.0000 0.0000 6.7654 0.0000 24.9555
#
#
#
# Elastic Compliance Matrix: (Units=1/GPa)
#
#
# Indices 1 2 3 4 5 6 
#
# 1 0.013663 0.000697 -0.003742 0.000000 0.000324 0.000000
# 2 0.000697 0.007871 -0.002446 0.000000 -0.001948 0.000000
# 3 -0.003742 -0.002446 0.008588 0.000000 0.002634 0.000000
# 4 0.000000 0.000000 0.000000 0.020791 0.000000 -0.005636
# 5 0.000324 -0.001948 0.002634 0.000000 0.023963 0.000000
# 6 0.000000 0.000000 0.000000 -0.005636 0.000000 0.041599
#
#
# Mechanical properties :
#
#
# Convention : Reuss Voigt Hill
#
# Bulk Modulus (GPa) = 52.24511 59.70982 55.97747
# Shear Modulus (GPa) = 37.35883 43.18817 40.27350
#
# Velocity S-wave (km/s) = 3.90382 4.19735 4.05324
# Velocity P-wave (km/s) = 6.45230 6.91721 6.68880
#
# Compressibility (1/GPa) = 0.01914055
#
# Stress axis : x y z
#
# Youngs Moduli (GPa) = 73.19252 127.04788 116.43757
#
# Poissons Ratio (x) = -0.08856 0.43572
# Poissons Ratio (y) = -0.05102 0.28477
# Poissons Ratio (z) = 0.27389 0.31072
#
# Static dielectric constant tensor:
#      x y z
#    x 1.945180 0.000000 0.019620 
#    y 0.000000 1.987600 0.000000 
#    z 0.019620 0.000000 1.736170 
# 
# From -- ./inp_files/10280.got.cif
#   From: 2010.05.17/outbox.cif.g08.bks.cpg/sg11_6_cif.got.tgz:10280.got - 2010.06.03 12:22:45.
