data_PCOD9167238
_publ_section_title
;
Structure prediction by ZEFSAII (Michael W. Deem and Ramdas Pophale) SiO2 
 PCOD9167238
Probable space group: P 21/M
;
_chemical_formula_sum "Si O2"
_cell_formula_units_Z 24
_cell_length_a 12.567276
_cell_length_b 9.005327
_cell_length_c 21.970200
_cell_angle_alpha 90.000000
_cell_angle_beta 141.665211
_cell_angle_gamma 90.000000
_cell_volume 1542.216052
_symmetry_space_group_name_H-M "P 21/M"
_symmetry_group_IT_number 11
_symmetry_cell_setting 'monoclinic'
loop_
_space_group_symop_operation_xyz
x,y,z
-x,1/2+y,-z
-x,-y,-z
x,1/2-y,z
loop_
_atom_site_type_symbol
_atom_site_label
_atom_site_fract_x
_atom_site_fract_y
_atom_site_fract_z
Si Si1 0.901103 0.427268 0.653634
Si Si2 0.655280 0.428520 0.992509
Si Si3 0.029614 0.572332 0.948063
Si Si4 0.782022 0.073350 0.739634
Si Si5 0.723895 0.571205 0.153944
Si Si6 0.429337 0.072740 0.530333
O O1 0.884396 0.250000 0.637477
O O2 0.854637 0.456739 0.704054
O O3 0.761304 0.508661 0.549245
O O4 0.098799 0.473315 0.734488
O O5 0.664653 0.250000 0.003611
O O6 0.713651 0.501674 0.082086
O O7 0.786215 0.471425 0.998268
O O8 0.455146 0.468148 0.893751
O O9 0.024427 0.750000 0.950671
O O10 0.887043 0.516727 0.836321
O O11 0.000000 0.500000 0.000000
O O12 0.803276 0.250000 0.759864
O O13 0.578325 0.039239 0.646038
O O14 0.730111 0.750000 0.150202
O O15 0.423887 0.250000 0.520861
O O16 0.500000 0.000000 0.500000
#
# Coordination Sequence:
#
# PCOD9167238 Si02
#       6
#     4   4   4   4   4   4
#     4   9  16  26  43  67  93 122 147 175 222 274
#     4   9  18  30  44  66  90 117 154 188 223 269
#     4  11  22  33  47  66  89 121 158 193 226 264
#     4   9  17  30  44  62  89 120 151 184 225 265
#     4   9  16  28  46  66  93 122 146 180 227 273
#     4   9  17  27  41  62  90 121 149 181 221 268
#
# _framework density 15.562022000000001
#
# number of rings (size 3 to 8) (size 9 to 14) (size 15 to 20)
#    0.000    2.667    1.667    2.000    0.000    4.667 
#    0.000    0.000    0.000    0.000    0.000    1.167 
#    0.000    0.000    0.000    0.000    0.000    0.000 
#
# Total GULP energy -133639.684512 kJ/mol
# GULP energy per Si atom -5568.320188 kJ/mol
# Density = 1.552660 g / cm^3
# Si number density = 15.562022 Si / 1000 Ang^3
#
#
#
# Elastic Constant Matrix: (Units=GPa)
#
#
# Indices 1 2 3 4 5 6 
#
# 1 90.9424 33.7861 61.2585 0.0000 20.4209 0.0000
# 2 33.7861 30.6553 42.1446 0.0000 8.5734 0.0000
# 3 61.2585 42.1446 108.1481 0.0000 37.3766 0.0000
# 4 0.0000 0.0000 0.0000 29.6551 0.0000 1.8493
# 5 20.4209 8.5734 37.3766 0.0000 29.2346 0.0000
# 6 0.0000 0.0000 0.0000 1.8493 0.0000 15.1029
#
#
#
# Elastic Compliance Matrix: (Units=1/GPa)
#
#
# Indices 1 2 3 4 5 6 
#
# 1 0.020624 -0.016522 -0.003474 0.000000 -0.005119 0.000000
# 2 -0.016522 0.096352 -0.040155 0.000000 0.034623 0.000000
# 3 -0.003474 -0.040155 0.039334 0.000000 -0.036087 0.000000
# 4 0.000000 0.000000 0.000000 0.033981 0.000000 -0.004161
# 5 -0.005119 0.034623 -0.036087 0.000000 0.073765 0.000000
# 6 0.000000 0.000000 0.000000 -0.004161 0.000000 0.066722
#
#
# Mechanical properties :
#
#
# Convention : Reuss Voigt Hill
#
# Bulk Modulus (GPa) = 27.77211 56.01381 41.89296
# Shear Modulus (GPa) = 10.79719 20.96895 15.88307
#
# Velocity S-wave (km/s) = 2.63690 3.67474 3.19820
# Velocity P-wave (km/s) = 5.21112 7.35370 6.37310
#
# Compressibility (1/GPa) = 0.03600734
#
# Stress axis : x y z
#
# Youngs Moduli (GPa) = 48.48755 10.37859 25.42299
#
# Poissons Ratio (x) = 0.17148 0.08833
# Poissons Ratio (y) = 0.80112 1.02086
# Poissons Ratio (z) = 0.16846 0.41675
#
# Static dielectric constant tensor:
#      x y z
#    x 1.515660 0.000000 0.055810 
#    y 0.000000 1.517560 0.000000 
#    z 0.055810 0.000000 1.536910 
# 
# From -- ./inp_files/36993.got.cif
#   From: 2010.05.17/outbox.cif.g08.bks.cpg/sg11_19_cif.got.tgz:36993.got - 2010.06.03 12:22:45.
