data_PCOD9167890
_publ_section_title
;
Structure prediction by ZEFSAII (Michael W. Deem and Ramdas Pophale) SiO2 
 PCOD9167890
Probable space group: P 21/M
;
_chemical_formula_sum "Si O2"
_cell_formula_units_Z 28
_cell_length_a 9.000000
_cell_length_b 9.000000
_cell_length_c 27.000000
_cell_angle_alpha 90.000000
_cell_angle_beta 140.000000
_cell_angle_gamma 90.000000
_cell_volume 1405.776502
_symmetry_space_group_name_H-M "P 21/M"
_symmetry_group_IT_number 11
_symmetry_cell_setting 'monoclinic'
loop_
_space_group_symop_operation_xyz
x,y,z
-x,1/2+y,-z
-x,-y,-z
x,1/2-y,z
loop_
_atom_site_type_symbol
_atom_site_label
_atom_site_fract_x
_atom_site_fract_y
_atom_site_fract_z
Si Si1 0.403711 0.930401 0.736164
Si Si2 0.414775 0.419684 0.526839
Si Si3 0.305349 0.571596 0.917435
Si Si4 0.676484 0.578000 0.678789
Si Si5 0.834638 0.424878 0.817400
Si Si6 0.083957 0.582442 0.569544
Si Si7 0.193581 0.921845 0.780608
O O1 0.404305 0.750000 0.734206
O O2 0.286823 0.980393 0.654910
O O3 0.263514 0.989379 0.746873
O O4 0.653481 0.998554 0.807002
O O5 0.500000 0.500000 0.500000
O O6 0.501233 0.250000 0.553819
O O7 0.487698 0.514834 0.593368
O O8 0.139596 0.412637 0.452835
O O9 0.315109 0.750000 0.919726
O O10 0.295754 0.516591 0.857831
O O11 0.069134 0.514434 0.880356
O O12 0.500000 0.500000 0.000000
O O13 0.639753 0.750000 0.685904
O O14 0.731608 0.466562 0.737304
O O15 0.918957 0.580162 0.712322
O O16 0.861542 0.250000 0.830555
O O17 0.139760 0.750000 0.568965
O O18 0.000000 0.500000 0.500000
O O19 0.272084 0.750000 0.799747
#
# Coordination Sequence:
#
# PCOD9167890 Si02
#       7
#     4   4   4   4   4   4   4
#     4  10  19  36  57  77 104 144 187 229 274 324
#     4  11  22  35  51  76 106 140 183 234 285 336
#     4  10  20  38  63  90 115 144 178 219 269 326
#     4  10  19  35  56  78 104 141 186 232 279 331
#     4  11  22  36  55  83 113 143 179 221 265 323
#     4  10  22  36  52  74 105 144 188 233 281 330
#     4   8  17  34  58  82 107 140 182 226 273 324
#
# _framework density 19.917818
#
# number of rings (size 3 to 8) (size 9 to 14) (size 15 to 20)
#    0.000    2.000    0.000    5.143    0.000    6.286 
#    0.000    6.429    0.000    0.000    0.000    0.000 
#    0.000    0.000    0.000    0.000    0.000    0.000 
#
# Total GULP energy -155908.921281 kJ/mol
# GULP energy per Si atom -5568.175760 kJ/mol
# Density = 1.987248 g / cm^3
# Si number density = 19.917818 Si / 1000 Ang^3
#
#
#
# Elastic Constant Matrix: (Units=GPa)
#
#
# Indices 1 2 3 4 5 6 
#
# 1 97.4668 17.8517 43.9153 0.0000 16.6082 0.0000
# 2 17.8517 52.4414 33.2771 0.0000 -0.9125 0.0000
# 3 43.9153 33.2771 106.7183 0.0000 22.1850 0.0000
# 4 0.0000 0.0000 0.0000 25.6028 0.0000 1.2052
# 5 16.6082 -0.9125 22.1850 0.0000 -7.6479 0.0000
# 6 0.0000 0.0000 0.0000 1.2052 0.0000 13.1810
#
#
#
# Elastic Compliance Matrix: (Units=1/GPa)
#
#
# Indices 1 2 3 4 5 6 
#
# 1 0.011912 0.000157 -0.006441 0.000000 0.007167 0.000000
# 2 0.000157 0.021249 -0.003889 0.000000 -0.013476 0.000000
# 3 -0.006441 -0.003889 0.010009 0.000000 0.015511 0.000000
# 4 0.000000 0.000000 0.000000 0.039227 0.000000 -0.003587
# 5 0.007167 -0.013476 0.015511 0.000000 -0.068589 0.000000
# 6 0.000000 0.000000 0.000000 -0.003587 0.000000 0.076195
#
#
# Mechanical properties :
#
#
# Convention : Reuss Voigt Hill
#
# Bulk Modulus (GPa) = 43.81340 49.63497 46.72419
# Shear Modulus (GPa) = 42.38850 16.99933 29.69391
#
# Velocity S-wave (km/s) = 4.61821 2.92460 3.86530
# Velocity P-wave (km/s) = 7.10507 6.03145 6.59016
#
# Compressibility (1/GPa) = 0.02282407
#
# Stress axis : x y z
#
# Youngs Moduli (GPa) = 83.94962 47.06153 99.91175
#
# Poissons Ratio (x) = -0.00737 0.64348
# Poissons Ratio (y) = -0.01315 0.38854
# Poissons Ratio (z) = 0.54068 0.18301
#
# Static dielectric constant tensor:
#      x y z
#    x 1.783860 0.000000 -0.048000 
#    y 0.000000 1.288100 0.000000 
#    z -0.048000 0.000000 1.596380 
# 
# From -- ./inp_files/28568.got.cif
#   From: 2010.05.17/outbox.ucp.g08.bks.cvg/sg11_15_cif.got.tgz:28568.got - 2010.06.11 11:38:39.
