data_PCOD9167969
_publ_section_title
;
Structure prediction by ZEFSAII (Michael W. Deem and Ramdas Pophale) SiO2 
 PCOD9167969
Probable space group: P 21/M
;
_chemical_formula_sum "Si O2"
_cell_formula_units_Z 20
_cell_length_a 21.000000
_cell_length_b 9.000000
_cell_length_c 15.000000
_cell_angle_alpha 90.000000
_cell_angle_beta 160.000000
_cell_angle_gamma 90.000000
_cell_volume 969.627106
_symmetry_space_group_name_H-M "P 21/M"
_symmetry_group_IT_number 11
_symmetry_cell_setting 'monoclinic'
loop_
_space_group_symop_operation_xyz
x,y,z
-x,1/2+y,-z
-x,-y,-z
x,1/2-y,z
loop_
_atom_site_type_symbol
_atom_site_label
_atom_site_fract_x
_atom_site_fract_y
_atom_site_fract_z
Si Si1 0.567566 0.573762 0.908470
Si Si2 0.123347 0.571879 0.583248
Si Si3 0.799265 0.078012 0.845244
Si Si4 0.801229 0.572877 0.034798
Si Si5 0.757390 0.578449 0.605341
O O1 0.575614 0.750000 0.931904
O O2 0.361053 0.515797 0.620451
O O3 0.674444 0.493646 0.129870
O O4 0.673007 0.539874 0.952619
O O5 0.123639 0.750000 0.592545
O O6 0.000000 0.500000 0.500000
O O7 0.011402 0.535952 0.345431
O O8 0.740397 0.250000 0.761240
O O9 0.727294 0.987677 0.664949
O O10 0.023971 0.071319 0.130034
O O11 0.750582 0.010973 0.877544
O O12 0.791178 0.750000 0.005751
O O13 0.698373 0.750000 0.525532
#
# Coordination Sequence:
#
# PCOD9167969 Si02
#       5
#     4   4   4   4   4
#     4  10  20  34  54  80 106 135 173 213 255 303
#     4   9  17  31  51  76 106 138 171 208 254 304
#     4  10  21  36  55  77 101 134 174 212 256 309
#     4   9  19  34  53  78 106 135 169 210 254 302
#     4  10  21  37  55  75 102 136 172 212 259 308
#
# _framework density 20.626486
#
# number of rings (size 3 to 8) (size 9 to 14) (size 15 to 20)
#    0.000    2.400    0.000    3.600    0.000    8.000 
#    0.000    1.000    0.000    0.000    0.000    0.000 
#    0.000    0.000    0.000    0.000    0.000    0.000 
#
# Total GULP energy -111708.255365 kJ/mol
# GULP energy per Si atom -5585.412768 kJ/mol
# Density = 2.057954 g / cm^3
# Si number density = 20.626486 Si / 1000 Ang^3
#
#
#
# Elastic Constant Matrix: (Units=GPa)
#
#
# Indices 1 2 3 4 5 6 
#
# 1 12.2420 1.0663 -24.5882 0.0000 2.2853 0.0000
# 2 1.0663 59.8551 7.7597 0.0000 2.7481 0.0000
# 3 -24.5882 7.7597 64.0038 0.0000 -7.7740 0.0000
# 4 0.0000 0.0000 0.0000 33.0558 0.0000 -5.8989
# 5 2.2853 2.7481 -7.7740 0.0000 10.5922 0.0000
# 6 0.0000 0.0000 0.0000 -5.8989 0.0000 24.9277
#
#
#
# Elastic Compliance Matrix: (Units=1/GPa)
#
#
# Indices 1 2 3 4 5 6 
#
# 1 0.413025 -0.030997 0.167515 0.000000 0.041875 0.000000
# 2 -0.030997 0.019717 -0.015488 0.000000 -0.009795 0.000000
# 3 0.167515 -0.015488 0.085583 0.000000 0.030688 0.000000
# 4 0.000000 0.000000 0.000000 0.031586 0.000000 0.007474
# 5 0.041875 -0.009795 0.030688 0.000000 0.110439 0.000000
# 6 0.000000 0.000000 0.000000 0.007474 0.000000 0.041885
#
#
# Mechanical properties :
#
#
# Convention : Reuss Voigt Hill
#
# Bulk Modulus (GPa) = 1.31513 11.61960 6.46736
# Shear Modulus (GPa) = 7.00637 23.83933 15.42285
#
# Velocity S-wave (km/s) = 1.84504 3.40334 2.73741
# Velocity P-wave (km/s) = 2.27549 4.59230 3.62402
#
# Compressibility (1/GPa) = 0.76038313
#
# Stress axis : x y z
#
# Youngs Moduli (GPa) = 2.42116 50.71810 11.68458
#
# Poissons Ratio (x) = 1.57211 -1.95734
# Poissons Ratio (y) = 0.07505 0.18097
# Poissons Ratio (z) = -0.40558 0.78553
#
# Static dielectric constant tensor:
#      x y z
#    x 1.701930 0.000000 0.037540 
#    y 0.000000 1.691140 0.000000 
#    z 0.037540 0.000000 1.824400 
# 
# From -- ./inp_files/15911.got.cif
#   From: 2010.05.17/outbox.ucp.g08.bks.cvg/sg11_8_cif.got.tgz:15911.got - 2010.06.11 11:38:39.
