data_PCOD9167898
_publ_section_title
;
Structure prediction by ZEFSAII (Michael W. Deem and Ramdas Pophale) SiO2 
 PCOD9167898
Probable space group: P 21/M
;
_chemical_formula_sum "Si O2"
_cell_formula_units_Z 28
_cell_length_a 9.000000
_cell_length_b 9.000000
_cell_length_c 27.000000
_cell_angle_alpha 90.000000
_cell_angle_beta 140.000000
_cell_angle_gamma 90.000000
_cell_volume 1405.776502
_symmetry_space_group_name_H-M "P 21/M"
_symmetry_group_IT_number 11
_symmetry_cell_setting 'monoclinic'
loop_
_space_group_symop_operation_xyz
x,y,z
-x,1/2+y,-z
-x,-y,-z
x,1/2-y,z
loop_
_atom_site_type_symbol
_atom_site_label
_atom_site_fract_x
_atom_site_fract_y
_atom_site_fract_z
Si Si1 0.344217 0.082393 0.806340
Si Si2 0.893094 0.426742 0.520537
Si Si3 0.775823 0.914827 0.958575
Si Si4 0.948608 0.425363 0.343722
Si Si5 0.627704 0.572708 0.620612
Si Si6 0.740240 0.584006 0.063862
Si Si7 0.087208 0.581964 0.228625
O O1 0.397685 0.250000 0.803860
O O2 0.118504 0.087710 0.783455
O O3 0.552083 0.011045 0.889274
O O4 0.272516 0.975404 0.743693
O O5 0.894445 0.250000 0.516940
O O6 0.627195 0.477883 0.458949
O O7 0.000000 0.500000 0.500000
O O8 0.038537 0.481339 0.603758
O O9 0.753186 0.750000 0.930848
O O10 0.806231 0.900103 0.024515
O O11 0.000000 0.000000 0.000000
O O12 0.950090 0.250000 0.353199
O O13 0.178705 0.464757 0.370678
O O14 0.628004 0.750000 0.624935
O O15 0.707709 0.505418 0.693230
O O16 0.703279 0.750000 0.076303
O O17 0.951691 0.512575 0.147737
O O18 0.500000 0.500000 0.000000
O O19 0.162007 0.750000 0.235778
#
# Coordination Sequence:
#
# PCOD9167898 Si02
#       7
#     4   4   4   4   4   4   4
#     4  10  19  35  59  85 115 148 187 234 284 340
#     4  11  23  40  59  84 118 154 190 231 283 339
#     4  11  23  38  56  80 115 156 196 238 286 339
#     4  10  20  37  62  89 114 145 187 234 284 339
#     4   9  20  37  59  86 115 146 187 234 280 336
#     4  10  20  35  57  84 112 147 190 237 285 337
#     4   9  18  33  56  86 114 142 184 235 286 335
#
# _framework density 19.917818
#
# number of rings (size 3 to 8) (size 9 to 14) (size 15 to 20)
#    0.000    2.000    1.429    2.143    0.000    3.429 
#    2.571    0.000    0.000    0.000    0.000    0.000 
#    0.000    0.000    0.000    0.000    0.000    0.000 
#
# Total GULP energy -156016.612398 kJ/mol
# GULP energy per Si atom -5572.021871 kJ/mol
# Density = 1.987248 g / cm^3
# Si number density = 19.917818 Si / 1000 Ang^3
#
#
#
# Elastic Constant Matrix: (Units=GPa)
#
#
# Indices 1 2 3 4 5 6 
#
# 1 17.8982 30.9098 4.8811 0.0000 -22.2724 0.0000
# 2 30.9098 33.4849 -1.8770 0.0000 -6.6067 0.0000
# 3 4.8811 -1.8770 64.0294 0.0000 -37.3769 0.0000
# 4 0.0000 0.0000 0.0000 29.8505 0.0000 -4.4512
# 5 -22.2724 -6.6067 -37.3769 0.0000 4.7022 0.0000
# 6 0.0000 0.0000 0.0000 -4.4512 0.0000 14.6886
#
#
#
# Elastic Compliance Matrix: (Units=1/GPa)
#
#
# Indices 1 2 3 4 5 6 
#
# 1 -0.298387 0.321818 0.145300 0.000000 0.193781 0.000000
# 2 0.321818 -0.319986 -0.163035 0.000000 -0.221195 0.000000
# 3 0.145300 -0.163035 -0.073568 0.000000 -0.125620 0.000000
# 4 0.000000 0.000000 0.000000 0.035086 0.000000 0.010632
# 5 0.193781 -0.221195 -0.125620 0.000000 -0.178782 0.000000
# 6 0.000000 0.000000 0.000000 0.010632 0.000000 0.071302
#
#
# Mechanical properties :
#
#
# Convention : Reuss Voigt Hill
#
# Bulk Modulus (GPa) = -11.93679 20.36004 4.21163
# Shear Modulus (GPa) = -3.57034 15.28149 5.85558
#
# Velocity S-wave (km/s) = -1.34031 2.77289 1.71646
# Velocity P-wave (km/s) = 2.89849 4.52726 2.45915
#
# Compressibility (1/GPa) = -0.08377462
#
# Stress axis : x y z
#
# Youngs Moduli (GPa) = -3.35135 -3.12514 -13.59285
#
# Poissons Ratio (x) = 1.00573 1.97504
# Poissons Ratio (y) = 1.07853 -2.21610
# Poissons Ratio (z) = 0.48695 -0.50951
#
# Static dielectric constant tensor:
#      x y z
#    x 1.581660 0.000000 0.006710 
#    y 0.000000 1.715730 0.000000 
#    z 0.006710 0.000000 1.681390 
# 
# From -- ./inp_files/24157.got.cif
#   From: 2010.05.17/outbox.ucp.g08.bks.cvg/sg11_13_cif.got.tgz:24157.got - 2010.06.11 11:38:39.
