data_PCOD9167201
_publ_section_title
;
Structure prediction by ZEFSAII (Michael W. Deem and Ramdas Pophale) SiO2 
 PCOD9167201
Probable space group: P 21/M
;
_chemical_formula_sum "Si O2"
_cell_formula_units_Z 26
_cell_length_a 7.342977
_cell_length_b 17.002028
_cell_length_c 11.069074
_cell_angle_alpha 90.000000
_cell_angle_beta 52.073824
_cell_angle_gamma 90.000000
_cell_volume 1090.066363
_symmetry_space_group_name_H-M "P 21/M"
_symmetry_group_IT_number 11
_symmetry_cell_setting 'monoclinic'
loop_
_space_group_symop_operation_xyz
x,y,z
-x,1/2+y,-z
-x,-y,-z
x,1/2-y,z
loop_
_atom_site_type_symbol
_atom_site_label
_atom_site_fract_x
_atom_site_fract_y
_atom_site_fract_z
Si Si1 0.913672 0.628011 0.338759
Si Si2 0.749999 0.250000 0.750000
Si Si3 0.500951 0.458714 0.131514
Si Si4 0.000952 0.541286 0.631513
Si Si5 0.910782 0.337710 0.996333
Si Si6 0.589218 0.162290 0.503669
Si Si7 0.413672 0.128011 0.838760
O O1 0.641728 0.636076 0.472779
O O2 0.065701 0.679658 0.367461
O O3 0.975902 0.537216 0.297404
O O4 0.993447 0.667487 0.180419
O O5 0.565700 0.179658 0.867462
O O6 0.250000 0.421353 0.250000
O O7 0.524097 0.537216 0.202596
O O8 0.500000 0.500000 0.000000
O O9 0.706704 0.400236 0.078831
O O10 0.000000 0.500000 0.500000
O O11 0.206705 0.599764 0.578829
O O12 0.839170 0.250000 0.061967
O O13 0.141728 0.363924 0.972781
O O14 0.660830 0.250000 0.438034
O O15 0.493447 0.167487 0.680420
#
# Coordination Sequence:
#
# PCOD9167201 Si02
#       7
#     4   2   4   4   4   4   4
#     4  11  21  38  66  96 127 166 219 267 317 386
#     4  12  16  34  64  96 116 162 226 264 298 380
#     4  12  24  42  65  97 133 173 214 267 328 390
#     4  12  24  42  65  97 133 173 214 267 328 390
#     4  11  22  41  65  97 132 168 218 272 327 378
#     4  11  22  41  65  97 132 168 218 272 327 378
#     4  11  21  38  66  96 127 166 219 267 317 386
#
# _framework density 23.851756999999999
#
# number of rings (size 3 to 8) (size 9 to 14) (size 15 to 20)
#    0.000    0.615    7.692    1.846    0.000    0.615 
#    0.000    0.000    0.000    1.846    0.000    0.000 
#    0.000    0.000    0.000    0.000    0.000    0.000 
#
# Total GULP energy -144809.029116 kJ/mol
# GULP energy per Si atom -5569.578043 kJ/mol
# Density = 2.379747 g / cm^3
# Si number density = 23.851757 Si / 1000 Ang^3
#
#
#
# Elastic Constant Matrix: (Units=GPa)
#
#
# Indices 1 2 3 4 5 6 
#
# 1 108.0703 54.2804 46.8783 0.0000 -70.1825 0.0000
# 2 54.2804 185.9938 46.0423 0.0000 -71.3001 0.0000
# 3 46.8783 46.0423 82.2133 0.0000 -56.6548 0.0000
# 4 0.0000 0.0000 0.0000 39.4551 0.0000 -25.1598
# 5 -70.1825 -71.3001 -56.6548 0.0000 69.5245 0.0000
# 6 0.0000 0.0000 0.0000 -25.1598 0.0000 30.6967
#
#
#
# Elastic Compliance Matrix: (Units=1/GPa)
#
#
# Indices 1 2 3 4 5 6 
#
# 1 0.033151 0.006440 0.011639 0.000000 0.049554 0.000000
# 2 0.006440 0.010439 0.005335 0.000000 0.021555 0.000000
# 3 0.011639 0.005335 0.032857 0.000000 0.043996 0.000000
# 4 0.000000 0.000000 0.000000 0.053097 0.000000 0.043520
# 5 0.049554 0.021555 0.043996 0.000000 0.122363 0.000000
# 6 0.000000 0.000000 0.000000 0.043520 0.000000 0.068247
#
#
# Mechanical properties :
#
#
# Convention : Reuss Voigt Hill
#
# Bulk Modulus (GPa) = 8.11186 74.51993 41.31589
# Shear Modulus (GPa) = 15.90246 43.20702 29.55474
#
# Velocity S-wave (km/s) = 2.58490 4.26077 3.52391
# Velocity P-wave (km/s) = 3.50959 7.45093 5.82381
#
# Compressibility (1/GPa) = 0.12327632
#
# Stress axis : x y z
#
# Youngs Moduli (GPa) = 30.16523 95.79314 30.43465
#
# Poissons Ratio (x) = -0.61694 -0.35423
# Poissons Ratio (y) = -0.19428 -0.16237
# Poissons Ratio (z) = -0.35110 -0.51107
#
# Static dielectric constant tensor:
#      x y z
#    x 2.361700 0.000000 0.055990 
#    y 0.000000 1.567700 0.000000 
#    z 0.055990 0.000000 1.920660 
# 
# From -- ./inp_files/47754.got.cif
#   From: 2010.05.17/outbox.cif.g08.bks.cpg/sg11_24_cif.got.tgz:47754.got - 2010.06.03 12:22:45.
