data_PCOD9167270
_publ_section_title
;
Structure prediction by ZEFSAII (Michael W. Deem and Ramdas Pophale) SiO2 
 PCOD9167270
Probable space group: P 21/M
;
_chemical_formula_sum "Si O2"
_cell_formula_units_Z 32
_cell_length_a 29.251647
_cell_length_b 8.129600
_cell_length_c 16.374608
_cell_angle_alpha 90.000000
_cell_angle_beta 153.277163
_cell_angle_gamma 90.000000
_cell_volume 1751.012308
_symmetry_space_group_name_H-M "P 21/M"
_symmetry_group_IT_number 11
_symmetry_cell_setting 'monoclinic'
loop_
_space_group_symop_operation_xyz
x,y,z
-x,1/2+y,-z
-x,-y,-z
x,1/2-y,z
loop_
_atom_site_type_symbol
_atom_site_label
_atom_site_fract_x
_atom_site_fract_y
_atom_site_fract_z
Si Si1 0.772049 0.451217 0.794198
Si Si2 0.698063 0.447960 0.499996
Si Si3 0.522147 0.951217 0.794200
Si Si4 0.271281 0.051774 0.792837
Si Si5 0.021556 0.948226 0.792842
Si Si6 0.947619 0.445054 0.499996
Si Si7 0.447818 0.947848 0.499998
Si Si8 0.197363 0.051766 0.499992
O O1 0.773720 0.250000 0.797559
O O2 0.757824 0.502357 0.677121
O O3 0.669241 0.503071 0.676837
O O4 0.874936 0.509981 0.000990
O O5 0.696932 0.250000 0.499996
O O6 0.580701 0.502358 0.322870
O O7 0.750237 0.501366 0.500000
O O8 0.523838 0.750000 0.797561
O O9 0.507592 0.003070 0.676832
O O10 0.626054 0.009979 0.000993
O O11 0.277212 0.250000 0.800070
O O12 0.256375 0.993734 0.675606
O O13 0.168132 0.007727 0.675803
O O14 0.022860 0.750000 0.800079
O O15 0.919238 0.006267 0.675626
O O16 0.007660 0.992267 0.675789
O O17 0.945769 0.250000 0.500001
O O18 0.000000 0.500000 0.500000
O O19 0.446289 0.750000 0.499998
O O20 0.500000 0.000000 0.500000
O O21 0.195597 0.250000 0.499991
#
# Coordination Sequence:
#
# PCOD9167270 Si02
#       8
#     4   4   4   4   4   4   4   4
#     4   8  16  32  52  71  95 130 166 199 239 290
#     4   9  17  31  51  73  98 131 168 201 238 291
#     4   8  16  32  52  71  95 130 166 199 239 290
#     4   9  18  35  54  71  97 132 166 201 245 292
#     4   9  18  35  54  71  97 132 166 201 245 292
#     4  11  22  36  53  75 101 128 162 202 245 291
#     4   9  17  31  50  72  97 124 158 198 241 288
#     4   9  18  30  46  70  99 129 162 205 253 290
#
# _framework density 18.275144000000001
#
# number of rings (size 3 to 8) (size 9 to 14) (size 15 to 20)
#    0.000    3.000    0.000    3.375    0.000    4.000 
#    0.000    7.500    0.000    0.000    0.000    0.000 
#    0.000    0.000    0.000    0.000    0.000    0.000 
#
# Total GULP energy -178376.401684 kJ/mol
# GULP energy per Si atom -5574.262553 kJ/mol
# Density = 1.823355 g / cm^3
# Si number density = 18.275144 Si / 1000 Ang^3
#
#
#
# Elastic Constant Matrix: (Units=GPa)
#
#
# Indices 1 2 3 4 5 6 
#
# 1 200.3678 5.3356 117.7259 0.0000 -2.4902 0.0000
# 2 5.3356 6.0376 16.8685 0.0000 0.4130 0.0000
# 3 117.7259 16.8685 218.4493 0.0000 3.1613 0.0000
# 4 0.0000 0.0000 0.0000 11.0612 0.0000 -0.8071
# 5 -2.4902 0.4130 3.1613 0.0000 6.4671 0.0000
# 6 0.0000 0.0000 0.0000 -0.8071 0.0000 33.7015
#
#
#
# Elastic Compliance Matrix: (Units=1/GPa)
#
#
# Indices 1 2 3 4 5 6 
#
# 1 0.007612 0.005865 -0.004625 0.000000 0.004817 0.000000
# 2 0.005865 0.215910 -0.019806 0.000000 -0.001849 0.000000
# 3 -0.004625 -0.019806 0.008668 0.000000 -0.004753 0.000000
# 4 0.000000 0.000000 0.000000 0.090565 0.000000 0.002169
# 5 0.004817 -0.001849 -0.004753 0.000000 0.158925 0.000000
# 6 0.000000 0.000000 0.000000 0.002169 0.000000 0.029724
#
#
# Mechanical properties :
#
#
# Convention : Reuss Voigt Hill
#
# Bulk Modulus (GPa) = 5.12670 78.30163 41.71417
# Shear Modulus (GPa) = 8.14923 29.24093 18.69508
#
# Velocity S-wave (km/s) = 2.11397 4.00439 3.20187
# Velocity P-wave (km/s) = 2.96140 8.01992 6.04521
#
# Compressibility (1/GPa) = 0.19505719
#
# Stress axis : x y z
#
# Youngs Moduli (GPa) = 131.37610 4.63157 115.36379
#
# Poissons Ratio (x) = -0.02716 0.53352
# Poissons Ratio (y) = -0.77048 2.28492
# Poissons Ratio (z) = 0.60757 0.09173
#
# Static dielectric constant tensor:
#      x y z
#    x 1.680590 0.000000 -0.001490 
#    y 0.000000 1.643820 0.000000 
#    z -0.001490 0.000000 1.639520 
# 
# From -- ./inp_files/51677.got.cif
#   From: 2010.05.17/outbox.cif.g08.bks.cpg/sg11_26_cif.got.tgz:51677.got - 2010.06.03 12:22:45.
