data_PCOD9167576
_publ_section_title
;
Structure prediction by ZEFSAII (Michael W. Deem and Ramdas Pophale) SiO2 
 PCOD9167576
Probable space group: P 21/M
;
_chemical_formula_sum "Si O2"
_cell_formula_units_Z 16
_cell_length_a 4.942795
_cell_length_b 21.008122
_cell_length_c 7.599131
_cell_angle_alpha 90.000000
_cell_angle_beta 65.865629
_cell_angle_gamma 90.000000
_cell_volume 720.110294
_symmetry_space_group_name_H-M "P 21/M"
_symmetry_group_IT_number 11
_symmetry_cell_setting 'monoclinic'
loop_
_space_group_symop_operation_xyz
x,y,z
-x,1/2+y,-z
-x,-y,-z
x,1/2-y,z
loop_
_atom_site_type_symbol
_atom_site_label
_atom_site_fract_x
_atom_site_fract_y
_atom_site_fract_z
Si Si1 0.730048 0.099155 0.751438
Si Si2 0.925821 0.675570 0.633211
Si Si3 0.277416 0.874783 0.854279
Si Si4 0.261289 0.014439 0.715879
O O1 0.411200 0.069302 0.794009
O O2 0.847960 0.141658 0.560561
O O3 0.959070 0.040470 0.713989
O O4 0.734449 0.136103 0.934447
O O5 0.900097 0.750000 0.602308
O O6 0.606958 0.642578 0.701954
O O7 0.049430 0.664211 0.796364
O O8 0.220419 0.949409 0.832789
O O9 0.500000 0.000000 0.500000
#
# Coordination Sequence:
#
# PCOD9167576 Si02
#       4
#     4   4   4   4
#     4  12  24  43  67  99 130 171 210 268 329 387
#     4  12  26  44  64  91 129 175 223 265 312 379
#     4  12  25  43  68  98 130 169 215 269 329 386
#     4  12  21  41  71  98 135 166 205 270 337 389
#
# _framework density 22.218816
#
# number of rings (size 3 to 8) (size 9 to 14) (size 15 to 20)
#    0.000    0.000    5.000    6.000    0.000    2.000 
#    0.000    0.000    0.000    0.000    0.000    0.000 
#    0.000    0.000    0.000    0.000    0.000    0.000 
#
# Total GULP energy -89710.707216 kJ/mol
# GULP energy per Si atom -5606.919201 kJ/mol
# Density = 2.216825 g / cm^3
# Si number density = 22.218816 Si / 1000 Ang^3
#
#
#
# Elastic Constant Matrix: (Units=GPa)
#
#
# Indices 1 2 3 4 5 6 
#
# 1 86.4702 20.4833 0.4437 0.0000 4.0609 0.0000
# 2 20.4833 106.5385 17.9511 0.0000 2.0434 0.0000
# 3 0.4437 17.9511 76.0645 0.0000 14.2425 0.0000
# 4 0.0000 0.0000 0.0000 5.3697 0.0000 6.4406
# 5 4.0609 2.0434 14.2425 0.0000 37.3736 0.0000
# 6 0.0000 0.0000 0.0000 6.4406 0.0000 8.8692
#
#
#
# Elastic Compliance Matrix: (Units=1/GPa)
#
#
# Indices 1 2 3 4 5 6 
#
# 1 0.012212 -0.002452 0.000787 0.000000 -0.001493 0.000000
# 2 -0.002452 0.010272 -0.002536 0.000000 0.000671 0.000000
# 3 0.000787 -0.002536 0.014786 0.000000 -0.005581 0.000000
# 4 0.000000 0.000000 0.000000 1.443594 0.000000 -1.048301
# 5 -0.001493 0.000671 -0.005581 0.000000 0.029009 0.000000
# 6 0.000000 0.000000 0.000000 -1.048301 0.000000 0.874000
#
#
# Mechanical properties :
#
#
# Convention : Reuss Voigt Hill
#
# Bulk Modulus (GPa) = 34.64003 38.53658 36.58831
# Shear Modulus (GPa) = 2.08169 25.66883 13.87526
#
# Velocity S-wave (km/s) = 0.96899 3.40262 2.50168
# Velocity P-wave (km/s) = 4.10806 5.72878 4.98473
#
# Compressibility (1/GPa) = 0.02886834
#
# Stress axis : x y z
#
# Youngs Moduli (GPa) = 81.88985 97.35188 67.63327
#
# Poissons Ratio (x) = 0.23868 -0.05322
# Poissons Ratio (y) = 0.20077 0.17149
# Poissons Ratio (z) = -0.06444 0.24684
#
# Static dielectric constant tensor:
#      x y z
#    x 1.774250 0.000000 0.006990 
#    y 0.000000 1.782430 0.000000 
#    z 0.006990 0.000000 1.841870 
# 
# From -- ./inp_files/1842.got.cif
#   From: 2010.05.17/outbox.cif.g08.bks.cpg/sg11_1_cif.got.tgz:1842.got - 2010.06.03 12:22:45.
