data_PCOD9167723
_publ_section_title
;
Structure prediction by ZEFSAII (Michael W. Deem and Ramdas Pophale) SiO2 
 PCOD9167723
Probable space group: P 21/M
;
_chemical_formula_sum "Si O2"
_cell_formula_units_Z 32
_cell_length_a 24.000000
_cell_length_b 9.000000
_cell_length_c 12.000000
_cell_angle_alpha 90.000000
_cell_angle_beta 50.000000
_cell_angle_gamma 90.000000
_cell_volume 1985.587197
_symmetry_space_group_name_H-M "P 21/M"
_symmetry_group_IT_number 11
_symmetry_cell_setting 'monoclinic'
loop_
_space_group_symop_operation_xyz
x,y,z
-x,1/2+y,-z
-x,-y,-z
x,1/2-y,z
loop_
_atom_site_type_symbol
_atom_site_label
_atom_site_fract_x
_atom_site_fract_y
_atom_site_fract_z
Si Si1 0.159288 0.570282 0.411293
Si Si2 0.003500 0.069500 0.371463
Si Si3 0.314368 0.925580 0.283567
Si Si4 0.423751 0.575131 0.560360
Si Si5 0.400297 0.924828 0.940981
Si Si6 0.156473 0.930562 0.150129
Si Si7 0.443481 0.574419 0.271117
Si Si8 0.306007 0.070949 0.867974
O O1 0.162150 0.750000 0.409693
O O2 0.232133 0.513261 0.378927
O O3 0.165097 0.531983 0.271695
O O4 0.079184 0.531873 0.563100
O O5 0.010370 0.250000 0.366036
O O6 0.076395 0.998459 0.223277
O O7 0.000000 0.000000 0.500000
O O8 0.306533 0.750000 0.320732
O O9 0.353759 0.936090 0.113573
O O10 0.373592 0.985818 0.294081
O O11 0.500000 0.500000 0.500000
O O12 0.423377 0.750000 0.593052
O O13 0.425457 0.566375 0.424751
O O14 0.352889 0.494927 0.704042
O O15 0.402445 0.750000 0.906643
O O16 0.481916 0.987093 0.849200
O O17 0.357430 0.020077 0.904414
O O18 0.156158 0.750000 0.139926
O O19 0.225821 0.999390 0.994902
O O20 0.454580 0.750000 0.227788
O O21 0.300520 0.250000 0.868570
#
# Coordination Sequence:
#
# PCOD9167723 Si02
#       8
#     4   4   4   4   4   4   4   4
#     4   8  14  26  46  70  99 132 162 191 237 294
#     4   9  16  26  43  69 100 135 168 198 237 292
#     4   9  17  31  50  74 101 133 166 202 245 295
#     4  11  22  36  53  73  97 129 168 211 255 295
#     4  11  20  32  52  72 100 134 165 202 251 299
#     4  10  18  31  49  71 100 131 163 202 250 301
#     4  10  21  35  52  72  97 128 171 212 246 294
#     4  12  23  34  51  74  99 130 170 211 251 298
#
# _framework density 16.116139
#
# number of rings (size 3 to 8) (size 9 to 14) (size 15 to 20)
#    0.000    2.000    2.500    3.750    0.000    0.500 
#    0.000    0.625    0.000    0.000    0.000    0.875 
#    0.000    0.000    0.000    0.000    0.000    0.000 
#
# Total GULP energy -178273.911871 kJ/mol
# GULP energy per Si atom -5571.059746 kJ/mol
# Density = 1.607946 g / cm^3
# Si number density = 16.116139 Si / 1000 Ang^3
#
#
#
# Elastic Constant Matrix: (Units=GPa)
#
#
# Indices 1 2 3 4 5 6 
#
# 1 96.3757 25.0111 40.0785 0.0000 -38.7838 0.0000
# 2 25.0111 89.7908 34.3092 0.0000 -20.0796 0.0000
# 3 40.0785 34.3092 71.6670 0.0000 -45.0513 0.0000
# 4 0.0000 0.0000 0.0000 27.5550 0.0000 -9.9128
# 5 -38.7838 -20.0796 -45.0513 0.0000 39.9100 0.0000
# 6 0.0000 0.0000 0.0000 -9.9128 0.0000 19.0454
#
#
#
# Elastic Compliance Matrix: (Units=1/GPa)
#
#
# Indices 1 2 3 4 5 6 
#
# 1 0.017469 -0.001807 0.004118 0.000000 0.020715 0.000000
# 2 -0.001807 0.013853 -0.008071 0.000000 -0.003897 0.000000
# 3 0.004118 -0.008071 0.053297 0.000000 0.060103 0.000000
# 4 0.000000 0.000000 0.000000 0.044652 0.000000 0.023240
# 5 0.020715 -0.003897 0.060103 0.000000 0.111072 0.000000
# 6 0.000000 0.000000 0.000000 0.023240 0.000000 0.064602
#
#
# Mechanical properties :
#
#
# Convention : Reuss Voigt Hill
#
# Bulk Modulus (GPa) = 13.68032 50.73678 32.20855
# Shear Modulus (GPa) = 14.67007 27.86440 21.26724
#
# Velocity S-wave (km/s) = 3.02034 4.16261 3.63660
# Velocity P-wave (km/s) = 4.54646 7.39279 6.13692
#
# Compressibility (1/GPa) = 0.07309769
#
# Stress axis : x y z
#
# Youngs Moduli (GPa) = 57.24518 72.18772 18.76292
#
# Poissons Ratio (x) = 0.13043 -0.07726
# Poissons Ratio (y) = 0.10343 0.15144
# Poissons Ratio (z) = -0.23572 0.58263
#
# Static dielectric constant tensor:
#      x y z
#    x 1.575020 0.000000 -0.009260 
#    y 0.000000 1.545790 0.000000 
#    z -0.009260 0.000000 1.537220 
# 
# From -- ./inp_files/43756.got.cif
#   From: 2010.05.17/outbox.ucp.g08.bks.cvg/sg11_22_cif.got.tgz:43756.got - 2010.06.11 11:38:39.
