data_PCOD9167803
_publ_section_title
;
Structure prediction by ZEFSAII (Michael W. Deem and Ramdas Pophale) SiO2 
 PCOD9167803
Probable space group: P 21/M
;
_chemical_formula_sum "Si O2"
_cell_formula_units_Z 32
_cell_length_a 21.000000
_cell_length_b 9.000000
_cell_length_c 30.000000
_cell_angle_alpha 90.000000
_cell_angle_beta 20.000000
_cell_angle_gamma 90.000000
_cell_volume 1939.254213
_symmetry_space_group_name_H-M "P 21/M"
_symmetry_group_IT_number 11
_symmetry_cell_setting 'monoclinic'
loop_
_space_group_symop_operation_xyz
x,y,z
-x,1/2+y,-z
-x,-y,-z
x,1/2-y,z
loop_
_atom_site_type_symbol
_atom_site_label
_atom_site_fract_x
_atom_site_fract_y
_atom_site_fract_z
Si Si1 0.308443 0.929314 0.734449
Si Si2 0.373292 0.926428 0.019112
Si Si3 0.244372 0.927121 0.206633
Si Si4 0.179248 0.429679 0.520490
Si Si5 0.934173 0.069751 0.939562
Si Si6 0.409664 0.929813 0.770142
Si Si7 0.939864 0.571019 0.837503
Si Si8 0.271707 0.071326 0.563284
O O1 0.283598 0.750000 0.747516
O O2 0.340551 0.966886 0.765550
O O3 0.506937 0.964832 0.579814
O O4 0.125778 0.010586 0.835999
O O5 0.374642 0.750000 0.008477
O O6 0.584824 0.989789 0.881133
O O7 0.288839 0.945340 0.124598
O O8 0.234432 0.010891 0.077047
O O9 0.255062 0.750000 0.209171
O O10 0.029889 0.979080 0.356018
O O11 0.175645 0.250000 0.518975
O O12 0.372602 0.481101 0.369397
O O13 0.208805 0.461633 0.553670
O O14 0.938808 0.250000 0.934244
O O15 0.925004 0.998774 0.896524
O O16 0.749641 0.024987 0.089735
O O17 0.417656 0.750000 0.766926
O O18 0.939453 0.750000 0.839265
O O19 0.131278 0.512671 0.688530
O O20 0.252555 0.250000 0.582249
#
# Coordination Sequence:
#
# PCOD9167803 Si02
#       8
#     4   4   4   4   4   4   4   4
#     4   9  18  34  57  80 103 129 165 213 261 306
#     4  10  19  32  50  75 107 138 167 202 248 302
#     4   9  16  28  51  80 107 134 163 199 248 303
#     4   8  13  27  52  79 105 130 163 205 253 302
#     4  11  22  35  52  74 102 137 176 211 253 303
#     4   8  16  31  54  80 102 131 169 212 255 300
#     4  12  24  36  51  71 102 139 176 213 252 301
#     4   9  17  33  54  76 102 134 167 205 256 308
#
# _framework density 16.501189
#
# number of rings (size 3 to 8) (size 9 to 14) (size 15 to 20)
#    0.000    2.500    1.250    3.750    0.000    1.500 
#    0.000    0.625    0.000    3.750    0.000    0.000 
#    0.000    0.000    0.000    0.000    0.000    0.000 
#
# Total GULP energy -178336.665884 kJ/mol
# GULP energy per Si atom -5573.020809 kJ/mol
# Density = 1.646363 g / cm^3
# Si number density = 16.501189 Si / 1000 Ang^3
#
#
#
# Elastic Constant Matrix: (Units=GPa)
#
#
# Indices 1 2 3 4 5 6 
#
# 1 70.6259 36.9733 74.3780 0.0000 -1.6849 0.0000
# 2 36.9733 68.2104 56.6438 0.0000 -2.6269 0.0000
# 3 74.3780 56.6438 194.3725 0.0000 -12.7032 0.0000
# 4 0.0000 0.0000 0.0000 27.2150 0.0000 -9.2818
# 5 -1.6849 -2.6269 -12.7032 0.0000 27.9264 0.0000
# 6 0.0000 0.0000 0.0000 -9.2818 0.0000 22.0751
#
#
#
# Elastic Compliance Matrix: (Units=1/GPa)
#
#
# Indices 1 2 3 4 5 6 
#
# 1 0.026784 -0.007866 -0.008141 0.000000 -0.002827 0.000000
# 2 -0.007866 0.021667 -0.003300 0.000000 0.000062 0.000000
# 3 -0.008141 -0.003300 0.009450 0.000000 0.003497 0.000000
# 4 0.000000 0.000000 0.000000 0.042896 0.000000 0.018036
# 5 -0.002827 0.000062 0.003497 0.000000 0.037235 0.000000
# 6 0.000000 0.000000 0.000000 0.018036 0.000000 0.052883
#
#
# Mechanical properties :
#
#
# Convention : Reuss Voigt Hill
#
# Bulk Modulus (GPa) = 51.85105 74.35544 63.10325
# Shear Modulus (GPa) = 21.19014 26.45752 23.82383
#
# Velocity S-wave (km/s) = 3.58740 4.00856 3.80381
# Velocity P-wave (km/s) = 6.97496 8.15985 7.59056
#
# Compressibility (1/GPa) = 0.01928601
#
# Stress axis : x y z
#
# Youngs Moduli (GPa) = 37.33641 46.15259 105.81555
#
# Poissons Ratio (x) = 0.36304 0.86148
# Poissons Ratio (y) = 0.29369 0.34921
# Poissons Ratio (z) = 0.30397 0.15231
#
# Static dielectric constant tensor:
#      x y z
#    x 1.541690 0.000000 -0.005550 
#    y 0.000000 1.549580 0.000000 
#    z -0.005550 0.000000 1.575470 
# 
# From -- ./inp_files/73615.got.cif
#   From: 2010.05.17/outbox.ucp.g08.bks.cvg/sg11_37_cif.got.tgz:73615.got - 2010.06.11 11:38:39.
