data_PCOD9167430
_publ_section_title
;
Structure prediction by ZEFSAII (Michael W. Deem and Ramdas Pophale) SiO2 
 PCOD9167430
Probable space group: P 21/M
;
_chemical_formula_sum "Si O2"
_cell_formula_units_Z 24
_cell_length_a 9.405910
_cell_length_b 9.045462
_cell_length_c 14.963938
_cell_angle_alpha 90.000000
_cell_angle_beta 99.375422
_cell_angle_gamma 90.000000
_cell_volume 1256.137351
_symmetry_space_group_name_H-M "P 21/M"
_symmetry_group_IT_number 11
_symmetry_cell_setting 'monoclinic'
loop_
_space_group_symop_operation_xyz
x,y,z
-x,1/2+y,-z
-x,-y,-z
x,1/2-y,z
loop_
_atom_site_type_symbol
_atom_site_label
_atom_site_fract_x
_atom_site_fract_y
_atom_site_fract_z
Si Si1 0.664119 0.426633 0.259348
Si Si2 0.912239 0.582862 0.566834
Si Si3 0.570519 0.572590 0.919302
Si Si4 0.117528 0.924669 0.075818
Si Si5 0.969450 0.923598 0.253172
Si Si6 0.604008 0.581924 0.442532
O O1 0.679747 0.250000 0.269812
O O2 0.536913 0.455669 0.175038
O O3 0.814424 0.496194 0.240409
O O4 0.626699 0.497346 0.351510
O O5 0.966198 0.750000 0.585131
O O6 0.752971 0.588588 0.511803
O O7 0.000000 0.500000 0.500000
O O8 0.932849 0.494696 0.659941
O O9 0.583000 0.750000 0.932086
O O10 0.727768 0.502925 0.918293
O O11 0.500000 0.500000 0.000000
O O12 0.132289 0.750000 0.056694
O O13 0.051801 0.939046 0.168250
O O14 0.000000 0.000000 0.000000
O O15 0.945755 0.750000 0.269069
O O16 0.500000 0.500000 0.500000
O O17 0.555855 0.750000 0.418983
#
# Coordination Sequence:
#
# PCOD9167430 Si02
#       6
#     4   4   4   4   4   4
#     4  11  24  42  65  94 127 168 213 261 318 377
#     4  11  23  40  64  93 126 168 215 261 313 374
#     4  11  25  44  68  97 130 168 211 261 319 382
#     4  11  25  44  68  98 130 167 211 262 318 378
#     4  11  24  41  64  95 128 167 213 262 317 376
#     4  11  25  42  63  92 128 169 214 263 316 376
#
# _framework density 19.106189000000001
#
# number of rings (size 3 to 8) (size 9 to 14) (size 15 to 20)
#    0.000    1.000    1.667    4.000    2.333   10.000 
#    0.000    0.000    0.000    0.000    0.000    0.000 
#    0.000    0.000    0.000    0.000    0.000    0.000 
#
# Total GULP energy -134206.691289 kJ/mol
# GULP energy per Si atom -5591.945470 kJ/mol
# Density = 1.906270 g / cm^3
# Si number density = 19.106189 Si / 1000 Ang^3
#
#
#
# Elastic Constant Matrix: (Units=GPa)
#
#
# Indices 1 2 3 4 5 6 
#
# 1 135.2960 89.0285 68.5669 0.0000 -6.1952 0.0000
# 2 89.0285 173.0479 101.4433 0.0000 -3.5041 0.0000
# 3 68.5669 101.4433 141.5651 0.0000 12.4410 0.0000
# 4 0.0000 0.0000 0.0000 33.2900 0.0000 -0.3572
# 5 -6.1952 -3.5041 12.4410 0.0000 28.7914 0.0000
# 6 0.0000 0.0000 0.0000 -0.3572 0.0000 38.1283
#
#
#
# Elastic Compliance Matrix: (Units=1/GPa)
#
#
# Indices 1 2 3 4 5 6 
#
# 1 0.011877 -0.004312 -0.002953 0.000000 0.003307 0.000000
# 2 -0.004312 0.012116 -0.006903 0.000000 0.003530 0.000000
# 3 -0.002953 -0.006903 0.014107 0.000000 -0.007571 0.000000
# 4 0.000000 0.000000 0.000000 0.030042 0.000000 0.000281
# 5 0.003307 0.003530 -0.007571 0.000000 0.039145 0.000000
# 6 0.000000 0.000000 0.000000 0.000281 0.000000 0.026230
#
#
# Mechanical properties :
#
#
# Convention : Reuss Voigt Hill
#
# Bulk Modulus (GPa) = 102.44385 107.55407 104.99896
# Shear Modulus (GPa) = 30.28330 32.76662 31.52496
#
# Velocity S-wave (km/s) = 3.98552 4.14572 4.06641
# Velocity P-wave (km/s) = 8.65527 8.90679 8.78193
#
# Compressibility (1/GPa) = 0.00976144
#
# Stress axis : x y z
#
# Youngs Moduli (GPa) = 84.19822 82.53789 70.88923
#
# Poissons Ratio (x) = 0.35592 0.20934
# Poissons Ratio (y) = 0.36308 0.48938
# Poissons Ratio (z) = 0.24864 0.56980
#
# Static dielectric constant tensor:
#      x y z
#    x 1.587350 0.000000 0.039840 
#    y 0.000000 1.663150 0.000000 
#    z 0.039840 0.000000 1.595350 
# 
# From -- ./inp_files/20594.got.cif
#   From: 2010.05.17/outbox.cif.g08.bks.cpg/sg11_11_cif.got.tgz:20594.got - 2010.06.03 12:22:45.
