data_PCOD9167378
_publ_section_title
;
Structure prediction by ZEFSAII (Michael W. Deem and Ramdas Pophale) SiO2 
 PCOD9167378
Probable space group: P 21/M
;
_chemical_formula_sum "Si O2"
_cell_formula_units_Z 32
_cell_length_a 13.818315
_cell_length_b 7.545477
_cell_length_c 14.471421
_cell_angle_alpha 90.000000
_cell_angle_beta 118.702351
_cell_angle_gamma 90.000000
_cell_volume 1323.473281
_symmetry_space_group_name_H-M "P 21/M"
_symmetry_group_IT_number 11
_symmetry_cell_setting 'monoclinic'
loop_
_space_group_symop_operation_xyz
x,y,z
-x,1/2+y,-z
-x,-y,-z
x,1/2-y,z
loop_
_atom_site_type_symbol
_atom_site_label
_atom_site_fract_x
_atom_site_fract_y
_atom_site_fract_z
Si Si1 0.838200 0.957539 0.080100
Si Si2 0.258469 0.450474 0.350281
Si Si3 0.254883 0.545469 0.138861
Si Si4 0.506179 0.467613 0.802876
Si Si5 0.326818 0.032013 0.568403
Si Si6 0.342053 0.455881 0.874032
Si Si7 0.848117 0.543397 0.372682
Si Si8 0.020061 0.533244 0.308080
O O1 0.833748 0.750000 0.101362
O O2 0.723118 0.035008 0.068721
O O3 0.941359 0.023615 0.186288
O O4 0.839754 0.970863 0.970797
O O5 0.294248 0.250000 0.349299
O O6 0.246210 0.534017 0.244562
O O7 0.334751 0.528964 0.466305
O O8 0.138863 0.455732 0.343204
O O9 0.256481 0.750000 0.115369
O O10 0.372023 0.466045 0.161766
O O11 0.505960 0.250000 0.804707
O O12 0.427258 0.517152 0.680990
O O13 0.449761 0.530801 0.872391
O O14 0.322584 0.250000 0.565301
O O15 0.214431 0.966633 0.567419
O O16 0.367360 0.250000 0.904610
O O17 0.247011 0.461515 0.750562
O O18 0.869349 0.750000 0.401211
O O19 0.957752 0.473223 0.373219
O O20 0.027475 0.750000 0.312580
#
# Coordination Sequence:
#
# PCOD9167378 Si02
#       8
#     4   4   4   4   4   4   4   4
#     4   9  18  34  56  79 103 132 164 202 251 304
#     4  11  23  36  51  73 101 135 175 215 251 290
#     4  11  23  36  51  73 101 135 175 215 251 290
#     4   8  15  30  52  77 104 133 165 202 247 301
#     4   8  15  30  52  77 104 133 165 202 247 301
#     4   7  11  24  49  78 103 127 158 196 243 303
#     4   7  11  24  49  78 103 127 158 196 243 303
#     4   9  18  34  56  79 103 132 164 202 251 304
#
# _framework density 24.178804
#
# number of rings (size 3 to 8) (size 9 to 14) (size 15 to 20)
#    0.000    3.250    0.000    3.750    0.000    2.500 
#    0.000    0.000    0.000    3.750    0.000    7.000 
#    0.000    0.000    0.000    0.000    0.000    0.000 
#
# Total GULP energy -178554.565709 kJ/mol
# GULP energy per Si atom -5579.830178 kJ/mol
# Density = 2.412377 g / cm^3
# Si number density = 24.178804 Si / 1000 Ang^3
#
#
#
# Elastic Constant Matrix: (Units=GPa)
#
#
# Indices 1 2 3 4 5 6 
#
# 1 22.3432 -5.0034 9.1135 0.0000 2.5213 0.0000
# 2 -5.0034 61.2707 1.0696 0.0000 -3.0042 0.0000
# 3 9.1135 1.0696 132.8019 0.0000 -25.9944 0.0000
# 4 0.0000 0.0000 0.0000 -8.3839 0.0000 14.2176
# 5 2.5213 -3.0042 -25.9944 0.0000 26.1694 0.0000
# 6 0.0000 0.0000 0.0000 14.2176 0.0000 -8.5586
#
#
#
# Elastic Compliance Matrix: (Units=1/GPa)
#
#
# Indices 1 2 3 4 5 6 
#
# 1 0.048768 0.003609 -0.005232 0.000000 -0.009481 0.000000
# 2 0.003609 0.016690 -0.000093 0.000000 0.001476 0.000000
# 3 -0.005232 -0.000093 0.009914 0.000000 0.010341 0.000000
# 4 0.000000 0.000000 0.000000 0.065641 0.000000 0.109043
# 5 -0.009481 0.001476 0.010341 0.000000 0.049567 0.000000
# 6 0.000000 0.000000 0.000000 0.109043 0.000000 0.064301
#
#
# Mechanical properties :
#
#
# Convention : Reuss Voigt Hill
#
# Bulk Modulus (GPa) = 13.90048 25.19726 19.54887
# Shear Modulus (GPa) = 17.71212 15.92778 16.81995
#
# Velocity S-wave (km/s) = 2.70950 2.56940 2.64038
# Velocity P-wave (km/s) = 3.94335 4.38705 4.17111
#
# Compressibility (1/GPa) = 0.07193998
#
# Stress axis : x y z
#
# Youngs Moduli (GPa) = 20.50519 59.91725 100.86868
#
# Poissons Ratio (x) = -0.21623 0.52769
# Poissons Ratio (y) = -0.07400 0.00941
# Poissons Ratio (z) = 0.10727 0.00559
#
# Static dielectric constant tensor:
#      x y z
#    x 1.939090 0.000000 0.006560 
#    y 0.000000 1.879590 0.000000 
#    z 0.006560 0.000000 1.966620 
# 
# From -- ./inp_files/51761.got.cif
#   From: 2010.05.17/outbox.cif.g08.bks.cpg/sg11_26_cif.got.tgz:51761.got - 2010.06.03 12:22:45.
