data_PCOD9167076
_publ_section_title
;
Structure prediction by ZEFSAII (Michael W. Deem and Ramdas Pophale) SiO2 
 PCOD9167076
Probable space group: P 21/M
;
_chemical_formula_sum "Si O2"
_cell_formula_units_Z 32
_cell_length_a 7.019533
_cell_length_b 25.103033
_cell_length_c 8.442524
_cell_angle_alpha 90.000000
_cell_angle_beta 59.254450
_cell_angle_gamma 90.000000
_cell_volume 1278.572550
_symmetry_space_group_name_H-M "P 21/M"
_symmetry_group_IT_number 11
_symmetry_cell_setting 'monoclinic'
loop_
_space_group_symop_operation_xyz
x,y,z
-x,1/2+y,-z
-x,-y,-z
x,1/2-y,z
loop_
_atom_site_type_symbol
_atom_site_label
_atom_site_fract_x
_atom_site_fract_y
_atom_site_fract_z
Si Si1 0.691024 0.070125 0.686030
Si Si2 0.805031 0.480226 0.298344
Si Si3 0.293392 0.460291 0.180614
Si Si4 0.810638 0.378496 0.139287
Si Si5 0.060168 0.193510 0.241498
Si Si6 0.817970 0.588281 0.423100
Si Si7 0.298508 0.131438 0.923272
Si Si8 0.400195 0.188536 0.374365
O O1 0.746721 0.045553 0.491934
O O2 0.523562 0.119023 0.740357
O O3 0.914629 0.089957 0.678587
O O4 0.598949 0.017939 0.822411
O O5 0.728624 0.438762 0.196707
O O6 0.738234 0.541622 0.336371
O O7 0.070211 0.479497 0.184357
O O8 0.238868 0.435954 0.377694
O O9 0.342726 0.407944 0.055621
O O10 0.612659 0.337416 0.191999
O O11 0.897818 0.355014 0.272134
O O12 0.052344 0.379478 0.951126
O O13 0.944376 0.250000 0.276084
O O14 0.189459 0.190356 0.347773
O O15 0.246976 0.187774 0.024909
O O16 0.685699 0.643627 0.466497
O O17 0.439988 0.250000 0.407603
#
# Coordination Sequence:
#
# PCOD9167076 Si02
#       8
#     4   4   4   4   4   4   4   4
#     4   9  15  25  51  77 105 136 159 196 259 311
#     4   8  15  28  48  73 106 134 158 207 254 303
#     4   8  13  26  46  76 102 130 170 202 238 295
#     4   9  19  33  53  77  99 126 176 212 250 299
#     4   9  18  32  50  74  98 126 172 218 250 287
#     4   9  16  29  47  76 105 131 169 204 252 307
#     4   9  16  28  48  76 101 129 167 205 248 298
#     4  11  20  33  56  75  94 132 178 219 247 287
#
# _framework density 25.027909000000001
#
# number of rings (size 3 to 8) (size 9 to 14) (size 15 to 20)
#    0.750    2.250    1.250    3.000    0.000    0.500 
#    0.000    0.625    2.750    4.500    0.000    0.000 
#    0.000    0.000    0.000    0.000    0.000    0.000 
#
# Total GULP energy -178201.105757 kJ/mol
# GULP energy per Si atom -5568.784555 kJ/mol
# Density = 2.497094 g / cm^3
# Si number density = 25.027909 Si / 1000 Ang^3
#
#
#
# Elastic Constant Matrix: (Units=GPa)
#
#
# Indices 1 2 3 4 5 6 
#
# 1 84.9092 35.0798 13.0666 0.0000 -17.3152 0.0000
# 2 35.0798 160.5192 19.4953 0.0000 -18.5646 0.0000
# 3 13.0666 19.4953 14.0801 0.0000 -13.3671 0.0000
# 4 0.0000 0.0000 0.0000 15.8139 0.0000 -8.7798
# 5 -17.3152 -18.5646 -13.3671 0.0000 25.1290 0.0000
# 6 0.0000 0.0000 0.0000 -8.7798 0.0000 33.9295
#
#
#
# Elastic Compliance Matrix: (Units=1/GPa)
#
#
# Indices 1 2 3 4 5 6 
#
# 1 0.014558 -0.001850 -0.005501 0.000000 0.005739 0.000000
# 2 -0.001850 0.007724 -0.009638 0.000000 -0.000695 0.000000
# 3 -0.005501 -0.009638 0.159826 0.000000 0.074106 0.000000
# 4 0.000000 0.000000 0.000000 0.073844 0.000000 0.019108
# 5 0.005739 -0.000695 0.074106 0.000000 0.082655 0.000000
# 6 0.000000 0.000000 0.000000 0.019108 0.000000 0.034417
#
#
# Mechanical properties :
#
#
# Convention : Reuss Voigt Hill
#
# Bulk Modulus (GPa) = 6.75083 43.86577 25.30830
# Shear Modulus (GPa) = 10.95578 27.76561 19.36070
#
# Velocity S-wave (km/s) = 2.09450 3.33436 2.78432
# Velocity P-wave (km/s) = 2.92445 5.69111 4.52444
#
# Compressibility (1/GPa) = 0.14812996
#
# Stress axis : x y z
#
# Youngs Moduli (GPa) = 68.68921 129.46296 6.25682
#
# Poissons Ratio (x) = 0.23948 0.03442
# Poissons Ratio (y) = 0.12706 0.06030
# Poissons Ratio (z) = 0.37787 1.24779
#
# Static dielectric constant tensor:
#      x y z
#    x 2.021780 0.000000 -0.011110 
#    y 0.000000 2.010710 0.000000 
#    z -0.011110 0.000000 2.182180 
# 
# From -- ./inp_files/33090.got.cif
#   From: 2010.05.17/outbox.cif.g08.bks.cpg/sg11_17_cif.got.tgz:33090.got - 2010.06.03 12:22:45.
