data_PCOD9167758
_publ_section_title
;
Structure prediction by ZEFSAII (Michael W. Deem and Ramdas Pophale) SiO2 
 PCOD9167758
Probable space group: P 21/M
;
_chemical_formula_sum "Si O2"
_cell_formula_units_Z 32
_cell_length_a 30.000000
_cell_length_b 9.000000
_cell_length_c 15.000000
_cell_angle_alpha 90.000000
_cell_angle_beta 150.000000
_cell_angle_gamma 90.000000
_cell_volume 2025.000000
_symmetry_space_group_name_H-M "P 21/M"
_symmetry_group_IT_number 11
_symmetry_cell_setting 'monoclinic'
loop_
_space_group_symop_operation_xyz
x,y,z
-x,1/2+y,-z
-x,-y,-z
x,1/2-y,z
loop_
_atom_site_type_symbol
_atom_site_label
_atom_site_fract_x
_atom_site_fract_y
_atom_site_fract_z
Si Si1 0.089290 0.571740 0.960198
Si Si2 0.757869 0.080815 0.292433
Si Si3 0.887527 0.928038 0.658649
Si Si4 0.800591 0.071241 0.678834
Si Si5 0.588946 0.574174 0.046528
Si Si6 0.887012 0.080325 0.352952
Si Si7 0.079786 0.425009 0.760590
Si Si8 0.609258 0.072437 0.274661
O O1 0.088928 0.750000 0.955095
O O2 0.111553 0.506282 0.903272
O O3 0.988392 0.524392 0.810377
O O4 0.158811 0.525991 0.156388
O O5 0.751318 0.250000 0.314726
O O6 0.808940 0.080539 0.288217
O O7 0.817717 0.989056 0.465464
O O8 0.661322 0.010646 0.114481
O O9 0.884312 0.750000 0.654761
O O10 0.857679 0.994364 0.700837
O O11 0.809801 0.250000 0.686566
O O12 0.696911 0.035246 0.482525
O O13 0.602722 0.750000 0.066700
O O14 0.607793 0.516380 0.179537
O O15 0.486204 0.541383 0.846167
O O16 0.903045 0.250000 0.349217
O O17 0.977061 0.031775 0.560194
O O18 0.869235 0.975894 0.239082
O O19 0.082316 0.250000 0.778183
O O20 0.611242 0.250000 0.258772
#
# Coordination Sequence:
#
# PCOD9167758 Si02
#       8
#     4   4   4   4   4   4   4   4
#     4  10  21  34  48  68  97 131 166 199 234 280
#     4  11  20  32  49  70  97 130 160 191 238 293
#     4  11  21  31  45  69  98 129 165 203 233 268
#     4  10  20  34  50  67  93 133 169 197 235 281
#     4  10  19  30  47  71  96 122 158 201 243 284
#     4   9  19  33  49  69  94 124 158 195 238 288
#     4  10  19  32  50  71  94 124 159 197 239 281
#     4   9  18  32  48  67  94 127 161 198 240 285
#
# _framework density 15.802469
#
# number of rings (size 3 to 8) (size 9 to 14) (size 15 to 20)
#    0.000    2.000    2.500    1.875    0.000    3.000 
#    0.000    0.000    0.000    0.000    0.000    0.875 
#    0.000    0.000    0.000    0.000    0.000    0.000 
#
# Total GULP energy -178430.733555 kJ/mol
# GULP energy per Si atom -5575.960424 kJ/mol
# Density = 1.576650 g / cm^3
# Si number density = 15.802469 Si / 1000 Ang^3
#
#
#
# Elastic Constant Matrix: (Units=GPa)
#
#
# Indices 1 2 3 4 5 6 
#
# 1 52.1860 16.4560 23.1931 0.0000 -14.8508 0.0000
# 2 16.4560 12.9791 18.4800 0.0000 -4.6168 0.0000
# 3 23.1931 18.4800 45.5055 0.0000 -17.4314 0.0000
# 4 0.0000 0.0000 0.0000 16.3317 0.0000 0.8761
# 5 -14.8508 -4.6168 -17.4314 0.0000 12.7941 0.0000
# 6 0.0000 0.0000 0.0000 0.8761 0.0000 17.5979
#
#
#
# Elastic Compliance Matrix: (Units=1/GPa)
#
#
# Indices 1 2 3 4 5 6 
#
# 1 0.068151 -0.143480 0.071120 0.000000 0.124228 0.000000
# 2 -0.143480 0.525125 -0.274706 0.000000 -0.351325 0.000000
# 3 0.071120 -0.274706 0.190205 0.000000 0.242569 0.000000
# 4 0.000000 0.000000 0.000000 0.061395 0.000000 -0.003057
# 5 0.124228 -0.351325 0.242569 0.000000 0.426071 0.000000
# 6 0.000000 0.000000 0.000000 -0.003057 0.000000 0.056977
#
#
# Mechanical properties :
#
#
# Convention : Reuss Voigt Hill
#
# Bulk Modulus (GPa) = 11.19202 25.21430 18.20316
# Shear Modulus (GPa) = 2.43684 12.84752 7.64218
#
# Velocity S-wave (km/s) = 1.24315 2.85442 2.20149
# Velocity P-wave (km/s) = 3.02628 5.18210 4.24338
#
# Compressibility (1/GPa) = 0.08934941
#
# Stress axis : x y z
#
# Youngs Moduli (GPa) = 14.67340 1.90431 5.25748
#
# Poissons Ratio (x) = 0.27323 -0.37391
# Poissons Ratio (y) = 2.10534 1.44426
# Poissons Ratio (z) = -1.04357 0.52312
#
# Static dielectric constant tensor:
#      x y z
#    x 1.531540 0.000000 0.021830 
#    y 0.000000 1.533970 0.000000 
#    z 0.021830 0.000000 1.515000 
# 
# From -- ./inp_files/51401.got.cif
#   From: 2010.05.17/outbox.ucp.g08.bks.cvg/sg11_26_cif.got.tgz:51401.got - 2010.06.11 11:38:39.
