data_PCOD9167330
_publ_section_title
;
Structure prediction by ZEFSAII (Michael W. Deem and Ramdas Pophale) SiO2 
 PCOD9167330
Probable space group: P 21/M
;
_chemical_formula_sum "Si O2"
_cell_formula_units_Z 18
_cell_length_a 12.048046
_cell_length_b 9.943589
_cell_length_c 13.684823
_cell_angle_alpha 90.000000
_cell_angle_beta 155.118344
_cell_angle_gamma 90.000000
_cell_volume 689.792285
_symmetry_space_group_name_H-M "P 21/M"
_symmetry_group_IT_number 11
_symmetry_cell_setting 'monoclinic'
loop_
_space_group_symop_operation_xyz
x,y,z
-x,1/2+y,-z
-x,-y,-z
x,1/2-y,z
loop_
_atom_site_type_symbol
_atom_site_label
_atom_site_fract_x
_atom_site_fract_y
_atom_site_fract_z
Si Si1 0.452728 0.250000 0.220178
Si Si2 0.392522 0.250000 0.739049
Si Si3 0.867880 0.250000 0.821896
Si Si4 0.230927 0.964944 0.402928
Si Si5 0.534657 0.250000 0.053339
Si Si6 0.972292 0.037984 0.366712
Si Si7 0.002677 0.750000 0.847614
O O1 0.145369 0.250000 0.989281
O O2 0.556741 0.384329 0.359562
O O3 0.520769 0.250000 0.159150
O O4 0.241193 0.125482 0.569248
O O5 0.313003 0.250000 0.791660
O O6 0.704824 0.250000 0.969031
O O7 0.919173 0.250000 0.976578
O O8 0.739165 0.383265 0.674554
O O9 0.981011 0.942586 0.279767
O O10 0.163167 0.117002 0.312998
O O11 0.707279 0.122663 0.157453
O O12 0.000000 0.000000 0.500000
#
# Coordination Sequence:
#
# PCOD9167330 Si02
#       7
#     2   2   2   4   2   4   2
#     4  11  26  43  73 109 143 193 232 295 380 422
#     4  11  26  40  70 108 139 192 237 293 367 420
#     4  11  29  49  73 104 140 193 250 307 357 420
#     4  11  25  49  69 105 147 179 250 299 352 439
#     4  11  22  40  64 105 141 183 229 287 355 439
#     4  11  23  41  66 103 144 183 229 292 358 433
#     4  12  25  52  74 102 145 191 252 302 353 427
#
# _framework density 26.094811
#
# number of rings (size 3 to 8) (size 9 to 14) (size 15 to 20)
#    0.000    0.889    4.444    1.333    6.222    1.778 
#    8.000    0.000    0.000    0.000    0.000    0.000 
#    0.000    0.000    0.000    0.000    0.000    0.000 
#
# Total GULP energy -100354.326941 kJ/mol
# GULP energy per Si atom -5575.240386 kJ/mol
# Density = 2.603542 g / cm^3
# Si number density = 26.094811 Si / 1000 Ang^3
#
#
#
# Elastic Constant Matrix: (Units=GPa)
#
#
# Indices 1 2 3 4 5 6 
#
# 1 139.6953 28.4962 60.1531 0.0000 -54.2412 0.0000
# 2 28.4962 136.7792 61.6196 0.0000 -8.4233 0.0000
# 3 60.1531 61.6196 113.8021 0.0000 -37.6493 0.0000
# 4 0.0000 0.0000 0.0000 25.5317 0.0000 10.4956
# 5 -54.2412 -8.4233 -37.6493 0.0000 81.1919 0.0000
# 6 0.0000 0.0000 0.0000 10.4956 0.0000 20.2852
#
#
#
# Elastic Compliance Matrix: (Units=1/GPa)
#
#
# Indices 1 2 3 4 5 6 
#
# 1 0.011024 -0.000207 -0.003881 0.000000 0.005544 0.000000
# 2 -0.000207 0.009872 -0.005839 0.000000 -0.001822 0.000000
# 3 -0.003881 -0.005839 0.015287 0.000000 0.003890 0.000000
# 4 0.000000 0.000000 0.000000 0.049748 0.000000 -0.025740
# 5 0.005544 -0.001822 0.003890 0.000000 0.017635 0.000000
# 6 0.000000 0.000000 0.000000 -0.025740 0.000000 0.062615
#
#
# Mechanical properties :
#
#
# Convention : Reuss Voigt Hill
#
# Bulk Modulus (GPa) = 61.23591 76.75716 68.99653
# Shear Modulus (GPa) = 26.11245 41.40225 33.75735
#
# Velocity S-wave (km/s) = 3.16678 3.98755 3.60063
# Velocity P-wave (km/s) = 6.07363 7.11894 6.61696
#
# Compressibility (1/GPa) = 0.01633029
#
# Stress axis : x y z
#
# Youngs Moduli (GPa) = 90.70741 101.29276 65.41447
#
# Poissons Ratio (x) = 0.02096 0.25388
# Poissons Ratio (y) = 0.01877 0.38194
# Poissons Ratio (z) = 0.35205 0.59142
#
# Static dielectric constant tensor:
#      x y z
#    x 2.045460 0.000000 -0.011160 
#    y 0.000000 2.463390 0.000000 
#    z -0.011160 0.000000 2.053850 
# 
# From -- ./inp_files/3921.got.cif
#   From: 2010.05.17/outbox.cif.g08.bks.cpg/sg11_2_cif.got.tgz:3921.got - 2010.06.03 12:22:45.
