data_PCOD9167515
_publ_section_title
;
Structure prediction by ZEFSAII (Michael W. Deem and Ramdas Pophale) SiO2 
 PCOD9167515
Probable space group: P 21/M
;
_chemical_formula_sum "Si O2"
_cell_formula_units_Z 32
_cell_length_a 8.060880
_cell_length_b 19.386714
_cell_length_c 10.511799
_cell_angle_alpha 90.000000
_cell_angle_beta 61.294070
_cell_angle_gamma 90.000000
_cell_volume 1440.824432
_symmetry_space_group_name_H-M "P 21/M"
_symmetry_group_IT_number 11
_symmetry_cell_setting 'monoclinic'
loop_
_space_group_symop_operation_xyz
x,y,z
-x,1/2+y,-z
-x,-y,-z
x,1/2-y,z
loop_
_atom_site_type_symbol
_atom_site_label
_atom_site_fract_x
_atom_site_fract_y
_atom_site_fract_z
Si Si1 0.254699 0.826127 0.787391
Si Si2 0.410756 0.000282 0.312410
Si Si3 0.319126 0.936639 0.576214
Si Si4 0.873967 0.824498 0.092310
Si Si5 0.114082 0.825593 0.254478
Si Si6 0.064957 0.517260 0.288255
Si Si7 0.295998 0.054025 0.989234
Si Si8 0.509020 0.329320 0.056441
O O1 0.316240 0.750000 0.729810
O O2 0.232035 0.869541 0.670039
O O3 0.403710 0.850299 0.839681
O O4 0.056463 0.823719 0.933415
O O5 0.517396 0.044477 0.381612
O O6 0.389986 0.930874 0.406309
O O7 0.203649 0.020781 0.338154
O O8 0.535895 0.987377 0.141193
O O9 0.149975 0.992366 0.636581
O O10 0.771203 0.750000 0.108613
O O11 0.784031 0.898016 0.094426
O O12 0.953662 0.823369 0.204643
O O13 0.106320 0.750000 0.324725
O O14 0.085376 0.902376 0.318478
O O15 0.315666 0.828281 0.106998
O O16 0.155852 0.497296 0.116180
O O17 0.365315 0.113741 0.059914
O O18 0.438675 0.250000 0.091458
#
# Coordination Sequence:
#
# PCOD9167515 Si02
#       8
#     4   4   4   4   4   4   4   4
#     4   9  18  37  61  85 117 160 203 240 292 364
#     4  11  26  40  59  89 125 155 203 249 302 362
#     4  11  24  44  61  84 124 168 197 247 302 355
#     4   9  18  32  54  87 121 150 189 243 300 352
#     4   9  19  35  54  84 120 152 187 244 310 357
#     4  12  23  39  66  89 118 157 203 252 303 357
#     4  12  21  34  59  97 119 147 204 261 292 356
#     4   9  18  33  56  87 126 155 183 249 311 343
#
# _framework density 22.209506000000001
#
# number of rings (size 3 to 8) (size 9 to 14) (size 15 to 20)
#    0.000    1.750    2.500    4.125    3.500    1.000 
#    0.000    1.875    0.000    3.000    0.000    0.000 
#    0.000    0.000    0.000    0.000    0.000    0.000 
#
# Total GULP energy -178370.697388 kJ/mol
# GULP energy per Si atom -5574.084293 kJ/mol
# Density = 2.215896 g / cm^3
# Si number density = 22.209506 Si / 1000 Ang^3
#
#
#
# Elastic Constant Matrix: (Units=GPa)
#
#
# Indices 1 2 3 4 5 6 
#
# 1 73.6240 24.7397 4.3489 0.0000 -7.1441 0.0000
# 2 24.7397 86.6759 9.9767 0.0000 -0.0552 0.0000
# 3 4.3489 9.9767 68.1987 0.0000 3.1459 0.0000
# 4 0.0000 0.0000 0.0000 -69.7889 0.0000 -10.5951
# 5 -7.1441 -0.0552 3.1459 0.0000 15.4011 0.0000
# 6 0.0000 0.0000 0.0000 -10.5951 0.0000 27.1034
#
#
#
# Elastic Compliance Matrix: (Units=1/GPa)
#
#
# Indices 1 2 3 4 5 6 
#
# 1 0.015840 -0.004435 -0.000706 0.000000 0.007476 0.000000
# 2 -0.004435 0.012979 -0.001538 0.000000 -0.001697 0.000000
# 3 -0.000706 -0.001538 0.015091 0.000000 -0.003416 0.000000
# 4 0.000000 0.000000 0.000000 -0.013526 0.000000 -0.005288
# 5 0.007476 -0.001697 -0.003416 0.000000 0.069090 0.000000
# 6 0.000000 0.000000 0.000000 -0.005288 0.000000 0.034829
#
#
# Mechanical properties :
#
#
# Convention : Reuss Voigt Hill
#
# Bulk Modulus (GPa) = 32.73122 34.06990 33.40056
# Shear Modulus (GPa) = 31.67685 7.17199 19.42442
#
# Velocity S-wave (km/s) = 3.78070 1.79896 2.96057
# Velocity P-wave (km/s) = 5.81616 4.43718 5.17283
#
# Compressibility (1/GPa) = 0.03055187
#
# Stress axis : x y z
#
# Youngs Moduli (GPa) = 63.13129 77.04731 66.26658
#
# Poissons Ratio (x) = 0.34172 0.04679
# Poissons Ratio (y) = 0.28000 0.10189
# Poissons Ratio (z) = 0.04458 0.11847
#
# Static dielectric constant tensor:
#      x y z
#    x 1.903130 0.000000 -0.004410 
#    y 0.000000 1.934350 0.000000 
#    z -0.004410 0.000000 1.820910 
# 
# From -- ./inp_files/32646.got.cif
#   From: 2010.05.17/outbox.cif.g08.bks.cpg/sg11_17_cif.got.tgz:32646.got - 2010.06.03 12:22:45.
