data_PCOD9167870
_publ_section_title
;
Structure prediction by ZEFSAII (Michael W. Deem and Ramdas Pophale) SiO2 
 PCOD9167870
Probable space group: P 21/M
;
_chemical_formula_sum "Si O2"
_cell_formula_units_Z 32
_cell_length_a 27.000000
_cell_length_b 9.000000
_cell_length_c 21.000000
_cell_angle_alpha 90.000000
_cell_angle_beta 160.000000
_cell_angle_gamma 90.000000
_cell_volume 1745.328791
_symmetry_space_group_name_H-M "P 21/M"
_symmetry_group_IT_number 11
_symmetry_cell_setting 'monoclinic'
loop_
_space_group_symop_operation_xyz
x,y,z
-x,1/2+y,-z
-x,-y,-z
x,1/2-y,z
loop_
_atom_site_type_symbol
_atom_site_label
_atom_site_fract_x
_atom_site_fract_y
_atom_site_fract_z
Si Si1 0.171756 0.428450 0.878577
Si Si2 0.639651 0.071230 0.785739
Si Si3 0.694250 0.571073 0.612561
Si Si4 0.162516 0.429926 0.342986
Si Si5 0.850071 0.570865 0.295344
Si Si6 0.159430 0.571169 0.090524
Si Si7 0.345036 0.428459 0.822360
Si Si8 0.867355 0.929953 0.550312
O O1 0.169888 0.250000 0.880456
O O2 0.184914 0.470534 0.819812
O O3 0.021277 0.495696 0.722419
O O4 0.295236 0.494224 0.073189
O O5 0.653108 0.250000 0.809542
O O6 0.471931 0.033977 0.574007
O O7 0.730273 0.028268 0.832596
O O8 0.710570 0.750000 0.634777
O O9 0.733666 0.520424 0.588637
O O10 0.796004 0.500703 0.789044
O O11 0.169219 0.250000 0.352232
O O12 0.188165 0.477172 0.446751
O O13 0.000436 0.471589 0.125867
O O14 0.864410 0.750000 0.314976
O O15 0.728677 0.526677 0.200006
O O16 0.000000 0.500000 0.500000
O O17 0.163165 0.750000 0.101473
O O18 0.357934 0.250000 0.837928
O O19 0.240436 0.469187 0.637155
O O20 0.500000 0.500000 0.000000
O O21 0.885577 0.750000 0.572538
#
# Coordination Sequence:
#
# PCOD9167870 Si02
#       8
#     4   4   4   4   4   4   4   4
#     4  11  22  35  57  87 114 141 183 238 281 321
#     4  10  21  37  56  79 109 147 187 224 273 334
#     4  10  21  35  53  80 111 142 182 232 274 324
#     4   9  18  34  56  80 108 141 184 229 268 323
#     4  10  21  37  58  86 115 147 188 233 280 330
#     4  10  19  34  56  78 106 147 184 225 277 328
#     4  10  22  38  59  86 117 152 187 229 280 333
#     4  10  19  37  61  80 108 151 189 224 273 333
#
# _framework density 18.334654
#
# number of rings (size 3 to 8) (size 9 to 14) (size 15 to 20)
#    0.000    2.000    2.500    1.125    0.000    3.500 
#    0.000    1.875    0.000    0.000    0.000    0.000 
#    0.000    0.000    0.000    0.000    0.000    0.000 
#
# Total GULP energy -178619.210192 kJ/mol
# GULP energy per Si atom -5581.850319 kJ/mol
# Density = 1.829292 g / cm^3
# Si number density = 18.334654 Si / 1000 Ang^3
#
#
#
# Elastic Constant Matrix: (Units=GPa)
#
#
# Indices 1 2 3 4 5 6 
#
# 1 94.3160 4.0385 -0.5798 0.0000 -4.5972 0.0000
# 2 4.0385 2.1974 2.2652 0.0000 -2.7413 0.0000
# 3 -0.5798 2.2652 21.1714 0.0000 -1.6594 0.0000
# 4 0.0000 0.0000 0.0000 28.8352 0.0000 -7.4060
# 5 -4.5972 -2.7413 -1.6594 0.0000 39.0499 0.0000
# 6 0.0000 0.0000 0.0000 -7.4060 0.0000 21.5001
#
#
#
# Elastic Compliance Matrix: (Units=1/GPa)
#
#
# Indices 1 2 3 4 5 6 
#
# 1 0.011671 -0.024795 0.002954 0.000000 -0.000241 0.000000
# 2 -0.024795 0.612548 -0.063288 0.000000 0.037393 0.000000
# 3 0.002954 -0.063288 0.053944 0.000000 -0.001803 0.000000
# 4 0.000000 0.000000 0.000000 0.038046 0.000000 0.013105
# 5 -0.000241 0.037393 -0.001803 0.000000 0.028128 0.000000
# 6 0.000000 0.000000 0.000000 0.013105 0.000000 0.051026
#
#
# Mechanical properties :
#
#
# Convention : Reuss Voigt Hill
#
# Bulk Modulus (GPa) = 1.96887 14.34809 8.15848
# Shear Modulus (GPa) = 4.40559 25.34110 14.87334
#
# Velocity S-wave (km/s) = 1.55180 3.72175 2.85127
# Velocity P-wave (km/s) = 2.07050 5.12945 3.91141
#
# Compressibility (1/GPa) = 0.50790560
#
# Stress axis : x y z
#
# Youngs Moduli (GPa) = 85.68431 1.63252 18.53759
#
# Poissons Ratio (x) = 0.04048 -0.05475
# Poissons Ratio (y) = 2.12454 1.17320
# Poissons Ratio (z) = -0.25308 0.10332
#
# Static dielectric constant tensor:
#      x y z
#    x 1.638900 0.000000 0.005560 
#    y 0.000000 1.612240 0.000000 
#    z 0.005560 0.000000 1.600800 
# 
# From -- ./inp_files/67293.got.cif
#   From: 2010.05.17/outbox.ucp.g08.bks.cvg/sg11_34_cif.got.tgz:67293.got - 2010.06.11 11:38:39.
