data_PCOD9167554
_publ_section_title
;
Structure prediction by ZEFSAII (Michael W. Deem and Ramdas Pophale) SiO2 
 PCOD9167554
Probable space group: P 21/M
;
_chemical_formula_sum "Si O2"
_cell_formula_units_Z 30
_cell_length_a 11.750521
_cell_length_b 18.862583
_cell_length_c 12.533283
_cell_angle_alpha 90.000000
_cell_angle_beta 32.463024
_cell_angle_gamma 90.000000
_cell_volume 1491.074704
_symmetry_space_group_name_H-M "P 21/M"
_symmetry_group_IT_number 11
_symmetry_cell_setting 'monoclinic'
loop_
_space_group_symop_operation_xyz
x,y,z
-x,1/2+y,-z
-x,-y,-z
x,1/2-y,z
loop_
_atom_site_type_symbol
_atom_site_label
_atom_site_fract_x
_atom_site_fract_y
_atom_site_fract_z
Si Si1 0.623194 0.668069 0.242657
Si Si2 0.990495 0.438114 0.094858
Si Si3 0.083640 0.250000 0.442958
Si Si4 0.916394 0.993269 0.383914
Si Si5 0.386955 0.670614 0.645763
Si Si6 0.383854 0.133311 0.320925
Si Si7 0.628654 0.429344 0.927109
Si Si8 0.243628 0.634122 0.383025
O O1 0.693297 0.750000 0.171413
O O2 0.562175 0.658245 0.415160
O O3 0.408517 0.656391 0.344345
O O4 0.798126 0.610317 0.071630
O O5 0.948810 0.474032 0.241603
O O6 0.796443 0.386483 0.221316
O O7 0.000000 0.500000 0.000000
O O8 0.942732 0.188869 0.491752
O O9 0.216812 0.187919 0.402847
O O10 0.732558 0.935530 0.539055
O O11 0.131569 0.953916 0.245007
O O12 0.856955 0.058501 0.507220
O O13 0.302203 0.750000 0.694051
O O14 0.486668 0.666211 0.683828
O O15 0.535293 0.107251 0.105698
O O16 0.625287 0.375710 0.830332
O O17 0.500000 0.500000 0.000000
#
# Coordination Sequence:
#
# PCOD9167554 Si02
#       8
#     4   4   2   4   4   4   4   4
#     4  11  25  48  72 105 143 192 235 299 367 431
#     4  12  26  43  72 111 139 191 244 298 359 428
#     4  12  26  48  70 106 146 190 240 290 364 438
#     4  12  25  45  73 103 146 183 239 305 352 424
#     4  11  25  48  72 102 146 188 235 300 361 428
#     4  12  26  48  74 106 143 191 242 291 364 427
#     4  12  24  43  70 103 142 188 236 291 353 427
#     4  12  24  47  72 104 146 186 240 296 362 428
#
# _framework density 20.119714999999999
#
# number of rings (size 3 to 8) (size 9 to 14) (size 15 to 20)
#    0.000    0.267    5.333    4.000    1.867    1.600 
#    3.600    0.000    0.000    0.000    0.000    0.000 
#    0.000    0.000    0.000    0.000    0.000    0.000 
#
# Total GULP energy -167342.125705 kJ/mol
# GULP energy per Si atom -5578.070857 kJ/mol
# Density = 2.007392 g / cm^3
# Si number density = 20.119715 Si / 1000 Ang^3
#
#
#
# Elastic Constant Matrix: (Units=GPa)
#
#
# Indices 1 2 3 4 5 6 
#
# 1 93.7249 14.9093 28.7977 0.0000 18.4988 0.0000
# 2 14.9093 123.9094 37.5437 0.0000 9.2595 0.0000
# 3 28.7977 37.5437 81.2472 0.0000 29.1524 0.0000
# 4 0.0000 0.0000 0.0000 30.1146 0.0000 3.1015
# 5 18.4988 9.2595 29.1524 0.0000 31.8114 0.0000
# 6 0.0000 0.0000 0.0000 3.1015 0.0000 45.7951
#
#
#
# Elastic Compliance Matrix: (Units=1/GPa)
#
#
# Indices 1 2 3 4 5 6 
#
# 1 0.012454 -0.000378 -0.002504 0.000000 -0.004838 0.000000
# 2 -0.000378 0.009470 -0.004964 0.000000 0.002013 0.000000
# 3 -0.002504 -0.004964 0.021527 0.000000 -0.016827 0.000000
# 4 0.000000 0.000000 0.000000 0.033440 0.000000 -0.002265
# 5 -0.004838 0.002013 -0.016827 0.000000 0.049083 0.000000
# 6 0.000000 0.000000 0.000000 -0.002265 0.000000 0.021990
#
#
# Mechanical properties :
#
#
# Convention : Reuss Voigt Hill
#
# Bulk Modulus (GPa) = 36.02476 51.26476 43.64476
# Shear Modulus (GPa) = 28.91723 36.05293 32.48508
#
# Velocity S-wave (km/s) = 3.79523 4.23770 4.02255
# Velocity P-wave (km/s) = 6.09501 7.03415 6.58135
#
# Compressibility (1/GPa) = 0.02775869
#
# Stress axis : x y z
#
# Youngs Moduli (GPa) = 80.29696 105.60159 46.45345
#
# Poissons Ratio (x) = 0.03996 0.11630
# Poissons Ratio (y) = 0.03039 0.23059
# Poissons Ratio (z) = 0.20103 0.52419
#
# Static dielectric constant tensor:
#      x y z
#    x 1.685170 0.000000 -0.009010 
#    y 0.000000 1.702740 0.000000 
#    z -0.009010 0.000000 1.672340 
# 
# From -- ./inp_files/36451.got.cif
#   From: 2010.05.17/outbox.cif.g08.bks.cpg/sg11_19_cif.got.tgz:36451.got - 2010.06.03 12:22:45.
