data_PCOD9167143
_publ_section_title
;
Structure prediction by ZEFSAII (Michael W. Deem and Ramdas Pophale) SiO2 
 PCOD9167143
Probable space group: P 21/M
;
_chemical_formula_sum "Si O2"
_cell_formula_units_Z 20
_cell_length_a 25.411181
_cell_length_b 8.595538
_cell_length_c 15.814483
_cell_angle_alpha 90.000000
_cell_angle_beta 162.894777
_cell_angle_gamma 90.000000
_cell_volume 1015.987757
_symmetry_space_group_name_H-M "P 21/M"
_symmetry_group_IT_number 11
_symmetry_cell_setting 'monoclinic'
loop_
_space_group_symop_operation_xyz
x,y,z
-x,1/2+y,-z
-x,-y,-z
x,1/2-y,z
loop_
_atom_site_type_symbol
_atom_site_label
_atom_site_fract_x
_atom_site_fract_y
_atom_site_fract_z
Si Si1 0.849433 0.066020 0.836990
Si Si2 0.498041 0.074716 0.772581
Si Si3 0.107871 0.064059 0.585617
Si Si4 0.981236 0.570795 0.213221
Si Si5 0.331086 0.425089 0.697557
O O1 0.875408 0.250000 0.873963
O O2 0.643518 0.021896 0.499819
O O3 0.000000 0.000000 0.000000
O O4 0.874367 0.008422 0.972212
O O5 0.529745 0.250000 0.787163
O O6 0.383185 0.090190 0.681212
O O7 0.688508 0.999940 0.090836
O O8 0.112625 0.250000 0.593263
O O9 0.007391 0.006391 0.345781
O O10 0.000000 0.000000 0.500000
O O11 0.929029 0.750000 0.142898
O O12 0.178607 0.549484 0.478346
O O13 0.284994 0.250000 0.658824
O O14 0.500000 0.500000 0.000000
#
# Coordination Sequence:
#
# PCOD9167143 Si02
#       5
#     4   4   4   4   4
#     4  12  24  39  61  95 135 174 210 255 319 386
#     4  11  23  40  63  94 131 169 211 260 317 380
#     4  12  26  46  70  94 124 166 218 270 318 372
#     4  12  24  40  63  93 130 169 211 261 317 378
#     4  11  21  33  57  91 128 164 206 257 318 379
#
# _framework density 19.685276999999999
#
# number of rings (size 3 to 8) (size 9 to 14) (size 15 to 20)
#    0.000    0.400    4.000    6.600    0.000    1.600 
#    0.000    1.000    0.000    0.000    0.000    0.000 
#    0.000    0.000    0.000    0.000    0.000    0.000 
#
# Total GULP energy -111507.557442 kJ/mol
# GULP energy per Si atom -5575.377872 kJ/mol
# Density = 1.964047 g / cm^3
# Si number density = 19.685277 Si / 1000 Ang^3
#
#
#
# Elastic Constant Matrix: (Units=GPa)
#
#
# Indices 1 2 3 4 5 6 
#
# 1 120.9550 52.1446 44.6902 0.0000 -20.2382 0.0000
# 2 52.1446 177.9025 35.4187 0.0000 -23.5414 0.0000
# 3 44.6902 35.4187 67.4781 0.0000 -41.9060 0.0000
# 4 0.0000 0.0000 0.0000 27.9511 0.0000 -1.3510
# 5 -20.2382 -23.5414 -41.9060 0.0000 35.1209 0.0000
# 6 0.0000 0.0000 0.0000 -1.3510 0.0000 30.8669
#
#
#
# Elastic Compliance Matrix: (Units=1/GPa)
#
#
# Indices 1 2 3 4 5 6 
#
# 1 0.012578 -0.002370 -0.013791 0.000000 -0.010796 0.000000
# 2 -0.002370 0.006734 -0.000039 0.000000 0.003102 0.000000
# 3 -0.013791 -0.000039 0.073448 0.000000 0.079665 0.000000
# 4 0.000000 0.000000 0.000000 0.035853 0.000000 0.001569
# 5 -0.010796 0.003102 0.079665 0.000000 0.119387 0.000000
# 6 0.000000 0.000000 0.000000 0.001569 0.000000 0.032466
#
#
# Mechanical properties :
#
#
# Convention : Reuss Voigt Hill
#
# Bulk Modulus (GPa) = 16.56694 70.09360 43.33027
# Shear Modulus (GPa) = 15.01566 34.39325 24.70446
#
# Velocity S-wave (km/s) = 2.76486 4.18443 3.54640
# Velocity P-wave (km/s) = 4.31587 7.68312 6.23126
#
# Compressibility (1/GPa) = 0.06036119
#
# Stress axis : x y z
#
# Youngs Moduli (GPa) = 79.50174 148.50441 13.61502
#
# Poissons Ratio (x) = 0.35191 0.18777
# Poissons Ratio (y) = 0.18839 0.00053
# Poissons Ratio (z) = 1.09643 0.00573
#
# Static dielectric constant tensor:
#      x y z
#    x 1.724910 0.000000 -0.047210 
#    y 0.000000 1.623100 0.000000 
#    z -0.047210 0.000000 1.644300 
# 
# From -- ./inp_files/55480.got.cif
#   From: 2010.05.17/outbox.cif.g08.bks.cpg/sg11_28_cif.got.tgz:55480.got - 2010.06.03 12:22:45.
