data_PCOD9167491
_publ_section_title
;
Structure prediction by ZEFSAII (Michael W. Deem and Ramdas Pophale) SiO2 
 PCOD9167491
Probable space group: P 21/M
;
_chemical_formula_sum "Si O2"
_cell_formula_units_Z 16
_cell_length_a 9.761470
_cell_length_b 10.474586
_cell_length_c 9.110444
_cell_angle_alpha 90.000000
_cell_angle_beta 52.852163
_cell_angle_gamma 90.000000
_cell_volume 742.495044
_symmetry_space_group_name_H-M "P 21/M"
_symmetry_group_IT_number 11
_symmetry_cell_setting 'monoclinic'
loop_
_space_group_symop_operation_xyz
x,y,z
-x,1/2+y,-z
-x,-y,-z
x,1/2-y,z
loop_
_atom_site_type_symbol
_atom_site_label
_atom_site_fract_x
_atom_site_fract_y
_atom_site_fract_z
Si Si1 0.280099 0.604096 0.053054
Si Si2 0.924173 0.008781 0.319432
Si Si3 0.385448 0.603355 0.657677
Si Si4 0.777382 0.890933 0.691838
O O1 0.300295 0.750000 0.088486
O O2 0.316633 0.502024 0.157131
O O3 0.076346 0.577420 0.154190
O O4 0.379318 0.583599 0.836801
O O5 0.805255 0.925633 0.504916
O O6 0.806695 0.080675 0.280312
O O7 0.031574 0.102544 0.357820
O O8 0.500000 0.500000 0.500000
O O9 0.437018 0.750000 0.595076
O O10 0.705359 0.750000 0.758477
#
# Coordination Sequence:
#
# PCOD9167491 Si02
#       4
#     4   4   4   4
#     4   9  19  35  58  85 113 142 184 231 281 326
#     4   9  19  34  60  82 115 138 184 225 282 321
#     4  11  24  40  55  80 115 154 187 228 276 332
#     4   9  18  32  60  90 111 136 183 233 281 327
#
# _framework density 21.548967000000001
#
# number of rings (size 3 to 8) (size 9 to 14) (size 15 to 20)
#    1.500    1.000    0.000    2.250    0.000    4.000 
#    0.000    1.250    0.000    0.000    0.000    0.000 
#    0.000    0.000    0.000    0.000    0.000    0.000 
#
# Total GULP energy -89246.919291 kJ/mol
# GULP energy per Si atom -5577.932456 kJ/mol
# Density = 2.149992 g / cm^3
# Si number density = 21.548967 Si / 1000 Ang^3
#
#
#
# Elastic Constant Matrix: (Units=GPa)
#
#
# Indices 1 2 3 4 5 6 
#
# 1 76.0680 18.7398 11.9611 0.0000 2.1821 0.0000
# 2 18.7398 194.0826 96.5627 0.0000 -1.1493 0.0000
# 3 11.9611 96.5627 131.8256 0.0000 -8.9986 0.0000
# 4 0.0000 0.0000 0.0000 33.4763 0.0000 -0.2670
# 5 2.1821 -1.1493 -8.9986 0.0000 33.4306 0.0000
# 6 0.0000 0.0000 0.0000 -0.2670 0.0000 8.4690
#
#
#
# Elastic Compliance Matrix: (Units=1/GPa)
#
#
# Indices 1 2 3 4 5 6 
#
# 1 0.013518 -0.001047 -0.000532 0.000000 -0.001062 0.000000
# 2 -0.001047 0.008248 -0.006033 0.000000 -0.001272 0.000000
# 3 -0.000532 -0.006033 0.012267 0.000000 0.003129 0.000000
# 4 0.000000 0.000000 0.000000 0.029879 0.000000 0.000942
# 5 -0.001062 -0.001272 0.003129 0.000000 0.030781 0.000000
# 6 0.000000 0.000000 0.000000 0.000942 0.000000 0.118107
#
#
# Mechanical properties :
#
#
# Convention : Reuss Voigt Hill
#
# Bulk Modulus (GPa) = 53.16807 72.94482 63.05645
# Shear Modulus (GPa) = 21.34069 33.38935 27.36502
#
# Velocity S-wave (km/s) = 3.15037 3.94059 3.56743
# Velocity P-wave (km/s) = 6.16116 7.39112 6.80398
#
# Compressibility (1/GPa) = 0.01880828
#
# Stress axis : x y z
#
# Youngs Moduli (GPa) = 73.97463 121.24433 81.51823
#
# Poissons Ratio (x) = 0.12691 0.04339
# Poissons Ratio (y) = 0.07743 0.49183
# Poissons Ratio (z) = 0.03938 0.73152
#
# Static dielectric constant tensor:
#      x y z
#    x 1.836750 0.000000 -0.044060 
#    y 0.000000 1.736970 0.000000 
#    z -0.044060 0.000000 1.753020 
# 
# From -- ./inp_files/11149.got.cif
#   From: 2010.05.17/outbox.cif.g08.bks.cpg/sg11_6_cif.got.tgz:11149.got - 2010.06.03 12:22:45.
