data_PCOD9167770
_publ_section_title
;
Structure prediction by ZEFSAII (Michael W. Deem and Ramdas Pophale) SiO2 
 PCOD9167770
Probable space group: P 21/M
;
_chemical_formula_sum "Si O2"
_cell_formula_units_Z 32
_cell_length_a 30.000000
_cell_length_b 9.000000
_cell_length_c 15.000000
_cell_angle_alpha 90.000000
_cell_angle_beta 30.000000
_cell_angle_gamma 90.000000
_cell_volume 2025.000000
_symmetry_space_group_name_H-M "P 21/M"
_symmetry_group_IT_number 11
_symmetry_cell_setting 'monoclinic'
loop_
_space_group_symop_operation_xyz
x,y,z
-x,1/2+y,-z
-x,-y,-z
x,1/2-y,z
loop_
_atom_site_type_symbol
_atom_site_label
_atom_site_fract_x
_atom_site_fract_y
_atom_site_fract_z
Si Si1 0.286821 0.075049 0.162687
Si Si2 0.721617 0.570048 0.148788
Si Si3 0.912623 0.571876 0.763300
Si Si4 0.630584 0.419589 0.822167
Si Si5 0.615513 0.071970 0.169694
Si Si6 0.419832 0.069605 0.464164
Si Si7 0.091218 0.073191 0.437948
Si Si8 0.428106 0.423012 0.246233
O O1 0.301005 0.250000 0.120960
O O2 0.184186 0.039181 0.322587
O O3 0.312207 0.030367 0.217819
O O4 0.345895 0.980452 0.991839
O O5 0.719046 0.750000 0.147255
O O6 0.672633 0.504956 0.147366
O O7 0.665454 0.522214 0.331862
O O8 0.824742 0.524204 0.968227
O O9 0.917865 0.750000 0.757389
O O10 0.900441 0.527405 0.680416
O O11 0.006288 0.503670 0.628596
O O12 0.661694 0.250000 0.774933
O O13 0.624025 0.475723 0.732921
O O14 0.531016 0.425611 0.036582
O O15 0.620970 0.250000 0.167510
O O16 0.511989 0.024804 0.351768
O O17 0.420975 0.250000 0.460429
O O18 0.420410 0.022366 0.360630
O O19 0.077708 0.250000 0.462135
O O20 0.399452 0.250000 0.290894
#
# Coordination Sequence:
#
# PCOD9167770 Si02
#       8
#     4   4   4   4   4   4   4   4
#     4  11  20  32  49  70  95 127 159 191 236 286
#     4  10  19  33  49  67  94 129 164 196 231 274
#     4   9  17  30  46  67  91 120 156 193 233 276
#     4  10  19  31  48  71  96 121 155 196 236 279
#     4  11  20  31  45  68  98 129 164 197 227 267
#     4   9  18  32  49  67  94 129 164 197 227 270
#     4   9  18  31  46  66  91 120 155 192 234 282
#     4   9  17  32  48  67  94 126 159 191 231 277
#
# _framework density 15.802469
#
# number of rings (size 3 to 8) (size 9 to 14) (size 15 to 20)
#    0.000    2.250    2.500    1.500    0.000    2.000 
#    0.000    1.250    0.000    0.000    0.000    0.875 
#    0.000    0.000    0.000    0.000    0.000    0.000 
#
# Total GULP energy -178355.346659 kJ/mol
# GULP energy per Si atom -5573.604583 kJ/mol
# Density = 1.576650 g / cm^3
# Si number density = 15.802469 Si / 1000 Ang^3
#
#
#
# Elastic Constant Matrix: (Units=GPa)
#
#
# Indices 1 2 3 4 5 6 
#
# 1 20.5118 6.3420 8.9670 0.0000 1.3712 0.0000
# 2 6.3420 10.8207 21.9152 0.0000 -4.3503 0.0000
# 3 8.9670 21.9152 88.3188 0.0000 -12.0164 0.0000
# 4 0.0000 0.0000 0.0000 16.9645 0.0000 -1.8797
# 5 1.3712 -4.3503 -12.0164 0.0000 10.7427 0.0000
# 6 0.0000 0.0000 0.0000 -1.8797 0.0000 17.3286
#
#
#
# Elastic Compliance Matrix: (Units=1/GPa)
#
#
# Indices 1 2 3 4 5 6 
#
# 1 0.066927 -0.058256 0.003879 0.000000 -0.027794 0.000000
# 2 -0.058256 0.243867 -0.047357 0.000000 0.053218 0.000000
# 3 0.003879 -0.047357 0.023594 0.000000 0.006719 0.000000
# 4 0.000000 0.000000 0.000000 0.059664 0.000000 0.006472
# 5 -0.027794 0.053218 0.006719 0.000000 0.125700 0.000000
# 6 0.000000 0.000000 0.000000 0.006472 0.000000 0.058410
#
#
# Mechanical properties :
#
#
# Convention : Reuss Voigt Hill
#
# Bulk Modulus (GPa) = 7.63828 21.56666 14.60247
# Shear Modulus (GPa) = 6.05862 14.50230 10.28046
#
# Velocity S-wave (km/s) = 1.96018 3.03268 2.55338
# Velocity P-wave (km/s) = 3.15708 5.09315 4.23718
#
# Compressibility (1/GPa) = 0.13091945
#
# Stress axis : x y z
#
# Youngs Moduli (GPa) = 14.94173 4.10060 42.38350
#
# Poissons Ratio (x) = 0.23888 -0.16440
# Poissons Ratio (y) = 0.87044 2.00717
# Poissons Ratio (z) = -0.05796 0.19419
#
# Static dielectric constant tensor:
#      x y z
#    x 1.517800 0.000000 -0.005720 
#    y 0.000000 1.547740 0.000000 
#    z -0.005720 0.000000 1.528440 
# 
# From -- ./inp_files/51221.got.cif
#   From: 2010.05.17/outbox.ucp.g08.bks.cvg/sg11_26_cif.got.tgz:51221.got - 2010.06.11 11:38:39.
