data_PCOD9167146
_publ_section_title
;
Structure prediction by ZEFSAII (Michael W. Deem and Ramdas Pophale) SiO2 
 PCOD9167146
Probable space group: P 21/M
;
_chemical_formula_sum "Si O2"
_cell_formula_units_Z 28
_cell_length_a 26.496462
_cell_length_b 8.049593
_cell_length_c 9.750297
_cell_angle_alpha 90.000000
_cell_angle_beta 40.417217
_cell_angle_gamma 90.000000
_cell_volume 1348.305497
_symmetry_space_group_name_H-M "P 21/M"
_symmetry_group_IT_number 11
_symmetry_cell_setting 'monoclinic'
loop_
_space_group_symop_operation_xyz
x,y,z
-x,1/2+y,-z
-x,-y,-z
x,1/2-y,z
loop_
_atom_site_type_symbol
_atom_site_label
_atom_site_fract_x
_atom_site_fract_y
_atom_site_fract_z
Si Si1 0.575078 0.440685 0.426655
Si Si2 0.236022 0.548632 0.628535
Si Si3 0.915908 0.450075 0.226699
Si Si4 0.745589 0.454729 0.094847
Si Si5 0.173314 0.554223 0.333634
Si Si6 0.676065 0.554306 0.812166
Si Si7 0.496243 0.555950 0.850683
O O1 0.500000 0.500000 0.500000
O O2 0.583093 0.250000 0.373702
O O3 0.660000 0.517069 0.226204
O O4 0.554603 0.460719 0.629528
O O5 0.242426 0.750000 0.608694
O O6 0.153349 0.498552 0.732938
O O7 0.241235 0.496937 0.775353
O O8 0.302068 0.475332 0.392697
O O9 0.913242 0.250000 0.237612
O O10 0.891680 0.515202 0.428191
O O11 0.000000 0.500000 0.000000
O O12 0.745336 0.250000 0.093152
O O13 0.809976 0.512993 0.852588
O O14 0.157513 0.750000 0.351418
O O15 0.254885 0.531884 0.246007
O O16 0.675381 0.750000 0.842158
O O17 0.591858 0.479283 0.016021
O O18 0.513379 0.750000 0.804770
O O19 0.500000 0.500000 0.000000
#
# Coordination Sequence:
#
# PCOD9167146 Si02
#       7
#     4   4   4   4   4   4   4
#     4  11  22  36  55  81 110 146 185 230 285 337
#     4   9  18  35  57  80 104 139 180 222 269 321
#     4   9  18  32  54  80 109 140 174 214 261 317
#     4   9  18  34  57  78 101 134 179 225 268 317
#     4   9  18  35  57  80 103 137 177 215 261 317
#     4  11  21  34  53  78 105 138 179 224 270 325
#     4  12  24  38  54  75 105 142 185 236 283 330
#
# _framework density 20.766805999999999
#
# number of rings (size 3 to 8) (size 9 to 14) (size 15 to 20)
#    0.000    2.000    0.000    5.571    0.000    4.571 
#    0.000    2.857    0.000    0.000    0.000    0.000 
#    0.000    0.000    0.000    0.000    0.000    0.000 
#
# Total GULP energy -156382.230735 kJ/mol
# GULP energy per Si atom -5585.079669 kJ/mol
# Density = 2.071954 g / cm^3
# Si number density = 20.766806 Si / 1000 Ang^3
#
#
#
# Elastic Constant Matrix: (Units=GPa)
#
#
# Indices 1 2 3 4 5 6 
#
# 1 37.1246 0.4030 28.8747 0.0000 9.3169 0.0000
# 2 0.4030 20.8703 -7.8614 0.0000 -4.4784 0.0000
# 3 28.8747 -7.8614 137.4322 0.0000 6.5521 0.0000
# 4 0.0000 0.0000 0.0000 25.4886 0.0000 -0.8630
# 5 9.3169 -4.4784 6.5521 0.0000 36.3991 0.0000
# 6 0.0000 0.0000 0.0000 -0.8630 0.0000 19.0596
#
#
#
# Elastic Compliance Matrix: (Units=1/GPa)
#
#
# Indices 1 2 3 4 5 6 
#
# 1 0.034635 -0.005134 -0.007179 0.000000 -0.008205 0.000000
# 2 -0.005134 0.050876 0.003659 0.000000 0.006915 0.000000
# 3 -0.007179 0.003659 0.008962 0.000000 0.000675 0.000000
# 4 0.000000 0.000000 0.000000 0.039293 0.000000 0.001779
# 5 -0.008205 0.006915 0.000675 0.000000 0.030303 0.000000
# 6 0.000000 0.000000 0.000000 0.001779 0.000000 0.052548
#
#
# Mechanical properties :
#
#
# Convention : Reuss Voigt Hill
#
# Bulk Modulus (GPa) = 12.95918 26.47331 19.71625
# Shear Modulus (GPa) = 19.25693 27.79016 23.52355
#
# Velocity S-wave (km/s) = 3.04845 3.66211 3.36928
# Velocity P-wave (km/s) = 4.31794 5.53688 4.96496
#
# Compressibility (1/GPa) = 0.07716536
#
# Stress axis : x y z
#
# Youngs Moduli (GPa) = 28.87245 19.65550 111.58389
#
# Poissons Ratio (x) = 0.10091 0.80111
# Poissons Ratio (y) = 0.14822 -0.40830
# Poissons Ratio (z) = 0.20729 -0.07192
#
# Static dielectric constant tensor:
#      x y z
#    x 1.754410 0.000000 0.022780 
#    y 0.000000 1.739680 0.000000 
#    z 0.022780 0.000000 1.773060 
# 
# From -- ./inp_files/28290.got.cif
#   From: 2010.05.17/outbox.cif.g08.bks.cpg/sg11_15_cif.got.tgz:28290.got - 2010.06.03 12:22:45.
