data_PCOD9167910
_publ_section_title
;
Structure prediction by ZEFSAII (Michael W. Deem and Ramdas Pophale) SiO2 
 PCOD9167910
Probable space group: P 21/M
;
_chemical_formula_sum "Si O2"
_cell_formula_units_Z 28
_cell_length_a 30.000000
_cell_length_b 9.000000
_cell_length_c 30.000000
_cell_angle_alpha 90.000000
_cell_angle_beta 10.000000
_cell_angle_gamma 90.000000
_cell_volume 1406.550239
_symmetry_space_group_name_H-M "P 21/M"
_symmetry_group_IT_number 11
_symmetry_cell_setting 'monoclinic'
loop_
_space_group_symop_operation_xyz
x,y,z
-x,1/2+y,-z
-x,-y,-z
x,1/2-y,z
loop_
_atom_site_type_symbol
_atom_site_label
_atom_site_fract_x
_atom_site_fract_y
_atom_site_fract_z
Si Si1 0.953160 0.931051 0.594780
Si Si2 0.047828 0.570920 0.692265
Si Si3 0.259441 0.578679 0.759112
Si Si4 0.259798 0.929644 0.579479
Si Si5 0.473012 0.070461 0.118581
Si Si6 0.477062 0.069390 0.835978
Si Si7 0.783329 0.076713 0.092983
O O1 0.948633 0.750000 0.599257
O O2 0.000000 0.000000 0.500000
O O3 0.195445 0.994508 0.383898
O O4 0.685939 0.997564 0.876398
O O5 0.052009 0.750000 0.689517
O O6 0.146876 0.522398 0.642749
O O7 0.253763 0.528616 0.451929
O O8 0.759181 0.530029 0.963784
O O9 0.500000 0.500000 0.500000
O O10 0.253626 0.750000 0.750960
O O11 0.275236 0.571736 0.796872
O O12 0.000000 0.500000 0.000000
O O13 0.265575 0.750000 0.576728
O O14 0.545697 0.992891 0.303778
O O15 0.054518 0.997184 0.816218
O O16 0.461504 0.250000 0.124708
O O17 0.555620 0.020057 0.086462
O O18 0.471716 0.250000 0.849004
O O19 0.796655 0.250000 0.066253
#
# Coordination Sequence:
#
# PCOD9167910 Si02
#       7
#     4   4   4   4   4   4   4
#     4  12  25  44  67  93 124 164 207 250 303 363
#     4   9  19  35  58  86 117 152 199 250 295 345
#     4  11  24  41  62  87 119 156 199 246 299 357
#     4  11  22  39  64  92 118 156 207 252 290 352
#     4  12  25  42  63  94 129 161 202 255 304 357
#     4  10  19  36  60  85 116 159 201 243 297 356
#     4  11  24  41  59  87 125 160 191 242 309 364
#
# _framework density 19.906860999999999
#
# number of rings (size 3 to 8) (size 9 to 14) (size 15 to 20)
#    0.000    1.143    0.000    6.857    0.000    9.143 
#    0.000    4.286    0.000    0.000    0.000    0.000 
#    0.000    0.000    0.000    0.000    0.000    0.000 
#
# Total GULP energy -156569.045624 kJ/mol
# GULP energy per Si atom -5591.751629 kJ/mol
# Density = 1.986155 g / cm^3
# Si number density = 19.906861 Si / 1000 Ang^3
#
#
#
# Elastic Constant Matrix: (Units=GPa)
#
#
# Indices 1 2 3 4 5 6 
#
# 1 39.1473 18.2235 -15.9760 0.0000 -4.0592 0.0000
# 2 18.2235 132.8538 18.6100 0.0000 -0.8857 0.0000
# 3 -15.9760 18.6100 72.3643 0.0000 -3.2834 0.0000
# 4 0.0000 0.0000 0.0000 34.3238 0.0000 -1.9336
# 5 -4.0592 -0.8857 -3.2834 0.0000 41.9632 0.0000
# 6 0.0000 0.0000 0.0000 -1.9336 0.0000 25.3208
#
#
#
# Elastic Compliance Matrix: (Units=1/GPa)
#
#
# Indices 1 2 3 4 5 6 
#
# 1 0.032071 -0.005591 0.008685 0.000000 0.003664 0.000000
# 2 -0.005591 0.008783 -0.003522 0.000000 -0.000631 0.000000
# 3 0.008685 -0.003522 0.016736 0.000000 0.002075 0.000000
# 4 0.000000 0.000000 0.000000 0.029260 0.000000 0.002234
# 5 0.003664 -0.000631 0.002075 0.000000 0.024334 0.000000
# 6 0.000000 0.000000 0.000000 0.002234 0.000000 0.039664
#
#
# Mechanical properties :
#
#
# Convention : Reuss Voigt Hill
#
# Bulk Modulus (GPa) = 17.62622 31.78674 24.70648
# Shear Modulus (GPa) = 29.30541 35.22209 32.26375
#
# Velocity S-wave (km/s) = 3.84099 4.21092 4.03020
# Velocity P-wave (km/s) = 5.34271 6.29642 5.83907
#
# Compressibility (1/GPa) = 0.05673368
#
# Stress axis : x y z
#
# Youngs Moduli (GPa) = 31.18040 113.85430 59.75091
#
# Poissons Ratio (x) = 0.63660 -0.51891
# Poissons Ratio (y) = 0.17434 0.21043
# Poissons Ratio (z) = -0.27079 0.40097
#
# Static dielectric constant tensor:
#      x y z
#    x 1.737020 0.000000 -0.003900 
#    y 0.000000 1.670800 0.000000 
#    z -0.003900 0.000000 1.684230 
# 
# From -- ./inp_files/73861.got.cif
#   From: 2010.05.17/outbox.ucp.g08.bks.cvg/sg11_37_cif.got.tgz:73861.got - 2010.06.11 11:38:39.
