data_PCOD9167815
_publ_section_title
;
Structure prediction by ZEFSAII (Michael W. Deem and Ramdas Pophale) SiO2 
 PCOD9167815
Probable space group: P 21/M
;
_chemical_formula_sum "Si O2"
_cell_formula_units_Z 28
_cell_length_a 30.000000
_cell_length_b 9.000000
_cell_length_c 9.000000
_cell_angle_alpha 90.000000
_cell_angle_beta 140.000000
_cell_angle_gamma 90.000000
_cell_volume 1561.973892
_symmetry_space_group_name_H-M "P 21/M"
_symmetry_group_IT_number 11
_symmetry_cell_setting 'monoclinic'
loop_
_space_group_symop_operation_xyz
x,y,z
-x,1/2+y,-z
-x,-y,-z
x,1/2-y,z
loop_
_atom_site_type_symbol
_atom_site_label
_atom_site_fract_x
_atom_site_fract_y
_atom_site_fract_z
Si Si1 0.715447 0.570925 0.134778
Si Si2 0.862262 0.928166 0.836388
Si Si3 0.719569 0.072429 0.472056
Si Si4 0.436943 0.427761 0.251746
Si Si5 0.435306 0.929025 0.920854
Si Si6 0.002842 0.930282 0.669916
Si Si7 0.865046 0.927908 0.489907
O O1 0.719311 0.750000 0.173930
O O2 0.715435 0.485134 0.291322
O O3 0.787462 0.526915 0.238779
O O4 0.639561 0.543444 0.872750
O O5 0.864849 0.750000 0.863549
O O6 0.866996 0.959628 0.671123
O O7 0.788565 0.991043 0.707319
O O8 0.927749 0.007865 0.076673
O O9 0.729369 0.250000 0.501220
O O10 0.642714 0.038790 0.341072
O O11 0.500000 0.500000 0.500000
O O12 0.445479 0.250000 0.262870
O O13 0.436572 0.500331 0.087989
O O14 0.442183 0.750000 0.945216
O O15 0.500000 0.000000 0.000000
O O16 0.004269 0.750000 0.669365
O O17 0.933458 0.982480 0.581000
O O18 0.000000 0.000000 0.500000
O O19 0.867669 0.750000 0.480771
#
# Coordination Sequence:
#
# PCOD9167815 Si02
#       7
#     4   4   4   4   4   4   4
#     4   8  15  30  51  74  98 128 167 211 256 302
#     4  10  19  34  56  79 100 128 168 211 253 303
#     4   9  17  30  50  77 104 130 164 210 256 298
#     4  10  19  32  52  76 105 138 173 215 262 312
#     4  10  20  34  53  77 106 138 174 214 258 308
#     4  11  22  36  52  73 104 138 168 206 255 307
#     4   8  16  32  55  78  98 124 166 213 253 296
#
# _framework density 17.926036
#
# number of rings (size 3 to 8) (size 9 to 14) (size 15 to 20)
#    0.000    2.571    0.000    3.429    0.000    2.286 
#    0.000    7.857    0.000    5.143    0.000    0.000 
#    0.000    0.000    0.000    0.000    0.000    0.000 
#
# Total GULP energy -155919.225830 kJ/mol
# GULP energy per Si atom -5568.543780 kJ/mol
# Density = 1.788524 g / cm^3
# Si number density = 17.926036 Si / 1000 Ang^3
#
#
#
# Elastic Constant Matrix: (Units=GPa)
#
#
# Indices 1 2 3 4 5 6 
#
# 1 114.8216 44.6809 75.6948 0.0000 47.9494 0.0000
# 2 44.6809 77.5879 49.6265 0.0000 22.0763 0.0000
# 3 75.6948 49.6265 131.4466 0.0000 50.6476 0.0000
# 4 0.0000 0.0000 0.0000 32.2940 0.0000 4.1340
# 5 47.9494 22.0763 50.6476 0.0000 35.5401 0.0000
# 6 0.0000 0.0000 0.0000 4.1340 0.0000 24.1808
#
#
#
# Elastic Compliance Matrix: (Units=1/GPa)
#
#
# Indices 1 2 3 4 5 6 
#
# 1 0.021517 -0.004664 -0.001243 0.000000 -0.024360 0.000000
# 2 -0.004664 0.018162 -0.004987 0.000000 0.002119 0.000000
# 3 -0.001243 -0.004987 0.018555 0.000000 -0.021667 0.000000
# 4 0.000000 0.000000 0.000000 0.031658 0.000000 -0.005412
# 5 -0.024360 0.002119 -0.021667 0.000000 0.090565 0.000000
# 6 0.000000 0.000000 0.000000 -0.005412 0.000000 0.042280
#
#
# Mechanical properties :
#
#
# Convention : Reuss Voigt Hill
#
# Bulk Modulus (GPa) = 27.43934 73.76228 50.60081
# Shear Modulus (GPa) = 19.47987 28.65990 24.06989
#
# Velocity S-wave (km/s) = 3.30006 4.00282 3.66831
# Velocity P-wave (km/s) = 5.46450 7.91207 6.79932
#
# Compressibility (1/GPa) = 0.03644403
#
# Stress axis : x y z
#
# Youngs Moduli (GPa) = 46.47535 55.06085 53.89352
#
# Poissons Ratio (x) = 0.25682 0.06701
# Poissons Ratio (y) = 0.21678 0.26877
# Poissons Ratio (z) = 0.05778 0.27459
#
# Static dielectric constant tensor:
#      x y z
#    x 1.639630 0.000000 0.027480 
#    y 0.000000 1.603880 0.000000 
#    z 0.027480 0.000000 1.661920 
# 
# From -- ./inp_files/28986.got.cif
#   From: 2010.05.17/outbox.ucp.g08.bks.cvg/sg11_15_cif.got.tgz:28986.got - 2010.06.11 11:38:39.
