data_PCOD9167205
_publ_section_title
;
Structure prediction by ZEFSAII (Michael W. Deem and Ramdas Pophale) SiO2 
 PCOD9167205
Probable space group: P 21/M
;
_chemical_formula_sum "Si O2"
_cell_formula_units_Z 24
_cell_length_a 8.331977
_cell_length_b 29.323446
_cell_length_c 9.317016
_cell_angle_alpha 90.000000
_cell_angle_beta 31.971948
_cell_angle_gamma 90.000000
_cell_volume 1205.338842
_symmetry_space_group_name_H-M "P 21/M"
_symmetry_group_IT_number 11
_symmetry_cell_setting 'monoclinic'
loop_
_space_group_symop_operation_xyz
x,y,z
-x,1/2+y,-z
-x,-y,-z
x,1/2-y,z
loop_
_atom_site_type_symbol
_atom_site_label
_atom_site_fract_x
_atom_site_fract_y
_atom_site_fract_z
Si Si1 0.759481 0.533513 0.251916
Si Si2 0.103644 0.250000 0.427731
Si Si3 0.732811 0.619581 0.072268
Si Si4 0.303307 0.655234 0.819677
Si Si5 0.941683 0.888861 0.324032
Si Si6 0.063790 0.851914 0.542183
Si Si7 0.222197 0.750000 0.028079
O O1 0.500000 0.500000 0.500000
O O2 0.684502 0.570537 0.184701
O O3 0.864418 0.562605 0.311711
O O4 0.000000 0.500000 0.000000
O O5 0.989373 0.298258 0.451876
O O6 0.461113 0.250000 0.127499
O O7 0.030805 0.250000 0.655146
O O8 0.409685 0.643961 0.333659
O O9 0.032187 0.639297 0.923327
O O10 0.832892 0.626419 0.832041
O O11 0.643728 0.642669 0.514471
O O12 0.238529 0.706615 0.913271
O O13 0.238596 0.627763 0.014855
O O14 0.013238 0.880816 0.435233
#
# Coordination Sequence:
#
# PCOD9167205 Si02
#       7
#     4   2   4   4   4   4   2
#     4  11  23  45  70  93 122 167 219 271 327 395
#     4  12  24  38  64  94 136 174 220 246 308 382
#     4  11  25  41  64  95 133 163 210 272 339 366
#     4  11  21  39  62  91 124 171 218 262 301 374
#     4  11  22  41  66  93 125 174 213 256 325 387
#     4  12  23  42  62  97 136 174 205 263 322 380
#     4  12  20  38  62  94 120 168 236 256 284 378
#
# _framework density 19.911413
#
# number of rings (size 3 to 8) (size 9 to 14) (size 15 to 20)
#    0.000    0.667    3.333    7.000    0.000    1.333 
#    0.000    5.000    0.000    0.000    0.000    0.000 
#    0.000    0.000    0.000    0.000    0.000    0.000 
#
# Total GULP energy -133889.446540 kJ/mol
# GULP energy per Si atom -5578.726939 kJ/mol
# Density = 1.986609 g / cm^3
# Si number density = 19.911413 Si / 1000 Ang^3
#
#
#
# Elastic Constant Matrix: (Units=GPa)
#
#
# Indices 1 2 3 4 5 6 
#
# 1 25.2978 35.2805 33.0362 0.0000 16.2829 0.0000
# 2 35.2805 123.4822 19.1696 0.0000 16.6765 0.0000
# 3 33.0362 19.1696 91.3677 0.0000 4.9987 0.0000
# 4 0.0000 0.0000 0.0000 30.1802 0.0000 15.0357
# 5 16.2829 16.6765 4.9987 0.0000 34.4216 0.0000
# 6 0.0000 0.0000 0.0000 15.0357 0.0000 -43.1193
#
#
#
# Elastic Compliance Matrix: (Units=1/GPa)
#
#
# Indices 1 2 3 4 5 6 
#
# 1 0.331768 -0.064176 -0.100407 0.000000 -0.111268 0.000000
# 2 -0.064176 0.021318 0.017777 0.000000 0.017448 0.000000
# 3 -0.100407 0.017777 0.041724 0.000000 0.032825 0.000000
# 4 0.000000 0.000000 0.000000 0.028230 0.000000 0.009844
# 5 -0.111268 0.017448 0.032825 0.000000 0.068466 0.000000
# 6 0.000000 0.000000 0.000000 0.009844 0.000000 -0.019759
#
#
# Mechanical properties :
#
#
# Convention : Reuss Voigt Hill
#
# Bulk Modulus (GPa) = 9.88159 46.12445 28.00302
# Shear Modulus (GPa) = 6.25711 14.47394 10.36552
#
# Velocity S-wave (km/s) = 1.77463 2.69906 2.28410
# Velocity P-wave (km/s) = 3.02863 5.73833 4.58808
#
# Compressibility (1/GPa) = 0.10119824
#
# Stress axis : x y z
#
# Youngs Moduli (GPa) = 3.01416 46.90844 23.96723
#
# Poissons Ratio (x) = 3.01041 2.40647
# Poissons Ratio (y) = 0.19344 -0.42607
# Poissons Ratio (z) = 0.30264 -0.83390
#
# Static dielectric constant tensor:
#      x y z
#    x 1.688770 0.000000 -0.019350 
#    y 0.000000 1.727260 0.000000 
#    z -0.019350 0.000000 1.650590 
# 
# From -- ./inp_files/15391.got.cif
#   From: 2010.05.17/outbox.cif.g08.bks.cpg/sg11_8_cif.got.tgz:15391.got - 2010.06.03 12:22:45.
