data_PCOD9167629
_publ_section_title
;
Structure prediction by ZEFSAII (Michael W. Deem and Ramdas Pophale) SiO2 
 PCOD9167629
Probable space group: P 21/M
;
_chemical_formula_sum "Si O2"
_cell_formula_units_Z 32
_cell_length_a 22.244184
_cell_length_b 7.498100
_cell_length_c 22.318273
_cell_angle_alpha 90.000000
_cell_angle_beta 153.868996
_cell_angle_gamma 90.000000
_cell_volume 1639.458028
_symmetry_space_group_name_H-M "P 21/M"
_symmetry_group_IT_number 11
_symmetry_cell_setting 'monoclinic'
loop_
_space_group_symop_operation_xyz
x,y,z
-x,1/2+y,-z
-x,-y,-z
x,1/2-y,z
loop_
_atom_site_type_symbol
_atom_site_label
_atom_site_fract_x
_atom_site_fract_y
_atom_site_fract_z
Si Si1 0.696644 0.032629 0.504063
Si Si2 0.438495 0.530669 0.740483
Si Si3 0.644775 0.452659 0.209066
Si Si4 0.371183 0.536689 0.426005
Si Si5 0.072606 0.536770 0.127264
Si Si6 0.254044 0.036220 0.955505
Si Si7 0.996891 0.532178 0.189360
Si Si8 0.664598 0.037150 0.099139
O O1 0.693641 0.250000 0.500268
O O2 0.625327 0.973087 0.379333
O O3 0.623314 0.973770 0.500055
O O4 0.855450 0.980712 0.652092
O O5 0.438211 0.750000 0.741989
O O6 0.352938 0.468357 0.722279
O O7 0.595925 0.472796 0.889404
O O8 0.695379 0.250000 0.259389
O O9 0.706836 0.529408 0.203072
O O10 0.481760 0.452779 0.048693
O O11 0.500000 0.500000 0.500000
O O12 0.360449 0.750000 0.419965
O O13 0.228542 0.469583 0.270424
O O14 0.078841 0.750000 0.138134
O O15 0.995951 0.474237 0.118957
O O16 0.000000 0.500000 0.000000
O O17 0.256308 0.250000 0.963261
O O18 0.130341 0.968683 0.885376
O O19 0.239847 0.995636 0.872208
O O20 0.993513 0.750000 0.187095
O O21 0.642963 0.250000 0.084598
#
# Coordination Sequence:
#
# PCOD9167629 Si02
#       8
#     4   4   4   4   4   4   4   4
#     4   8  14  26  44  64  83 106 139 176 209 243
#     4   8  13  22  39  62  82 100 132 175 208 237
#     4   8  14  24  38  58  83 109 137 170 207 247
#     4   9  18  31  47  68  92 116 145 181 220 264
#     4   9  18  32  48  68  92 117 148 185 222 263
#     4   9  16  26  41  62  84 106 137 175 209 244
#     4   8  15  28  44  61  84 112 141 174 210 249
#     4   9  15  23  37  58  84 111 136 167 209 250
#
# _framework density 19.518644999999999
#
# number of rings (size 3 to 8) (size 9 to 14) (size 15 to 20)
#    0.000    3.500    0.000    2.625    0.000    2.000 
#    0.000    3.125    0.000    6.000    0.000    0.000 
#    0.000    0.000    0.000    0.000    0.000    1.125 
#
# Total GULP energy -178171.460161 kJ/mol
# GULP energy per Si atom -5567.858130 kJ/mol
# Density = 1.947422 g / cm^3
# Si number density = 19.518645 Si / 1000 Ang^3
#
#
#
# Elastic Constant Matrix: (Units=GPa)
#
#
# Indices 1 2 3 4 5 6 
#
# 1 230.7018 2.1797 113.3172 0.0000 -22.8095 0.0000
# 2 2.1797 54.4777 2.2472 0.0000 -0.4098 0.0000
# 3 113.3172 2.2472 90.8667 0.0000 -27.6532 0.0000
# 4 0.0000 0.0000 0.0000 7.6526 0.0000 -2.8410
# 5 -22.8095 -0.4098 -27.6532 0.0000 30.4654 0.0000
# 6 0.0000 0.0000 0.0000 -2.8410 0.0000 17.9134
#
#
#
# Elastic Compliance Matrix: (Units=1/GPa)
#
#
# Indices 1 2 3 4 5 6 
#
# 1 0.012020 0.000170 -0.016932 0.000000 -0.006367 0.000000
# 2 0.000170 0.018378 -0.000763 0.000000 -0.000318 0.000000
# 3 -0.016932 -0.000763 0.039071 0.000000 0.022777 0.000000
# 4 0.000000 0.000000 0.000000 0.138849 0.000000 0.022021
# 5 -0.006367 -0.000318 0.022777 0.000000 0.048727 0.000000
# 6 0.000000 0.000000 0.000000 0.022021 0.000000 0.059317
#
#
# Mechanical properties :
#
#
# Convention : Reuss Voigt Hill
#
# Bulk Modulus (GPa) = 29.05348 67.94827 48.50088
# Shear Modulus (GPa) = 13.77844 28.42644 21.10244
#
# Velocity S-wave (km/s) = 2.65978 3.82039 3.29164
# Velocity P-wave (km/s) = 4.93456 7.37211 6.27287
#
# Compressibility (1/GPa) = 0.03441928
#
# Stress axis : x y z
#
# Youngs Moduli (GPa) = 83.19366 54.41165 25.59447
#
# Poissons Ratio (x) = -0.00923 0.43336
# Poissons Ratio (y) = -0.01411 0.01952
# Poissons Ratio (z) = 1.40862 0.04151
#
# Static dielectric constant tensor:
#      x y z
#    x 1.722510 0.000000 -0.018780 
#    y 0.000000 1.769150 0.000000 
#    z -0.018780 0.000000 1.655830 
# 
# From -- ./inp_files/66410.got.cif
#   From: 2010.05.17/outbox.cif.g08.bks.cpg/sg11_34_cif.got.tgz:66410.got - 2010.06.03 12:22:45.
