data_PCOD9167306
_publ_section_title
;
Structure prediction by ZEFSAII (Michael W. Deem and Ramdas Pophale) SiO2 
 PCOD9167306
Probable space group: P 21/M
;
_chemical_formula_sum "Si O2"
_cell_formula_units_Z 28
_cell_length_a 9.510766
_cell_length_b 21.204724
_cell_length_c 14.029298
_cell_angle_alpha 90.000000
_cell_angle_beta 146.991353
_cell_angle_gamma 90.000000
_cell_volume 1541.323274
_symmetry_space_group_name_H-M "P 21/M"
_symmetry_group_IT_number 11
_symmetry_cell_setting 'monoclinic'
loop_
_space_group_symop_operation_xyz
x,y,z
-x,1/2+y,-z
-x,-y,-z
x,1/2-y,z
loop_
_atom_site_type_symbol
_atom_site_label
_atom_site_fract_x
_atom_site_fract_y
_atom_site_fract_z
Si Si1 0.311746 0.324634 0.990522
Si Si2 0.052626 0.916680 0.937309
Si Si3 0.817921 0.386145 0.623626
Si Si4 0.329577 0.535043 0.280342
Si Si5 0.353915 0.932358 0.920262
Si Si6 0.917319 0.504214 0.562484
Si Si7 0.364807 0.324392 0.245932
O O1 0.368618 0.250000 0.008770
O O2 0.489208 0.374300 0.034739
O O3 0.346028 0.339713 0.122479
O O4 0.022175 0.339981 0.789958
O O5 0.884725 0.853921 0.845608
O O6 0.267219 0.918922 0.978398
O O7 0.847435 0.973350 0.803774
O O8 0.185453 0.927795 0.114452
O O9 0.671565 0.424356 0.624114
O O10 0.966645 0.438396 0.645259
O O11 0.616349 0.352880 0.439314
O O12 0.614436 0.517441 0.406591
O O13 0.092254 0.943118 0.711565
O O14 0.500000 0.000000 0.000000
O O15 0.000000 0.500000 0.500000
O O16 0.369337 0.250000 0.257811
#
# Coordination Sequence:
#
# PCOD9167306 Si02
#       7
#     4   4   4   4   4   4   4
#     4  11  25  45  65  92 132 174 217 266 322 390
#     4  11  22  39  64  91 133 165 212 261 326 378
#     4  12  21  42  67  95 125 170 215 262 327 384
#     4  11  22  38  63  97 127 166 203 272 320 381
#     4  12  23  39  62  95 128 171 211 267 326 382
#     4  12  23  35  61  98 133 159 210 268 325 384
#     4  11  24  42  66  93 126 170 221 266 316 387
#
# _framework density 18.166208999999998
#
# number of rings (size 3 to 8) (size 9 to 14) (size 15 to 20)
#    0.000    0.571    5.714    3.429    2.000    0.571 
#    0.000    0.000    0.000    0.857    0.000    0.000 
#    0.000    0.000    0.000    0.000    0.000    0.000 
#
# Total GULP energy -156492.857283 kJ/mol
# GULP energy per Si atom -5589.030617 kJ/mol
# Density = 1.812486 g / cm^3
# Si number density = 18.166209 Si / 1000 Ang^3
#
#
#
# Elastic Constant Matrix: (Units=GPa)
#
#
# Indices 1 2 3 4 5 6 
#
# 1 142.8520 66.8943 36.7864 0.0000 -2.5634 0.0000
# 2 66.8943 90.1343 46.2440 0.0000 -1.1785 0.0000
# 3 36.7864 46.2440 111.3213 0.0000 -9.7386 0.0000
# 4 0.0000 0.0000 0.0000 32.0712 0.0000 -0.7782
# 5 -2.5634 -1.1785 -9.7386 0.0000 31.8318 0.0000
# 6 0.0000 0.0000 0.0000 -0.7782 0.0000 25.4158
#
#
#
# Elastic Compliance Matrix: (Units=1/GPa)
#
#
# Indices 1 2 3 4 5 6 
#
# 1 0.010745 -0.007839 -0.000250 0.000000 0.000498 0.000000
# 2 -0.007839 0.019872 -0.005811 0.000000 -0.001673 0.000000
# 3 -0.000250 -0.005811 0.011774 0.000000 0.003367 0.000000
# 4 0.000000 0.000000 0.000000 0.031204 0.000000 0.000955
# 5 0.000498 -0.001673 0.003367 0.000000 0.032423 0.000000
# 6 0.000000 0.000000 0.000000 0.000955 0.000000 0.039375
#
#
# Mechanical properties :
#
#
# Convention : Reuss Voigt Hill
#
# Bulk Modulus (GPa) = 68.54212 71.57300 70.05756
# Shear Modulus (GPa) = 28.08083 30.82262 29.45173
#
# Velocity S-wave (km/s) = 3.93590 4.12357 4.03083
# Velocity P-wave (km/s) = 7.64641 7.88393 7.76607
#
# Compressibility (1/GPa) = 0.01458957
#
# Stress axis : x y z
#
# Youngs Moduli (GPa) = 93.06967 50.32201 84.93115
#
# Poissons Ratio (x) = 0.39449 0.02127
# Poissons Ratio (y) = 0.72960 0.49353
# Poissons Ratio (z) = 0.02331 0.29242
#
# Static dielectric constant tensor:
#      x y z
#    x 1.619010 0.000000 -0.009040 
#    y 0.000000 1.608590 0.000000 
#    z -0.009040 0.000000 1.647100 
# 
# From -- ./inp_files/23169.got.cif
#   From: 2010.05.17/outbox.cif.g08.bks.cpg/sg11_12_cif.got.tgz:23169.got - 2010.06.03 12:22:45.
