data_PCOD9167939
_publ_section_title
;
Structure prediction by ZEFSAII (Michael W. Deem and Ramdas Pophale) SiO2 
 PCOD9167939
Probable space group: P 21/M
;
_chemical_formula_sum "Si O2"
_cell_formula_units_Z 32
_cell_length_a 15.000000
_cell_length_b 9.000000
_cell_length_c 24.000000
_cell_angle_alpha 90.000000
_cell_angle_beta 30.000000
_cell_angle_gamma 90.000000
_cell_volume 1620.000000
_symmetry_space_group_name_H-M "P 21/M"
_symmetry_group_IT_number 11
_symmetry_cell_setting 'monoclinic'
loop_
_space_group_symop_operation_xyz
x,y,z
-x,1/2+y,-z
-x,-y,-z
x,1/2-y,z
loop_
_atom_site_type_symbol
_atom_site_label
_atom_site_fract_x
_atom_site_fract_y
_atom_site_fract_z
Si Si1 0.066437 0.568426 0.203780
Si Si2 0.028705 0.071704 0.544741
Si Si3 0.734882 0.576255 0.224567
Si Si4 0.497773 0.572218 0.836242
Si Si5 0.896688 0.430120 0.944296
Si Si6 0.583855 0.927922 0.669014
Si Si7 0.268930 0.571294 0.203309
Si Si8 0.682060 0.922890 0.386819
O O1 0.068392 0.750000 0.203868
O O2 0.108134 0.522714 0.117923
O O3 0.201542 0.519819 0.179026
O O4 0.859708 0.521106 0.322248
O O5 0.021649 0.250000 0.541543
O O6 0.225891 0.033362 0.460203
O O7 0.884572 0.030545 0.669004
O O8 0.000000 0.000000 0.500000
O O9 0.729436 0.750000 0.212151
O O10 0.581913 0.495481 0.273491
O O11 0.707962 0.566012 0.306100
O O12 0.936080 0.513962 0.110835
O O13 0.512471 0.750000 0.835343
O O14 0.601192 0.525563 0.724568
O O15 0.558645 0.498808 0.860853
O O16 0.296086 0.534070 0.928919
O O17 0.915867 0.250000 0.932667
O O18 0.562372 0.750000 0.680856
O O19 0.287017 0.750000 0.191939
O O20 0.666942 0.750000 0.409023
O O21 0.500000 0.000000 0.500000
#
# Coordination Sequence:
#
# PCOD9167939 Si02
#       8
#     4   4   4   4   4   4   4   4
#     4   8  16  32  52  73  99 132 168 202 246 305
#     4  10  20  34  51  72 102 137 169 206 253 300
#     4   9  19  35  53  76 102 133 173 210 247 299
#     4  10  20  35  54  75 101 134 171 210 254 300
#     4   8  16  34  56  74  99 134 168 207 253 301
#     4  10  21  34  50  76 105 134 168 207 255 303
#     4  10  20  33  52  77 102 133 172 207 247 302
#     4   9  18  32  51  74 101 133 169 207 248 298
#
# _framework density 19.753086
#
# number of rings (size 3 to 8) (size 9 to 14) (size 15 to 20)
#    0.000    2.750    1.250    1.500    1.750    2.500 
#    0.000    1.250    0.000    1.500    0.000    0.000 
#    0.000    0.000    0.000    0.000    0.000    0.000 
#
# Total GULP energy -178216.304787 kJ/mol
# GULP energy per Si atom -5569.259525 kJ/mol
# Density = 1.970813 g / cm^3
# Si number density = 19.753086 Si / 1000 Ang^3
#
#
#
# Elastic Constant Matrix: (Units=GPa)
#
#
# Indices 1 2 3 4 5 6 
#
# 1 84.9943 14.4965 -1.5245 0.0000 -31.5990 0.0000
# 2 14.4965 -1.7889 6.6475 0.0000 -3.3451 0.0000
# 3 -1.5245 6.6475 49.8367 0.0000 -21.2485 0.0000
# 4 0.0000 0.0000 0.0000 12.8315 0.0000 -7.1732
# 5 -31.5990 -3.3451 -21.2485 0.0000 24.8970 0.0000
# 6 0.0000 0.0000 0.0000 -7.1732 0.0000 30.6891
#
#
#
# Elastic Compliance Matrix: (Units=1/GPa)
#
#
# Indices 1 2 3 4 5 6 
#
# 1 0.011288 0.057275 0.003293 0.000000 0.024832 0.000000
# 2 0.057275 -0.080844 0.061149 0.000000 0.114019 0.000000
# 3 0.003293 0.061149 0.027188 0.000000 0.035599 0.000000
# 4 0.000000 0.000000 0.000000 0.089647 0.000000 0.020954
# 5 0.024832 0.114019 0.035599 0.000000 0.117383 0.000000
# 6 0.000000 0.000000 0.000000 0.020954 0.000000 0.037483
#
#
# Mechanical properties :
#
#
# Convention : Reuss Voigt Hill
#
# Bulk Modulus (GPa) = 4.97350 19.14234 12.05792
# Shear Modulus (GPa) = 194.30167 21.24503 107.77335
#
# Velocity S-wave (km/s) = 9.92868 3.28308 7.39451
# Velocity P-wave (km/s) = 11.57418 4.90748 8.88946
#
# Compressibility (1/GPa) = 0.20106581
#
# Stress axis : x y z
#
# Youngs Moduli (GPa) = 88.59103 -12.36947 36.78076
#
# Poissons Ratio (x) = 0.70846 -0.12113
# Poissons Ratio (y) = -5.07406 -2.24910
# Poissons Ratio (z) = -0.29175 0.75638
#
# Static dielectric constant tensor:
#      x y z
#    x 1.672280 0.000000 -0.013920 
#    y 0.000000 1.732920 0.000000 
#    z -0.013920 0.000000 1.780050 
# 
# From -- ./inp_files/51644.got.cif
#   From: 2010.05.17/outbox.ucp.g08.bks.cvg/sg11_26_cif.got.tgz:51644.got - 2010.06.11 11:38:39.
