data_PCOD9167581
_publ_section_title
;
Structure prediction by ZEFSAII (Michael W. Deem and Ramdas Pophale) SiO2 
 PCOD9167581
Probable space group: P 21/M
;
_chemical_formula_sum "Si O2"
_cell_formula_units_Z 20
_cell_length_a 8.312042
_cell_length_b 20.881083
_cell_length_c 10.001004
_cell_angle_alpha 90.000000
_cell_angle_beta 31.034450
_cell_angle_gamma 90.000000
_cell_volume 894.907149
_symmetry_space_group_name_H-M "P 21/M"
_symmetry_group_IT_number 11
_symmetry_cell_setting 'monoclinic'
loop_
_space_group_symop_operation_xyz
x,y,z
-x,1/2+y,-z
-x,-y,-z
x,1/2-y,z
loop_
_atom_site_type_symbol
_atom_site_label
_atom_site_fract_x
_atom_site_fract_y
_atom_site_fract_z
Si Si1 0.411679 0.750000 0.088377
Si Si2 0.860794 0.433687 0.549465
Si Si3 0.528310 0.113713 0.038898
Si Si4 0.559913 0.381120 0.517483
Si Si5 0.887084 0.069014 0.028398
Si Si6 0.844431 0.250000 0.429112
O O1 0.347358 0.686047 0.050400
O O2 0.782976 0.750000 0.856375
O O3 0.235779 0.750000 0.355549
O O4 0.717230 0.433329 0.504741
O O5 0.000000 0.500000 0.500000
O O6 0.162477 0.387585 0.331835
O O7 0.597708 0.410927 0.840106
O O8 0.711066 0.068917 0.012256
O O9 0.693744 0.313153 0.470101
O O10 0.192437 0.387190 0.797259
O O11 0.657642 0.399368 0.299248
O O12 0.000000 0.000000 0.000000
#
# Coordination Sequence:
#
# PCOD9167581 Si02
#       6
#     2   4   4   4   4   2
#     4  12  22  44  66  98 134 172 232 288 330 398
#     4  12  23  42  68  99 128 179 235 272 330 404
#     4  12  24  42  67  96 134 181 218 284 340 393
#     4  12  24  43  69  97 133 183 221 281 340 390
#     4  12  26  45  66 102 143 175 221 281 342 407
#     4  12  24  44  70  98 138 168 238 288 322 402
#
# _framework density 22.348689
#
# number of rings (size 3 to 8) (size 9 to 14) (size 15 to 20)
#    0.000    0.000    4.000    7.200    0.000    1.600 
#    0.000    0.000    0.000    0.000    0.000    0.000 
#    0.000    0.000    0.000    0.000    0.000    0.000 
#
# Total GULP energy -112066.612043 kJ/mol
# GULP energy per Si atom -5603.330602 kJ/mol
# Density = 2.229782 g / cm^3
# Si number density = 22.348689 Si / 1000 Ang^3
#
#
#
# Elastic Constant Matrix: (Units=GPa)
#
#
# Indices 1 2 3 4 5 6 
#
# 1 37.3739 -26.9973 9.0916 0.0000 -9.4991 0.0000
# 2 -26.9973 76.3633 17.0001 0.0000 5.2524 0.0000
# 3 9.0916 17.0001 82.8816 0.0000 20.9960 0.0000
# 4 0.0000 0.0000 0.0000 24.6751 0.0000 -1.9537
# 5 -9.4991 5.2524 20.9960 0.0000 26.3872 0.0000
# 6 0.0000 0.0000 0.0000 -1.9537 0.0000 35.9685
#
#
#
# Elastic Compliance Matrix: (Units=1/GPa)
#
#
# Indices 1 2 3 4 5 6 
#
# 1 0.053351 0.020753 -0.017444 0.000000 0.028954 0.000000
# 2 0.020753 0.021803 -0.009446 0.000000 0.010647 0.000000
# 3 -0.017444 -0.009446 0.021330 0.000000 -0.021372 0.000000
# 4 0.000000 0.000000 0.000000 0.040702 0.000000 0.002211
# 5 0.028954 0.010647 -0.021372 0.000000 0.063206 0.000000
# 6 0.000000 0.000000 0.000000 0.002211 0.000000 0.027922
#
#
# Mechanical properties :
#
#
# Convention : Reuss Voigt Hill
#
# Bulk Modulus (GPa) = 11.87492 21.64527 16.76010
# Shear Modulus (GPa) = 18.61110 30.57445 24.59278
#
# Velocity S-wave (km/s) = 2.88889 3.70275 3.32085
# Velocity P-wave (km/s) = 4.05618 5.29025 4.71377
#
# Compressibility (1/GPa) = 0.08421110
#
# Stress axis : x y z
#
# Youngs Moduli (GPa) = 18.74396 45.86559 46.88166
#
# Poissons Ratio (x) = -0.95186 0.81780
# Poissons Ratio (y) = -0.38900 0.44283
# Poissons Ratio (z) = 0.32697 0.43323
#
# Static dielectric constant tensor:
#      x y z
#    x 1.780050 0.000000 -0.021220 
#    y 0.000000 1.862460 0.000000 
#    z -0.021220 0.000000 1.792690 
# 
# From -- ./inp_files/10322.got.cif
#   From: 2010.05.17/outbox.cif.g08.bks.cpg/sg11_6_cif.got.tgz:10322.got - 2010.06.03 12:22:45.
