data_PCOD9167370
_publ_section_title
;
Structure prediction by ZEFSAII (Michael W. Deem and Ramdas Pophale) SiO2 
 PCOD9167370
Probable space group: P 21/M
;
_chemical_formula_sum "Si O2"
_cell_formula_units_Z 22
_cell_length_a 5.104873
_cell_length_b 12.811099
_cell_length_c 14.947175
_cell_angle_alpha 90.000000
_cell_angle_beta 104.424521
_cell_angle_gamma 90.000000
_cell_volume 946.715742
_symmetry_space_group_name_H-M "P 21/M"
_symmetry_group_IT_number 11
_symmetry_cell_setting 'monoclinic'
loop_
_space_group_symop_operation_xyz
x,y,z
-x,1/2+y,-z
-x,-y,-z
x,1/2-y,z
loop_
_atom_site_type_symbol
_atom_site_label
_atom_site_fract_x
_atom_site_fract_y
_atom_site_fract_z
Si Si1 0.403652 0.250000 0.033232
Si Si2 0.594204 0.250000 0.327075
Si Si3 0.889481 0.440246 0.785991
Si Si4 0.403947 0.922379 0.812925
Si Si5 0.356387 0.560364 0.566752
Si Si6 0.057292 0.131011 0.610946
Si Si7 0.816892 0.250000 0.914047
O O1 0.504148 0.351247 0.096004
O O2 0.079918 0.250000 0.000173
O O3 0.543997 0.250000 0.948441
O O4 0.713189 0.341510 0.270034
O O5 0.474819 0.155852 0.380166
O O6 0.184565 0.492054 0.820957
O O7 0.880711 0.393544 0.684511
O O8 0.840668 0.349276 0.852382
O O9 0.670019 0.526804 0.792393
O O10 0.500000 0.500000 0.500000
O O11 0.260597 0.466675 0.622886
O O12 0.105480 0.619293 0.496252
O O13 0.162978 0.250000 0.627078
#
# Coordination Sequence:
#
# PCOD9167370 Si02
#       7
#     2   2   4   4   4   4   2
#     4  11  26  48  70 112 134 186 230 298 353 424
#     4  11  22  45  67 102 136 190 240 294 341 430
#     4  12  25  47  70 107 139 192 228 292 355 424
#     4  11  26  46  74 100 144 180 239 293 353 414
#     4  11  24  44  67 101 136 188 238 292 353 409
#     4  11  24  43  67 101 141 184 237 292 352 420
#     4  12  26  45  75 104 146 178 238 280 360 438
#
# _framework density 23.238233000000001
#
# number of rings (size 3 to 8) (size 9 to 14) (size 15 to 20)
#    0.000    0.727    3.636    3.273    1.273    6.545 
#    6.545    0.000    0.000    0.000    0.000    0.000 
#    0.000    0.000    0.000    0.000    0.000    0.000 
#
# Total GULP energy -122510.127616 kJ/mol
# GULP energy per Si atom -5568.642164 kJ/mol
# Density = 2.318534 g / cm^3
# Si number density = 23.238233 Si / 1000 Ang^3
#
#
#
# Elastic Constant Matrix: (Units=GPa)
#
#
# Indices 1 2 3 4 5 6 
#
# 1 46.6105 16.3183 3.9555 0.0000 -12.6504 0.0000
# 2 16.3183 198.8776 48.7846 0.0000 -23.9339 0.0000
# 3 3.9555 48.7846 66.6526 0.0000 -17.6410 0.0000
# 4 0.0000 0.0000 0.0000 82.0364 0.0000 -24.8843
# 5 -12.6504 -23.9339 -17.6410 0.0000 34.4858 0.0000
# 6 0.0000 0.0000 0.0000 -24.8843 0.0000 25.6714
#
#
#
# Elastic Compliance Matrix: (Units=1/GPa)
#
#
# Indices 1 2 3 4 5 6 
#
# 1 0.024192 -0.001389 0.001937 0.000000 0.008901 0.000000
# 2 -0.001389 0.006365 -0.004097 0.000000 0.001812 0.000000
# 3 0.001937 -0.004097 0.020035 0.000000 0.008116 0.000000
# 4 0.000000 0.000000 0.000000 0.017267 0.000000 0.016737
# 5 0.008901 0.001812 0.008116 0.000000 0.037672 0.000000
# 6 0.000000 0.000000 0.000000 0.016737 0.000000 0.055178
#
#
# Mechanical properties :
#
#
# Convention : Reuss Voigt Hill
#
# Bulk Modulus (GPa) = 22.99145 50.02861 36.51003
# Shear Modulus (GPa) = 27.42658 44.64420 36.03539
#
# Velocity S-wave (km/s) = 3.43918 4.38785 3.94216
# Velocity P-wave (km/s) = 5.06813 6.87359 6.03872
#
# Compressibility (1/GPa) = 0.04349443
#
# Stress axis : x y z
#
# Youngs Moduli (GPa) = 41.33580 157.10359 49.91323
#
# Poissons Ratio (x) = 0.21820 -0.09667
# Poissons Ratio (y) = 0.05741 0.20448
# Poissons Ratio (z) = -0.08006 0.64361
#
# Static dielectric constant tensor:
#      x y z
#    x 1.891420 0.000000 0.055560 
#    y 0.000000 1.809850 0.000000 
#    z 0.055560 0.000000 1.966370 
# 
# From -- ./inp_files/45632.got.cif
#   From: 2010.05.17/outbox.cif.g08.bks.cpg/sg11_23_cif.got.tgz:45632.got - 2010.06.03 12:22:45.
