data_PCOD9167272
_publ_section_title
;
Structure prediction by ZEFSAII (Michael W. Deem and Ramdas Pophale) SiO2 
 PCOD9167272
Probable space group: P 21/M
;
_chemical_formula_sum "Si O2"
_cell_formula_units_Z 32
_cell_length_a 22.020838
_cell_length_b 8.842306
_cell_length_c 12.214188
_cell_angle_alpha 90.000000
_cell_angle_beta 46.535338
_cell_angle_gamma 90.000000
_cell_volume 1726.156706
_symmetry_space_group_name_H-M "P 21/M"
_symmetry_group_IT_number 11
_symmetry_cell_setting 'monoclinic'
loop_
_space_group_symop_operation_xyz
x,y,z
-x,1/2+y,-z
-x,-y,-z
x,1/2-y,z
loop_
_atom_site_type_symbol
_atom_site_label
_atom_site_fract_x
_atom_site_fract_y
_atom_site_fract_z
Si Si1 0.875676 0.569935 0.902964
Si Si2 0.760402 0.068592 0.431710
Si Si3 0.603251 0.067951 0.479785
Si Si4 0.426542 0.568005 0.732870
Si Si5 0.907497 0.930304 0.112884
Si Si6 0.778626 0.929255 0.638925
Si Si7 0.731670 0.068336 0.928946
Si Si8 0.977004 0.929425 0.411323
O O1 0.872010 0.750000 0.889785
O O2 0.804465 0.491347 0.918954
O O3 0.964639 0.508121 0.750587
O O4 0.868701 0.539126 0.040681
O O5 0.765612 0.250000 0.425587
O O6 0.685231 0.020501 0.444246
O O7 0.846696 0.001068 0.278465
O O8 0.743839 0.008079 0.573723
O O9 0.599524 0.250000 0.487540
O O10 0.604607 0.021833 0.350250
O O11 0.517733 0.002603 0.635424
O O12 0.433817 0.750000 0.724329
O O13 0.357091 0.524804 0.907509
O O14 0.913007 0.750000 0.121495
O O15 0.000000 0.000000 0.000000
O O16 0.763123 0.750000 0.655594
O O17 0.878964 0.952946 0.513370
O O18 0.744485 0.998918 0.793501
O O19 0.736805 0.250000 0.917167
O O20 0.993709 0.750000 0.391635
O O21 0.000000 0.000000 0.500000
#
# Coordination Sequence:
#
# PCOD9167272 Si02
#       8
#     4   4   4   4   4   4   4   4
#     4  11  23  37  56  84 116 150 193 240 290 347
#     4  11  23  40  62  86 117 156 198 239 288 349
#     4   9  19  37  61  89 118 150 187 231 286 347
#     4   9  19  36  60  90 119 146 183 234 290 346
#     4  11  24  40  59  85 118 155 196 241 290 342
#     4  11  24  40  58  83 116 154 198 243 289 346
#     4  11  22  37  59  86 116 150 190 239 293 345
#     4  11  22  36  56  80 111 150 194 242 289 341
#
# _framework density 18.538292999999999
#
# number of rings (size 3 to 8) (size 9 to 14) (size 15 to 20)
#    0.000    1.500    1.250    3.750    0.000    8.500 
#    0.000    3.125    0.000    0.000    0.000    0.000 
#    0.000    0.000    0.000    0.000    0.000    0.000 
#
# Total GULP energy -178893.783487 kJ/mol
# GULP energy per Si atom -5590.430734 kJ/mol
# Density = 1.849610 g / cm^3
# Si number density = 18.538293 Si / 1000 Ang^3
#
#
#
# Elastic Constant Matrix: (Units=GPa)
#
#
# Indices 1 2 3 4 5 6 
#
# 1 100.3521 38.0617 50.4329 0.0000 -0.9271 0.0000
# 2 38.0617 42.5829 44.1197 0.0000 4.2603 0.0000
# 3 50.4329 44.1197 139.1532 0.0000 -1.6576 0.0000
# 4 0.0000 0.0000 0.0000 33.8940 0.0000 -1.5236
# 5 -0.9271 4.2603 -1.6576 0.0000 24.3211 0.0000
# 6 0.0000 0.0000 0.0000 -1.5236 0.0000 29.1818
#
#
#
# Elastic Compliance Matrix: (Units=1/GPa)
#
#
# Indices 1 2 3 4 5 6 
#
# 1 0.015540 -0.012440 -0.001656 0.000000 0.002659 0.000000
# 2 -0.012440 0.046123 -0.010225 0.000000 -0.009250 0.000000
# 3 -0.001656 -0.010225 0.011058 0.000000 0.002482 0.000000
# 4 0.000000 0.000000 0.000000 0.029573 0.000000 0.001544
# 5 0.002659 -0.009250 0.002482 0.000000 0.043007 0.000000
# 6 0.000000 0.000000 0.000000 0.001544 0.000000 0.034348
#
#
# Mechanical properties :
#
#
# Convention : Reuss Voigt Hill
#
# Bulk Modulus (GPa) = 41.53204 60.81298 51.17251
# Shear Modulus (GPa) = 21.15786 27.44431 24.30108
#
# Velocity S-wave (km/s) = 3.38199 3.85179 3.62451
# Velocity P-wave (km/s) = 6.14023 7.25651 6.72158
#
# Compressibility (1/GPa) = 0.02407780
#
# Stress axis : x y z
#
# Youngs Moduli (GPa) = 64.34934 21.68137 90.43142
#
# Poissons Ratio (x) = 0.26972 0.14978
# Poissons Ratio (y) = 0.80052 0.92467
# Poissons Ratio (z) = 0.10658 0.22169
#
# Static dielectric constant tensor:
#      x y z
#    x 1.627750 0.000000 0.011090 
#    y 0.000000 1.616590 0.000000 
#    z 0.011090 0.000000 1.621880 
# 
# From -- ./inp_files/42817.got.cif
#   From: 2010.05.17/outbox.cif.g08.bks.cpg/sg11_22_cif.got.tgz:42817.got - 2010.06.03 12:22:45.
