data_PCOD9167239
_publ_section_title
;
Structure prediction by ZEFSAII (Michael W. Deem and Ramdas Pophale) SiO2 
 PCOD9167239
Probable space group: P 21/M
;
_chemical_formula_sum "Si O2"
_cell_formula_units_Z 28
_cell_length_a 30.629137
_cell_length_b 8.703306
_cell_length_c 14.381047
_cell_angle_alpha 90.000000
_cell_angle_beta 27.722907
_cell_angle_gamma 90.000000
_cell_volume 1783.386533
_symmetry_space_group_name_H-M "P 21/M"
_symmetry_group_IT_number 11
_symmetry_cell_setting 'monoclinic'
loop_
_space_group_symop_operation_xyz
x,y,z
-x,1/2+y,-z
-x,-y,-z
x,1/2-y,z
loop_
_atom_site_type_symbol
_atom_site_label
_atom_site_fract_x
_atom_site_fract_y
_atom_site_fract_z
Si Si1 0.725442 0.434852 0.019651
Si Si2 0.664130 0.435403 0.345748
Si Si3 0.173687 0.563353 0.822494
Si Si4 0.902216 0.434338 0.224214
Si Si5 0.920980 0.566100 0.581008
Si Si6 0.476635 0.566161 0.645944
Si Si7 0.967498 0.935457 0.283496
O O1 0.736608 0.250000 0.996536
O O2 0.819258 0.511624 0.806290
O O3 0.703546 0.477140 0.168625
O O4 0.632632 0.475232 0.134452
O O5 0.658592 0.250000 0.358174
O O6 0.737903 0.489456 0.284145
O O7 0.559330 0.500907 0.553838
O O8 0.174279 0.750000 0.825112
O O9 0.171465 0.520672 0.717570
O O10 0.074276 0.515647 0.056128
O O11 0.906402 0.250000 0.219905
O O12 0.897784 0.499861 0.336218
O O13 0.000000 0.500000 0.000000
O O14 0.926074 0.750000 0.573648
O O15 0.941228 0.516090 0.436804
O O16 0.000000 0.500000 0.500000
O O17 0.500000 0.500000 0.500000
O O18 0.482509 0.750000 0.632292
O O19 0.965566 0.750000 0.282154
#
# Coordination Sequence:
#
# PCOD9167239 Si02
#       7
#     4   4   4   4   4   4   4
#     4   9  18  31  45  62  89 122 151 179 217 262
#     4   9  16  28  46  66  90 119 145 177 221 266
#     4   8  14  26  44  64  88 115 141 172 217 264
#     4   9  16  27  44  65  88 116 148 181 218 263
#     4  11  22  33  47  66  90 120 154 188 221 260
#     4   9  17  29  44  63  87 115 146 182 221 262
#     4   9  18  32  45  60  87 121 152 183 218 259
#
# _framework density 15.700467
#
# number of rings (size 3 to 8) (size 9 to 14) (size 15 to 20)
#    0.000    2.857    0.000    3.857    0.000    6.286 
#    0.000    3.571    0.000    0.000    0.000    1.000 
#    0.000    0.000    0.000    0.000    0.000    0.000 
#
# Total GULP energy -155882.107697 kJ/mol
# GULP energy per Si atom -5567.218132 kJ/mol
# Density = 1.566473 g / cm^3
# Si number density = 15.700467 Si / 1000 Ang^3
#
#
#
# Elastic Constant Matrix: (Units=GPa)
#
#
# Indices 1 2 3 4 5 6 
#
# 1 160.6847 33.2842 70.0564 0.0000 -16.3428 0.0000
# 2 33.2842 20.2544 25.8018 0.0000 -2.8580 0.0000
# 3 70.0564 25.8018 88.2680 0.0000 -16.4941 0.0000
# 4 0.0000 0.0000 0.0000 23.5918 0.0000 -2.8604
# 5 -16.3428 -2.8580 -16.4941 0.0000 27.7166 0.0000
# 6 0.0000 0.0000 0.0000 -2.8604 0.0000 24.5066
#
#
#
# Elastic Compliance Matrix: (Units=1/GPa)
#
#
# Indices 1 2 3 4 5 6 
#
# 1 0.010982 -0.011428 -0.004935 0.000000 0.002360 0.000000
# 2 -0.011428 0.091536 -0.019333 0.000000 -0.008804 0.000000
# 3 -0.004935 -0.019333 0.022480 0.000000 0.008475 0.000000
# 4 0.000000 0.000000 0.000000 0.042996 0.000000 0.005019
# 5 0.002360 -0.008804 0.008475 0.000000 0.041607 0.000000
# 6 0.000000 0.000000 0.000000 0.005019 0.000000 0.041391
#
#
# Mechanical properties :
#
#
# Convention : Reuss Voigt Hill
#
# Bulk Modulus (GPa) = 18.65354 58.61021 38.63187
# Shear Modulus (GPa) = 14.69499 24.50063 19.59781
#
# Velocity S-wave (km/s) = 3.06266 3.95461 3.53686
# Velocity P-wave (km/s) = 4.94097 7.63303 6.42948
#
# Compressibility (1/GPa) = 0.05360913
#
# Stress axis : x y z
#
# Youngs Moduli (GPa) = 91.05810 10.92465 44.48303
#
# Poissons Ratio (x) = 0.12484 0.21951
# Poissons Ratio (y) = 1.04057 0.85997
# Poissons Ratio (z) = 0.44934 0.21120
#
# Static dielectric constant tensor:
#      x y z
#    x 1.547770 0.000000 -0.014380 
#    y 0.000000 1.530700 0.000000 
#    z -0.014380 0.000000 1.513060 
# 
# From -- ./inp_files/56400.got.cif
#   From: 2010.05.17/outbox.cif.g08.bks.cpg/sg11_29_cif.got.tgz:56400.got - 2010.06.03 12:22:45.
