data_PCOD9167408
_publ_section_title
;
Structure prediction by ZEFSAII (Michael W. Deem and Ramdas Pophale) SiO2 
 PCOD9167408
Probable space group: P 21/M
;
_chemical_formula_sum "Si O2"
_cell_formula_units_Z 28
_cell_length_a 24.582114
_cell_length_b 8.810119
_cell_length_c 24.582105
_cell_angle_alpha 90.000000
_cell_angle_beta 17.377081
_cell_angle_gamma 90.000000
_cell_volume 1589.995032
_symmetry_space_group_name_H-M "P 21/M"
_symmetry_group_IT_number 11
_symmetry_cell_setting 'monoclinic'
loop_
_space_group_symop_operation_xyz
x,y,z
-x,1/2+y,-z
-x,-y,-z
x,1/2-y,z
loop_
_atom_site_type_symbol
_atom_site_label
_atom_site_fract_x
_atom_site_fract_y
_atom_site_fract_z
Si Si1 0.368585 0.565351 0.780816
Si Si2 0.219182 0.065351 0.631418
Si Si3 0.119365 0.933539 0.119363
Si Si4 0.969659 0.433398 0.969662
Si Si5 0.819973 0.930520 0.819975
Si Si6 0.931448 0.571593 0.508939
Si Si7 0.508940 0.928407 0.931447
O O1 0.372770 0.750000 0.776372
O O2 0.574766 0.511347 0.574764
O O3 0.276795 0.522261 0.925903
O O4 0.223768 0.520075 0.872511
O O5 0.223626 0.250000 0.627231
O O6 0.074095 0.022262 0.723207
O O7 0.127485 0.020075 0.776236
O O8 0.121633 0.750000 0.121630
O O9 0.149321 0.004684 0.149318
O O10 0.971008 0.250000 0.971011
O O11 0.000000 0.500000 0.000000
O O12 0.820387 0.750000 0.820388
O O13 0.973576 0.990708 0.632125
O O14 0.632124 0.990709 0.973577
O O15 0.977675 0.750000 0.464352
O O16 0.714389 0.556223 0.714388
O O17 0.000000 0.500000 0.500000
O O18 0.464353 0.750000 0.977674
O O19 0.500000 0.000000 0.000000
#
# Coordination Sequence:
#
# PCOD9167408 Si02
#       7
#     4   4   4   4   4   4   4
#     4   8  15  30  52  74  99 135 177 222 269 316
#     4   8  15  30  52  74  99 135 177 222 269 316
#     4   9  18  34  55  77  99 130 180 232 270 314
#     4   9  17  29  47  74 106 138 174 214 260 316
#     4  12  25  39  57  83 117 152 181 220 276 340
#     4  11  23  39  61  85 110 142 181 225 273 325
#     4  11  23  39  61  85 110 142 181 225 273 325
#
# _framework density 17.610118
#
# number of rings (size 3 to 8) (size 9 to 14) (size 15 to 20)
#    0.000    2.286    1.429    3.857    0.000    3.429 
#    0.000    5.714    0.000    1.714    0.000    0.000 
#    0.000    0.000    0.000    0.000    0.000    0.000 
#
# Total GULP energy -156237.417644 kJ/mol
# GULP energy per Si atom -5579.907773 kJ/mol
# Density = 1.757004 g / cm^3
# Si number density = 17.610118 Si / 1000 Ang^3
#
#
#
# Elastic Constant Matrix: (Units=GPa)
#
#
# Indices 1 2 3 4 5 6 
#
# 1 197.1279 61.9130 105.1315 0.0000 12.3342 0.0000
# 2 61.9130 70.4292 52.5147 0.0000 1.7099 0.0000
# 3 105.1315 52.5147 164.9304 0.0000 -6.4772 0.0000
# 4 0.0000 0.0000 0.0000 16.2800 0.0000 3.4499
# 5 12.3342 1.7099 -6.4772 0.0000 15.5300 0.0000
# 6 0.0000 0.0000 0.0000 3.4499 0.0000 35.2375
#
#
#
# Elastic Compliance Matrix: (Units=1/GPa)
#
#
# Indices 1 2 3 4 5 6 
#
# 1 0.009890 -0.004567 -0.005224 0.000000 -0.009531 0.000000
# 2 -0.004567 0.021057 -0.003804 0.000000 -0.000278 0.000000
# 3 -0.005224 -0.003804 0.010963 0.000000 0.009140 0.000000
# 4 0.000000 0.000000 0.000000 0.062727 0.000000 -0.006141
# 5 -0.009531 -0.000278 0.009140 0.000000 0.075804 0.000000
# 6 0.000000 0.000000 0.000000 -0.006141 0.000000 0.028980
#
#
# Mechanical properties :
#
#
# Convention : Reuss Voigt Hill
#
# Bulk Modulus (GPa) = 67.93949 96.84509 82.39229
# Shear Modulus (GPa) = 20.70239 27.60471 24.15355
#
# Velocity S-wave (km/s) = 3.43242 3.96352 3.70749
# Velocity P-wave (km/s) = 7.37375 8.72120 8.07563
#
# Compressibility (1/GPa) = 0.01471898
#
# Stress axis : x y z
#
# Youngs Moduli (GPa) = 101.11546 47.49026 91.21270
#
# Poissons Ratio (x) = 0.21690 0.47650
# Poissons Ratio (y) = 0.46182 0.34700
# Poissons Ratio (z) = 0.52823 0.18067
#
# Static dielectric constant tensor:
#      x y z
#    x 1.562810 0.000000 -0.007700 
#    y 0.000000 1.590220 0.000000 
#    z -0.007700 0.000000 1.605130 
# 
# From -- ./inp_files/69910.got.cif
#   From: 2010.05.17/outbox.cif.g08.bks.cpg/sg11_35_cif.got.tgz:69910.got - 2010.06.03 12:22:45.
