data_PCOD9167451
_publ_section_title
;
Structure prediction by ZEFSAII (Michael W. Deem and Ramdas Pophale) SiO2 
 PCOD9167451
Probable space group: P 21/M
;
_chemical_formula_sum "Si O2"
_cell_formula_units_Z 20
_cell_length_a 25.046878
_cell_length_b 8.713132
_cell_length_c 9.678903
_cell_angle_alpha 90.000000
_cell_angle_beta 152.987544
_cell_angle_gamma 90.000000
_cell_volume 959.369806
_symmetry_space_group_name_H-M "P 21/M"
_symmetry_group_IT_number 11
_symmetry_cell_setting 'monoclinic'
loop_
_space_group_symop_operation_xyz
x,y,z
-x,1/2+y,-z
-x,-y,-z
x,1/2-y,z
loop_
_atom_site_type_symbol
_atom_site_label
_atom_site_fract_x
_atom_site_fract_y
_atom_site_fract_z
Si Si1 0.780279 0.933309 0.339270
Si Si2 0.963148 0.066774 0.563502
Si Si3 0.144212 0.568935 0.201416
Si Si4 0.595428 0.429926 0.323624
Si Si5 0.525369 0.067596 0.707989
O O1 0.780302 0.750000 0.338149
O O2 0.841654 0.998029 0.342785
O O3 0.850794 0.994926 0.635382
O O4 0.648046 0.996717 0.043719
O O5 0.955462 0.250000 0.538040
O O6 0.000000 0.000000 0.500000
O O7 0.058163 0.014414 0.896749
O O8 0.114044 0.750000 0.141610
O O9 0.275402 0.555468 0.441657
O O10 0.570818 0.250000 0.287312
O O11 0.577392 0.517277 0.425313
O O12 0.500000 0.500000 0.000000
O O13 0.535856 0.250000 0.728449
O O14 0.500000 0.000000 0.500000
#
# Coordination Sequence:
#
# PCOD9167451 Si02
#       5
#     4   4   4   4   4
#     4  12  25  45  71  99 133 175 225 274 330 395
#     4  12  27  47  70  98 134 174 221 276 336 396
#     4  11  24  44  70 100 135 176 222 273 328 392
#     4  11  23  41  68 100 137 175 220 271 326 390
#     4  12  26  44  67  98 138 179 222 273 332 394
#
# _framework density 20.847020000000001
#
# number of rings (size 3 to 8) (size 9 to 14) (size 15 to 20)
#    0.000    0.400    2.000    7.200    2.800    2.400 
#    0.000    0.000    0.000    0.000    0.000    0.000 
#    0.000    0.000    0.000    0.000    0.000    0.000 
#
# Total GULP energy -112052.505402 kJ/mol
# GULP energy per Si atom -5602.625270 kJ/mol
# Density = 2.079957 g / cm^3
# Si number density = 20.847020 Si / 1000 Ang^3
#
#
#
# Elastic Constant Matrix: (Units=GPa)
#
#
# Indices 1 2 3 4 5 6 
#
# 1 142.8178 69.3615 9.8475 0.0000 -18.4190 0.0000
# 2 69.3615 202.3684 23.4492 0.0000 -0.0281 0.0000
# 3 9.8475 23.4492 50.5296 0.0000 -9.9080 0.0000
# 4 0.0000 0.0000 0.0000 38.1873 0.0000 -2.0855
# 5 -18.4190 -0.0281 -9.9080 0.0000 35.8365 0.0000
# 6 0.0000 0.0000 0.0000 -2.0855 0.0000 43.1007
#
#
#
# Elastic Compliance Matrix: (Units=1/GPa)
#
#
# Indices 1 2 3 4 5 6 
#
# 1 0.009145 -0.003211 0.000665 0.000000 0.004882 0.000000
# 2 -0.003211 0.006366 -0.002803 0.000000 -0.002420 0.000000
# 3 0.000665 -0.002803 0.022234 0.000000 0.006487 0.000000
# 4 0.000000 0.000000 0.000000 0.026256 0.000000 0.001270
# 5 0.004882 -0.002420 0.006487 0.000000 0.032205 0.000000
# 6 0.000000 0.000000 0.000000 0.001270 0.000000 0.023263
#
#
# Mechanical properties :
#
#
# Convention : Reuss Voigt Hill
#
# Bulk Modulus (GPa) = 36.97284 66.78135 51.87710
# Shear Modulus (GPa) = 35.92386 42.96206 39.44296
#
# Velocity S-wave (km/s) = 4.15566 4.54456 4.35445
# Velocity P-wave (km/s) = 6.38748 7.72275 7.08663
#
# Compressibility (1/GPa) = 0.02704688
#
# Stress axis : x y z
#
# Youngs Moduli (GPa) = 109.34892 157.07242 44.97689
#
# Poissons Ratio (x) = 0.50433 -0.02991
# Poissons Ratio (y) = 0.35110 0.12609
# Poissons Ratio (z) = -0.07272 0.44033
#
# Static dielectric constant tensor:
#      x y z
#    x 1.708140 0.000000 -0.032960 
#    y 0.000000 1.705310 0.000000 
#    z -0.032960 0.000000 1.646590 
# 
# From -- ./inp_files/15939.got.cif
#   From: 2010.05.17/outbox.cif.g08.bks.cpg/sg11_8_cif.got.tgz:15939.got - 2010.06.03 12:22:45.
