data_PCOD9167905
_publ_section_title
;
Structure prediction by ZEFSAII (Michael W. Deem and Ramdas Pophale) SiO2 
 PCOD9167905
Probable space group: P 21/M
;
_chemical_formula_sum "Si O2"
_cell_formula_units_Z 32
_cell_length_a 9.000000
_cell_length_b 18.000000
_cell_length_c 12.000000
_cell_angle_alpha 90.000000
_cell_angle_beta 120.000000
_cell_angle_gamma 90.000000
_cell_volume 1683.553385
_symmetry_space_group_name_H-M "P 21/M"
_symmetry_group_IT_number 11
_symmetry_cell_setting 'monoclinic'
loop_
_space_group_symop_operation_xyz
x,y,z
-x,1/2+y,-z
-x,-y,-z
x,1/2-y,z
loop_
_atom_site_type_symbol
_atom_site_label
_atom_site_fract_x
_atom_site_fract_y
_atom_site_fract_z
Si Si1 0.362667 0.927462 0.525834
Si Si2 0.857844 0.666524 0.552524
Si Si3 0.126838 0.553734 0.616080
Si Si4 0.611135 0.833966 0.255001
Si Si5 0.986237 0.035422 0.875468
Si Si6 0.727442 0.336072 0.725071
Si Si7 0.278909 0.065707 0.349439
Si Si8 0.663801 0.966533 0.122027
O O1 0.224427 0.900058 0.559659
O O2 0.348447 0.875980 0.413021
O O3 0.545704 0.934828 0.652489
O O4 0.317851 0.011139 0.469068
O O5 0.913489 0.750000 0.566489
O O6 0.755994 0.647374 0.401665
O O7 0.737165 0.648684 0.611420
O O8 0.009201 0.610791 0.635514
O O9 0.260726 0.513403 0.745514
O O10 0.000000 0.500000 0.500000
O O11 0.643934 0.750000 0.233051
O O12 0.427461 0.838221 0.245455
O O13 0.615525 0.888040 0.154593
O O14 0.883448 0.112626 0.825106
O O15 0.174422 0.042365 0.897084
O O16 0.874487 0.974958 0.767006
O O17 0.000000 0.000000 0.000000
O O18 0.773525 0.250000 0.722430
O O19 0.500000 0.000000 0.000000
#
# Coordination Sequence:
#
# PCOD9167905 Si02
#       8
#     4   4   4   4   4   4   4   4
#     4  10  20  31  60  88 121 150 193 247 304 354
#     4  11  21  37  61  90 124 160 200 248 312 374
#     4  12  21  38  59  91 124 157 202 252 307 356
#     4  10  21  38  62  92 126 162 200 251 314 370
#     4  11  24  40  62  86 117 162 215 248 298 369
#     4  10  21  38  61  92 125 154 197 257 309 359
#     4  10  19  36  56  88 116 155 192 247 296 356
#     4  12  25  40  63  91 123 164 209 257 307 372
#
# _framework density 19.007415999999999
#
# number of rings (size 3 to 8) (size 9 to 14) (size 15 to 20)
#    0.000    1.250    5.000    1.500    5.250    1.000 
#    0.000    1.250    0.000    0.000    0.000    0.000 
#    0.000    0.000    0.000    0.000    0.000    0.000 
#
# Total GULP energy -178144.369470 kJ/mol
# GULP energy per Si atom -5567.011546 kJ/mol
# Density = 1.896415 g / cm^3
# Si number density = 19.007416 Si / 1000 Ang^3
#
#
#
# Elastic Constant Matrix: (Units=GPa)
#
#
# Indices 1 2 3 4 5 6 
#
# 1 75.5696 51.6428 45.2962 0.0000 6.9957 0.0000
# 2 51.6428 104.9667 74.7478 0.0000 1.4005 0.0000
# 3 45.2962 74.7478 72.2136 0.0000 15.0910 0.0000
# 4 0.0000 0.0000 0.0000 21.5717 0.0000 -0.5711
# 5 6.9957 1.4005 15.0910 0.0000 24.5918 0.0000
# 6 0.0000 0.0000 0.0000 -0.5711 0.0000 17.3487
#
#
#
# Elastic Compliance Matrix: (Units=1/GPa)
#
#
# Indices 1 2 3 4 5 6 
#
# 1 0.021581 -0.003705 -0.009707 0.000000 0.000029 0.000000
# 2 -0.003705 0.055691 -0.062952 0.000000 0.036513 0.000000
# 3 -0.009707 -0.062952 0.096095 0.000000 -0.052623 0.000000
# 4 0.000000 0.000000 0.000000 0.046397 0.000000 0.001527
# 5 0.000029 0.036513 -0.052623 0.000000 0.070869 0.000000
# 6 0.000000 0.000000 0.000000 0.001527 0.000000 0.057691
#
#
# Mechanical properties :
#
#
# Convention : Reuss Voigt Hill
#
# Bulk Modulus (GPa) = 48.45489 66.23595 57.34542
# Shear Modulus (GPa) = 9.84382 18.10666 13.97524
#
# Velocity S-wave (km/s) = 2.27820 3.08979 2.71449
# Velocity P-wave (km/s) = 5.69809 6.90305 6.32931
#
# Compressibility (1/GPa) = 0.02063775
#
# Stress axis : x y z
#
# Youngs Moduli (GPa) = 46.33729 17.95614 10.40639
#
# Poissons Ratio (x) = 0.06653 0.10102
# Poissons Ratio (y) = 0.17169 0.65510
# Poissons Ratio (z) = 0.44982 1.13037
#
# Static dielectric constant tensor:
#      x y z
#    x 1.601190 0.000000 0.019190 
#    y 0.000000 1.648070 0.000000 
#    z 0.019190 0.000000 1.557590 
# 
# From -- ./inp_files/32370.got.cif
#   From: 2010.05.17/outbox.ucp.g08.bks.cvg/sg11_17_cif.got.tgz:32370.got - 2010.06.11 11:38:39.
