data_PCOD9167273
_publ_section_title
;
Structure prediction by ZEFSAII (Michael W. Deem and Ramdas Pophale) SiO2 
 PCOD9167273
Probable space group: P 21/M
;
_chemical_formula_sum "Si O2"
_cell_formula_units_Z 16
_cell_length_a 9.997808
_cell_length_b 14.758432
_cell_length_c 5.162898
_cell_angle_alpha 90.000000
_cell_angle_beta 94.381557
_cell_angle_gamma 90.000000
_cell_volume 759.569341
_symmetry_space_group_name_H-M "P 21/M"
_symmetry_group_IT_number 11
_symmetry_cell_setting 'monoclinic'
loop_
_space_group_symop_operation_xyz
x,y,z
-x,1/2+y,-z
-x,-y,-z
x,1/2-y,z
loop_
_atom_site_type_symbol
_atom_site_label
_atom_site_fract_x
_atom_site_fract_y
_atom_site_fract_z
Si Si1 0.881352 0.415281 0.777688
Si Si2 0.710326 0.852604 0.439004
Si Si3 0.998659 0.113236 0.297104
Si Si4 0.358554 0.035284 0.079333
O O1 0.970035 0.506421 0.744426
O O2 0.884371 0.372435 0.494495
O O3 0.740858 0.452969 0.860958
O O4 0.952371 0.356276 0.008067
O O5 0.662378 0.750000 0.395502
O O6 0.862953 0.850462 0.567496
O O7 0.703798 0.906741 0.167597
O O8 0.632369 0.904830 0.657644
O O9 0.500000 0.000000 0.000000
#
# Coordination Sequence:
#
# PCOD9167273 Si02
#       4
#     4   4   4   4
#     4   9  16  29  51  77 103 128 167 219 259 305
#     4  11  22  36  56  81 110 141 180 236 288 328
#     4   9  16  29  51  78 102 129 164 213 274 315
#     4  11  22  36  56  82 109 148 195 224 260 328
#
# _framework density 21.064565999999999
#
# number of rings (size 3 to 8) (size 9 to 14) (size 15 to 20)
#    0.000    2.000    0.000    9.000    0.000    0.000 
#    0.000    0.000    0.000    9.000    0.000    0.000 
#    0.000    0.000    0.000    0.000    0.000    0.000 
#
# Total GULP energy -89257.609955 kJ/mol
# GULP energy per Si atom -5578.600622 kJ/mol
# Density = 2.101662 g / cm^3
# Si number density = 21.064566 Si / 1000 Ang^3
#
#
#
# Elastic Constant Matrix: (Units=GPa)
#
#
# Indices 1 2 3 4 5 6 
#
# 1 108.5166 15.4872 30.5769 0.0000 -32.6030 0.0000
# 2 15.4872 53.2372 3.9690 0.0000 -2.4705 0.0000
# 3 30.5769 3.9690 88.4868 0.0000 -23.4163 0.0000
# 4 0.0000 0.0000 0.0000 -14.0662 0.0000 -9.4168
# 5 -32.6030 -2.4705 -23.4163 0.0000 33.8376 0.0000
# 6 0.0000 0.0000 0.0000 -9.4168 0.0000 -0.8195
#
#
#
# Elastic Compliance Matrix: (Units=1/GPa)
#
#
# Indices 1 2 3 4 5 6 
#
# 1 0.013681 -0.003319 -0.001413 0.000000 0.011961 0.000000
# 2 -0.003319 0.019678 -0.000247 0.000000 -0.001933 0.000000
# 3 -0.001413 -0.000247 0.013999 0.000000 0.008308 0.000000
# 4 0.000000 0.000000 0.000000 0.010622 0.000000 -0.122060
# 5 0.011961 -0.001933 0.008308 0.000000 0.046686 0.000000
# 6 0.000000 0.000000 0.000000 -0.122060 0.000000 0.182325
#
#
# Mechanical properties :
#
#
# Convention : Reuss Voigt Hill
#
# Bulk Modulus (GPa) = 26.73886 38.92299 32.83092
# Shear Modulus (GPa) = 16.15941 17.13755 16.64848
#
# Velocity S-wave (km/s) = 2.77273 2.85541 2.81437
# Velocity P-wave (km/s) = 4.79291 5.42118 5.11670
#
# Compressibility (1/GPa) = 0.03739875
#
# Stress axis : x y z
#
# Youngs Moduli (GPa) = 73.09498 50.81753 71.43330
#
# Poissons Ratio (x) = 0.16869 0.10095
# Poissons Ratio (y) = 0.24264 0.01764
# Poissons Ratio (z) = 0.10330 0.01255
#
# Static dielectric constant tensor:
#      x y z
#    x 1.744700 0.000000 -0.005350 
#    y 0.000000 1.904780 0.000000 
#    z -0.005350 0.000000 1.806050 
# 
# From -- ./inp_files/1630.got.cif
#   From: 2010.05.17/outbox.cif.g08.bks.cpg/sg11_1_cif.got.tgz:1630.got - 2010.06.03 12:22:45.
