data_PCOD9167730
_publ_section_title
;
Structure prediction by ZEFSAII (Michael W. Deem and Ramdas Pophale) SiO2 
 PCOD9167730
Probable space group: P 21/M
;
_chemical_formula_sum "Si O2"
_cell_formula_units_Z 32
_cell_length_a 12.000000
_cell_length_b 9.000000
_cell_length_c 21.000000
_cell_angle_alpha 90.000000
_cell_angle_beta 130.000000
_cell_angle_gamma 90.000000
_cell_volume 1737.388797
_symmetry_space_group_name_H-M "P 21/M"
_symmetry_group_IT_number 11
_symmetry_cell_setting 'monoclinic'
loop_
_space_group_symop_operation_xyz
x,y,z
-x,1/2+y,-z
-x,-y,-z
x,1/2-y,z
loop_
_atom_site_type_symbol
_atom_site_label
_atom_site_fract_x
_atom_site_fract_y
_atom_site_fract_z
Si Si1 0.796430 0.924481 0.630023
Si Si2 0.618701 0.570867 0.448178
Si Si3 0.305752 0.428461 0.661731
Si Si4 0.632257 0.927721 0.963615
Si Si5 0.384140 0.070664 0.187466
Si Si6 0.697767 0.427895 0.115331
Si Si7 0.115319 0.576059 0.695013
Si Si8 0.706158 0.427618 0.718776
O O1 0.767851 0.750000 0.633994
O O2 0.675523 0.987220 0.536528
O O3 0.944604 0.932503 0.644368
O O4 0.809172 0.010254 0.701265
O O5 0.627925 0.750000 0.456671
O O6 0.709772 0.528711 0.418469
O O7 0.453749 0.534228 0.368869
O O8 0.322790 0.250000 0.670940
O O9 0.454181 0.504170 0.741974
O O10 0.176100 0.483335 0.658564
O O11 0.646982 0.750000 0.973054
O O12 0.664260 0.970872 0.902252
O O13 0.463359 0.965098 0.917177
O O14 0.719058 0.000658 0.053832
O O15 0.389577 0.250000 0.193388
O O16 0.288336 0.004487 0.210066
O O17 0.705894 0.250000 0.111391
O O18 0.808078 0.473823 0.211166
O O19 0.155204 0.750000 0.699709
O O20 0.716642 0.250000 0.729493
#
# Coordination Sequence:
#
# PCOD9167730 Si02
#       8
#     4   4   4   4   4   4   4   4
#     4  10  20  35  54  71  95 136 177 206 246 296
#     4   8  17  33  51  74 100 127 164 212 253 294
#     4  10  19  31  49  74 104 134 165 204 252 295
#     4   9  17  29  48  74 101 127 160 200 242 292
#     4  10  18  32  53  76 103 130 164 205 248 299
#     4   9  17  30  46  70 103 131 160 199 242 290
#     4  10  20  34  50  71 102 138 171 204 241 298
#     4  10  20  34  52  76 104 127 163 214 257 292
#
# _framework density 18.418444999999998
#
# number of rings (size 3 to 8) (size 9 to 14) (size 15 to 20)
#    0.000    2.500    1.250    2.250    0.000    2.500 
#    0.000    3.125    0.000    0.750    0.000    0.000 
#    0.000    0.000    0.000    0.000    0.000    0.000 
#
# Total GULP energy -178379.746660 kJ/mol
# GULP energy per Si atom -5574.367083 kJ/mol
# Density = 1.837652 g / cm^3
# Si number density = 18.418445 Si / 1000 Ang^3
#
#
#
# Elastic Constant Matrix: (Units=GPa)
#
#
# Indices 1 2 3 4 5 6 
#
# 1 71.0414 25.7759 12.2347 0.0000 -33.7280 0.0000
# 2 25.7759 43.7161 6.6286 0.0000 -12.9551 0.0000
# 3 12.2347 6.6286 41.8408 0.0000 -25.7188 0.0000
# 4 0.0000 0.0000 0.0000 21.7089 0.0000 -9.2303
# 5 -33.7280 -12.9551 -25.7188 0.0000 33.6397 0.0000
# 6 0.0000 0.0000 0.0000 -9.2303 0.0000 27.2794
#
#
#
# Elastic Compliance Matrix: (Units=1/GPa)
#
#
# Indices 1 2 3 4 5 6 
#
# 1 0.038606 -0.010887 0.021982 0.000000 0.051320 0.000000
# 2 -0.010887 0.029219 -0.002336 0.000000 -0.001450 0.000000
# 3 0.021982 -0.002336 0.058177 0.000000 0.065618 0.000000
# 4 0.000000 0.000000 0.000000 0.053805 0.000000 0.018205
# 5 0.051320 -0.001450 0.065618 0.000000 0.130791 0.000000
# 6 0.000000 0.000000 0.000000 0.018205 0.000000 0.042818
#
#
# Mechanical properties :
#
#
# Convention : Reuss Voigt Hill
#
# Bulk Modulus (GPa) = 6.96780 27.31964 17.14372
# Shear Modulus (GPa) = 13.02971 23.98953 18.50962
#
# Velocity S-wave (km/s) = 2.66264 3.61289 3.17353
# Velocity P-wave (km/s) = 3.63925 5.68058 4.77038
#
# Compressibility (1/GPa) = 0.14351723
#
# Stress axis : x y z
#
# Youngs Moduli (GPa) = 25.90272 34.22437 17.18902
#
# Poissons Ratio (x) = 0.37261 -0.37784
# Poissons Ratio (y) = 0.28201 0.04016
# Poissons Ratio (z) = -0.56938 0.07996
#
# Static dielectric constant tensor:
#      x y z
#    x 1.660710 0.000000 0.005600 
#    y 0.000000 1.622990 0.000000 
#    z 0.005600 0.000000 1.647610 
# 
# From -- ./inp_files/42821.got.cif
#   From: 2010.05.17/outbox.ucp.g08.bks.cvg/sg11_22_cif.got.tgz:42821.got - 2010.06.11 11:38:39.
