data_PCOD9167697
_publ_section_title
;
Structure prediction by ZEFSAII (Michael W. Deem and Ramdas Pophale) SiO2 
 PCOD9167697
Probable space group: P 21/M
;
_chemical_formula_sum "Si O2"
_cell_formula_units_Z 28
_cell_length_a 12.000000
_cell_length_b 15.000000
_cell_length_c 9.000000
_cell_angle_alpha 90.000000
_cell_angle_beta 110.000000
_cell_angle_gamma 90.000000
_cell_volume 1522.302046
_symmetry_space_group_name_H-M "P 21/M"
_symmetry_group_IT_number 11
_symmetry_cell_setting 'monoclinic'
loop_
_space_group_symop_operation_xyz
x,y,z
-x,1/2+y,-z
-x,-y,-z
x,1/2-y,z
loop_
_atom_site_type_symbol
_atom_site_label
_atom_site_fract_x
_atom_site_fract_y
_atom_site_fract_z
Si Si1 0.857643 0.036850 0.823019
Si Si2 0.635929 0.494433 0.501059
Si Si3 0.332538 0.585964 0.036517
Si Si4 0.341621 0.120973 0.989485
Si Si5 0.921916 0.645026 0.008356
Si Si6 0.590580 0.345867 0.239166
Si Si7 0.567641 0.847833 0.293411
O O1 0.746492 0.027214 0.658816
O O2 0.793426 0.080845 0.938847
O O3 0.904329 0.935805 0.878812
O O4 0.969883 0.102139 0.844541
O O5 0.500000 0.500000 0.500000
O O6 0.630794 0.423143 0.366331
O O7 0.647385 0.591467 0.433929
O O8 0.436652 0.613268 0.198330
O O9 0.354871 0.485390 0.994466
O O10 0.349894 0.643663 0.896387
O O11 0.372112 0.154729 0.840401
O O12 0.208806 0.145089 0.976042
O O13 0.448420 0.150335 0.146610
O O14 0.946502 0.750000 0.979516
O O15 0.621404 0.250000 0.317581
O O16 0.553260 0.750000 0.350537
#
# Coordination Sequence:
#
# PCOD9167697 Si02
#       7
#     4   4   4   4   4   4   4
#     4  10  23  38  62  86 115 156 192 235 296 339
#     4  12  22  39  54  87 127 150 179 238 302 352
#     4  10  17  37  59  82 117 151 194 236 282 343
#     4  10  17  35  60  83 112 153 197 240 279 337
#     4  10  21  39  61  84 111 152 204 243 274 337
#     4  11  21  34  59  89 117 153 191 235 294 349
#     4  11  20  32  57  87 116 152 191 235 290 345
#
# _framework density 18.393196
#
# number of rings (size 3 to 8) (size 9 to 14) (size 15 to 20)
#    0.000    1.429    4.286    4.286    0.000    2.857 
#    0.000    0.714    0.000    0.000    0.000    0.000 
#    0.000    0.000    0.000    0.000    0.000    0.000 
#
# Total GULP energy -155945.122241 kJ/mol
# GULP energy per Si atom -5569.468651 kJ/mol
# Density = 1.835133 g / cm^3
# Si number density = 18.393196 Si / 1000 Ang^3
#
#
#
# Elastic Constant Matrix: (Units=GPa)
#
#
# Indices 1 2 3 4 5 6 
#
# 1 72.3545 38.2997 29.5986 0.0000 20.4793 0.0000
# 2 38.2997 135.3005 30.1003 0.0000 9.4612 0.0000
# 3 29.5986 30.1003 82.6192 0.0000 25.1632 0.0000
# 4 0.0000 0.0000 0.0000 -45.9320 0.0000 9.7925
# 5 20.4793 9.4612 25.1632 0.0000 22.9670 0.0000
# 6 0.0000 0.0000 0.0000 9.7925 0.0000 11.9620
#
#
#
# Elastic Compliance Matrix: (Units=1/GPa)
#
#
# Indices 1 2 3 4 5 6 
#
# 1 0.021200 -0.004655 -0.001089 0.000000 -0.015793 0.000000
# 2 -0.004655 0.009065 -0.002644 0.000000 0.003313 0.000000
# 3 -0.001089 -0.002644 0.019255 0.000000 -0.019036 0.000000
# 4 0.000000 0.000000 0.000000 -0.018536 0.000000 0.015174
# 5 -0.015793 0.003313 -0.019036 0.000000 0.077114 0.000000
# 6 0.000000 0.000000 0.000000 0.015174 0.000000 0.071176
#
#
# Mechanical properties :
#
#
# Convention : Reuss Voigt Hill
#
# Bulk Modulus (GPa) = 30.53947 54.03016 42.28481
# Shear Modulus (GPa) = 24.15864 10.61776 17.38820
#
# Velocity S-wave (km/s) = 3.62809 2.40524 3.07801
# Velocity P-wave (km/s) = 5.84726 6.09528 5.97256
#
# Compressibility (1/GPa) = 0.03274452
#
# Stress axis : x y z
#
# Youngs Moduli (GPa) = 47.16899 110.31311 51.93469
#
# Poissons Ratio (x) = 0.51346 0.05657
# Poissons Ratio (y) = 0.21955 0.13733
# Poissons Ratio (z) = 0.05138 0.29169
#
# Static dielectric constant tensor:
#      x y z
#    x 1.645300 0.000000 -0.028010 
#    y 0.000000 1.691720 0.000000 
#    z -0.028010 0.000000 1.639350 
# 
# From -- ./inp_files/17822.got.cif
#   From: 2010.05.17/outbox.ucp.g08.bks.cvg/sg11_9_cif.got.tgz:17822.got - 2010.06.11 11:38:39.
