data_PCOD9167130
_publ_section_title
;
Structure prediction by ZEFSAII (Michael W. Deem and Ramdas Pophale) SiO2 
 PCOD9167130
Probable space group: P 21/M
;
_chemical_formula_sum "Si O2"
_cell_formula_units_Z 32
_cell_length_a 18.893823
_cell_length_b 7.943237
_cell_length_c 27.238776
_cell_angle_alpha 90.000000
_cell_angle_beta 155.035682
_cell_angle_gamma 90.000000
_cell_volume 1725.332190
_symmetry_space_group_name_H-M "P 21/M"
_symmetry_group_IT_number 11
_symmetry_cell_setting 'monoclinic'
loop_
_space_group_symop_operation_xyz
x,y,z
-x,1/2+y,-z
-x,-y,-z
x,1/2-y,z
loop_
_atom_site_type_symbol
_atom_site_label
_atom_site_fract_x
_atom_site_fract_y
_atom_site_fract_z
Si Si1 0.181090 0.949838 0.504746
Si Si2 0.590786 0.049336 0.607961
Si Si3 0.294600 0.543786 0.015399
Si Si4 0.474830 0.451594 0.928394
Si Si5 0.080696 0.049254 0.232709
Si Si6 0.259660 0.047628 0.444872
Si Si7 0.396098 0.452459 0.725856
Si Si8 0.835073 0.544239 0.330880
O O1 0.166970 0.750000 0.495559
O O2 0.018074 0.018827 0.431198
O O3 0.187759 0.006098 0.452700
O O4 0.344174 0.997377 0.638775
O O5 0.603893 0.250000 0.619616
O O6 0.453736 0.988677 0.561423
O O7 0.500000 0.000000 0.500000
O O8 0.778026 0.981370 0.719689
O O9 0.292682 0.750000 0.015390
O O10 0.380141 0.490883 0.017748
O O11 0.425087 0.489930 0.139887
O O12 0.103316 0.483877 0.896780
O O13 0.475235 0.250000 0.925832
O O14 0.297196 0.506950 0.794340
O O15 0.500000 0.500000 0.000000
O O16 0.064936 0.250000 0.228618
O O17 0.152068 0.983841 0.330227
O O18 0.263450 0.250000 0.442645
O O19 0.397223 0.250000 0.729058
O O20 0.250017 0.512586 0.671717
O O21 0.840116 0.750000 0.335854
#
# Coordination Sequence:
#
# PCOD9167130 Si02
#       8
#     4   4   4   4   4   4   4   4
#     4  11  21  31  47  71  99 126 159 207 248 278
#     4   9  17  31  50  72  99 129 159 193 236 287
#     4   8  16  31  51  71  93 127 163 196 237 290
#     4   9  17  30  46  65  95 130 161 193 235 283
#     4   9  17  31  52  76 100 125 159 197 236 291
#     4   9  19  32  47  71 101 128 156 189 233 291
#     4   9  17  34  54  67  89 129 170 201 238 286
#     4   8  17  32  47  66  93 127 163 199 241 285
#
# _framework density 18.547152000000001
#
# number of rings (size 3 to 8) (size 9 to 14) (size 15 to 20)
#    0.000    3.000    0.000    3.375    1.750    2.500 
#    0.000    5.000    0.000    0.750    0.000    0.000 
#    0.000    0.000    0.000    0.000    0.000    0.000 
#
# Total GULP energy -178241.225497 kJ/mol
# GULP energy per Si atom -5570.038297 kJ/mol
# Density = 1.850494 g / cm^3
# Si number density = 18.547152 Si / 1000 Ang^3
#
#
#
# Elastic Constant Matrix: (Units=GPa)
#
#
# Indices 1 2 3 4 5 6 
#
# 1 45.1842 5.6403 49.5249 0.0000 7.0767 0.0000
# 2 5.6403 7.3029 9.3250 0.0000 1.4848 0.0000
# 3 49.5249 9.3250 121.1042 0.0000 25.4630 0.0000
# 4 0.0000 0.0000 0.0000 14.4997 0.0000 -0.9142
# 5 7.0767 1.4848 25.4630 0.0000 26.2126 0.0000
# 6 0.0000 0.0000 0.0000 -0.9142 0.0000 23.3751
#
#
#
# Elastic Compliance Matrix: (Units=1/GPa)
#
#
# Indices 1 2 3 4 5 6 
#
# 1 0.041786 -0.011129 -0.017583 0.000000 0.006430 0.000000
# 2 -0.011129 0.155079 -0.007760 0.000000 0.001758 0.000000
# 3 -0.017583 -0.007760 0.018793 0.000000 -0.013069 0.000000
# 4 0.000000 0.000000 0.000000 0.069137 0.000000 0.002704
# 5 0.006430 0.001758 -0.013069 0.000000 0.049010 0.000000
# 6 0.000000 0.000000 0.000000 0.002704 0.000000 0.042886
#
#
# Mechanical properties :
#
#
# Convention : Reuss Voigt Hill
#
# Bulk Modulus (GPa) = 7.00697 33.61907 20.31302
# Shear Modulus (GPa) = 10.05619 20.09089 15.07354
#
# Velocity S-wave (km/s) = 2.33104 3.29482 2.85391
# Velocity P-wave (km/s) = 3.32131 5.71315 4.67286
#
# Compressibility (1/GPa) = 0.14271495
#
# Stress axis : x y z
#
# Youngs Moduli (GPa) = 23.93132 6.44835 53.21046
#
# Poissons Ratio (x) = 0.07176 0.93561
# Poissons Ratio (y) = 0.26633 0.41289
# Poissons Ratio (z) = 0.42079 0.05004
#
# Static dielectric constant tensor:
#      x y z
#    x 1.637880 0.000000 0.025760 
#    y 0.000000 1.673730 0.000000 
#    z 0.025760 0.000000 1.663780 
# 
# From -- ./inp_files/73639.got.cif
#   From: 2010.05.17/outbox.cif.g08.bks.cpg/sg11_37_cif.got.tgz:73639.got - 2010.06.03 12:22:45.
