data_PCOD9167310
_publ_section_title
;
Structure prediction by ZEFSAII (Michael W. Deem and Ramdas Pophale) SiO2 
 PCOD9167310
Probable space group: P 21/M
;
_chemical_formula_sum "Si O2"
_cell_formula_units_Z 32
_cell_length_a 17.904939
_cell_length_b 15.254641
_cell_length_c 11.686483
_cell_angle_alpha 90.000000
_cell_angle_beta 148.713055
_cell_angle_gamma 90.000000
_cell_volume 1657.667425
_symmetry_space_group_name_H-M "P 21/M"
_symmetry_group_IT_number 11
_symmetry_cell_setting 'monoclinic'
loop_
_space_group_symop_operation_xyz
x,y,z
-x,1/2+y,-z
-x,-y,-z
x,1/2-y,z
loop_
_atom_site_type_symbol
_atom_site_label
_atom_site_fract_x
_atom_site_fract_y
_atom_site_fract_z
Si Si1 0.050184 0.647769 0.339464
Si Si2 0.670617 0.590451 0.532391
Si Si3 0.840686 0.493209 0.346925
Si Si4 0.849138 0.346358 0.004571
Si Si5 0.355159 0.976045 0.130088
Si Si6 0.283454 0.149148 0.149981
Si Si7 0.817215 0.651246 0.489395
Si Si8 0.127556 0.931816 0.198344
O O1 0.078169 0.750000 0.390557
O O2 0.138053 0.591329 0.545453
O O3 0.095696 0.613152 0.275590
O O4 0.876530 0.635629 0.112776
O O5 0.499886 0.579760 0.308705
O O6 0.719454 0.634964 0.716010
O O7 0.734783 0.634137 0.501498
O O8 0.733281 0.492364 0.614350
O O9 0.796544 0.575574 0.368604
O O10 0.000000 0.500000 0.500000
O O11 0.724025 0.484274 0.094864
O O12 0.792167 0.250000 0.959524
O O13 0.012162 0.353003 0.262057
O O14 0.753938 0.423158 0.931515
O O15 0.858507 0.360820 0.881972
O O16 0.377446 0.071815 0.216645
O O17 0.327165 0.250000 0.184965
O O18 0.783008 0.750000 0.404280
O O19 0.000000 0.000000 0.000000
#
# Coordination Sequence:
#
# PCOD9167310 Si02
#       8
#     4   4   4   4   4   4   4   4
#     4  11  22  39  67  99 124 163 220 273 315 369
#     4  12  24  41  67  93 132 168 210 266 333 386
#     4  12  23  43  68  91 127 170 219 269 311 374
#     4  11  22  38  65  98 129 165 213 264 319 381
#     4  12  26  43  63  96 134 177 211 260 327 384
#     4  11  22  40  67  98 130 167 211 264 324 388
#     4  11  23  42  69  96 122 169 224 268 315 379
#     4  12  19  38  66  91 126 165 209 263 323 381
#
# _framework density 19.304233
#
# number of rings (size 3 to 8) (size 9 to 14) (size 15 to 20)
#    0.000    0.500    7.500    1.125    0.000    5.000 
#    0.000    0.625    0.000    0.000    0.000    0.000 
#    0.000    0.000    0.000    0.000    0.000    0.000 
#
# Total GULP energy -178816.166099 kJ/mol
# GULP energy per Si atom -5588.005191 kJ/mol
# Density = 1.926030 g / cm^3
# Si number density = 19.304233 Si / 1000 Ang^3
#
#
#
# Elastic Constant Matrix: (Units=GPa)
#
#
# Indices 1 2 3 4 5 6 
#
# 1 74.0631 36.1497 26.9280 0.0000 -8.6408 0.0000
# 2 36.1497 121.7691 20.6384 0.0000 -5.2463 0.0000
# 3 26.9280 20.6384 45.9188 0.0000 -2.4667 0.0000
# 4 0.0000 0.0000 0.0000 9.0302 0.0000 3.1120
# 5 -8.6408 -5.2463 -2.4667 0.0000 29.2604 0.0000
# 6 0.0000 0.0000 0.0000 3.1120 0.0000 -7.6357
#
#
#
# Elastic Compliance Matrix: (Units=1/GPa)
#
#
# Indices 1 2 3 4 5 6 
#
# 1 0.019321 -0.003975 -0.009318 0.000000 0.004207 0.000000
# 2 -0.003975 0.009754 -0.002031 0.000000 0.000404 0.000000
# 3 -0.009318 -0.002031 0.028114 0.000000 -0.000746 0.000000
# 4 0.000000 0.000000 0.000000 0.097102 0.000000 0.039574
# 5 0.004207 0.000404 -0.000746 0.000000 0.035428 0.000000
# 6 0.000000 0.000000 0.000000 0.039574 0.000000 -0.114835
#
#
# Mechanical properties :
#
#
# Convention : Reuss Voigt Hill
#
# Bulk Modulus (GPa) = 37.67684 45.46479 41.57081
# Shear Modulus (GPa) = 43.71429 16.66664 30.19046
#
# Velocity S-wave (km/s) = 4.76383 2.94150 3.95895
# Velocity P-wave (km/s) = 7.05823 5.92785 6.51759
#
# Compressibility (1/GPa) = 0.02654150
#
# Stress axis : x y z
#
# Youngs Moduli (GPa) = 51.75747 102.52136 35.56895
#
# Poissons Ratio (x) = 0.40756 0.33141
# Poissons Ratio (y) = 0.20575 0.07224
# Poissons Ratio (z) = 0.48225 0.20823
#
# Static dielectric constant tensor:
#      x y z
#    x 1.677140 0.000000 -0.002810 
#    y 0.000000 1.682890 0.000000 
#    z -0.002810 0.000000 1.673730 
# 
# From -- ./inp_files/41718.got.cif
#   From: 2010.05.17/outbox.cif.g08.bks.cpg/sg11_21_cif.got.tgz:41718.got - 2010.06.03 12:22:45.
