data_PCOD9167445
_publ_section_title
;
Structure prediction by ZEFSAII (Michael W. Deem and Ramdas Pophale) SiO2 
 PCOD9167445
Probable space group: P 21/M
;
_chemical_formula_sum "Si O2"
_cell_formula_units_Z 22
_cell_length_a 6.534335
_cell_length_b 14.279947
_cell_length_c 11.472124
_cell_angle_alpha 90.000000
_cell_angle_beta 96.863803
_cell_angle_gamma 90.000000
_cell_volume 1062.791435
_symmetry_space_group_name_H-M "P 21/M"
_symmetry_group_IT_number 11
_symmetry_cell_setting 'monoclinic'
loop_
_space_group_symop_operation_xyz
x,y,z
-x,1/2+y,-z
-x,-y,-z
x,1/2-y,z
loop_
_atom_site_type_symbol
_atom_site_label
_atom_site_fract_x
_atom_site_fract_y
_atom_site_fract_z
Si Si1 0.542288 0.385206 0.338020
Si Si2 0.171768 0.250000 0.361730
Si Si3 0.982632 0.750000 0.003512
Si Si4 0.511165 0.556229 0.193412
Si Si5 0.752421 0.250000 0.184840
Si Si6 0.721944 0.250000 0.770539
Si Si7 0.791762 0.556705 0.997295
Si Si8 0.181867 0.750000 0.493402
O O1 0.321070 0.339220 0.352411
O O2 0.541581 0.495215 0.312950
O O3 0.627112 0.338510 0.223555
O O4 0.700505 0.340256 0.442203
O O5 0.978184 0.250000 0.260559
O O6 0.053436 0.250000 0.477485
O O7 0.846783 0.661059 0.964206
O O8 0.067849 0.750000 0.140032
O O9 0.196893 0.750000 0.946107
O O10 0.410422 0.656869 0.210170
O O11 0.710988 0.562098 0.124407
O O12 0.360472 0.495120 0.100926
O O13 0.785035 0.250000 0.640367
O O14 0.000000 0.500000 0.000000
#
# Coordination Sequence:
#
# PCOD9167445 Si02
#       8
#     4   2   2   4   2   2   4   2
#     4   9  19  38  66  92 114 160 215 260 304 358
#     4   8  16  38  65  93 113 154 202 270 308 350
#     4  12  22  40  64  92 133 171 199 249 318 381
#     4  11  24  41  65  91 130 165 208 258 317 376
#     4   9  18  32  62  94 123 148 203 259 301 366
#     4  12  26  44  59  90 136 172 203 255 322 374
#     4  11  23  41  62  97 131 166 207 250 314 388
#     4   9  22  44  62  91 127 157 217 265 301 369
#
# _framework density 20.700203999999999
#
# number of rings (size 3 to 8) (size 9 to 14) (size 15 to 20)
#    0.000    2.182    1.818    2.727    2.545    3.636 
#    6.545    0.909    0.000    0.000    0.000    0.000 
#    0.000    0.000    0.000    0.000    0.000    0.000 
#
# Total GULP energy -122844.246171 kJ/mol
# GULP energy per Si atom -5583.829371 kJ/mol
# Density = 2.065309 g / cm^3
# Si number density = 20.700204 Si / 1000 Ang^3
#
#
#
# Elastic Constant Matrix: (Units=GPa)
#
#
# Indices 1 2 3 4 5 6 
#
# 1 107.6675 37.3725 36.1039 0.0000 -35.6976 0.0000
# 2 37.3725 156.2981 39.3123 0.0000 -21.5032 0.0000
# 3 36.1039 39.3123 121.0995 0.0000 -21.9524 0.0000
# 4 0.0000 0.0000 0.0000 11.2391 0.0000 5.2983
# 5 -35.6976 -21.5032 -21.9524 0.0000 27.4670 0.0000
# 6 0.0000 0.0000 0.0000 5.2983 0.0000 9.4325
#
#
#
# Elastic Compliance Matrix: (Units=1/GPa)
#
#
# Indices 1 2 3 4 5 6 
#
# 1 0.016593 -0.000962 -0.001008 0.000000 0.020007 0.000000
# 2 -0.000962 0.007478 -0.001527 0.000000 0.003384 0.000000
# 3 -0.001008 -0.001527 0.010057 0.000000 0.005532 0.000000
# 4 0.000000 0.000000 0.000000 0.121021 0.000000 -0.067977
# 5 0.020007 0.003384 0.005532 0.000000 0.069479 0.000000
# 6 0.000000 0.000000 0.000000 -0.067977 0.000000 0.144199
#
#
# Mechanical properties :
#
#
# Convention : Reuss Voigt Hill
#
# Bulk Modulus (GPa) = 36.85501 67.84916 52.35208
# Shear Modulus (GPa) = 12.99161 27.77950 20.38555
#
# Velocity S-wave (km/s) = 2.50793 3.66729 3.14156
# Velocity P-wave (km/s) = 5.12144 7.12603 6.20521
#
# Compressibility (1/GPa) = 0.02713336
#
# Stress axis : x y z
#
# Youngs Moduli (GPa) = 60.26682 133.73215 99.43491
#
# Poissons Ratio (x) = 0.12859 0.10024
# Poissons Ratio (y) = 0.05795 0.15188
# Poissons Ratio (z) = 0.06075 0.20426
#
# Static dielectric constant tensor:
#      x y z
#    x 1.733540 0.000000 -0.008090 
#    y 0.000000 1.742090 0.000000 
#    z -0.008090 0.000000 1.777060 
# 
# From -- ./inp_files/29626.got.cif
#   From: 2010.05.17/outbox.cif.g08.bks.cpg/sg11_15_cif.got.tgz:29626.got - 2010.06.03 12:22:45.
