data_PCOD9167661
_publ_section_title
;
Structure prediction by ZEFSAII (Michael W. Deem and Ramdas Pophale) SiO2 
 PCOD9167661
Probable space group: P 21/M
;
_chemical_formula_sum "Si O2"
_cell_formula_units_Z 28
_cell_length_a 14.295447
_cell_length_b 7.415533
_cell_length_c 13.953627
_cell_angle_alpha 90.000000
_cell_angle_beta 121.118883
_cell_angle_gamma 90.000000
_cell_volume 1266.339334
_symmetry_space_group_name_H-M "P 21/M"
_symmetry_group_IT_number 11
_symmetry_cell_setting 'monoclinic'
loop_
_space_group_symop_operation_xyz
x,y,z
-x,1/2+y,-z
-x,-y,-z
x,1/2-y,z
loop_
_atom_site_type_symbol
_atom_site_label
_atom_site_fract_x
_atom_site_fract_y
_atom_site_fract_z
Si Si1 0.837409 0.970536 0.878972
Si Si2 0.378257 0.043056 0.321463
Si Si3 0.625387 0.468437 0.471156
Si Si4 0.778483 0.040089 0.162655
Si Si5 0.357665 0.529554 0.727944
Si Si6 0.430602 0.037273 0.059762
Si Si7 0.968073 0.040815 0.141155
O O1 0.837493 0.750000 0.880087
O O2 0.713911 0.033146 0.796671
O O3 0.916195 0.032859 0.833742
O O4 0.893226 0.032307 0.006050
O O5 0.394770 0.250000 0.300101
O O6 0.499366 0.965654 0.394932
O O7 0.331266 0.038753 0.405038
O O8 0.626066 0.250000 0.478375
O O9 0.678487 0.519779 0.398038
O O10 0.798378 0.250000 0.193881
O O11 0.719672 0.964669 0.226568
O O12 0.891917 0.960421 0.184071
O O13 0.688528 0.034454 0.029504
O O14 0.360313 0.750000 0.734476
O O15 0.483791 0.472033 0.814740
O O16 0.415811 0.250000 0.065791
O O17 0.500000 0.000000 0.000000
O O18 0.987074 0.250000 0.175245
#
# Coordination Sequence:
#
# PCOD9167661 Si02
#       7
#     4   4   4   4   4   4   4
#     4   9  18  32  49  67  90 120 152 187 230 275
#     4   9  18  31  47  66  88 114 147 188 230 269
#     4   9  17  30  47  66  87 114 150 185 221 269
#     4   9  17  29  43  63  92 120 149 184 222 268
#     4   8  15  27  43  62  86 117 148 178 215 265
#     4   9  16  26  41  61  89 121 153 181 215 262
#     4   9  18  31  47  69  93 119 152 188 225 269
#
# _framework density 22.110976999999998
#
# number of rings (size 3 to 8) (size 9 to 14) (size 15 to 20)
#    0.000    3.143    0.000    1.286    2.000    1.143 
#    0.000    3.571    0.000    0.857    0.000    0.000 
#    0.000    0.000    0.000    0.000    0.000    0.000 
#
# Total GULP energy -156052.960656 kJ/mol
# GULP energy per Si atom -5573.320023 kJ/mol
# Density = 2.206065 g / cm^3
# Si number density = 22.110977 Si / 1000 Ang^3
#
#
#
# Elastic Constant Matrix: (Units=GPa)
#
#
# Indices 1 2 3 4 5 6 
#
# 1 85.0365 -0.2712 -9.8182 0.0000 -13.1870 0.0000
# 2 -0.2712 75.9945 -8.6667 0.0000 0.4164 0.0000
# 3 -9.8182 -8.6667 41.0570 0.0000 -11.6742 0.0000
# 4 0.0000 0.0000 0.0000 11.7049 0.0000 -2.4135
# 5 -13.1870 0.4164 -11.6742 0.0000 34.0650 0.0000
# 6 0.0000 0.0000 0.0000 -2.4135 0.0000 4.3862
#
#
#
# Elastic Compliance Matrix: (Units=1/GPa)
#
#
# Indices 1 2 3 4 5 6 
#
# 1 0.013472 0.000620 0.005355 0.000000 0.007043 0.000000
# 2 0.000620 0.013537 0.003354 0.000000 0.001224 0.000000
# 3 0.005355 0.003354 0.029829 0.000000 0.012255 0.000000
# 4 0.000000 0.000000 0.000000 0.096369 0.000000 0.053028
# 5 0.007043 0.001224 0.012255 0.000000 0.036267 0.000000
# 6 0.000000 0.000000 0.000000 0.053028 0.000000 0.257166
#
#
# Mechanical properties :
#
#
# Convention : Reuss Voigt Hill
#
# Bulk Modulus (GPa) = 13.24556 18.28618 15.76587
# Shear Modulus (GPa) = 11.03395 24.75416 17.89405
#
# Velocity S-wave (km/s) = 2.23631 3.34959 2.84788
# Velocity P-wave (km/s) = 3.55972 4.82159 4.23789
#
# Compressibility (1/GPa) = 0.07549697
#
# Stress axis : x y z
#
# Youngs Moduli (GPa) = 74.22733 73.87253 33.52386
#
# Poissons Ratio (x) = -0.04582 -0.17953
# Poissons Ratio (y) = -0.04604 -0.11243
# Poissons Ratio (z) = -0.39750 -0.24776
#
# Static dielectric constant tensor:
#      x y z
#    x 1.872510 0.000000 -0.039200 
#    y 0.000000 1.871940 0.000000 
#    z -0.039200 0.000000 1.799090 
# 
# From -- ./inp_files/51455.got.cif
#   From: 2010.05.17/outbox.cif.g08.bks.cpg/sg11_26_cif.got.tgz:51455.got - 2010.06.03 12:22:45.
