data_PCOD9167024
_publ_section_title
;
Structure prediction by ZEFSAII (Michael W. Deem and Ramdas Pophale) SiO2 
 PCOD9167024
Probable space group: P 21/M
;
_chemical_formula_sum "Si O2"
_cell_formula_units_Z 26
_cell_length_a 9.082862
_cell_length_b 15.097394
_cell_length_c 14.500134
_cell_angle_alpha 90.000000
_cell_angle_beta 139.947840
_cell_angle_gamma 90.000000
_cell_volume 1279.484299
_symmetry_space_group_name_H-M "P 21/M"
_symmetry_group_IT_number 11
_symmetry_cell_setting 'monoclinic'
loop_
_space_group_symop_operation_xyz
x,y,z
-x,1/2+y,-z
-x,-y,-z
x,1/2-y,z
loop_
_atom_site_type_symbol
_atom_site_label
_atom_site_fract_x
_atom_site_fract_y
_atom_site_fract_z
Si Si1 0.667675 0.880702 0.385519
Si Si2 0.913022 0.353128 0.285535
Si Si3 0.239843 0.750000 0.166884
Si Si4 0.020179 0.346644 0.640076
Si Si5 0.230590 0.485075 0.882706
Si Si6 0.619635 0.410350 0.325303
Si Si7 0.119623 0.408831 0.026954
O O1 0.435194 0.827259 0.281829
O O2 0.809413 0.845908 0.365272
O O3 0.833533 0.866178 0.551977
O O4 0.635044 0.984568 0.350345
O O5 0.870146 0.250000 0.245880
O O6 0.875455 0.417112 0.180623
O O7 0.743730 0.385058 0.287716
O O8 0.052101 0.827804 0.053978
O O9 0.024866 0.250000 0.688791
O O10 0.110688 0.424530 0.747845
O O11 0.771186 0.365188 0.477680
O O12 0.500000 0.500000 0.000000
O O13 0.194144 0.432833 0.958879
O O14 0.353459 0.387507 0.193468
O O15 0.000000 0.500000 0.000000
#
# Coordination Sequence:
#
# PCOD9167024 Si02
#       7
#     4   4   2   4   4   4   4
#     4  11  18  40  70  99 133 184 229 282 336 430
#     4  11  21  38  72 105 136 174 236 289 350 403
#     4  12  26  42  68  98 140 192 228 266 360 432
#     4  11  22  38  72 106 134 174 236 293 347 398
#     4  12  25  44  69 105 140 173 233 306 347 393
#     4  11  20  42  68 102 135 183 228 292 336 415
#     4  12  28  46  67  98 146 189 226 283 357 427
#
# _framework density 20.320687
#
# number of rings (size 3 to 8) (size 9 to 14) (size 15 to 20)
#    0.000    0.615    7.692    2.308    3.231    0.615 
#    1.385    3.077    0.000    0.000    0.000    0.000 
#    0.000    0.000    0.000    0.000    0.000    0.000 
#
# Total GULP energy -144785.849426 kJ/mol
# GULP energy per Si atom -5568.686516 kJ/mol
# Density = 2.027444 g / cm^3
# Si number density = 20.320687 Si / 1000 Ang^3
#
#
#
# Elastic Constant Matrix: (Units=GPa)
#
#
# Indices 1 2 3 4 5 6 
#
# 1 -1.2391 -0.4533 31.3297 0.0000 14.5264 0.0000
# 2 -0.4533 177.4693 49.8319 0.0000 20.9608 0.0000
# 3 31.3297 49.8319 148.5058 0.0000 41.2954 0.0000
# 4 0.0000 0.0000 0.0000 38.3062 0.0000 14.0759
# 5 14.5264 20.9608 41.2954 0.0000 38.8485 0.0000
# 6 0.0000 0.0000 0.0000 14.0759 0.0000 18.9881
#
#
#
# Elastic Compliance Matrix: (Units=1/GPa)
#
#
# Indices 1 2 3 4 5 6 
#
# 1 -0.099370 -0.007801 0.017147 0.000000 0.023139 0.000000
# 2 -0.007801 0.005681 -0.000311 0.000000 0.000183 0.000000
# 3 0.017147 -0.000311 0.007037 0.000000 -0.013724 0.000000
# 4 0.000000 0.000000 0.000000 0.035879 0.000000 -0.026597
# 5 0.023139 0.000183 -0.013724 0.000000 0.031579 0.000000
# 6 0.000000 0.000000 0.000000 -0.026597 0.000000 0.072381
#
#
# Mechanical properties :
#
#
# Convention : Reuss Voigt Hill
#
# Bulk Modulus (GPa) = -14.58086 54.01696 19.71805
# Shear Modulus (GPa) = 407.97249 35.49708 221.73478
#
# Velocity S-wave (km/s) = 14.18460 4.18406 10.45728
# Velocity P-wave (km/s) = 16.15796 7.06978 12.47119
#
# Compressibility (1/GPa) = -0.06858306
#
# Stress axis : x y z
#
# Youngs Moduli (GPa) = -10.06343 176.03698 142.10650
#
# Poissons Ratio (x) = 1.37335 -2.43673
# Poissons Ratio (y) = -0.07851 0.04422
# Poissons Ratio (z) = 0.17256 0.05478
#
# Static dielectric constant tensor:
#      x y z
#    x 1.750960 0.000000 -0.011370 
#    y 0.000000 1.705020 0.000000 
#    z -0.011370 0.000000 1.691460 
# 
# From -- ./inp_files/22391.got.cif
#   From: 2010.05.17/outbox.cif.g08.bks.cpg/sg11_12_cif.got.tgz:22391.got - 2010.06.03 12:22:45.
