data_PCOD9167920
_publ_section_title
;
Structure prediction by ZEFSAII (Michael W. Deem and Ramdas Pophale) SiO2 
 PCOD9167920
Probable space group: P 21/M
;
_chemical_formula_sum "Si O2"
_cell_formula_units_Z 32
_cell_length_a 12.000000
_cell_length_b 15.000000
_cell_length_c 18.000000
_cell_angle_alpha 90.000000
_cell_angle_beta 30.000000
_cell_angle_gamma 90.000000
_cell_volume 1620.000000
_symmetry_space_group_name_H-M "P 21/M"
_symmetry_group_IT_number 11
_symmetry_cell_setting 'monoclinic'
loop_
_space_group_symop_operation_xyz
x,y,z
-x,1/2+y,-z
-x,-y,-z
x,1/2-y,z
loop_
_atom_site_type_symbol
_atom_site_label
_atom_site_fract_x
_atom_site_fract_y
_atom_site_fract_z
Si Si1 0.482098 0.541359 0.266028
Si Si2 0.965583 0.929941 0.786834
Si Si3 0.237608 0.143751 0.776184
Si Si4 0.221457 0.849493 0.289758
Si Si5 0.753497 0.427048 0.008396
Si Si6 0.196835 0.061947 0.542995
Si Si7 0.482454 0.393305 0.020843
Si Si8 0.456524 0.856557 0.541838
O O1 0.668476 0.597886 0.203231
O O2 0.350650 0.589531 0.274847
O O3 0.299677 0.513080 0.431299
O O4 0.596741 0.452319 0.167521
O O5 0.198080 0.886340 0.680383
O O6 0.780555 0.874723 0.845434
O O7 0.042526 0.013337 0.692496
O O8 0.832648 0.976028 0.931067
O O9 0.255887 0.250000 0.773410
O O10 0.399578 0.115203 0.614109
O O11 0.982839 0.120136 0.900875
O O12 0.212092 0.750000 0.325861
O O13 0.973520 0.879464 0.407838
O O14 0.369047 0.851076 0.129500
O O15 0.603383 0.379000 0.030992
O O16 0.401734 0.107636 0.469386
O O17 0.500000 0.500000 0.000000
O O18 0.459271 0.750000 0.543654
#
# Coordination Sequence:
#
# PCOD9167920 Si02
#       8
#     4   4   4   4   4   4   4   4
#     4  12  24  41  63  95 130 167 210 255 319 387
#     4  11  19  39  65  89 123 160 212 251 304 382
#     4  11  23  40  62  94 130 164 208 263 319 370
#     4  12  24  41  66  98 129 165 210 267 320 371
#     4  11  21  41  67  92 121 162 214 255 310 378
#     4  12  22  41  68  93 122 169 218 259 309 380
#     4  10  19  39  66  91 122 156 211 257 300 379
#     4  11  23  39  62  95 126 162 213 267 312 364
#
# _framework density 19.753086
#
# number of rings (size 3 to 8) (size 9 to 14) (size 15 to 20)
#    0.000    0.750    7.500    2.625    0.000    2.000 
#    0.000    2.500    0.000    0.000    0.000    0.000 
#    0.000    0.000    0.000    0.000    0.000    0.000 
#
# Total GULP energy -178587.915383 kJ/mol
# GULP energy per Si atom -5580.872356 kJ/mol
# Density = 1.970813 g / cm^3
# Si number density = 19.753086 Si / 1000 Ang^3
#
#
#
# Elastic Constant Matrix: (Units=GPa)
#
#
# Indices 1 2 3 4 5 6 
#
# 1 171.5455 27.6779 34.7614 0.0000 -38.4862 0.0000
# 2 27.6779 43.7875 6.6748 0.0000 -8.2098 0.0000
# 3 34.7614 6.6748 38.7077 0.0000 -33.6130 0.0000
# 4 0.0000 0.0000 0.0000 19.7389 0.0000 -3.3074
# 5 -38.4862 -8.2098 -33.6130 0.0000 47.7713 0.0000
# 6 0.0000 0.0000 0.0000 -3.3074 0.0000 16.9860
#
#
#
# Elastic Compliance Matrix: (Units=1/GPa)
#
#
# Indices 1 2 3 4 5 6 
#
# 1 0.007900 -0.003846 -0.003801 0.000000 0.003029 0.000000
# 2 -0.003846 0.025500 0.000441 0.000000 0.001594 0.000000
# 3 -0.003801 0.000441 0.068328 0.000000 0.045091 0.000000
# 4 0.000000 0.000000 0.000000 0.052370 0.000000 0.010197
# 5 0.003029 0.001594 0.045091 0.000000 0.055374 0.000000
# 6 0.000000 0.000000 0.000000 0.010197 0.000000 0.060858
#
#
# Mechanical properties :
#
#
# Convention : Reuss Voigt Hill
#
# Bulk Modulus (GPa) = 11.45269 43.58544 27.51907
# Shear Modulus (GPa) = 15.93137 29.22766 22.57952
#
# Velocity S-wave (km/s) = 2.84302 3.85080 3.38463
# Velocity P-wave (km/s) = 4.07278 6.47183 5.40704
#
# Compressibility (1/GPa) = 0.08731574
#
# Stress axis : x y z
#
# Youngs Moduli (GPa) = 126.58855 39.21525 14.63538
#
# Poissons Ratio (x) = 0.15082 0.05563
# Poissons Ratio (y) = 0.48686 -0.00645
# Poissons Ratio (z) = 0.48113 -0.01729
#
# Static dielectric constant tensor:
#      x y z
#    x 1.704530 0.000000 -0.005850 
#    y 0.000000 1.696740 0.000000 
#    z -0.005850 0.000000 1.681610 
# 
# From -- ./inp_files/59441.got.cif
#   From: 2010.05.17/outbox.ucp.g08.bks.cvg/sg11_30_cif.got.tgz:59441.got - 2010.06.11 11:38:39.
