data_PCOD9167552
_publ_section_title
;
Structure prediction by ZEFSAII (Michael W. Deem and Ramdas Pophale) SiO2 
 PCOD9167552
Probable space group: P 21/M
;
_chemical_formula_sum "Si O2"
_cell_formula_units_Z 26
_cell_length_a 7.352856
_cell_length_b 17.542137
_cell_length_c 11.512009
_cell_angle_alpha 90.000000
_cell_angle_beta 44.691866
_cell_angle_gamma 90.000000
_cell_volume 1044.302843
_symmetry_space_group_name_H-M "P 21/M"
_symmetry_group_IT_number 11
_symmetry_cell_setting 'monoclinic'
loop_
_space_group_symop_operation_xyz
x,y,z
-x,1/2+y,-z
-x,-y,-z
x,1/2-y,z
loop_
_atom_site_type_symbol
_atom_site_label
_atom_site_fract_x
_atom_site_fract_y
_atom_site_fract_z
Si Si1 0.476356 0.123610 0.177372
Si Si2 0.272331 0.660672 0.712115
Si Si3 0.740009 0.920128 0.953569
Si Si4 0.066800 0.250000 0.437881
Si Si5 0.541812 0.066021 0.576011
Si Si6 0.793364 0.395375 0.679012
Si Si7 0.967898 0.418121 0.848641
O O1 0.566129 0.110258 0.268973
O O2 0.255132 0.185483 0.291401
O O3 0.349384 0.067375 0.140501
O O4 0.758015 0.142107 0.991572
O O5 0.324399 0.750000 0.710312
O O6 0.356416 0.637692 0.545039
O O7 0.973089 0.639344 0.857673
O O8 0.488173 0.890782 0.132852
O O9 0.028276 0.917876 0.293196
O O10 0.902340 0.317207 0.579018
O O11 0.739279 0.051397 0.591433
O O12 0.261488 0.087963 0.753927
O O13 0.500000 0.000000 0.500000
O O14 0.854609 0.499229 0.941336
#
# Coordination Sequence:
#
# PCOD9167552 Si02
#       7
#     4   4   4   2   4   4   4
#     4  11  25  47  74 103 144 192 247 300 363 439
#     4  12  27  46  73 107 151 197 242 307 377 445
#     4  11  26  47  80 108 145 193 250 306 373 449
#     4  12  26  48  72 110 146 202 240 308 370 452
#     4  12  27  45  74 113 150 193 246 308 365 451
#     4  11  27  47  73 108 152 192 247 306 370 438
#     4  11  26  49  77 110 144 197 246 311 371 442
#
# _framework density 24.896992999999998
#
# number of rings (size 3 to 8) (size 9 to 14) (size 15 to 20)
#    0.000    0.615    2.308    4.615    9.692    3.692 
#    1.385    0.000    0.000    0.000    0.000    0.000 
#    0.000    0.000    0.000    0.000    0.000    0.000 
#
# Total GULP energy -144861.735069 kJ/mol
# GULP energy per Si atom -5571.605195 kJ/mol
# Density = 2.484033 g / cm^3
# Si number density = 24.896993 Si / 1000 Ang^3
#
#
#
# Elastic Constant Matrix: (Units=GPa)
#
#
# Indices 1 2 3 4 5 6 
#
# 1 131.8838 14.2548 21.4773 0.0000 28.2083 0.0000
# 2 14.2548 77.6831 58.2073 0.0000 -8.8685 0.0000
# 3 21.4773 58.2073 141.8218 0.0000 -12.9178 0.0000
# 4 0.0000 0.0000 0.0000 32.3145 0.0000 -13.3561
# 5 28.2083 -8.8685 -12.9178 0.0000 47.4915 0.0000
# 6 0.0000 0.0000 0.0000 -13.3561 0.0000 4.4232
#
#
#
# Elastic Compliance Matrix: (Units=1/GPa)
#
#
# Indices 1 2 3 4 5 6 
#
# 1 0.009271 -0.001345 -0.001412 0.000000 -0.006142 0.000000
# 2 -0.001345 0.018880 -0.007333 0.000000 0.002330 0.000000
# 3 -0.001412 -0.007333 0.010486 0.000000 0.002321 0.000000
# 4 0.000000 0.000000 0.000000 -0.124763 0.000000 -0.376731
# 5 -0.006142 0.002330 0.002321 0.000000 0.025771 0.000000
# 6 0.000000 0.000000 0.000000 -0.376731 0.000000 -0.911484
#
#
# Mechanical properties :
#
#
# Convention : Reuss Voigt Hill
#
# Bulk Modulus (GPa) = 54.17503 59.91862 57.04682
# Shear Modulus (GPa) = -5.28817 34.00913 14.36048
#
# Velocity S-wave (km/s) = -1.45898 3.69994 2.40426
# Velocity P-wave (km/s) = 4.35531 6.50935 5.53807
#
# Compressibility (1/GPa) = 0.01845869
#
# Stress axis : x y z
#
# Youngs Moduli (GPa) = 107.85941 52.96571 95.36564
#
# Poissons Ratio (x) = 0.07123 0.13461
# Poissons Ratio (y) = 0.14505 0.69932
# Poissons Ratio (z) = 0.15225 0.38840
#
# Static dielectric constant tensor:
#      x y z
#    x 2.022630 0.000000 0.046270 
#    y 0.000000 1.879510 0.000000 
#    z 0.046270 0.000000 1.981940 
# 
# From -- ./inp_files/32762.got.cif
#   From: 2010.05.17/outbox.cif.g08.bks.cpg/sg11_17_cif.got.tgz:32762.got - 2010.06.03 12:22:45.
