data_PCOD9167776
_publ_section_title
;
Structure prediction by ZEFSAII (Michael W. Deem and Ramdas Pophale) SiO2 
 PCOD9167776
Probable space group: P 21/M
;
_chemical_formula_sum "Si O2"
_cell_formula_units_Z 28
_cell_length_a 21.000000
_cell_length_b 9.000000
_cell_length_c 15.000000
_cell_angle_alpha 90.000000
_cell_angle_beta 150.000000
_cell_angle_gamma 90.000000
_cell_volume 1417.500000
_symmetry_space_group_name_H-M "P 21/M"
_symmetry_group_IT_number 11
_symmetry_cell_setting 'monoclinic'
loop_
_space_group_symop_operation_xyz
x,y,z
-x,1/2+y,-z
-x,-y,-z
x,1/2-y,z
loop_
_atom_site_type_symbol
_atom_site_label
_atom_site_fract_x
_atom_site_fract_y
_atom_site_fract_z
Si Si1 0.728305 0.427351 0.637187
Si Si2 0.247171 0.928886 0.139407
Si Si3 0.706807 0.928762 0.986632
Si Si4 0.212774 0.418528 0.554208
Si Si5 0.559756 0.429507 0.262089
Si Si6 0.990323 0.927774 0.392730
Si Si7 0.957727 0.582153 0.830843
O O1 0.734974 0.250000 0.642963
O O2 0.690823 0.472233 0.691253
O O3 0.629092 0.470223 0.440072
O O4 0.871268 0.486024 0.791993
O O5 0.250822 0.750000 0.132805
O O6 0.096554 0.971043 0.966910
O O7 0.311523 0.005936 0.133856
O O8 0.703871 0.750000 0.979637
O O9 0.850829 0.974846 0.186837
O O10 0.588983 0.972696 0.908224
O O11 0.226403 0.250000 0.605720
O O12 0.350346 0.491651 0.701961
O O13 0.115661 0.515274 0.494143
O O14 0.135024 0.410360 0.367178
O O15 0.567269 0.250000 0.260117
O O16 0.991039 0.750000 0.395555
O O17 0.000000 0.000000 0.500000
O O18 0.974125 0.750000 0.885686
#
# Coordination Sequence:
#
# PCOD9167776 Si02
#       7
#     4   4   4   4   4   4   4
#     4   9  18  30  48  74 107 149 191 229 269 313
#     4  10  19  31  48  75 111 148 187 233 276 316
#     4  10  22  38  57  81 111 148 186 225 277 333
#     4  10  19  35  59  86 113 146 184 225 275 329
#     4   9  19  37  56  79 115 153 189 228 267 319
#     4  11  23  40  63  89 112 139 177 225 280 336
#     4   9  17  29  47  73 108 144 183 230 274 316
#
# _framework density 19.753086
#
# number of rings (size 3 to 8) (size 9 to 14) (size 15 to 20)
#    0.000    2.286    1.429    1.286    0.000    3.429 
#    0.000    0.714    0.000    0.000    0.000    0.000 
#    0.000    0.000    0.000    0.000    0.000    0.000 
#
# Total GULP energy -156084.406447 kJ/mol
# GULP energy per Si atom -5574.443087 kJ/mol
# Density = 1.970813 g / cm^3
# Si number density = 19.753086 Si / 1000 Ang^3
#
#
#
# Elastic Constant Matrix: (Units=GPa)
#
#
# Indices 1 2 3 4 5 6 
#
# 1 114.4121 42.4097 46.1330 0.0000 28.3327 0.0000
# 2 42.4097 30.8138 21.9999 0.0000 8.4383 0.0000
# 3 46.1330 21.9999 24.3418 0.0000 17.3465 0.0000
# 4 0.0000 0.0000 0.0000 16.6356 0.0000 4.4320
# 5 28.3327 8.4383 17.3465 0.0000 31.6821 0.0000
# 6 0.0000 0.0000 0.0000 4.4320 0.0000 34.6638
#
#
#
# Elastic Compliance Matrix: (Units=1/GPa)
#
#
# Indices 1 2 3 4 5 6 
#
# 1 0.038769 0.004656 -0.085423 0.000000 0.010860 0.000000
# 2 0.004656 0.122243 -0.152726 0.000000 0.046898 0.000000
# 3 -0.085423 -0.152726 0.422385 0.000000 -0.114193 0.000000
# 4 0.000000 0.000000 0.000000 0.062232 0.000000 -0.007957
# 5 0.010860 0.046898 -0.114193 0.000000 0.071883 0.000000
# 6 0.000000 0.000000 0.000000 -0.007957 0.000000 0.029866
#
#
# Mechanical properties :
#
#
# Convention : Reuss Voigt Hill
#
# Bulk Modulus (GPa) = 8.59027 43.40588 25.99807
# Shear Modulus (GPa) = 3.98989 20.53133 12.26061
#
# Velocity S-wave (km/s) = 1.42277 3.22747 2.49407
# Velocity P-wave (km/s) = 2.65656 5.99255 4.63508
#
# Compressibility (1/GPa) = 0.11641076
#
# Stress axis : x y z
#
# Youngs Moduli (GPa) = 25.79365 8.18045 2.36751
#
# Poissons Ratio (x) = -0.03809 0.20224
# Poissons Ratio (y) = -0.12009 0.36158
# Poissons Ratio (z) = 2.20337 1.24937
#
# Static dielectric constant tensor:
#      x y z
#    x 1.685950 0.000000 -0.005270 
#    y 0.000000 1.682790 0.000000 
#    z -0.005270 0.000000 1.734220 
# 
# From -- ./inp_files/54613.got.cif
#   From: 2010.05.17/outbox.ucp.g08.bks.cvg/sg11_28_cif.got.tgz:54613.got - 2010.06.11 11:38:39.
