data_PCOD9167039
_publ_section_title
;
Structure prediction by ZEFSAII (Michael W. Deem and Ramdas Pophale) SiO2 
 PCOD9167039
Probable space group: P 21/M
;
_chemical_formula_sum "Si O2"
_cell_formula_units_Z 32
_cell_length_a 11.774998
_cell_length_b 18.843287
_cell_length_c 14.994925
_cell_angle_alpha 90.000000
_cell_angle_beta 28.856062
_cell_angle_gamma 90.000000
_cell_volume 1605.679680
_symmetry_space_group_name_H-M "P 21/M"
_symmetry_group_IT_number 11
_symmetry_cell_setting 'monoclinic'
loop_
_space_group_symop_operation_xyz
x,y,z
-x,1/2+y,-z
-x,-y,-z
x,1/2-y,z
loop_
_atom_site_type_symbol
_atom_site_label
_atom_site_fract_x
_atom_site_fract_y
_atom_site_fract_z
Si Si1 0.363928 0.429272 0.564342
Si Si2 0.784367 0.013758 0.506175
Si Si3 0.563183 0.432110 0.140712
Si Si4 0.812109 0.170435 0.462376
Si Si5 0.338320 0.330204 0.148723
Si Si6 0.707777 0.538113 0.908188
Si Si7 0.814527 0.168032 0.250692
Si Si8 0.980403 0.080905 0.980077
O O1 0.500000 0.500000 0.500000
O O2 0.256072 0.458001 0.546563
O O3 0.559457 0.369014 0.418745
O O4 0.176337 0.407974 0.769073
O O5 0.682295 0.094898 0.569184
O O6 0.060592 0.027941 0.310211
O O7 0.666502 0.974583 0.669410
O O8 0.476203 0.371176 0.132789
O O9 0.725446 0.405240 0.109738
O O10 0.727830 0.493287 0.983612
O O11 0.701380 0.250000 0.547799
O O12 0.879654 0.163109 0.310735
O O13 0.053247 0.172575 0.354478
O O14 0.422127 0.250000 0.081242
O O15 0.363867 0.379748 0.043596
O O16 0.500000 0.500000 0.000000
O O17 0.801311 0.250000 0.235793
O O18 0.988410 0.128542 0.063191
O O19 0.000000 0.000000 0.000000
#
# Coordination Sequence:
#
# PCOD9167039 Si02
#       8
#     4   4   4   4   4   4   4   4
#     4  12  21  39  64  92 125 169 208 257 317 380
#     4  11  19  36  63  89 120 158 206 256 312 367
#     4  11  22  37  63  95 119 161 208 259 309 374
#     4   9  19  37  60  85 121 161 202 257 318 372
#     4   9  20  39  61  85 121 162 197 249 315 369
#     4   9  20  36  59  88 117 152 204 254 302 363
#     4  11  24  41  62  95 130 165 209 264 325 382
#     4  12  23  38  67  95 127 165 216 261 315 385
#
# _framework density 19.929254
#
# number of rings (size 3 to 8) (size 9 to 14) (size 15 to 20)
#    0.000    1.500    5.000    0.000    1.750    5.500 
#    0.000    0.625    0.000    7.500    0.000    0.000 
#    0.000    0.000    0.000    0.000    0.000    0.000 
#
# Total GULP energy -178167.742473 kJ/mol
# GULP energy per Si atom -5567.741952 kJ/mol
# Density = 1.988389 g / cm^3
# Si number density = 19.929254 Si / 1000 Ang^3
#
#
#
# Elastic Constant Matrix: (Units=GPa)
#
#
# Indices 1 2 3 4 5 6 
#
# 1 62.5129 21.4186 -0.3415 0.0000 -13.2350 0.0000
# 2 21.4186 146.0245 29.2203 0.0000 0.0392 0.0000
# 3 -0.3415 29.2203 77.5419 0.0000 1.9024 0.0000
# 4 0.0000 0.0000 0.0000 26.8642 0.0000 -0.3135
# 5 -13.2350 0.0392 1.9024 0.0000 16.6983 0.0000
# 6 0.0000 0.0000 0.0000 -0.3135 0.0000 24.2673
#
#
#
# Elastic Compliance Matrix: (Units=1/GPa)
#
#
# Indices 1 2 3 4 5 6 
#
# 1 0.020519 -0.003194 0.000897 0.000000 0.016168 0.000000
# 2 -0.003194 0.007905 -0.002939 0.000000 -0.002215 0.000000
# 3 0.000897 -0.002939 0.014029 0.000000 -0.000880 0.000000
# 4 0.000000 0.000000 0.000000 0.037230 0.000000 0.000481
# 5 0.016168 -0.002215 -0.000880 0.000000 0.072807 0.000000
# 6 0.000000 0.000000 0.000000 0.000481 0.000000 0.041214
#
#
# Mechanical properties :
#
#
# Convention : Reuss Voigt Hill
#
# Bulk Modulus (GPa) = 31.26645 42.96379 37.11512
# Shear Modulus (GPa) = 23.27365 29.28476 26.27920
#
# Velocity S-wave (km/s) = 3.42104 3.83748 3.63523
# Velocity P-wave (km/s) = 5.59709 6.42183 6.02359
#
# Compressibility (1/GPa) = 0.03198316
#
# Stress axis : x y z
#
# Youngs Moduli (GPa) = 48.73551 126.49865 71.27992
#
# Poissons Ratio (x) = 0.40398 -0.06395
# Poissons Ratio (y) = 0.15564 0.20947
# Poissons Ratio (z) = -0.04372 0.37174
#
# Static dielectric constant tensor:
#      x y z
#    x 1.765240 0.000000 -0.001160 
#    y 0.000000 1.721750 0.000000 
#    z -0.001160 0.000000 1.740870 
# 
# From -- ./inp_files/50671.got.cif
#   From: 2010.05.17/outbox.cif.g08.bks.cpg/sg11_26_cif.got.tgz:50671.got - 2010.06.03 12:22:45.
