data_PCOD9167290
_publ_section_title
;
Structure prediction by ZEFSAII (Michael W. Deem and Ramdas Pophale) SiO2 
 PCOD9167290
Probable space group: P 21/M
;
_chemical_formula_sum "Si O2"
_cell_formula_units_Z 20
_cell_length_a 7.172811
_cell_length_b 8.993428
_cell_length_c 20.880313
_cell_angle_alpha 90.000000
_cell_angle_beta 45.726978
_cell_angle_gamma 90.000000
_cell_volume 964.445567
_symmetry_space_group_name_H-M "P 21/M"
_symmetry_group_IT_number 11
_symmetry_cell_setting 'monoclinic'
loop_
_space_group_symop_operation_xyz
x,y,z
-x,1/2+y,-z
-x,-y,-z
x,1/2-y,z
loop_
_atom_site_type_symbol
_atom_site_label
_atom_site_fract_x
_atom_site_fract_y
_atom_site_fract_z
Si Si1 0.819173 0.928054 0.293364
Si Si2 0.753697 0.072508 0.593213
Si Si3 0.898637 0.420985 0.897977
Si Si4 0.712472 0.927194 0.742103
Si Si5 0.608924 0.920906 0.073823
O O1 0.874277 0.750000 0.286506
O O2 0.517024 0.954421 0.379547
O O3 0.876065 0.966741 0.205128
O O4 0.020506 0.019676 0.287363
O O5 0.786406 0.250000 0.591027
O O6 0.718006 0.002174 0.671630
O O7 0.000000 0.000000 0.500000
O O8 0.935526 0.250000 0.907906
O O9 0.642561 0.426656 0.913554
O O10 0.840195 0.515871 0.974651
O O11 0.701503 0.750000 0.740374
O O12 0.479241 0.986893 0.843255
O O13 0.650931 0.750000 0.080980
#
# Coordination Sequence:
#
# PCOD9167290 Si02
#       5
#     4   4   4   4   4
#     4   9  20  39  62  86 115 153 193 236 285 337
#     4  11  24  43  64  86 114 147 189 241 294 346
#     4   8  14  27  49  79 112 146 187 232 278 329
#     4  11  22  37  60  88 118 153 192 235 284 340
#     4   9  16  28  49  79 115 153 190 229 276 331
#
# _framework density 20.737303000000001
#
# number of rings (size 3 to 8) (size 9 to 14) (size 15 to 20)
#    0.000    2.400    0.000    4.200    0.000    7.200 
#    0.000    1.000    0.000    0.000    0.000    0.000 
#    0.000    0.000    0.000    0.000    0.000    0.000 
#
# Total GULP energy -111766.215539 kJ/mol
# GULP energy per Si atom -5588.310777 kJ/mol
# Density = 2.069010 g / cm^3
# Si number density = 20.737303 Si / 1000 Ang^3
#
#
#
# Elastic Constant Matrix: (Units=GPa)
#
#
# Indices 1 2 3 4 5 6 
#
# 1 63.9675 22.5828 23.7036 0.0000 1.0929 0.0000
# 2 22.5828 89.0852 30.0393 0.0000 -0.9811 0.0000
# 3 23.7036 30.0393 77.9659 0.0000 -12.1358 0.0000
# 4 0.0000 0.0000 0.0000 41.1807 0.0000 4.7320
# 5 1.0929 -0.9811 -12.1358 0.0000 32.6520 0.0000
# 6 0.0000 0.0000 0.0000 4.7320 0.0000 13.8779
#
#
#
# Elastic Compliance Matrix: (Units=1/GPa)
#
#
# Indices 1 2 3 4 5 6 
#
# 1 0.018564 -0.003102 -0.004840 0.000000 -0.002514 0.000000
# 2 -0.003102 0.013494 -0.004433 0.000000 -0.001138 0.000000
# 3 -0.004840 -0.004433 0.016993 0.000000 0.006345 0.000000
# 4 0.000000 0.000000 0.000000 0.025273 0.000000 -0.008618
# 5 -0.002514 -0.001138 0.006345 0.000000 0.033034 0.000000
# 6 0.000000 0.000000 0.000000 -0.008618 0.000000 0.074995
#
#
# Mechanical properties :
#
#
# Convention : Reuss Voigt Hill
#
# Bulk Modulus (GPa) = 41.14999 42.63002 41.89001
# Shear Modulus (GPa) = 23.23365 27.85499 25.54432
#
# Velocity S-wave (km/s) = 3.35084 3.66899 3.51352
# Velocity P-wave (km/s) = 5.90401 6.20890 6.05837
#
# Compressibility (1/GPa) = 0.02430134
#
# Stress axis : x y z
#
# Youngs Moduli (GPa) = 53.86638 74.10823 58.84653
#
# Poissons Ratio (x) = 0.22985 0.28484
# Poissons Ratio (y) = 0.16707 0.26088
# Poissons Ratio (z) = 0.26073 0.32854
#
# Static dielectric constant tensor:
#      x y z
#    x 1.801580 0.000000 -0.023470 
#    y 0.000000 1.687990 0.000000 
#    z -0.023470 0.000000 1.726340 
# 
# From -- ./inp_files/20169.got.cif
#   From: 2010.05.17/outbox.cif.g08.bks.cpg/sg11_11_cif.got.tgz:20169.got - 2010.06.03 12:22:45.
