data_PCOD9167567
_publ_section_title
;
Structure prediction by ZEFSAII (Michael W. Deem and Ramdas Pophale) SiO2 
 PCOD9167567
Probable space group: P 21/M
;
_chemical_formula_sum "Si O2"
_cell_formula_units_Z 24
_cell_length_a 5.084750
_cell_length_b 16.090429
_cell_length_c 14.640888
_cell_angle_alpha 90.000000
_cell_angle_beta 77.830874
_cell_angle_gamma 90.000000
_cell_volume 1170.939819
_symmetry_space_group_name_H-M "P 21/M"
_symmetry_group_IT_number 11
_symmetry_cell_setting 'monoclinic'
loop_
_space_group_symop_operation_xyz
x,y,z
-x,1/2+y,-z
-x,-y,-z
x,1/2-y,z
loop_
_atom_site_type_symbol
_atom_site_label
_atom_site_fract_x
_atom_site_fract_y
_atom_site_fract_z
Si Si1 0.072409 0.840457 0.981961
Si Si2 0.392752 0.072638 0.075809
Si Si3 0.525369 0.028514 0.760226
Si Si4 0.996264 0.114991 0.806877
Si Si5 0.797308 0.250000 0.544627
Si Si6 0.771174 0.750000 0.342345
Si Si7 0.727430 0.051507 0.537756
O O1 0.002794 0.750000 0.951977
O O2 0.389056 0.855790 0.954153
O O3 0.902481 0.906080 0.937159
O O4 0.986642 0.848980 0.093548
O O5 0.399195 0.049509 0.182174
O O6 0.500000 0.000000 0.000000
O O7 0.204628 0.038463 0.786499
O O8 0.642940 0.039649 0.650410
O O9 0.686488 0.098566 0.806097
O O10 0.116196 0.172571 0.720214
O O11 0.548356 0.250000 0.633204
O O12 0.759007 0.151949 0.510776
O O13 0.092364 0.250000 0.568130
O O14 0.500000 0.000000 0.500000
O O15 0.000000 0.000000 0.500000
#
# Coordination Sequence:
#
# PCOD9167567 Si02
#       7
#     4   4   4   4   2   2   4
#     4  12  24  38  59  92 133 178 221 264 316 389
#     4  12  23  40  63  93 129 174 218 263 322 391
#     4  12  24  40  66  94 128 167 219 270 331 391
#     4  12  20  35  61  99 128 163 213 272 332 389
#     4  12  24  44  72 102 135 168 213 288 354 406
#     4  12  20  36  62 104 131 164 211 276 354 390
#     4  12  26  46  72 103 132 174 223 278 342 407
#
# _framework density 20.496357
#
# number of rings (size 3 to 8) (size 9 to 14) (size 15 to 20)
#    0.000    0.000    7.500    4.000    0.000    0.000 
#    0.000    0.000   11.000    0.000    0.000    0.000 
#    0.000    0.000    0.000    0.000    0.000    0.000 
#
# Total GULP energy -133769.622582 kJ/mol
# GULP energy per Si atom -5573.734274 kJ/mol
# Density = 2.044971 g / cm^3
# Si number density = 20.496357 Si / 1000 Ang^3
#
#
#
# Elastic Constant Matrix: (Units=GPa)
#
#
# Indices 1 2 3 4 5 6 
#
# 1 85.3108 24.0013 16.4805 0.0000 2.7381 0.0000
# 2 24.0013 104.4647 35.0447 0.0000 2.1668 0.0000
# 3 16.4805 35.0447 60.7898 0.0000 10.7299 0.0000
# 4 0.0000 0.0000 0.0000 35.8004 0.0000 -8.7269
# 5 2.7381 2.1668 10.7299 0.0000 35.8097 0.0000
# 6 0.0000 0.0000 0.0000 -8.7269 0.0000 40.9598
#
#
#
# Elastic Compliance Matrix: (Units=1/GPa)
#
#
# Indices 1 2 3 4 5 6 
#
# 1 0.012765 -0.002206 -0.002154 0.000000 -0.000197 0.000000
# 2 -0.002206 0.012316 -0.006758 0.000000 0.001448 0.000000
# 3 -0.002154 -0.006758 0.021992 0.000000 -0.006016 0.000000
# 4 0.000000 0.000000 0.000000 0.029463 0.000000 0.006277
# 5 -0.000197 0.001448 -0.006016 0.000000 0.029655 0.000000
# 6 0.000000 0.000000 0.000000 0.006277 0.000000 0.025752
#
#
# Mechanical properties :
#
#
# Convention : Reuss Voigt Hill
#
# Bulk Modulus (GPa) = 40.26226 44.62425 42.44325
# Shear Modulus (GPa) = 30.77712 34.18324 32.48018
#
# Velocity S-wave (km/s) = 3.87924 4.08827 3.98512
# Velocity P-wave (km/s) = 6.30483 6.64111 6.47515
#
# Compressibility (1/GPa) = 0.02483715
#
# Stress axis : x y z
#
# Youngs Moduli (GPa) = 78.33947 81.19190 45.47147
#
# Poissons Ratio (x) = 0.17912 0.09795
# Poissons Ratio (y) = 0.17282 0.30729
# Poissons Ratio (z) = 0.16875 0.54869
#
# Static dielectric constant tensor:
#      x y z
#    x 1.811710 0.000000 -0.041100 
#    y 0.000000 1.820590 0.000000 
#    z -0.041100 0.000000 1.756010 
# 
# From -- ./inp_files/45739.got.cif
#   From: 2010.05.17/outbox.cif.g08.bks.cpg/sg11_23_cif.got.tgz:45739.got - 2010.06.03 12:22:45.
