data_PCOD9167181
_publ_section_title
;
Structure prediction by ZEFSAII (Michael W. Deem and Ramdas Pophale) SiO2 
 PCOD9167181
Probable space group: P 21/M
;
_chemical_formula_sum "Si O2"
_cell_formula_units_Z 20
_cell_length_a 7.763383
_cell_length_b 19.541442
_cell_length_c 7.023071
_cell_angle_alpha 90.000000
_cell_angle_beta 80.830271
_cell_angle_gamma 90.000000
_cell_volume 1051.838073
_symmetry_space_group_name_H-M "P 21/M"
_symmetry_group_IT_number 11
_symmetry_cell_setting 'monoclinic'
loop_
_space_group_symop_operation_xyz
x,y,z
-x,1/2+y,-z
-x,-y,-z
x,1/2-y,z
loop_
_atom_site_type_symbol
_atom_site_label
_atom_site_fract_x
_atom_site_fract_y
_atom_site_fract_z
Si Si1 0.709511 0.882632 0.579039
Si Si2 0.369232 0.062861 0.991987
Si Si3 0.542756 0.172044 0.677131
Si Si4 0.128750 0.486807 0.719279
Si Si5 0.911555 0.110098 0.526379
O O1 0.563178 0.839033 0.500764
O O2 0.730113 0.952983 0.452459
O O3 0.904010 0.851111 0.524817
O O4 0.672567 0.902579 0.800197
O O5 0.458461 0.119555 0.841666
O O6 0.198653 0.033320 0.912877
O O7 0.500000 0.000000 0.000000
O O8 0.525297 0.250000 0.744274
O O9 0.743493 0.152823 0.605925
O O10 0.114500 0.565310 0.661107
O O11 0.954612 0.446510 0.683722
#
# Coordination Sequence:
#
# PCOD9167181 Si02
#       5
#     4   4   4   4   4
#     4   9  20  38  59  84 116 155 193 243 297 359
#     4  11  21  36  64  94 122 157 198 257 309 354
#     4  11  24  41  58  83 121 164 204 249 303 368
#     4   8  18  36  58  91 121 144 191 249 298 356
#     4   9  18  39  59  85 120 155 195 242 300 356
#
# _framework density 19.014332
#
# number of rings (size 3 to 8) (size 9 to 14) (size 15 to 20)
#    1.200    1.200    0.000    2.400    0.000    5.600 
#    3.600    0.000    0.000    0.000    0.000    0.000 
#    0.000    0.000    0.000    0.000    0.000    0.000 
#
# Total GULP energy -111450.180492 kJ/mol
# GULP energy per Si atom -5572.509025 kJ/mol
# Density = 1.897105 g / cm^3
# Si number density = 19.014332 Si / 1000 Ang^3
#
#
#
# Elastic Constant Matrix: (Units=GPa)
#
#
# Indices 1 2 3 4 5 6 
#
# 1 92.8236 36.8578 29.2693 0.0000 0.3166 0.0000
# 2 36.8578 78.7725 22.6689 0.0000 12.4736 0.0000
# 3 29.2693 22.6689 105.2250 0.0000 9.9008 0.0000
# 4 0.0000 0.0000 0.0000 16.9293 0.0000 -7.6560
# 5 0.3166 12.4736 9.9008 0.0000 20.1036 0.0000
# 6 0.0000 0.0000 0.0000 -7.6560 0.0000 9.1226
#
#
#
# Elastic Compliance Matrix: (Units=1/GPa)
#
#
# Indices 1 2 3 4 5 6 
#
# 1 0.014387 -0.006712 -0.003069 0.000000 0.005449 0.000000
# 2 -0.006712 0.017770 -0.000979 0.000000 -0.010437 0.000000
# 3 -0.003069 -0.000979 0.011017 0.000000 -0.004770 0.000000
# 4 0.000000 0.000000 0.000000 0.095200 0.000000 0.079895
# 5 0.005449 -0.010437 -0.004770 0.000000 0.058482 0.000000
# 6 0.000000 0.000000 0.000000 0.079895 0.000000 0.176667
#
#
# Mechanical properties :
#
#
# Convention : Reuss Voigt Hill
#
# Bulk Modulus (GPa) = 46.17939 50.49035 48.33487
# Shear Modulus (GPa) = 12.42978 21.76611 17.09795
#
# Velocity S-wave (km/s) = 2.55954 3.38704 3.00194
# Velocity P-wave (km/s) = 5.75103 6.47361 6.12299
#
# Compressibility (1/GPa) = 0.02165468
#
# Stress axis : x y z
#
# Youngs Moduli (GPa) = 69.50649 56.27564 90.77049
#
# Poissons Ratio (x) = 0.37769 0.27855
# Poissons Ratio (y) = 0.46649 0.08888
# Poissons Ratio (z) = 0.21330 0.05511
#
# Static dielectric constant tensor:
#      x y z
#    x 1.699610 0.000000 0.002470 
#    y 0.000000 1.666860 0.000000 
#    z 0.002470 0.000000 1.669540 
# 
# From -- ./inp_files/2152.got.cif
#   From: 2010.05.17/outbox.cif.g08.bks.cpg/sg11_2_cif.got.tgz:2152.got - 2010.06.03 12:22:45.
