data_PCOD9167946
_publ_section_title
;
Structure prediction by ZEFSAII (Michael W. Deem and Ramdas Pophale) SiO2 
 PCOD9167946
Probable space group: P 21/M
;
_chemical_formula_sum "Si O2"
_cell_formula_units_Z 32
_cell_length_a 15.000000
_cell_length_b 9.000000
_cell_length_c 24.000000
_cell_angle_alpha 90.000000
_cell_angle_beta 30.000000
_cell_angle_gamma 90.000000
_cell_volume 1620.000000
_symmetry_space_group_name_H-M "P 21/M"
_symmetry_group_IT_number 11
_symmetry_cell_setting 'monoclinic'
loop_
_space_group_symop_operation_xyz
x,y,z
-x,1/2+y,-z
-x,-y,-z
x,1/2-y,z
loop_
_atom_site_type_symbol
_atom_site_label
_atom_site_fract_x
_atom_site_fract_y
_atom_site_fract_z
Si Si1 0.722088 0.925136 0.544055
Si Si2 0.054336 0.427167 0.410934
Si Si3 0.452790 0.077968 0.768965
Si Si4 0.461093 0.573144 0.581030
Si Si5 0.174493 0.072375 0.009302
Si Si6 0.295091 0.428188 0.062939
Si Si7 0.677107 0.570905 0.828871
Si Si8 0.183543 0.420651 0.810698
O O1 0.764855 0.750000 0.523721
O O2 0.614732 0.953483 0.544803
O O3 0.602052 0.971061 0.662634
O O4 0.893742 0.027877 0.456646
O O5 0.066052 0.250000 0.412741
O O6 0.226674 0.478227 0.280760
O O7 0.000000 0.500000 0.500000
O O8 0.517483 0.250000 0.738955
O O9 0.356310 0.031298 0.878334
O O10 0.302454 0.076259 0.802096
O O11 0.500000 0.500000 0.500000
O O12 0.443547 0.750000 0.583603
O O13 0.286419 0.507767 0.706062
O O14 0.159005 0.250000 0.011023
O O15 0.173154 0.036592 0.075794
O O16 0.005796 0.992779 0.074531
O O17 0.322984 0.250000 0.047636
O O18 0.232025 0.467840 0.159824
O O19 0.481421 0.505138 0.945535
O O20 0.669186 0.750000 0.830149
O O21 0.162739 0.250000 0.805009
#
# Coordination Sequence:
#
# PCOD9167946 Si02
#       8
#     4   4   4   4   4   4   4   4
#     4  10  22  39  58  85 116 150 192 237 291 350
#     4  11  24  40  60  86 117 154 198 246 297 351
#     4   9  19  35  54  78 113 152 187 226 277 337
#     4  10  21  38  60  84 114 151 192 237 286 344
#     4  10  20  33  53  82 111 143 186 230 279 337
#     4   9  19  36  58  83 110 144 183 228 285 343
#     4   9  20  39  58  79 110 144 182 230 285 343
#     4  10  20  34  52  78 112 149 188 228 276 331
#
# _framework density 19.753086
#
# number of rings (size 3 to 8) (size 9 to 14) (size 15 to 20)
#    0.000    2.250    0.000    1.875    1.750    5.000 
#    0.000    1.250    0.000    0.000    0.000    0.000 
#    0.000    0.000    0.000    0.000    0.000    0.000 
#
# Total GULP energy -178464.959812 kJ/mol
# GULP energy per Si atom -5577.029994 kJ/mol
# Density = 1.970813 g / cm^3
# Si number density = 19.753086 Si / 1000 Ang^3
#
#
#
# Elastic Constant Matrix: (Units=GPa)
#
#
# Indices 1 2 3 4 5 6 
#
# 1 46.7177 20.2783 22.5450 0.0000 20.4993 0.0000
# 2 20.2783 32.5089 18.8256 0.0000 8.1397 0.0000
# 3 22.5450 18.8256 83.2535 0.0000 23.0099 0.0000
# 4 0.0000 0.0000 0.0000 32.8889 0.0000 3.9581
# 5 20.4993 8.1397 23.0099 0.0000 38.0911 0.0000
# 6 0.0000 0.0000 0.0000 3.9581 0.0000 27.7050
#
#
#
# Elastic Compliance Matrix: (Units=1/GPa)
#
#
# Indices 1 2 3 4 5 6 
#
# 1 0.036588 -0.018124 -0.001726 0.000000 -0.014775 0.000000
# 2 -0.018124 0.044717 -0.006312 0.000000 0.004011 0.000000
# 3 -0.001726 -0.006312 0.015938 0.000000 -0.007350 0.000000
# 4 0.000000 0.000000 0.000000 0.030937 0.000000 -0.004420
# 5 -0.014775 0.004011 -0.007350 0.000000 0.037787 0.000000
# 6 0.000000 0.000000 0.000000 -0.004420 0.000000 0.036726
#
#
# Mechanical properties :
#
#
# Convention : Reuss Voigt Hill
#
# Bulk Modulus (GPa) = 22.26273 31.75309 27.00791
# Shear Modulus (GPa) = 18.51923 26.45908 22.48915
#
# Velocity S-wave (km/s) = 3.06524 3.66388 3.37785
# Velocity P-wave (km/s) = 4.88084 5.83169 5.37732
#
# Compressibility (1/GPa) = 0.04491811
#
# Stress axis : x y z
#
# Youngs Moduli (GPa) = 27.33141 22.36291 62.74437
#
# Poissons Ratio (x) = 0.40530 0.10832
# Poissons Ratio (y) = 0.49534 0.39606
# Poissons Ratio (z) = 0.04718 0.14116
#
# Static dielectric constant tensor:
#      x y z
#    x 1.744080 0.000000 -0.016930 
#    y 0.000000 1.649670 0.000000 
#    z -0.016930 0.000000 1.700990 
# 
# From -- ./inp_files/69006.got.cif
#   From: 2010.05.17/outbox.ucp.g08.bks.cvg/sg11_35_cif.got.tgz:69006.got - 2010.06.11 11:38:39.
