data_PCOD9167852
_publ_section_title
;
Structure prediction by ZEFSAII (Michael W. Deem and Ramdas Pophale) SiO2 
 PCOD9167852
Probable space group: P 21/M
;
_chemical_formula_sum "Si O2"
_cell_formula_units_Z 24
_cell_length_a 12.000000
_cell_length_b 9.000000
_cell_length_c 24.000000
_cell_angle_alpha 90.000000
_cell_angle_beta 30.000000
_cell_angle_gamma 90.000000
_cell_volume 1296.000000
_symmetry_space_group_name_H-M "P 21/M"
_symmetry_group_IT_number 11
_symmetry_cell_setting 'monoclinic'
loop_
_space_group_symop_operation_xyz
x,y,z
-x,1/2+y,-z
-x,-y,-z
x,1/2-y,z
loop_
_atom_site_type_symbol
_atom_site_label
_atom_site_fract_x
_atom_site_fract_y
_atom_site_fract_z
Si Si1 0.103977 0.929489 0.544894
Si Si2 0.740743 0.427602 0.396148
Si Si3 0.429277 0.430132 0.969791
Si Si4 0.619302 0.429964 0.762870
Si Si5 0.505982 0.431064 0.297243
Si Si6 0.081300 0.929689 0.800354
O O1 0.094031 0.750000 0.540183
O O2 0.159772 0.957591 0.586028
O O3 0.291585 0.001287 0.423333
O O4 0.864492 0.006520 0.642324
O O5 0.500000 0.500000 0.500000
O O6 0.721001 0.250000 0.399947
O O7 0.869324 0.480138 0.284741
O O8 0.447725 0.250000 0.967358
O O9 0.551701 0.469194 0.857144
O O10 0.500000 0.500000 0.000000
O O11 0.168951 0.472930 0.074752
O O12 0.612301 0.250000 0.762292
O O13 0.478725 0.501358 0.772105
O O14 0.488086 0.250000 0.302480
O O15 0.722246 0.471884 0.241703
O O16 0.083415 0.750000 0.798563
#
# Coordination Sequence:
#
# PCOD9167852 Si02
#       6
#     4   4   4   4   4   4
#     4  11  22  37  60  88 120 157 198 245 294 350
#     4  10  19  33  56  85 116 148 185 233 286 343
#     4  10  22  42  65  88 117 153 194 241 292 348
#     4  11  24  40  59  85 119 157 198 244 291 347
#     4  11  22  38  61  86 118 157 197 243 295 353
#     4   9  19  37  60  86 118 155 190 235 293 347
#
# _framework density 18.518519000000001
#
# number of rings (size 3 to 8) (size 9 to 14) (size 15 to 20)
#    0.000    1.667    1.667    3.000    0.000    4.000 
#    0.000    2.500    0.000    0.000    0.000    0.000 
#    0.000    0.000    0.000    0.000    0.000    0.000 
#
# Total GULP energy -133852.919234 kJ/mol
# GULP energy per Si atom -5577.204968 kJ/mol
# Density = 1.847637 g / cm^3
# Si number density = 18.518519 Si / 1000 Ang^3
#
#
#
# Elastic Constant Matrix: (Units=GPa)
#
#
# Indices 1 2 3 4 5 6 
#
# 1 140.4947 40.0191 54.1977 0.0000 17.2062 0.0000
# 2 40.0191 58.0478 23.2354 0.0000 8.2308 0.0000
# 3 54.1977 23.2354 127.3168 0.0000 9.1436 0.0000
# 4 0.0000 0.0000 0.0000 26.1882 0.0000 5.7398
# 5 17.2062 8.2308 9.1436 0.0000 37.6247 0.0000
# 6 0.0000 0.0000 0.0000 5.7398 0.0000 37.3315
#
#
#
# Elastic Compliance Matrix: (Units=1/GPa)
#
#
# Indices 1 2 3 4 5 6 
#
# 1 0.010206 -0.005383 -0.003167 0.000000 -0.002720 0.000000
# 2 -0.005383 0.021835 -0.001554 0.000000 -0.001937 0.000000
# 3 -0.003167 -0.001554 0.009524 0.000000 -0.000526 0.000000
# 4 0.000000 0.000000 0.000000 0.039517 0.000000 -0.006076
# 5 -0.002720 -0.001937 -0.000526 0.000000 0.028374 0.000000
# 6 0.000000 0.000000 0.000000 -0.006076 0.000000 0.027721
#
#
# Mechanical properties :
#
#
# Convention : Reuss Voigt Hill
#
# Bulk Modulus (GPa) = 46.82326 62.30709 54.56517
# Shear Modulus (GPa) = 30.39454 34.12269 32.25862
#
# Velocity S-wave (km/s) = 4.05570 4.29724 4.17821
# Velocity P-wave (km/s) = 6.87539 7.63810 7.26676
#
# Compressibility (1/GPa) = 0.02135691
#
# Stress axis : x y z
#
# Youngs Moduli (GPa) = 97.98462 45.79804 104.99814
#
# Poissons Ratio (x) = 0.24652 0.33251
# Poissons Ratio (y) = 0.52742 0.16321
# Poissons Ratio (z) = 0.31030 0.07119
#
# Static dielectric constant tensor:
#      x y z
#    x 1.690490 0.000000 -0.006450 
#    y 0.000000 1.624780 0.000000 
#    z -0.006450 0.000000 1.637640 
# 
# From -- ./inp_files/33696.got.cif
#   From: 2010.05.17/outbox.ucp.g08.bks.cvg/sg11_17_cif.got.tgz:33696.got - 2010.06.11 11:38:39.
