data_PCOD9167851
_publ_section_title
;
Structure prediction by ZEFSAII (Michael W. Deem and Ramdas Pophale) SiO2 
 PCOD9167851
Probable space group: P 21/M
;
_chemical_formula_sum "Si O2"
_cell_formula_units_Z 32
_cell_length_a 21.000000
_cell_length_b 9.000000
_cell_length_c 27.000000
_cell_angle_alpha 90.000000
_cell_angle_beta 160.000000
_cell_angle_gamma 90.000000
_cell_volume 1745.328791
_symmetry_space_group_name_H-M "P 21/M"
_symmetry_group_IT_number 11
_symmetry_cell_setting 'monoclinic'
loop_
_space_group_symop_operation_xyz
x,y,z
-x,1/2+y,-z
-x,-y,-z
x,1/2-y,z
loop_
_atom_site_type_symbol
_atom_site_label
_atom_site_fract_x
_atom_site_fract_y
_atom_site_fract_z
Si Si1 0.298572 0.571428 0.851040
Si Si2 0.183504 0.571065 0.657093
Si Si3 0.623386 0.427225 0.387993
Si Si4 0.014110 0.071131 0.301219
Si Si5 0.085828 0.570522 0.881861
Si Si6 0.075670 0.075734 0.131784
Si Si7 0.707148 0.422900 0.793979
Si Si8 0.493528 0.071141 0.182755
O O1 0.315986 0.750000 0.864344
O O2 0.205099 0.529466 0.730388
O O3 0.172157 0.526938 0.805270
O O4 0.500000 0.500000 0.000000
O O5 0.169643 0.750000 0.643880
O O6 0.365532 0.526843 0.758161
O O7 0.000000 0.500000 0.500000
O O8 0.633295 0.250000 0.398051
O O9 0.813008 0.499006 0.545045
O O10 0.458414 0.486039 0.302323
O O11 0.581128 0.467982 0.300110
O O12 0.028749 0.250000 0.314717
O O13 0.005523 0.029327 0.237258
O O14 0.100062 0.750000 0.894686
O O15 0.970965 0.523522 0.846713
O O16 0.292559 0.503969 0.033143
O O17 0.128011 0.250000 0.171388
O O18 0.226256 0.985342 0.210271
O O19 0.883785 0.064837 0.960195
O O20 0.656189 0.250000 0.752925
O O21 0.471181 0.250000 0.164472
#
# Coordination Sequence:
#
# PCOD9167851 Si02
#       8
#     4   4   4   4   4   4   4   4
#     4  10  21  37  57  81 109 144 185 228 273 326
#     4  10  21  36  53  78 109 141 180 226 274 322
#     4  11  22  36  55  81 112 147 185 225 272 325
#     4  10  22  38  56  80 112 147 184 225 272 326
#     4  10  20  36  57  82 109 141 181 224 269 320
#     4   9  18  33  54  82 112 140 176 223 270 319
#     4  10  19  33  56  83 111 143 178 221 272 323
#     4  10  21  35  54  80 109 140 180 228 273 321
#
# _framework density 18.334654
#
# number of rings (size 3 to 8) (size 9 to 14) (size 15 to 20)
#    0.000    2.000    1.250    2.250    0.000    3.500 
#    0.000    0.625    0.000    0.000    0.000    0.000 
#    0.000    0.000    0.000    0.000    0.000    0.000 
#
# Total GULP energy -178682.304380 kJ/mol
# GULP energy per Si atom -5583.822012 kJ/mol
# Density = 1.829292 g / cm^3
# Si number density = 18.334654 Si / 1000 Ang^3
#
#
#
# Elastic Constant Matrix: (Units=GPa)
#
#
# Indices 1 2 3 4 5 6 
#
# 1 101.4250 16.9354 -6.7129 0.0000 -0.6461 0.0000
# 2 16.9354 7.8471 9.7284 0.0000 -6.4464 0.0000
# 3 -6.7129 9.7284 22.5495 0.0000 -13.3911 0.0000
# 4 0.0000 0.0000 0.0000 29.3370 0.0000 7.5443
# 5 -0.6461 -6.4464 -13.3911 0.0000 24.5787 0.0000
# 6 0.0000 0.0000 0.0000 7.5443 0.0000 20.9709
#
#
#
# Elastic Compliance Matrix: (Units=1/GPa)
#
#
# Indices 1 2 3 4 5 6 
#
# 1 -0.119305 0.646886 -0.318876 0.000000 -0.007205 0.000000
# 2 0.646886 -3.231494 1.616512 0.000000 0.050174 0.000000
# 3 -0.318876 1.616512 -0.740895 0.000000 0.011933 0.000000
# 4 0.000000 0.000000 0.000000 0.037562 0.000000 -0.013513
# 5 -0.007205 0.050174 0.011933 0.000000 0.060157 0.000000
# 6 0.000000 0.000000 0.000000 -0.013513 0.000000 0.052546
#
#
# Mechanical properties :
#
#
# Convention : Reuss Voigt Hill
#
# Bulk Modulus (GPa) = -4.93458 19.08037 7.07290
# Shear Modulus (GPa) = -0.63307 22.43538 10.90116
#
# Velocity S-wave (km/s) = -0.58825 3.50188 2.44102
# Velocity P-wave (km/s) = 1.77725 5.17496 3.43668
#
# Compressibility (1/GPa) = -0.20265159
#
# Stress axis : x y z
#
# Youngs Moduli (GPa) = -8.38191 -0.30945 -1.34972
#
# Poissons Ratio (x) = 0.20018 -0.43039
# Poissons Ratio (y) = 5.42213 2.18184
# Poissons Ratio (z) = -2.67279 0.50024
#
# Static dielectric constant tensor:
#      x y z
#    x 1.631470 0.000000 -0.010980 
#    y 0.000000 1.609610 0.000000 
#    z -0.010980 0.000000 1.602840 
# 
# From -- ./inp_files/72219.got.cif
#   From: 2010.05.17/outbox.ucp.g08.bks.cvg/sg11_37_cif.got.tgz:72219.got - 2010.06.11 11:38:39.
