data_PCOD9167125
_publ_section_title
;
Structure prediction by ZEFSAII (Michael W. Deem and Ramdas Pophale) SiO2 
 PCOD9167125
Probable space group: P 21/M
;
_chemical_formula_sum "Si O2"
_cell_formula_units_Z 32
_cell_length_a 22.053570
_cell_length_b 8.574532
_cell_length_c 11.616387
_cell_angle_alpha 90.000000
_cell_angle_beta 117.079007
_cell_angle_gamma 90.000000
_cell_volume 1955.850377
_symmetry_space_group_name_H-M "P 21/M"
_symmetry_group_IT_number 11
_symmetry_cell_setting 'monoclinic'
loop_
_space_group_symop_operation_xyz
x,y,z
-x,1/2+y,-z
-x,-y,-z
x,1/2-y,z
loop_
_atom_site_type_symbol
_atom_site_label
_atom_site_fract_x
_atom_site_fract_y
_atom_site_fract_z
Si Si1 0.102509 0.438242 0.028412
Si Si2 0.480715 0.938208 0.856317
Si Si3 0.659173 0.568115 0.216164
Si Si4 0.200765 0.565124 0.723400
Si Si5 0.767334 0.560582 0.995214
Si Si6 0.968438 0.561729 0.799342
Si Si7 0.621713 0.566894 0.911062
Si Si8 0.065234 0.062502 0.487938
O O1 0.101878 0.250000 0.025950
O O2 0.080095 0.488869 0.136951
O O3 0.176354 0.490292 0.048256
O O4 0.043411 0.497490 0.892229
O O5 0.480369 0.750000 0.858048
O O6 0.544442 0.993922 0.832723
O O7 0.404701 0.999369 0.769148
O O8 0.500000 0.000000 0.000000
O O9 0.667712 0.750000 0.249752
O O10 0.730936 0.481475 0.287137
O O11 0.639316 0.556522 0.062913
O O12 0.196844 0.750000 0.731478
O O13 0.208342 0.491827 0.857300
O O14 0.133876 0.500989 0.603981
O O15 0.764918 0.750000 0.993644
O O16 0.689710 0.501542 0.910152
O O17 0.971921 0.750000 0.804184
O O18 0.942268 0.513413 0.651860
O O19 0.618228 0.750000 0.878338
O O20 0.065795 0.250000 0.493155
O O21 0.000000 0.000000 0.500000
#
# Coordination Sequence:
#
# PCOD9167125 Si02
#       8
#     4   4   4   4   4   4   4   4
#     4   9  17  30  49  68  86 111 143 178 216 259
#     4   9  14  21  34  53  79 112 147 179 213 255
#     4   9  16  27  40  55  79 112 148 182 218 257
#     4  11  21  31  44  64  89 116 149 183 218 263
#     4   9  16  28  45  64  88 117 147 178 216 260
#     4   9  19  33  47  65  87 112 143 180 219 258
#     4   7  12  21  34  54  80 109 139 171 206 249
#     4  11  22  35  49  65  89 117 147 182 219 259
#
# _framework density 16.361170000000001
#
# number of rings (size 3 to 8) (size 9 to 14) (size 15 to 20)
#    0.000    2.750    0.000    4.500    0.000    3.500 
#    0.000    0.625    0.000    0.000    0.000    0.000 
#    0.000    1.000    0.000    1.750    0.000    3.750 
#
# Total GULP energy -178152.028675 kJ/mol
# GULP energy per Si atom -5567.250896 kJ/mol
# Density = 1.632393 g / cm^3
# Si number density = 16.361170 Si / 1000 Ang^3
#
#
#
# Elastic Constant Matrix: (Units=GPa)
#
#
# Indices 1 2 3 4 5 6 
#
# 1 161.5290 20.4931 33.2302 0.0000 21.9292 0.0000
# 2 20.4931 28.6024 7.1110 0.0000 4.2387 0.0000
# 3 33.2302 7.1110 35.0151 0.0000 7.3042 0.0000
# 4 0.0000 0.0000 0.0000 14.1924 0.0000 5.8534
# 5 21.9292 4.2387 7.3042 0.0000 17.5967 0.0000
# 6 0.0000 0.0000 0.0000 5.8534 0.0000 23.9419
#
#
#
# Elastic Compliance Matrix: (Units=1/GPa)
#
#
# Indices 1 2 3 4 5 6 
#
# 1 0.008983 -0.003761 -0.006147 0.000000 -0.007737 0.000000
# 2 -0.003761 0.039048 -0.003696 0.000000 -0.003184 0.000000
# 3 -0.006147 -0.003696 0.036522 0.000000 -0.006609 0.000000
# 4 0.000000 0.000000 0.000000 0.078362 0.000000 -0.019158
# 5 -0.007737 -0.003184 -0.006609 0.000000 0.069981 0.000000
# 6 0.000000 0.000000 0.000000 -0.019158 0.000000 0.046452
#
#
# Mechanical properties :
#
#
# Convention : Reuss Voigt Hill
#
# Bulk Modulus (GPa) = 17.43872 38.53501 27.98686
# Shear Modulus (GPa) = 15.35287 22.10034 18.72661
#
# Velocity S-wave (km/s) = 3.06661 3.67928 3.38683
# Velocity P-wave (km/s) = 4.81877 6.45394 5.69534
#
# Compressibility (1/GPa) = 0.05734367
#
# Stress axis : x y z
#
# Youngs Moduli (GPa) = 111.32064 25.60957 27.38047
#
# Poissons Ratio (x) = 0.09633 0.16832
# Poissons Ratio (y) = 0.41871 0.10120
# Poissons Ratio (z) = 0.68432 0.09466
#
# Static dielectric constant tensor:
#      x y z
#    x 1.610450 0.000000 0.011360 
#    y 0.000000 1.559920 0.000000 
#    z 0.011360 0.000000 1.532960 
# 
# From -- ./inp_files/42519.got.cif
#   From: 2010.05.17/outbox.cif.g08.bks.cpg/sg11_22_cif.got.tgz:42519.got - 2010.06.03 12:22:45.
