data_PCOD9167180
_publ_section_title
;
Structure prediction by ZEFSAII (Michael W. Deem and Ramdas Pophale) SiO2 
 PCOD9167180
Probable space group: P 21/M
;
_chemical_formula_sum "Si O2"
_cell_formula_units_Z 20
_cell_length_a 8.018445
_cell_length_b 17.397796
_cell_length_c 12.331832
_cell_angle_alpha 90.000000
_cell_angle_beta 37.508526
_cell_angle_gamma 90.000000
_cell_volume 1047.474177
_symmetry_space_group_name_H-M "P 21/M"
_symmetry_group_IT_number 11
_symmetry_cell_setting 'monoclinic'
loop_
_space_group_symop_operation_xyz
x,y,z
-x,1/2+y,-z
-x,-y,-z
x,1/2-y,z
loop_
_atom_site_type_symbol
_atom_site_label
_atom_site_fract_x
_atom_site_fract_y
_atom_site_fract_z
Si Si1 0.970986 0.106351 0.106392
Si Si2 0.180315 0.955275 0.270280
Si Si3 0.689167 0.062775 0.458734
Si Si4 0.456475 0.838768 0.269994
Si Si5 0.277137 0.947218 0.975456
O O1 0.818027 0.117903 0.299279
O O2 0.784679 0.108292 0.093924
O O3 0.253094 0.151896 0.942144
O O4 0.067578 0.018065 0.070829
O O5 0.214755 0.882597 0.330361
O O6 0.426049 0.012995 0.177752
O O7 0.231734 0.921657 0.122519
O O8 0.916783 0.009889 0.401259
O O9 0.522647 0.113721 0.629516
O O10 0.500000 0.000000 0.500000
O O11 0.397126 0.750000 0.317850
#
# Coordination Sequence:
#
# PCOD9167180 Si02
#       5
#     4   4   4   4   4
#     4   9  18  34  55  79 110 141 176 225 278 330
#     4   9  17  32  56  84 111 143 186 233 276 331
#     4  11  21  36  62  87 111 149 198 241 280 335
#     4  11  23  37  55  82 117 152 187 235 296 350
#     4   8  14  30  57  83 102 133 180 223 269 327
#
# _framework density 19.093551000000001
#
# number of rings (size 3 to 8) (size 9 to 14) (size 15 to 20)
#    0.000    2.400    0.000    6.600    0.000    0.800 
#    0.000    4.000    0.000    3.600    0.000    0.000 
#    0.000    0.000    0.000    0.000    0.000    0.000 
#
# Total GULP energy -111408.264955 kJ/mol
# GULP energy per Si atom -5570.413248 kJ/mol
# Density = 1.905009 g / cm^3
# Si number density = 19.093551 Si / 1000 Ang^3
#
#
#
# Elastic Constant Matrix: (Units=GPa)
#
#
# Indices 1 2 3 4 5 6 
#
# 1 92.7098 25.2723 16.5274 0.0000 5.4247 0.0000
# 2 25.2723 79.9538 28.5041 0.0000 13.5366 0.0000
# 3 16.5274 28.5041 81.4791 0.0000 6.4353 0.0000
# 4 0.0000 0.0000 0.0000 12.0717 0.0000 1.0822
# 5 5.4247 13.5366 6.4353 0.0000 26.1965 0.0000
# 6 0.0000 0.0000 0.0000 1.0822 0.0000 8.4673
#
#
#
# Elastic Compliance Matrix: (Units=1/GPa)
#
#
# Indices 1 2 3 4 5 6 
#
# 1 0.011920 -0.003241 -0.001246 0.000000 -0.000488 0.000000
# 2 -0.003241 0.016260 -0.004508 0.000000 -0.006624 0.000000
# 3 -0.001246 -0.004508 0.014173 0.000000 -0.000895 0.000000
# 4 0.000000 0.000000 0.000000 0.083798 0.000000 -0.010711
# 5 -0.000488 -0.006624 -0.000895 0.000000 0.041916 0.000000
# 6 0.000000 0.000000 0.000000 -0.010711 0.000000 0.119471
#
#
# Mechanical properties :
#
#
# Convention : Reuss Voigt Hill
#
# Bulk Modulus (GPa) = 41.04272 43.86114 42.45193
# Shear Modulus (GPa) = 15.94133 21.60303 18.77218
#
# Velocity S-wave (km/s) = 2.89261 3.36732 3.13895
# Velocity P-wave (km/s) = 5.71826 6.17576 5.95141
#
# Compressibility (1/GPa) = 0.02436485
#
# Stress axis : x y z
#
# Youngs Moduli (GPa) = 83.88915 61.49980 70.55500
#
# Poissons Ratio (x) = 0.19934 0.08788
# Poissons Ratio (y) = 0.27191 0.31804
# Poissons Ratio (z) = 0.10449 0.27723
#
# Static dielectric constant tensor:
#      x y z
#    x 1.728740 0.000000 0.039160 
#    y 0.000000 1.627550 0.000000 
#    z 0.039160 0.000000 1.762280 
# 
# From -- ./inp_files/32158.got.cif
#   From: 2010.05.17/outbox.cif.g08.bks.cpg/sg11_17_cif.got.tgz:32158.got - 2010.06.03 12:22:45.
