data_PCOD9167799
_publ_section_title
;
Structure prediction by ZEFSAII (Michael W. Deem and Ramdas Pophale) SiO2 
 PCOD9167799
Probable space group: P 21/M
;
_chemical_formula_sum "Si O2"
_cell_formula_units_Z 32
_cell_length_a 15.000000
_cell_length_b 9.000000
_cell_length_c 24.000000
_cell_angle_alpha 90.000000
_cell_angle_beta 30.000000
_cell_angle_gamma 90.000000
_cell_volume 1620.000000
_symmetry_space_group_name_H-M "P 21/M"
_symmetry_group_IT_number 11
_symmetry_cell_setting 'monoclinic'
loop_
_space_group_symop_operation_xyz
x,y,z
-x,1/2+y,-z
-x,-y,-z
x,1/2-y,z
loop_
_atom_site_type_symbol
_atom_site_label
_atom_site_fract_x
_atom_site_fract_y
_atom_site_fract_z
Si Si1 0.296045 0.917370 0.543612
Si Si2 0.302522 0.926711 0.950975
Si Si3 0.296499 0.425346 0.835873
Si Si4 0.926874 0.925094 0.147615
Si Si5 0.696019 0.569193 0.742827
Si Si6 0.289114 0.925300 0.387809
Si Si7 0.970588 0.928566 0.380672
Si Si8 0.635191 0.088064 0.362840
O O1 0.307645 0.750000 0.512497
O O2 0.345294 0.900790 0.581536
O O3 0.107495 0.991136 0.631939
O O4 0.443190 0.037089 0.445640
O O5 0.306908 0.750000 0.956358
O O6 0.494151 0.978544 0.868343
O O7 0.291368 0.970187 0.892101
O O8 0.110496 0.987173 0.073471
O O9 0.262658 0.250000 0.867712
O O10 0.153551 0.478802 0.867753
O O11 0.503685 0.431204 0.705289
O O12 0.949798 0.750000 0.127985
O O13 0.768819 0.959433 0.274366
O O14 0.710907 0.750000 0.734143
O O15 0.725041 0.504175 0.664823
O O16 0.838587 0.494121 0.705848
O O17 0.240116 0.750000 0.409547
O O18 0.162788 0.011099 0.498928
O O19 0.970328 0.750000 0.377459
O O20 0.682711 0.250000 0.313336
#
# Coordination Sequence:
#
# PCOD9167799 Si02
#       8
#     4   4   4   4   4   4   4   4
#     4  10  21  38  57  78 106 135 163 202 252 303
#     4   9  19  33  50  72 100 137 177 214 252 296
#     4   9  18  30  47  72 103 137 169 205 250 299
#     4  10  19  32  51  76 105 137 172 209 253 301
#     4  10  20  35  51  70 101 139 177 218 259 298
#     4  10  19  32  49  73 105 139 173 209 254 306
#     4  12  23  34  52  77 101 131 173 214 256 308
#     4  10  21  36  56  82 107 133 165 201 247 303
#
# _framework density 19.753086
#
# number of rings (size 3 to 8) (size 9 to 14) (size 15 to 20)
#    0.000    2.000    0.000    4.125    0.000    4.500 
#    0.000    0.000    0.000    0.750    0.000    0.000 
#    0.000    0.000    0.000    0.000    0.000    0.000 
#
# Total GULP energy -178235.394422 kJ/mol
# GULP energy per Si atom -5569.856076 kJ/mol
# Density = 1.970813 g / cm^3
# Si number density = 19.753086 Si / 1000 Ang^3
#
#
#
# Elastic Constant Matrix: (Units=GPa)
#
#
# Indices 1 2 3 4 5 6 
#
# 1 82.7555 34.4626 21.3791 0.0000 -34.2210 0.0000
# 2 34.4626 35.0066 -12.8518 0.0000 -17.4438 0.0000
# 3 21.3791 -12.8518 32.2721 0.0000 -33.5248 0.0000
# 4 0.0000 0.0000 0.0000 11.8880 0.0000 -1.5544
# 5 -34.2210 -17.4438 -33.5248 0.0000 32.8644 0.0000
# 6 0.0000 0.0000 0.0000 -1.5544 0.0000 14.9315
#
#
#
# Elastic Compliance Matrix: (Units=1/GPa)
#
#
# Indices 1 2 3 4 5 6 
#
# 1 0.026524 -0.011965 0.004054 0.000000 0.025404 0.000000
# 2 -0.011965 0.007345 -0.032822 0.000000 -0.042042 0.000000
# 3 0.004054 -0.032822 -0.025420 0.000000 -0.039131 0.000000
# 4 0.000000 0.000000 0.000000 0.085279 0.000000 0.008878
# 5 0.025404 -0.042042 -0.039131 0.000000 -0.005352 0.000000
# 6 0.000000 0.000000 0.000000 0.008878 0.000000 0.067897
#
#
# Mechanical properties :
#
#
# Convention : Reuss Voigt Hill
#
# Bulk Modulus (GPa) = -13.69553 26.22375 6.26411
# Shear Modulus (GPa) = 23.43013 19.07306 21.25159
#
# Velocity S-wave (km/s) = 3.44779 3.11074 3.28359
# Velocity P-wave (km/s) = 2.98350 5.11926 4.18976
#
# Compressibility (1/GPa) = -0.07301653
#
# Stress axis : x y z
#
# Youngs Moduli (GPa) = 37.70177 136.14233 -39.33908
#
# Poissons Ratio (x) = 1.62888 0.15949
# Poissons Ratio (y) = 0.45109 -1.29120
# Poissons Ratio (z) = -0.15285 4.46852
#
# Static dielectric constant tensor:
#      x y z
#    x 1.715950 0.000000 -0.002510 
#    y 0.000000 1.682730 0.000000 
#    z -0.002510 0.000000 1.771820 
# 
# From -- ./inp_files/51701.got.cif
#   From: 2010.05.17/outbox.ucp.g08.bks.cvg/sg11_26_cif.got.tgz:51701.got - 2010.06.11 11:38:39.
