data_PCOD9167326
_publ_section_title
;
Structure prediction by ZEFSAII (Michael W. Deem and Ramdas Pophale) SiO2 
 PCOD9167326
Probable space group: P 21/M
;
_chemical_formula_sum "Si O2"
_cell_formula_units_Z 20
_cell_length_a 10.454052
_cell_length_b 14.526356
_cell_length_c 6.632416
_cell_angle_alpha 90.000000
_cell_angle_beta 70.945014
_cell_angle_gamma 90.000000
_cell_volume 952.005436
_symmetry_space_group_name_H-M "P 21/M"
_symmetry_group_IT_number 11
_symmetry_cell_setting 'monoclinic'
loop_
_space_group_symop_operation_xyz
x,y,z
-x,1/2+y,-z
-x,-y,-z
x,1/2-y,z
loop_
_atom_site_type_symbol
_atom_site_label
_atom_site_fract_x
_atom_site_fract_y
_atom_site_fract_z
Si Si1 0.958375 0.954435 0.233584
Si Si2 0.168360 0.585359 0.404938
Si Si3 0.324727 0.358159 0.682567
Si Si4 0.623480 0.143110 0.364906
Si Si5 0.650027 0.506703 0.002308
O O1 0.812084 0.906779 0.318136
O O2 0.068538 0.884102 0.273241
O O3 0.936558 0.044304 0.382208
O O4 0.000000 0.000000 0.000000
O O5 0.279751 0.636704 0.485993
O O6 0.253081 0.510727 0.234589
O O7 0.311169 0.250000 0.674410
O O8 0.468438 0.382759 0.504239
O O9 0.333944 0.394377 0.905846
O O10 0.625293 0.250000 0.295425
O O11 0.669189 0.070996 0.168537
O O12 0.500000 0.500000 0.000000
#
# Coordination Sequence:
#
# PCOD9167326 Si02
#       5
#     4   4   4   4   4
#     4  11  22  41  67  95 128 177 221 270 323 397
#     4  11  22  39  70  92 127 173 223 260 335 388
#     4  11  23  41  65  97 131 168 218 273 327 389
#     4  11  24  42  66 100 132 167 224 276 328 396
#     4  12  22  40  72  94 130 174 216 275 334 386
#
# _framework density 21.008284
#
# number of rings (size 3 to 8) (size 9 to 14) (size 15 to 20)
#    0.000    0.800    6.000    1.800    0.000    2.400 
#    0.000    4.000    0.000    0.000    0.000    0.000 
#    0.000    0.000    0.000    0.000    0.000    0.000 
#
# Total GULP energy -111388.075358 kJ/mol
# GULP energy per Si atom -5569.403768 kJ/mol
# Density = 2.096047 g / cm^3
# Si number density = 21.008284 Si / 1000 Ang^3
#
#
#
# Elastic Constant Matrix: (Units=GPa)
#
#
# Indices 1 2 3 4 5 6 
#
# 1 151.0109 9.9017 23.0005 0.0000 17.8554 0.0000
# 2 9.9017 59.1846 28.1796 0.0000 -0.3059 0.0000
# 3 23.0005 28.1796 122.2695 0.0000 -12.3446 0.0000
# 4 0.0000 0.0000 0.0000 13.7877 0.0000 7.6499
# 5 17.8554 -0.3059 -12.3446 0.0000 42.9980 0.0000
# 6 0.0000 0.0000 0.0000 7.6499 0.0000 6.1119
#
#
#
# Elastic Compliance Matrix: (Units=1/GPa)
#
#
# Indices 1 2 3 4 5 6 
#
# 1 0.007314 -0.000470 -0.001622 0.000000 -0.003506 0.000000
# 2 -0.000470 0.019065 -0.004400 0.000000 -0.000932 0.000000
# 3 -0.001622 -0.004400 0.009848 0.000000 0.003469 0.000000
# 4 0.000000 0.000000 0.000000 0.237373 0.000000 -0.297105
# 5 -0.003506 -0.000932 0.003469 0.000000 0.025702 0.000000
# 6 0.000000 0.000000 0.000000 -0.297105 0.000000 0.535482
#
#
# Mechanical properties :
#
#
# Convention : Reuss Voigt Hill
#
# Bulk Modulus (GPa) = 43.01973 50.51427 46.76700
# Shear Modulus (GPa) = 5.84443 30.67173 18.25808
#
# Velocity S-wave (km/s) = 1.66973 3.82512 2.95123
# Velocity P-wave (km/s) = 4.92334 6.60347 5.82431
#
# Compressibility (1/GPa) = 0.02324515
#
# Stress axis : x y z
#
# Youngs Moduli (GPa) = 136.71612 52.45247 101.54344
#
# Poissons Ratio (x) = 0.02464 0.16467
# Poissons Ratio (y) = 0.06422 0.44676
# Poissons Ratio (z) = 0.22171 0.23077
#
# Static dielectric constant tensor:
#      x y z
#    x 1.908970 0.000000 0.057260 
#    y 0.000000 1.797260 0.000000 
#    z 0.057260 0.000000 1.778000 
# 
# From -- ./inp_files/4137.got.cif
#   From: 2010.05.17/outbox.cif.g08.bks.cpg/sg11_3_cif.got.tgz:4137.got - 2010.06.03 12:22:45.
