data_PCOD9167267
_publ_section_title
;
Structure prediction by ZEFSAII (Michael W. Deem and Ramdas Pophale) SiO2 
 PCOD9167267
Probable space group: P 21/M
;
_chemical_formula_sum "Si O2"
_cell_formula_units_Z 28
_cell_length_a 22.328926
_cell_length_b 8.699461
_cell_length_c 15.161657
_cell_angle_alpha 90.000000
_cell_angle_beta 149.629526
_cell_angle_gamma 90.000000
_cell_volume 1489.034136
_symmetry_space_group_name_H-M "P 21/M"
_symmetry_group_IT_number 11
_symmetry_cell_setting 'monoclinic'
loop_
_space_group_symop_operation_xyz
x,y,z
-x,1/2+y,-z
-x,-y,-z
x,1/2-y,z
loop_
_atom_site_type_symbol
_atom_site_label
_atom_site_fract_x
_atom_site_fract_y
_atom_site_fract_z
Si Si1 0.111717 0.432920 0.935317
Si Si2 0.210219 0.932569 0.242283
Si Si3 0.865113 0.934505 0.672024
Si Si4 0.297445 0.934328 0.035798
Si Si5 0.514457 0.433114 0.420249
Si Si6 0.624499 0.064631 0.055195
Si Si7 0.647390 0.564890 0.273995
O O1 0.104194 0.250000 0.924958
O O2 0.981614 0.506121 0.771075
O O3 0.173526 0.488053 0.104583
O O4 0.191300 0.491203 0.955665
O O5 0.190863 0.750000 0.209011
O O6 0.349988 0.959952 0.435753
O O7 0.139475 0.997724 0.235499
O O8 0.866937 0.750000 0.679339
O O9 0.747513 0.985072 0.469814
O O10 0.288397 0.750000 0.029822
O O11 0.419671 0.986211 0.237133
O O12 0.305189 0.980529 0.943177
O O13 0.500000 0.500000 0.500000
O O14 0.492782 0.250000 0.394067
O O15 0.626128 0.250000 0.063102
O O16 0.670684 0.996309 0.205309
O O17 0.486237 0.015931 0.870616
O O18 0.648411 0.750000 0.273546
#
# Coordination Sequence:
#
# PCOD9167267 Si02
#       7
#     4   4   4   4   4   4   4
#     4  12  25  40  58  81 114 155 198 241 288 343
#     4  11  23  39  59  85 116 153 195 239 288 341
#     4  11  23  40  61  84 114 152 195 241 289 341
#     4  11  22  38  59  85 119 155 194 237 290 347
#     4  11  22  35  56  84 117 153 190 234 284 337
#     4   9  19  36  61  90 118 148 182 231 289 344
#     4   9  19  37  61  89 117 147 184 232 287 342
#
# _framework density 18.804136
#
# number of rings (size 3 to 8) (size 9 to 14) (size 15 to 20)
#    0.000    1.429    1.429    4.286    0.000    5.143 
#    0.000    3.571    0.000    0.000    0.000    0.000 
#    0.000    0.000    0.000    0.000    0.000    0.000 
#
# Total GULP energy -156540.321592 kJ/mol
# GULP energy per Si atom -5590.725771 kJ/mol
# Density = 1.876134 g / cm^3
# Si number density = 18.804136 Si / 1000 Ang^3
#
#
#
# Elastic Constant Matrix: (Units=GPa)
#
#
# Indices 1 2 3 4 5 6 
#
# 1 121.8989 15.4081 28.7338 0.0000 -11.3620 0.0000
# 2 15.4081 37.1628 6.2186 0.0000 5.8336 0.0000
# 3 28.7338 6.2186 34.3286 0.0000 3.0690 0.0000
# 4 0.0000 0.0000 0.0000 29.9684 0.0000 0.2932
# 5 -11.3620 5.8336 3.0690 0.0000 18.8776 0.0000
# 6 0.0000 0.0000 0.0000 0.2932 0.0000 30.1641
#
#
#
# Elastic Compliance Matrix: (Units=1/GPa)
#
#
# Indices 1 2 3 4 5 6 
#
# 1 0.012253 -0.005021 -0.010294 0.000000 0.010600 0.000000
# 2 -0.005021 0.031011 -0.000292 0.000000 -0.012558 0.000000
# 3 -0.010294 -0.000292 0.038911 0.000000 -0.012431 0.000000
# 4 0.000000 0.000000 0.000000 0.033372 0.000000 -0.000324
# 5 0.010600 -0.012558 -0.012431 0.000000 0.065254 0.000000
# 6 0.000000 0.000000 0.000000 -0.000324 0.000000 0.033155
#
#
# Mechanical properties :
#
#
# Convention : Reuss Voigt Hill
#
# Bulk Modulus (GPa) = 19.62329 32.67903 26.15116
# Shear Modulus (GPa) = 19.07265 25.33733 22.20499
#
# Velocity S-wave (km/s) = 3.18823 3.67472 3.44009
# Velocity P-wave (km/s) = 4.90014 5.95157 5.45126
#
# Compressibility (1/GPa) = 0.05095986
#
# Stress axis : x y z
#
# Youngs Moduli (GPa) = 81.61492 32.24699 25.69999
#
# Poissons Ratio (x) = 0.16193 0.26455
# Poissons Ratio (y) = 0.40983 0.00750
# Poissons Ratio (z) = 0.84012 0.00941
#
# Static dielectric constant tensor:
#      x y z
#    x 1.634820 0.000000 0.013750 
#    y 0.000000 1.631330 0.000000 
#    z 0.013750 0.000000 1.643780 
# 
# From -- ./inp_files/49177.got.cif
#   From: 2010.05.17/outbox.cif.g08.bks.cpg/sg11_25_cif.got.tgz:49177.got - 2010.06.03 12:22:45.
