data_PCOD9167266
_publ_section_title
;
Structure prediction by ZEFSAII (Michael W. Deem and Ramdas Pophale) SiO2 
 PCOD9167266
Probable space group: P 21/M
;
_chemical_formula_sum "Si O2"
_cell_formula_units_Z 24
_cell_length_a 15.496367
_cell_length_b 14.328530
_cell_length_c 11.483589
_cell_angle_alpha 90.000000
_cell_angle_beta 24.056555
_cell_angle_gamma 90.000000
_cell_volume 1039.403139
_symmetry_space_group_name_H-M "P 21/M"
_symmetry_group_IT_number 11
_symmetry_cell_setting 'monoclinic'
loop_
_space_group_symop_operation_xyz
x,y,z
-x,1/2+y,-z
-x,-y,-z
x,1/2-y,z
loop_
_atom_site_type_symbol
_atom_site_label
_atom_site_fract_x
_atom_site_fract_y
_atom_site_fract_z
Si Si1 0.714874 0.555836 0.651215
Si Si2 0.993151 0.645246 0.942747
Si Si3 0.842895 0.459312 0.036277
Si Si4 0.227213 0.650053 0.416360
Si Si5 0.397789 0.855849 0.856659
Si Si6 0.976632 0.888825 0.518260
O O1 0.659048 0.447812 0.751791
O O2 0.565748 0.600009 0.738108
O O3 0.769295 0.621107 0.695145
O O4 0.945595 0.544057 0.304427
O O5 0.907270 0.750000 0.062066
O O6 0.106213 0.609839 0.920124
O O7 0.165384 0.648490 0.627152
O O8 0.831199 0.563783 0.102876
O O9 0.653731 0.422333 0.189162
O O10 0.330408 0.750000 0.261565
O O11 0.009815 0.647570 0.607487
O O12 0.453475 0.750000 0.754711
O O13 0.178788 0.852011 0.199299
O O14 0.000000 0.000000 0.500000
#
# Coordination Sequence:
#
# PCOD9167266 Si02
#       6
#     4   4   4   4   4   4
#     4   9  20  36  56  81 109 142 179 224 273 319
#     4   9  17  33  58  81 106 145 183 219 271 326
#     4   9  19  37  57  80 111 141 178 229 273 317
#     4   9  17  32  54  78 107 144 181 219 268 323
#     4  11  22  35  56  84 110 141 183 226 270 319
#     4   9  19  36  56  78 108 142 177 223 269 317
#
# _framework density 23.090174000000001
#
# number of rings (size 3 to 8) (size 9 to 14) (size 15 to 20)
#    0.000    2.667    0.000    2.000    0.000    6.667 
#    0.000    8.333    0.000   13.000    0.000    0.000 
#    0.000    0.000    0.000    0.000    0.000    0.000 
#
# Total GULP energy -133948.942903 kJ/mol
# GULP energy per Si atom -5581.205954 kJ/mol
# Density = 2.303762 g / cm^3
# Si number density = 23.090174 Si / 1000 Ang^3
#
#
#
# Elastic Constant Matrix: (Units=GPa)
#
#
# Indices 1 2 3 4 5 6 
#
# 1 176.4097 64.8640 18.3652 0.0000 -24.3727 0.0000
# 2 64.8640 198.5860 12.1064 0.0000 -24.8585 0.0000
# 3 18.3652 12.1064 49.5402 0.0000 -17.4058 0.0000
# 4 0.0000 0.0000 0.0000 18.6459 0.0000 2.7404
# 5 -24.3727 -24.8585 -17.4058 0.0000 38.6071 0.0000
# 6 0.0000 0.0000 0.0000 2.7404 0.0000 6.1732
#
#
#
# Elastic Compliance Matrix: (Units=1/GPa)
#
#
# Indices 1 2 3 4 5 6 
#
# 1 0.006823 -0.001832 -0.001168 0.000000 0.002602 0.000000
# 2 -0.001832 0.005969 0.000195 0.000000 0.002775 0.000000
# 3 -0.001168 0.000195 0.024187 0.000000 0.010293 0.000000
# 4 0.000000 0.000000 0.000000 0.057374 0.000000 -0.025469
# 5 0.002602 0.002775 0.010293 0.000000 0.033972 0.000000
# 6 0.000000 0.000000 0.000000 -0.025469 0.000000 0.173296
#
#
# Mechanical properties :
#
#
# Convention : Reuss Voigt Hill
#
# Bulk Modulus (GPa) = 31.87602 68.35635 50.11619
# Shear Modulus (GPa) = 15.73873 34.63196 25.18534
#
# Velocity S-wave (km/s) = 2.61362 3.87700 3.30622
# Velocity P-wave (km/s) = 4.78988 7.05052 6.02714
#
# Compressibility (1/GPa) = 0.03137154
#
# Stress axis : x y z
#
# Youngs Moduli (GPa) = 146.55998 167.52069 41.34399
#
# Poissons Ratio (x) = 0.30686 0.04828
# Poissons Ratio (y) = 0.26847 -0.00808
# Poissons Ratio (z) = 0.17115 -0.03273
#
# Static dielectric constant tensor:
#      x y z
#    x 1.861870 0.000000 0.018700 
#    y 0.000000 1.924040 0.000000 
#    z 0.018700 0.000000 1.904400 
# 
# From -- ./inp_files/39580.got.cif
#   From: 2010.05.17/outbox.cif.g08.bks.cpg/sg11_20_cif.got.tgz:39580.got - 2010.06.03 12:22:45.
