data_PCOD9167888
_publ_section_title
;
Structure prediction by ZEFSAII (Michael W. Deem and Ramdas Pophale) SiO2 
 PCOD9167888
Probable space group: P 21/M
;
_chemical_formula_sum "Si O2"
_cell_formula_units_Z 32
_cell_length_a 9.000000
_cell_length_b 30.000000
_cell_length_c 12.000000
_cell_angle_alpha 90.000000
_cell_angle_beta 30.000000
_cell_angle_gamma 90.000000
_cell_volume 1620.000000
_symmetry_space_group_name_H-M "P 21/M"
_symmetry_group_IT_number 11
_symmetry_cell_setting 'monoclinic'
loop_
_space_group_symop_operation_xyz
x,y,z
-x,1/2+y,-z
-x,-y,-z
x,1/2-y,z
loop_
_atom_site_type_symbol
_atom_site_label
_atom_site_fract_x
_atom_site_fract_y
_atom_site_fract_z
Si Si1 0.447297 0.864167 0.381843
Si Si2 0.321258 0.394483 0.316049
Si Si3 0.158644 0.198939 0.005826
Si Si4 0.632989 0.421883 0.765556
Si Si5 0.624238 0.486348 0.099367
Si Si6 0.779144 0.478791 0.260935
Si Si7 0.742319 0.851089 0.852923
Si Si8 0.341410 0.877314 0.678434
O O1 0.584004 0.820136 0.240140
O O2 0.493521 0.906321 0.272881
O O3 0.560949 0.870434 0.431837
O O4 0.093431 0.860507 0.621938
O O5 0.492436 0.438309 0.160180
O O6 0.353971 0.352925 0.211571
O O7 0.470181 0.382358 0.334215
O O8 0.975952 0.407769 0.552440
O O9 0.080291 0.250000 0.037577
O O10 0.282439 0.191090 0.050721
O O11 0.889456 0.163635 0.164034
O O12 0.590527 0.474413 0.800986
O O13 0.436231 0.391503 0.974341
O O14 0.705087 0.488275 0.178888
O O15 0.950259 0.499076 0.846409
O O16 0.500000 0.500000 0.500000
O O17 0.811780 0.425257 0.244779
#
# Coordination Sequence:
#
# PCOD9167888 Si02
#       8
#     4   4   4   4   4   4   4   4
#     4   9  18  34  58  82 108 142 184 234 282 332
#     4  10  22  35  53  83 119 158 189 230 285 336
#     4  10  21  39  65  88 105 137 186 238 292 350
#     4  10  19  35  54  79 115 158 199 233 272 322
#     4  10  20  32  50  80 115 153 203 239 268 323
#     4  10  20  33  53  83 118 158 196 239 285 328
#     4   9  20  37  57  81 113 146 183 229 281 340
#     4  10  21  37  58  86 119 149 187 238 288 341
#
# _framework density 19.753086
#
# number of rings (size 3 to 8) (size 9 to 14) (size 15 to 20)
#    0.000    2.250    0.000    3.375    0.000    8.500 
#    0.000    0.625    0.000    3.000    0.000    0.000 
#    0.000    0.000    0.000    0.000    0.000    0.000 
#
# Total GULP energy -178165.668103 kJ/mol
# GULP energy per Si atom -5567.677128 kJ/mol
# Density = 1.970813 g / cm^3
# Si number density = 19.753086 Si / 1000 Ang^3
#
#
#
# Elastic Constant Matrix: (Units=GPa)
#
#
# Indices 1 2 3 4 5 6 
#
# 1 70.7803 47.7692 43.2335 0.0000 -2.4601 0.0000
# 2 47.7692 91.8251 48.2355 0.0000 -18.7885 0.0000
# 3 43.2335 48.2355 68.9262 0.0000 -5.0701 0.0000
# 4 0.0000 0.0000 0.0000 6.8030 0.0000 -8.0645
# 5 -2.4601 -18.7885 -5.0701 0.0000 13.5830 0.0000
# 6 0.0000 0.0000 0.0000 -8.0645 0.0000 17.4623
#
#
#
# Elastic Compliance Matrix: (Units=1/GPa)
#
#
# Indices 1 2 3 4 5 6 
#
# 1 0.028320 -0.012832 -0.009986 0.000000 -0.016348 0.000000
# 2 -0.012832 0.030514 -0.010664 0.000000 0.035903 0.000000
# 3 -0.009986 -0.010664 0.027780 0.000000 -0.006191 0.000000
# 4 0.000000 0.000000 0.000000 0.324820 0.000000 0.150010
# 5 -0.016348 0.035903 -0.006191 0.000000 0.118012 0.000000
# 6 0.000000 0.000000 0.000000 0.150010 0.000000 0.126545
#
#
# Mechanical properties :
#
#
# Convention : Reuss Voigt Hill
#
# Bulk Modulus (GPa) = 50.89358 56.66756 53.78057
# Shear Modulus (GPa) = 6.85397 13.72256 10.28827
#
# Velocity S-wave (km/s) = 1.86477 2.63858 2.28468
# Velocity P-wave (km/s) = 5.51881 6.16710 5.85194
#
# Compressibility (1/GPa) = 0.01964884
#
# Stress axis : x y z
#
# Youngs Moduli (GPa) = 35.31112 32.77222 35.99773
#
# Poissons Ratio (x) = 0.42052 0.35947
# Poissons Ratio (y) = 0.45310 0.38389
# Poissons Ratio (z) = 0.35262 0.34949
#
# Static dielectric constant tensor:
#      x y z
#    x 1.810630 0.000000 0.014830 
#    y 0.000000 1.672520 0.000000 
#    z 0.014830 0.000000 1.834230 
# 
# From -- ./inp_files/33207.got.cif
#   From: 2010.05.17/outbox.ucp.g08.bks.cvg/sg11_17_cif.got.tgz:33207.got - 2010.06.11 11:38:39.
