data_PCOD9167217
_publ_section_title
;
Structure prediction by ZEFSAII (Michael W. Deem and Ramdas Pophale) SiO2 
 PCOD9167217
Probable space group: P 21/M
;
_chemical_formula_sum "Si O2"
_cell_formula_units_Z 20
_cell_length_a 5.927337
_cell_length_b 20.617035
_cell_length_c 8.323073
_cell_angle_alpha 90.000000
_cell_angle_beta 67.408029
_cell_angle_gamma 90.000000
_cell_volume 939.064584
_symmetry_space_group_name_H-M "P 21/M"
_symmetry_group_IT_number 11
_symmetry_cell_setting 'monoclinic'
loop_
_space_group_symop_operation_xyz
x,y,z
-x,1/2+y,-z
-x,-y,-z
x,1/2-y,z
loop_
_atom_site_type_symbol
_atom_site_label
_atom_site_fract_x
_atom_site_fract_y
_atom_site_fract_z
Si Si1 0.566387 0.378979 0.225539
Si Si2 0.463625 0.876870 0.152070
Si Si3 0.747449 0.992228 0.658748
Si Si4 0.660906 0.750000 0.572501
Si Si5 0.266229 0.750000 0.378056
Si Si6 0.934588 0.931640 0.931751
O O1 0.444291 0.439846 0.353785
O O2 0.419576 0.314912 0.311171
O O3 0.848735 0.386920 0.193071
O O4 0.589893 0.381950 0.024049
O O5 0.345193 0.813160 0.256303
O O6 0.360636 0.938237 0.275091
O O7 0.755907 0.886577 0.084754
O O8 0.797173 0.958472 0.815117
O O9 0.000000 0.000000 0.500000
O O10 0.462934 0.750000 0.475539
O O11 0.963396 0.750000 0.476638
O O12 0.000000 0.000000 0.000000
#
# Coordination Sequence:
#
# PCOD9167217 Si02
#       6
#     4   4   4   2   2   4
#     4  11  24  45  70  98 140 188 234 291 355 429
#     4  11  24  44  71 100 142 187 238 293 353 433
#     4  11  23  39  67 105 139 178 235 297 357 412
#     4  12  31  49  70 104 146 187 242 297 359 421
#     4  12  31  51  70 106 146 189 242 297 359 419
#     4  11  21  41  70 104 135 180 240 287 352 431
#
# _framework density 21.297788000000001
#
# number of rings (size 3 to 8) (size 9 to 14) (size 15 to 20)
#    0.000    0.800    4.000    3.000   11.200    3.200 
#    0.000    0.000    0.000    0.000    0.000    0.000 
#    0.000    0.000    0.000    0.000    0.000    0.000 
#
# Total GULP energy -111433.772748 kJ/mol
# GULP energy per Si atom -5571.688637 kJ/mol
# Density = 2.124931 g / cm^3
# Si number density = 21.297788 Si / 1000 Ang^3
#
#
#
# Elastic Constant Matrix: (Units=GPa)
#
#
# Indices 1 2 3 4 5 6 
#
# 1 80.0988 31.2871 30.5464 0.0000 -46.7802 0.0000
# 2 31.2871 180.6145 65.7268 0.0000 -57.6283 0.0000
# 3 30.5464 65.7268 83.1111 0.0000 -49.8667 0.0000
# 4 0.0000 0.0000 0.0000 49.3430 0.0000 -9.2986
# 5 -46.7802 -57.6283 -49.8667 0.0000 58.1282 0.0000
# 6 0.0000 0.0000 0.0000 -9.2986 0.0000 32.1382
#
#
#
# Elastic Compliance Matrix: (Units=1/GPa)
#
#
# Indices 1 2 3 4 5 6 
#
# 1 0.025578 0.002455 0.005087 0.000000 0.027382 0.000000
# 2 0.002455 0.008790 -0.002967 0.000000 0.008145 0.000000
# 3 0.005087 -0.002967 0.027202 0.000000 0.024489 0.000000
# 4 0.000000 0.000000 0.000000 0.021435 0.000000 0.006202
# 5 0.027382 0.008145 0.024489 0.000000 0.068323 0.000000
# 6 0.000000 0.000000 0.000000 0.006202 0.000000 0.032910
#
#
# Mechanical properties :
#
#
# Convention : Reuss Voigt Hill
#
# Bulk Modulus (GPa) = 14.14029 66.54945 40.34487
# Shear Modulus (GPa) = 25.16879 42.33951 33.75415
#
# Velocity S-wave (km/s) = 3.44140 4.46351 3.98536
# Velocity P-wave (km/s) = 4.73758 7.60782 6.33733
#
# Compressibility (1/GPa) = 0.07071990
#
# Stress axis : x y z
#
# Youngs Moduli (GPa) = 39.09653 113.76983 36.76267
#
# Poissons Ratio (x) = -0.27928 -0.18702
# Poissons Ratio (y) = -0.09597 0.10906
# Poissons Ratio (z) = -0.19890 0.33750
#
# Static dielectric constant tensor:
#      x y z
#    x 2.003810 0.000000 0.023610 
#    y 0.000000 1.902820 0.000000 
#    z 0.023610 0.000000 1.771240 
# 
# From -- ./inp_files/1903.got.cif
#   From: 2010.05.17/outbox.cif.g08.bks.cpg/sg11_1_cif.got.tgz:1903.got - 2010.06.03 12:22:45.
