data_PCOD9167956
_publ_section_title
;
Structure prediction by ZEFSAII (Michael W. Deem and Ramdas Pophale) SiO2 
 PCOD9167956
Probable space group: P 21/M
;
_chemical_formula_sum "Si O2"
_cell_formula_units_Z 24
_cell_length_a 15.000000
_cell_length_b 9.000000
_cell_length_c 15.000000
_cell_angle_alpha 90.000000
_cell_angle_beta 40.000000
_cell_angle_gamma 90.000000
_cell_volume 1301.644910
_symmetry_space_group_name_H-M "P 21/M"
_symmetry_group_IT_number 11
_symmetry_cell_setting 'monoclinic'
loop_
_space_group_symop_operation_xyz
x,y,z
-x,1/2+y,-z
-x,-y,-z
x,1/2-y,z
loop_
_atom_site_type_symbol
_atom_site_label
_atom_site_fract_x
_atom_site_fract_y
_atom_site_fract_z
Si Si1 0.361016 0.425105 0.576667
Si Si2 0.071912 0.074770 0.863417
Si Si3 0.438543 0.572297 0.176066
Si Si4 0.318226 0.576380 0.080219
Si Si5 0.998820 0.424422 0.720943
Si Si6 0.743695 0.073330 0.522786
O O1 0.500000 0.500000 0.500000
O O2 0.377747 0.250000 0.553057
O O3 0.235957 0.451910 0.740757
O O4 0.309865 0.496820 0.524909
O O5 0.047433 0.250000 0.885203
O O6 0.016243 0.023896 0.809786
O O7 0.000000 0.000000 0.000000
O O8 0.437789 0.750000 0.176946
O O9 0.365150 0.521811 0.141310
O O10 0.351024 0.518646 0.325297
O O11 0.593471 0.513503 0.058313
O O12 0.355208 0.750000 0.044731
O O13 0.157002 0.562065 0.190053
O O14 0.040318 0.250000 0.686055
O O15 0.099954 0.521042 0.583781
O O16 0.735486 0.250000 0.521208
#
# Coordination Sequence:
#
# PCOD9167956 Si02
#       6
#     4   4   4   4   4   4
#     4  10  21  37  55  77 104 134 170 210 252 300
#     4   9  19  34  51  73 100 129 164 206 249 297
#     4   9  19  34  51  75 105 133 168 214 257 301
#     4   9  18  34  54  74 100 135 172 212 258 305
#     4   9  19  35  52  73 101 132 170 212 252 301
#     4  10  20  34  52  76 105 135 168 208 254 303
#
# _framework density 18.438207999999999
#
# number of rings (size 3 to 8) (size 9 to 14) (size 15 to 20)
#    0.000    2.667    0.000    2.000    0.000    7.333 
#    0.000    3.333    0.000    0.000    0.000    0.000 
#    0.000    0.000    0.000    0.000    0.000    0.000 
#
# Total GULP energy -133634.515462 kJ/mol
# GULP energy per Si atom -5568.104811 kJ/mol
# Density = 1.839624 g / cm^3
# Si number density = 18.438208 Si / 1000 Ang^3
#
#
#
# Elastic Constant Matrix: (Units=GPa)
#
#
# Indices 1 2 3 4 5 6 
#
# 1 8.7218 34.6723 1.2083 0.0000 -1.3586 0.0000
# 2 34.6723 14.8591 77.5213 0.0000 -9.1189 0.0000
# 3 1.2083 77.5213 67.6197 0.0000 29.9929 0.0000
# 4 0.0000 0.0000 0.0000 23.9031 0.0000 -12.5655
# 5 -1.3586 -9.1189 29.9929 0.0000 -4.6414 0.0000
# 6 0.0000 0.0000 0.0000 -12.5655 0.0000 10.6518
#
#
#
# Elastic Compliance Matrix: (Units=1/GPa)
#
#
# Indices 1 2 3 4 5 6 
#
# 1 -0.027232 0.032798 -0.003121 0.000000 -0.076636 0.000000
# 2 0.032798 -0.007706 0.001498 0.000000 0.015219 0.000000
# 3 -0.003121 0.001498 0.003628 0.000000 0.021416 0.000000
# 4 0.000000 0.000000 0.000000 0.110130 0.000000 0.129915
# 5 -0.076636 0.015219 0.021416 0.000000 -0.084531 0.000000
# 6 0.000000 0.000000 0.000000 0.129915 0.000000 0.247136
#
#
# Mechanical properties :
#
#
# Convention : Reuss Voigt Hill
#
# Bulk Modulus (GPa) = 32.21857 35.33383 33.77620
# Shear Modulus (GPa) = 26.39605 4.50262 15.44933
#
# Velocity S-wave (km/s) = 3.78775 1.56439 2.89779
# Velocity P-wave (km/s) = 6.05319 4.74005 5.43641
#
# Compressibility (1/GPa) = 0.03103800
#
# Stress axis : x y z
#
# Youngs Moduli (GPa) = -36.72130 -129.76799 275.62647
#
# Poissons Ratio (x) = 4.25607 0.86033
# Poissons Ratio (y) = 1.20437 -0.41287
# Poissons Ratio (z) = -0.11462 0.19438
#
# Static dielectric constant tensor:
#      x y z
#    x 1.592850 0.000000 0.011450 
#    y 0.000000 1.604370 0.000000 
#    z 0.011450 0.000000 1.645040 
# 
# From -- ./inp_files/25716.got.cif
#   From: 2010.05.17/outbox.ucp.g08.bks.cvg/sg11_13_cif.got.tgz:25716.got - 2010.06.11 11:38:39.
