data_PCOD9167041
_publ_section_title
;
Structure prediction by ZEFSAII (Michael W. Deem and Ramdas Pophale) SiO2 
 PCOD9167041
Probable space group: P 21/M
;
_chemical_formula_sum "Si O2"
_cell_formula_units_Z 32
_cell_length_a 12.499599
_cell_length_b 14.755304
_cell_length_c 19.117368
_cell_angle_alpha 90.000000
_cell_angle_beta 26.082633
_cell_angle_gamma 90.000000
_cell_volume 1550.230083
_symmetry_space_group_name_H-M "P 21/M"
_symmetry_group_IT_number 11
_symmetry_cell_setting 'monoclinic'
loop_
_space_group_symop_operation_xyz
x,y,z
-x,1/2+y,-z
-x,-y,-z
x,1/2-y,z
loop_
_atom_site_type_symbol
_atom_site_label
_atom_site_fract_x
_atom_site_fract_y
_atom_site_fract_z
Si Si1 0.754015 0.519995 0.230878
Si Si2 0.096494 0.144059 0.988239
Si Si3 0.465431 0.896845 0.171847
Si Si4 0.241385 0.021204 0.502236
Si Si5 0.565276 0.901169 0.754773
Si Si6 0.800283 0.354281 0.806921
Si Si7 0.930078 0.347718 0.481704
Si Si8 0.106714 0.849966 0.093099
O O1 0.776291 0.589707 0.151274
O O2 0.472470 0.504880 0.413378
O O3 0.913524 0.570941 0.195252
O O4 0.879056 0.424175 0.137507
O O5 0.040427 0.250000 0.005800
O O6 0.291566 0.142886 0.937035
O O7 0.413552 0.878314 0.121399
O O8 0.236404 0.859942 0.351356
O O9 0.468313 0.003078 0.186490
O O10 0.357752 0.076751 0.369110
O O11 0.027588 0.080294 0.659739
O O12 0.130104 0.930560 0.533539
O O13 0.790993 0.852362 0.658387
O O14 0.305644 0.854493 0.914882
O O15 0.869551 0.250000 0.751910
O O16 0.746647 0.360852 0.920615
O O17 0.872895 0.250000 0.483698
O O18 0.991103 0.750000 0.162138
#
# Coordination Sequence:
#
# PCOD9167041 Si02
#       8
#     4   4   4   4   4   4   4   4
#     4  11  22  39  59  85 122 161 202 245 290 349
#     4  11  21  36  61  92 122 155 198 252 301 346
#     4  11  19  37  62  89 121 153 194 247 303 352
#     4  11  22  38  62  89 118 153 204 247 293 346
#     4  11  19  38  62  90 118 151 194 253 301 346
#     4  11  24  41  62  88 121 159 197 242 301 364
#     4  11  20  33  59  94 123 150 190 249 306 350
#     4  11  25  42  60  87 122 162 199 238 299 363
#
# _framework density 20.642098000000001
#
# number of rings (size 3 to 8) (size 9 to 14) (size 15 to 20)
#    0.000    1.000    6.250    3.375    0.000    2.500 
#    0.000    0.000    0.000    0.750    0.000    0.000 
#    0.000    0.000    0.000    0.000    0.000    0.000 
#
# Total GULP energy -178782.713669 kJ/mol
# GULP energy per Si atom -5586.959802 kJ/mol
# Density = 2.059512 g / cm^3
# Si number density = 20.642098 Si / 1000 Ang^3
#
#
#
# Elastic Constant Matrix: (Units=GPa)
#
#
# Indices 1 2 3 4 5 6 
#
# 1 86.0847 18.5033 10.7877 0.0000 -13.8076 0.0000
# 2 18.5033 115.5066 15.2075 0.0000 1.9288 0.0000
# 3 10.7877 15.2075 28.1015 0.0000 -12.3162 0.0000
# 4 0.0000 0.0000 0.0000 20.9368 0.0000 -1.2498
# 5 -13.8076 1.9288 -12.3162 0.0000 30.0554 0.0000
# 6 0.0000 0.0000 0.0000 -1.2498 0.0000 18.3280
#
#
#
# Elastic Compliance Matrix: (Units=1/GPa)
#
#
# Indices 1 2 3 4 5 6 
#
# 1 0.013124 -0.001992 -0.001538 0.000000 0.005527 0.000000
# 2 -0.001992 0.009892 -0.006421 0.000000 -0.004181 0.000000
# 3 -0.001538 -0.006421 0.048173 0.000000 0.019446 0.000000
# 4 0.000000 0.000000 0.000000 0.047958 0.000000 0.003270
# 5 0.005527 -0.004181 0.019446 0.000000 0.044048 0.000000
# 6 0.000000 0.000000 0.000000 0.003270 0.000000 0.054784
#
#
# Mechanical properties :
#
#
# Convention : Reuss Voigt Hill
#
# Bulk Modulus (GPa) = 19.49793 35.40999 27.45396
# Shear Modulus (GPa) = 19.60965 26.21032 22.90998
#
# Velocity S-wave (km/s) = 3.08552 3.56722 3.33508
# Velocity P-wave (km/s) = 4.70746 5.84451 5.30653
#
# Compressibility (1/GPa) = 0.05128748
#
# Stress axis : x y z
#
# Youngs Moduli (GPa) = 76.19712 101.09350 20.75845
#
# Poissons Ratio (x) = 0.20140 0.03192
# Poissons Ratio (y) = 0.15180 0.13329
# Poissons Ratio (z) = 0.11716 0.64911
#
# Static dielectric constant tensor:
#      x y z
#    x 1.766450 0.000000 -0.009780 
#    y 0.000000 1.752500 0.000000 
#    z -0.009780 0.000000 1.718900 
# 
# From -- ./inp_files/59474.got.cif
#   From: 2010.05.17/outbox.cif.g08.bks.cpg/sg11_30_cif.got.tgz:59474.got - 2010.06.03 12:22:45.
