data_PCOD9167546
_publ_section_title
;
Structure prediction by ZEFSAII (Michael W. Deem and Ramdas Pophale) SiO2 
 PCOD9167546
Probable space group: P 21/M
;
_chemical_formula_sum "Si O2"
_cell_formula_units_Z 22
_cell_length_a 8.744758
_cell_length_b 21.420835
_cell_length_c 8.214572
_cell_angle_alpha 90.000000
_cell_angle_beta 34.592284
_cell_angle_gamma 90.000000
_cell_volume 873.601126
_symmetry_space_group_name_H-M "P 21/M"
_symmetry_group_IT_number 11
_symmetry_cell_setting 'monoclinic'
loop_
_space_group_symop_operation_xyz
x,y,z
-x,1/2+y,-z
-x,-y,-z
x,1/2-y,z
loop_
_atom_site_type_symbol
_atom_site_label
_atom_site_fract_x
_atom_site_fract_y
_atom_site_fract_z
Si Si1 0.768995 0.960632 0.784462
Si Si2 0.710296 0.750000 0.117990
Si Si3 0.736918 0.750000 0.476616
Si Si4 0.077338 0.116263 0.055004
Si Si5 0.514541 0.139533 0.140011
Si Si6 0.238693 0.750000 0.283402
Si Si7 0.520415 0.073037 0.440423
O O1 0.820349 0.939662 0.921494
O O2 0.735800 0.894673 0.721916
O O3 0.000000 0.000000 0.500000
O O4 0.500000 0.000000 0.000000
O O5 0.839813 0.684257 0.949527
O O6 0.401361 0.750000 0.316447
O O7 0.800743 0.750000 0.230316
O O8 0.555512 0.690415 0.664707
O O9 0.943006 0.750000 0.451452
O O10 0.757754 0.107441 0.330559
O O11 0.235476 0.103095 0.746885
O O12 0.661401 0.182788 0.879207
O O13 0.617245 0.084537 0.168901
O O14 0.500000 0.000000 0.500000
#
# Coordination Sequence:
#
# PCOD9167546 Si02
#       7
#     4   2   2   4   4   2   4
#     4  12  27  47  73 106 149 196 249 315 377 457
#     4  12  24  50  74 111 158 196 262 322 392 462
#     4  11  25  47  74 107 152 197 254 327 374 464
#     4  12  26  47  73 110 144 199 255 310 392 458
#     4  11  25  45  69 109 146 192 262 305 384 453
#     4  11  25  47  76 106 150 205 254 321 384 460
#     4  12  26  47  75 107 151 198 252 317 383 458
#
# _framework density 25.183115999999998
#
# number of rings (size 3 to 8) (size 9 to 14) (size 15 to 20)
#    0.000    0.364    3.636    4.909    2.545    2.909 
#    0.000    0.000    0.000    0.000    0.000    0.000 
#    0.000    0.000    0.000    0.000    0.000    0.000 
#
# Total GULP energy -122655.311663 kJ/mol
# GULP energy per Si atom -5575.241439 kJ/mol
# Density = 2.512580 g / cm^3
# Si number density = 25.183116 Si / 1000 Ang^3
#
#
#
# Elastic Constant Matrix: (Units=GPa)
#
#
# Indices 1 2 3 4 5 6 
#
# 1 80.9680 11.2374 11.0972 0.0000 -5.4266 0.0000
# 2 11.2374 129.4425 25.3376 0.0000 0.5588 0.0000
# 3 11.0972 25.3376 65.9197 0.0000 -19.2339 0.0000
# 4 0.0000 0.0000 0.0000 24.2155 0.0000 0.4643
# 5 -5.4266 0.5588 -19.2339 0.0000 29.2922 0.0000
# 6 0.0000 0.0000 0.0000 0.4643 0.0000 58.9982
#
#
#
# Elastic Compliance Matrix: (Units=1/GPa)
#
#
# Indices 1 2 3 4 5 6 
#
# 1 0.012757 -0.000840 -0.001398 0.000000 0.001461 0.000000
# 2 -0.000840 0.008600 -0.004029 0.000000 -0.002965 0.000000
# 3 -0.001398 -0.004029 0.020906 0.000000 0.013545 0.000000
# 4 0.000000 0.000000 0.000000 0.041302 0.000000 -0.000325
# 5 0.001461 -0.002965 0.013545 0.000000 0.043360 0.000000
# 6 0.000000 0.000000 0.000000 -0.000325 0.000000 0.016952
#
#
# Mechanical properties :
#
#
# Convention : Reuss Voigt Hill
#
# Bulk Modulus (GPa) = 33.63885 41.29717 37.46801
# Shear Modulus (GPa) = 30.06214 37.74505 33.90360
#
# Velocity S-wave (km/s) = 3.45881 3.87566 3.67315
# Velocity P-wave (km/s) = 5.41644 6.03838 5.73585
#
# Compressibility (1/GPa) = 0.02972754
#
# Stress axis : x y z
#
# Youngs Moduli (GPa) = 78.39003 116.28047 47.83224
#
# Poissons Ratio (x) = 0.09768 0.06688
# Poissons Ratio (y) = 0.06585 0.19273
# Poissons Ratio (z) = 0.10961 0.46854
#
# Static dielectric constant tensor:
#      x y z
#    x 2.241530 0.000000 -0.190060 
#    y 0.000000 1.898580 0.000000 
#    z -0.190060 0.000000 2.417890 
# 
# From -- ./inp_files/10250.got.cif
#   From: 2010.05.17/outbox.cif.g08.bks.cpg/sg11_6_cif.got.tgz:10250.got - 2010.06.03 12:22:45.
