data_PCOD9167701
_publ_section_title
;
Structure prediction by ZEFSAII (Michael W. Deem and Ramdas Pophale) SiO2 
 PCOD9167701
Probable space group: P 21/M
;
_chemical_formula_sum "Si O2"
_cell_formula_units_Z 32
_cell_length_a 21.000000
_cell_length_b 9.000000
_cell_length_c 12.000000
_cell_angle_alpha 90.000000
_cell_angle_beta 130.000000
_cell_angle_gamma 90.000000
_cell_volume 1737.388797
_symmetry_space_group_name_H-M "P 21/M"
_symmetry_group_IT_number 11
_symmetry_cell_setting 'monoclinic'
loop_
_space_group_symop_operation_xyz
x,y,z
-x,1/2+y,-z
-x,-y,-z
x,1/2-y,z
loop_
_atom_site_type_symbol
_atom_site_label
_atom_site_fract_x
_atom_site_fract_y
_atom_site_fract_z
Si Si1 0.337132 0.069743 0.185320
Si Si2 0.827924 0.929326 0.138637
Si Si3 0.371004 0.926583 0.692460
Si Si4 0.555248 0.930246 0.892256
Si Si5 0.044336 0.926891 0.875229
Si Si6 0.311795 0.072602 0.409046
Si Si7 0.281259 0.428429 0.781808
Si Si8 0.883619 0.926216 0.821755
O O1 0.336913 0.250000 0.182939
O O2 0.414656 0.020454 0.196932
O O3 0.336980 0.025746 0.312974
O O4 0.250107 0.026912 0.028592
O O5 0.834409 0.750000 0.142778
O O6 0.796474 0.972022 0.227390
O O7 0.910772 0.998628 0.179850
O O8 0.368261 0.750000 0.703275
O O9 0.464474 0.982763 0.826990
O O10 0.358340 0.976001 0.551931
O O11 0.297194 0.998844 0.681138
O O12 0.551355 0.750000 0.887226
O O13 0.633657 0.969847 0.057042
O O14 0.051942 0.750000 0.873984
O O15 0.947767 0.963238 0.794233
O O16 0.090816 0.984232 0.039076
O O17 0.327881 0.250000 0.440968
O O18 0.212763 0.050430 0.311434
O O19 0.278791 0.250000 0.768696
O O20 0.894656 0.750000 0.859099
#
# Coordination Sequence:
#
# PCOD9167701 Si02
#       8
#     4   4   4   4   4   4   4   4
#     4   8  14  28  50  71  93 128 166 196 233 285
#     4   9  16  30  52  75  98 126 162 202 240 287
#     4  11  22  33  47  71 103 130 158 207 259 288
#     4   8  16  31  51  74  97 123 159 207 252 287
#     4  10  18  27  47  78 106 126 153 198 249 291
#     4  10  19  33  52  68  94 136 175 198 222 287
#     4   9  18  34  56  74  91 126 173 205 234 292
#     4   9  18  32  48  70 100 135 167 195 230 284
#
# _framework density 18.418444999999998
#
# number of rings (size 3 to 8) (size 9 to 14) (size 15 to 20)
#    0.000    2.750    1.250    2.625    0.000    2.000 
#    0.000    0.625    0.000    3.000    0.000    0.000 
#    0.000    0.000    0.000    0.000    0.000    0.000 
#
# Total GULP energy -178261.120195 kJ/mol
# GULP energy per Si atom -5570.660006 kJ/mol
# Density = 1.837652 g / cm^3
# Si number density = 18.418445 Si / 1000 Ang^3
#
#
#
# Elastic Constant Matrix: (Units=GPa)
#
#
# Indices 1 2 3 4 5 6 
#
# 1 117.2269 16.3405 -0.0920 0.0000 -13.9728 0.0000
# 2 16.3405 10.6042 -0.7885 0.0000 -0.4883 0.0000
# 3 -0.0920 -0.7885 10.1766 0.0000 -10.7360 0.0000
# 4 0.0000 0.0000 0.0000 16.9520 0.0000 -2.4645
# 5 -13.9728 -0.4883 -10.7360 0.0000 21.3463 0.0000
# 6 0.0000 0.0000 0.0000 -2.4645 0.0000 25.9009
#
#
#
# Elastic Compliance Matrix: (Units=1/GPa)
#
#
# Indices 1 2 3 4 5 6 
#
# 1 0.012945 -0.018077 0.015380 0.000000 0.015795 0.000000
# 2 -0.018077 0.121682 -0.000600 0.000000 -0.009351 0.000000
# 3 0.015380 -0.000600 0.232130 0.000000 0.126803 0.000000
# 4 0.000000 0.000000 0.000000 0.059817 0.000000 0.005692
# 5 0.015795 -0.009351 0.126803 0.000000 0.120747 0.000000
# 6 0.000000 0.000000 0.000000 0.005692 0.000000 0.039150
#
#
# Mechanical properties :
#
#
# Convention : Reuss Voigt Hill
#
# Bulk Modulus (GPa) = 2.77652 18.76974 10.77313
# Shear Modulus (GPa) = 7.01145 21.00968 14.01057
#
# Velocity S-wave (km/s) = 1.95321 3.38107 2.76104
# Velocity P-wave (km/s) = 2.56855 5.04530 4.00328
#
# Compressibility (1/GPa) = 0.36016318
#
# Stress axis : x y z
#
# Youngs Moduli (GPa) = 77.24999 8.21815 4.30793
#
# Poissons Ratio (x) = 0.14856 -0.06626
# Poissons Ratio (y) = 1.39641 0.00259
# Poissons Ratio (z) = -1.18811 0.00493
#
# Static dielectric constant tensor:
#      x y z
#    x 1.664790 0.000000 -0.015660 
#    y 0.000000 1.614450 0.000000 
#    z -0.015660 0.000000 1.653940 
# 
# From -- ./inp_files/42924.got.cif
#   From: 2010.05.17/outbox.ucp.g08.bks.cvg/sg11_22_cif.got.tgz:42924.got - 2010.06.11 11:38:39.
