data_PCOD9167015
_publ_section_title
;
Structure prediction by ZEFSAII (Michael W. Deem and Ramdas Pophale) SiO2 
 PCOD9167015
Probable space group: P 21/M
;
_chemical_formula_sum "Si O2"
_cell_formula_units_Z 24
_cell_length_a 9.699282
_cell_length_b 22.098111
_cell_length_c 7.244036
_cell_angle_alpha 90.000000
_cell_angle_beta 133.924396
_cell_angle_gamma 90.000000
_cell_volume 1118.309728
_symmetry_space_group_name_H-M "P 21/M"
_symmetry_group_IT_number 11
_symmetry_cell_setting 'monoclinic'
loop_
_space_group_symop_operation_xyz
x,y,z
-x,1/2+y,-z
-x,-y,-z
x,1/2-y,z
loop_
_atom_site_type_symbol
_atom_site_label
_atom_site_fract_x
_atom_site_fract_y
_atom_site_fract_z
Si Si1 0.470979 0.750000 0.071820
Si Si2 0.022520 0.076441 0.196476
Si Si3 0.187695 0.855324 0.273361
Si Si4 0.912064 0.750000 0.912649
Si Si5 0.466995 0.750000 0.508800
Si Si6 0.073493 0.445957 0.830654
Si Si7 0.036877 0.750000 0.595713
Si Si8 0.771285 0.644919 0.295907
O O1 0.440481 0.750000 0.263304
O O2 0.590778 0.689617 0.134683
O O3 0.262490 0.750000 0.791882
O O4 0.168548 0.115290 0.452656
O O5 0.832344 0.112229 0.947830
O O6 0.121501 0.057641 0.094292
O O7 0.959871 0.015877 0.243617
O O8 0.012547 0.808487 0.088829
O O9 0.365978 0.812250 0.478466
O O10 0.127757 0.908270 0.357874
O O11 0.959628 0.750000 0.737107
O O12 0.690392 0.750000 0.751878
O O13 0.221581 0.408858 0.845072
O O14 0.946202 0.690975 0.422512
#
# Coordination Sequence:
#
# PCOD9167015 Si02
#       8
#     2   4   4   2   2   4   2   4
#     4  11  21  34  57  93 116 149 191 238 285 352
#     4   9  17  37  62  83 116 160 186 238 282 331
#     4   9  18  34  55  81 113 145 181 236 276 332
#     4  11  17  32  56  85 104 150 186 228 289 346
#     4  11  17  30  58  85 106 148 194 215 296 340
#     4   9  20  35  59  90 113 153 197 232 284 334
#     4  11  19  36  55  87 120 143 191 241 288 342
#     4  11  20  36  63  86 114 154 190 231 293 342
#
# _framework density 21.46096
#
# number of rings (size 3 to 8) (size 9 to 14) (size 15 to 20)
#    1.000    1.000    5.000    0.500    0.000    2.667 
#    0.000    3.333    0.000   22.000    0.000    0.000 
#    0.000    0.000    0.000    0.000    0.000    0.000 
#
# Total GULP energy -133807.921874 kJ/mol
# GULP energy per Si atom -5575.330078 kJ/mol
# Density = 2.141211 g / cm^3
# Si number density = 21.460960 Si / 1000 Ang^3
#
#
#
# Elastic Constant Matrix: (Units=GPa)
#
#
# Indices 1 2 3 4 5 6 
#
# 1 45.5611 24.0902 16.0218 0.0000 -1.3590 0.0000
# 2 24.0902 123.6622 28.8261 0.0000 28.3836 0.0000
# 3 16.0218 28.8261 26.8548 0.0000 2.2704 0.0000
# 4 0.0000 0.0000 0.0000 7.5280 0.0000 -12.9351
# 5 -1.3590 28.3836 2.2704 0.0000 33.9079 0.0000
# 6 0.0000 0.0000 0.0000 -12.9351 0.0000 25.6417
#
#
#
# Elastic Compliance Matrix: (Units=1/GPa)
#
#
# Indices 1 2 3 4 5 6 
#
# 1 0.028839 -0.003560 -0.013812 0.000000 0.005061 0.000000
# 2 -0.003560 0.014185 -0.012155 0.000000 -0.011202 0.000000
# 3 -0.013812 -0.012155 0.058040 0.000000 0.005735 0.000000
# 4 0.000000 0.000000 0.000000 0.997219 0.000000 0.503054
# 5 0.005061 -0.011202 0.005735 0.000000 0.038688 0.000000
# 6 0.000000 0.000000 0.000000 0.503054 0.000000 0.292768
#
#
# Mechanical properties :
#
#
# Convention : Reuss Voigt Hill
#
# Bulk Modulus (GPa) = 23.80410 37.10605 30.45507
# Shear Modulus (GPa) = 3.32713 21.89151 12.60932
#
# Velocity S-wave (km/s) = 1.24647 3.19731 2.42657
# Velocity P-wave (km/s) = 3.63146 5.56398 4.69816
#
# Compressibility (1/GPa) = 0.04200958
#
# Stress axis : x y z
#
# Youngs Moduli (GPa) = 34.67542 70.49881 17.22949
#
# Poissons Ratio (x) = 0.25097 0.23798
# Poissons Ratio (y) = 0.12344 0.20942
# Poissons Ratio (z) = 0.47894 0.85691
#
# Static dielectric constant tensor:
#      x y z
#    x 1.849440 0.000000 -0.076950 
#    y 0.000000 1.851370 0.000000 
#    z -0.076950 0.000000 1.825000 
# 
# From -- ./inp_files/19280.got.cif
#   From: 2010.05.17/outbox.cif.g08.bks.cpg/sg11_10_cif.got.tgz:19280.got - 2010.06.03 12:22:45.
