data_PCOD9167123
_publ_section_title
;
Structure prediction by ZEFSAII (Michael W. Deem and Ramdas Pophale) SiO2 
 PCOD9167123
Probable space group: P 21/M
;
_chemical_formula_sum "Si O2"
_cell_formula_units_Z 28
_cell_length_a 15.502809
_cell_length_b 7.636144
_cell_length_c 12.076244
_cell_angle_alpha 90.000000
_cell_angle_beta 91.436457
_cell_angle_gamma 90.000000
_cell_volume 1429.156810
_symmetry_space_group_name_H-M "P 21/M"
_symmetry_group_IT_number 11
_symmetry_cell_setting 'monoclinic'
loop_
_space_group_symop_operation_xyz
x,y,z
-x,1/2+y,-z
-x,-y,-z
x,1/2-y,z
loop_
_atom_site_type_symbol
_atom_site_label
_atom_site_fract_x
_atom_site_fract_y
_atom_site_fract_z
Si Si1 0.321539 0.042376 0.099761
Si Si2 0.206407 0.046412 0.280702
Si Si3 0.255398 0.461353 0.626812
Si Si4 0.338413 0.544125 0.846384
Si Si5 0.516529 0.965357 0.749481
Si Si6 0.902415 0.539251 0.527557
Si Si7 0.623734 0.953468 0.554045
O O1 0.321136 0.250000 0.121296
O O2 0.240181 0.968851 0.166353
O O3 0.409684 0.979019 0.160470
O O4 0.320935 0.019337 0.969114
O O5 0.183258 0.250000 0.260104
O O6 0.130635 0.970075 0.354259
O O7 0.291889 0.043808 0.362126
O O8 0.257956 0.250000 0.618190
O O9 0.264567 0.509661 0.754392
O O10 0.167543 0.522298 0.565488
O O11 0.337819 0.530966 0.558038
O O12 0.351615 0.750000 0.857138
O O13 0.425744 0.470527 0.793402
O O14 0.515568 0.750000 0.745154
O O15 0.546884 0.026483 0.628039
O O16 0.893931 0.750000 0.531199
O O17 0.000000 0.500000 0.500000
O O18 0.602885 0.750000 0.532794
#
# Coordination Sequence:
#
# PCOD9167123 Si02
#       7
#     4   4   4   4   4   4   4
#     4   9  16  30  50  65  84 122 166 194 216 259
#     4   7  12  25  47  71  89 111 147 186 220 260
#     4   9  18  32  48  66  90 122 156 182 214 273
#     4  11  21  29  40  64  98 127 152 191 234 262
#     4   8  15  27  44  66  89 117 156 199 235 260
#     4   9  17  31  53  78  97 112 138 180 228 277
#     4   7  11  24  45  64  84 114 153 191 221 258
#
# _framework density 19.591972999999999
#
# number of rings (size 3 to 8) (size 9 to 14) (size 15 to 20)
#    0.000    3.429    0.000    4.286    0.000    1.143 
#    0.000    1.429    0.000    6.857    0.000    0.000 
#    0.000    0.000    0.000    0.000    0.000    0.000 
#
# Total GULP energy -155975.662622 kJ/mol
# GULP energy per Si atom -5570.559379 kJ/mol
# Density = 1.954738 g / cm^3
# Si number density = 19.591973 Si / 1000 Ang^3
#
#
#
# Elastic Constant Matrix: (Units=GPa)
#
#
# Indices 1 2 3 4 5 6 
#
# 1 109.7571 0.7916 60.6975 0.0000 -27.3350 0.0000
# 2 0.7916 35.1924 -2.3933 0.0000 -4.2947 0.0000
# 3 60.6975 -2.3933 136.9120 0.0000 -15.0226 0.0000
# 4 0.0000 0.0000 0.0000 -1.7865 0.0000 -1.6715
# 5 -27.3350 -4.2947 -15.0226 0.0000 22.0649 0.0000
# 6 0.0000 0.0000 0.0000 -1.6715 0.0000 12.0101
#
#
#
# Elastic Compliance Matrix: (Units=1/GPa)
#
#
# Indices 1 2 3 4 5 6 
#
# 1 0.016211 0.001312 -0.005330 0.000000 0.016709 0.000000
# 2 0.001312 0.029403 0.000798 0.000000 0.007892 0.000000
# 3 -0.005330 0.000798 0.009698 0.000000 0.000155 0.000000
# 4 0.000000 0.000000 0.000000 -0.495252 0.000000 -0.068928
# 5 0.016709 0.007892 0.000155 0.000000 0.067662 0.000000
# 6 0.000000 0.000000 0.000000 -0.068928 0.000000 0.073670
#
#
# Mechanical properties :
#
#
# Convention : Reuss Voigt Hill
#
# Bulk Modulus (GPa) = 20.46193 44.45035 32.45614
# Shear Modulus (GPa) = -18.12399 21.30874 1.59237
#
# Velocity S-wave (km/s) = -3.04480 3.30150 0.90252
# Velocity P-wave (km/s) = 1.37636 6.10495 4.20572
#
# Compressibility (1/GPa) = 0.04887126
#
# Stress axis : x y z
#
# Youngs Moduli (GPa) = 61.68759 34.01008 103.11367
#
# Poissons Ratio (x) = -0.04462 0.54964
# Poissons Ratio (y) = -0.08093 -0.08231
# Poissons Ratio (z) = 0.32882 -0.02715
#
# Static dielectric constant tensor:
#      x y z
#    x 1.696800 0.000000 -0.038150 
#    y 0.000000 1.747790 0.000000 
#    z -0.038150 0.000000 1.726360 
# 
# From -- ./inp_files/37113.got.cif
#   From: 2010.05.17/outbox.cif.g08.bks.cpg/sg11_19_cif.got.tgz:37113.got - 2010.06.03 12:22:45.
