data_PCOD9167604
_publ_section_title
;
Structure prediction by ZEFSAII (Michael W. Deem and Ramdas Pophale) SiO2 
 PCOD9167604
Probable space group: P 21/M
;
_chemical_formula_sum "Si O2"
_cell_formula_units_Z 22
_cell_length_a 10.982737
_cell_length_b 10.272295
_cell_length_c 10.093676
_cell_angle_alpha 90.000000
_cell_angle_beta 52.144372
_cell_angle_gamma 90.000000
_cell_volume 899.108971
_symmetry_space_group_name_H-M "P 21/M"
_symmetry_group_IT_number 11
_symmetry_cell_setting 'monoclinic'
loop_
_space_group_symop_operation_xyz
x,y,z
-x,1/2+y,-z
-x,-y,-z
x,1/2-y,z
loop_
_atom_site_type_symbol
_atom_site_label
_atom_site_fract_x
_atom_site_fract_y
_atom_site_fract_z
Si Si1 0.782892 0.750000 0.716322
Si Si2 0.113545 0.422875 0.860331
Si Si3 0.330555 0.750000 0.963213
Si Si4 0.513155 0.250000 0.895866
Si Si5 0.114305 0.750000 0.595507
Si Si6 0.218548 0.030503 0.504947
Si Si7 0.551975 0.508043 0.246480
Si Si8 0.078434 0.750000 0.909982
O O1 0.791189 0.626475 0.612841
O O2 0.928637 0.750000 0.718095
O O3 0.629908 0.750000 0.906133
O O4 0.105223 0.250000 0.894170
O O5 0.116671 0.423561 0.697704
O O6 0.285790 0.453779 0.796812
O O7 0.035008 0.588216 0.929682
O O8 0.415845 0.620656 0.859231
O O9 0.176641 0.750000 0.980620
O O10 0.332361 0.750000 0.119521
O O11 0.496185 0.124234 0.817589
O O12 0.167673 0.614681 0.499282
O O13 0.173818 0.750000 0.707512
O O14 0.397677 0.022699 0.431992
#
# Coordination Sequence:
#
# PCOD9167604 Si02
#       8
#     2   4   2   2   2   4   4   2
#     4  12  27  47  71 106 151 192 244 303 365 438
#     4  12  24  45  75 108 143 191 242 301 364 429
#     4  12  24  45  76 107 144 190 247 302 356 439
#     4  12  27  48  74 106 153 197 242 298 372 443
#     4  12  25  47  72 106 148 190 243 303 367 428
#     4  12  26  48  72 111 146 192 244 304 367 429
#     4  12  25  49  75 109 146 193 246 303 364 436
#     4  12  25  47  75 109 144 193 250 298 366 436
#
# _framework density 24.468668999999998
#
# number of rings (size 3 to 8) (size 9 to 14) (size 15 to 20)
#    0.000    0.000    5.455    4.364    0.000    0.000 
#    6.545    1.818    0.000    0.000    0.000    0.000 
#    0.000    0.000    0.000    0.000    0.000    0.000 
#
# Total GULP energy -122972.543453 kJ/mol
# GULP energy per Si atom -5589.661066 kJ/mol
# Density = 2.441298 g / cm^3
# Si number density = 24.468669 Si / 1000 Ang^3
#
#
#
# Elastic Constant Matrix: (Units=GPa)
#
#
# Indices 1 2 3 4 5 6 
#
# 1 85.6262 -23.8476 8.8764 0.0000 -7.7010 0.0000
# 2 -23.8476 174.9939 36.3555 0.0000 2.9490 0.0000
# 3 8.8764 36.3555 117.6478 0.0000 0.0682 0.0000
# 4 0.0000 0.0000 0.0000 23.4664 0.0000 3.9893
# 5 -7.7010 2.9490 0.0682 0.0000 31.2974 0.0000
# 6 0.0000 0.0000 0.0000 3.9893 0.0000 53.1226
#
#
#
# Elastic Compliance Matrix: (Units=1/GPa)
#
#
# Indices 1 2 3 4 5 6 
#
# 1 0.012664 0.002004 -0.001576 0.000000 0.002931 0.000000
# 2 0.002004 0.006434 -0.002139 0.000000 -0.000108 0.000000
# 3 -0.001576 -0.002139 0.009280 0.000000 -0.000207 0.000000
# 4 0.000000 0.000000 0.000000 0.043165 0.000000 -0.003242
# 5 0.002931 -0.000108 -0.000207 0.000000 0.032683 0.000000
# 6 0.000000 0.000000 0.000000 -0.003242 0.000000 0.019068
#
#
# Mechanical properties :
#
#
# Convention : Reuss Voigt Hill
#
# Bulk Modulus (GPa) = 40.07365 46.78182 43.42774
# Shear Modulus (GPa) = 37.02728 45.36954 41.19841
#
# Velocity S-wave (km/s) = 3.89428 4.31070 4.10777
# Velocity P-wave (km/s) = 6.05257 6.62848 6.34706
#
# Compressibility (1/GPa) = 0.02495405
#
# Stress axis : x y z
#
# Youngs Moduli (GPa) = 78.96550 155.42804 107.75759
#
# Poissons Ratio (x) = -0.31146 0.16987
# Poissons Ratio (y) = -0.15824 0.23053
# Poissons Ratio (z) = 0.12448 0.33251
#
# Static dielectric constant tensor:
#      x y z
#    x 1.939800 0.000000 -0.021920 
#    y 0.000000 2.165650 0.000000 
#    z -0.021920 0.000000 1.868670 
# 
# From -- ./inp_files/33756.got.cif
#   From: 2010.05.17/outbox.cif.g08.bks.cpg/sg11_17_cif.got.tgz:33756.got - 2010.06.03 12:22:45.
