data_PCOD9167589
_publ_section_title
;
Structure prediction by ZEFSAII (Michael W. Deem and Ramdas Pophale) SiO2 
 PCOD9167589
Probable space group: P 21/M
;
_chemical_formula_sum "Si O2"
_cell_formula_units_Z 20
_cell_length_a 8.379183
_cell_length_b 23.671337
_cell_length_c 9.865416
_cell_angle_alpha 90.000000
_cell_angle_beta 31.858974
_cell_angle_gamma 90.000000
_cell_volume 1032.842705
_symmetry_space_group_name_H-M "P 21/M"
_symmetry_group_IT_number 11
_symmetry_cell_setting 'monoclinic'
loop_
_space_group_symop_operation_xyz
x,y,z
-x,1/2+y,-z
-x,-y,-z
x,1/2-y,z
loop_
_atom_site_type_symbol
_atom_site_label
_atom_site_fract_x
_atom_site_fract_y
_atom_site_fract_z
Si Si1 0.704420 0.250000 0.499998
Si Si2 0.707536 0.349605 0.999998
Si Si3 0.020786 0.844192 0.500001
Si Si4 0.819109 0.481357 0.999997
Si Si5 0.162768 0.532455 0.499998
Si Si6 0.027530 0.750000 0.000001
O O1 0.832337 0.300809 0.499997
O O2 0.338598 0.250000 0.749475
O O3 0.837551 0.250000 0.250522
O O4 0.775626 0.414314 0.999994
O O5 0.344413 0.340485 0.250452
O O6 0.845321 0.340484 0.749545
O O7 0.853646 0.304624 0.999999
O O8 0.113851 0.903065 0.499996
O O9 0.500874 0.511300 0.249378
O O10 0.000000 0.500000 0.000000
O O11 0.999635 0.511302 0.750619
O O12 0.000000 0.500000 0.500000
#
# Coordination Sequence:
#
# PCOD9167589 Si02
#       6
#     2   4   4   4   4   2
#     4  12  28  46  68 102 124 176 224 288 324 376
#     4  12  24  46  68  97 133 182 215 268 330 406
#     4  12  25  44  73  94 135 174 230 265 328 394
#     4  12  26  41  67 102 140 172 216 269 340 389
#     4  12  23  44  67 102 133 173 218 273 319 399
#     4  12  28  46  70  96 138 168 226 278 338 382
#
# _framework density 19.364034
#
# number of rings (size 3 to 8) (size 9 to 14) (size 15 to 20)
#    0.000    0.000    4.000    6.000    5.600    0.000 
#    0.000    0.000    0.000    0.000    0.000    0.000 
#    0.000    0.000    0.000    0.000    0.000    0.000 
#
# Total GULP energy -111739.443722 kJ/mol
# GULP energy per Si atom -5586.972186 kJ/mol
# Density = 1.931996 g / cm^3
# Si number density = 19.364034 Si / 1000 Ang^3
#
#
#
# Elastic Constant Matrix: (Units=GPa)
#
#
# Indices 1 2 3 4 5 6 
#
# 1 228.9475 116.8903 138.3882 0.0000 -0.1949 0.0000
# 2 116.8903 210.4173 78.5816 0.0000 4.6509 0.0000
# 3 138.3882 78.5816 238.5326 0.0000 -0.9510 0.0000
# 4 0.0000 0.0000 0.0000 -16.8351 0.0000 6.0787
# 5 -0.1949 4.6509 -0.9510 0.0000 46.2032 0.0000
# 6 0.0000 0.0000 0.0000 6.0787 0.0000 33.3550
#
#
#
# Elastic Compliance Matrix: (Units=1/GPa)
#
#
# Indices 1 2 3 4 5 6 
#
# 1 0.008261 -0.003199 -0.003737 0.000000 0.000280 0.000000
# 2 -0.003199 0.006674 -0.000345 0.000000 -0.000692 0.000000
# 3 -0.003737 -0.000345 0.006475 0.000000 0.000152 0.000000
# 4 0.000000 0.000000 0.000000 -0.055732 0.000000 0.010157
# 5 0.000280 -0.000692 0.000152 0.000000 0.021718 0.000000
# 6 0.000000 0.000000 0.000000 0.010157 0.000000 0.028129
#
#
# Mechanical properties :
#
#
# Convention : Reuss Voigt Hill
#
# Bulk Modulus (GPa) = 146.08122 149.51306 147.79714
# Shear Modulus (GPa) = 154.46440 35.48046 94.97243
#
# Velocity S-wave (km/s) = 8.94102 4.28517 7.01087
# Velocity P-wave (km/s) = 13.49787 10.09271 11.91753
#
# Compressibility (1/GPa) = 0.00684551
#
# Stress axis : x y z
#
# Youngs Moduli (GPa) = 121.05719 149.83543 154.44107
#
# Poissons Ratio (x) = 0.47937 0.57721
# Poissons Ratio (y) = 0.38730 0.05333
# Poissons Ratio (z) = 0.45244 0.05174
#
# Static dielectric constant tensor:
#      x y z
#    x 1.632400 0.000000 -0.000710 
#    y 0.000000 1.617470 0.000000 
#    z -0.000710 0.000000 1.638240 
# 
# From -- ./inp_files/14900.got.cif
#   From: 2010.05.17/outbox.cif.g08.bks.cpg/sg11_8_cif.got.tgz:14900.got - 2010.06.03 12:22:45.
