data_PCOD9167654
_publ_section_title
;
Structure prediction by ZEFSAII (Michael W. Deem and Ramdas Pophale) SiO2 
 PCOD9167654
Probable space group: P 21/M
;
_chemical_formula_sum "Si O2"
_cell_formula_units_Z 14
_cell_length_a 12.216428
_cell_length_b 14.756097
_cell_length_c 7.025842
_cell_angle_alpha 90.000000
_cell_angle_beta 150.831716
_cell_angle_gamma 90.000000
_cell_volume 617.274871
_symmetry_space_group_name_H-M "P 21/M"
_symmetry_group_IT_number 11
_symmetry_cell_setting 'monoclinic'
loop_
_space_group_symop_operation_xyz
x,y,z
-x,1/2+y,-z
-x,-y,-z
x,1/2-y,z
loop_
_atom_site_type_symbol
_atom_site_label
_atom_site_fract_x
_atom_site_fract_y
_atom_site_fract_z
Si Si1 0.598549 0.750000 0.996596
Si Si2 0.315447 0.408554 0.583188
Si Si3 0.841355 0.052056 0.402258
Si Si4 0.633240 0.750000 0.599138
Si Si5 0.794661 0.250000 0.329682
O O1 0.613457 0.750000 0.794250
O O2 0.341534 0.750000 0.679017
O O3 0.690871 0.840085 0.243138
O O4 0.170893 0.495527 0.420475
O O5 0.258342 0.341396 0.323976
O O6 0.573874 0.441574 0.943730
O O7 0.918579 0.155792 0.512526
O O8 0.000000 0.000000 0.500000
O O9 0.388460 0.750000 0.120229
#
# Coordination Sequence:
#
# PCOD9167654 Si02
#       5
#     2   4   4   2   2
#     4   8  14  29  51  71  98 125 147 192 235 267
#     4   8  17  30  48  75  93 120 165 182 222 297
#     4   9  16  31  51  67  95 128 152 195 237 266
#     4   8  14  29  51  71  98 125 147 192 235 267
#     4   8  18  30  44  72  94 120 164 188 228 292
#
# _framework density 22.680333000000001
#
# number of rings (size 3 to 8) (size 9 to 14) (size 15 to 20)
#    0.000    4.571    0.000    0.000    0.000    2.286 
#    0.000   24.286    0.000   56.571    0.000    0.000 
#    0.000    0.000    0.000    0.000    0.000    0.000 
#
# Total GULP energy -78000.345531 kJ/mol
# GULP energy per Si atom -5571.453252 kJ/mol
# Density = 2.262871 g / cm^3
# Si number density = 22.680333 Si / 1000 Ang^3
#
#
#
# Elastic Constant Matrix: (Units=GPa)
#
#
# Indices 1 2 3 4 5 6 
#
# 1 164.4834 67.6053 50.0816 0.0000 -21.4640 0.0000
# 2 67.6053 193.8952 29.2588 0.0000 1.3971 0.0000
# 3 50.0816 29.2588 88.2983 0.0000 -11.7741 0.0000
# 4 0.0000 0.0000 0.0000 -18.4448 0.0000 6.8614
# 5 -21.4640 1.3971 -11.7741 0.0000 29.2776 0.0000
# 6 0.0000 0.0000 0.0000 6.8614 0.0000 37.1024
#
#
#
# Elastic Compliance Matrix: (Units=1/GPa)
#
#
# Indices 1 2 3 4 5 6 
#
# 1 0.008900 -0.002616 -0.003481 0.000000 0.005249 0.000000
# 2 -0.002616 0.006228 -0.000925 0.000000 -0.002587 0.000000
# 3 -0.003481 -0.000925 0.014024 0.000000 0.003132 0.000000
# 4 0.000000 0.000000 0.000000 -0.050726 0.000000 0.009381
# 5 0.005249 -0.002587 0.003132 0.000000 0.039387 0.000000
# 6 0.000000 0.000000 0.000000 0.009381 0.000000 0.025218
#
#
# Mechanical properties :
#
#
# Convention : Reuss Voigt Hill
#
# Bulk Modulus (GPa) = 66.19123 82.28537 74.23830
# Shear Modulus (GPa) = 80.50396 29.56911 55.03654
#
# Velocity S-wave (km/s) = 5.96424 3.61464 4.93142
# Velocity P-wave (km/s) = 8.75655 7.33349 8.07643
#
# Compressibility (1/GPa) = 0.01510774
#
# Stress axis : x y z
#
# Youngs Moduli (GPa) = 112.36478 160.57525 71.30740
#
# Poissons Ratio (x) = 0.41999 0.24822
# Poissons Ratio (y) = 0.29390 0.06596
# Poissons Ratio (z) = 0.39115 0.14854
#
# Static dielectric constant tensor:
#      x y z
#    x 1.799390 0.000000 0.024570 
#    y 0.000000 1.837360 0.000000 
#    z 0.024570 0.000000 1.894490 
# 
# From -- ./inp_files/2051.got.cif
#   From: 2010.05.17/outbox.cif.g08.bks.cpg/sg11_2_cif.got.tgz:2051.got - 2010.06.03 12:22:45.
