data_PCOD9167587
_publ_section_title
;
Structure prediction by ZEFSAII (Michael W. Deem and Ramdas Pophale) SiO2 
 PCOD9167587
Probable space group: P 21/M
;
_chemical_formula_sum "Si O2"
_cell_formula_units_Z 14
_cell_length_a 18.792657
_cell_length_b 5.226637
_cell_length_c 13.133893
_cell_angle_alpha 90.000000
_cell_angle_beta 149.695331
_cell_angle_gamma 90.000000
_cell_volume 650.952811
_symmetry_space_group_name_H-M "P 21/M"
_symmetry_group_IT_number 11
_symmetry_cell_setting 'monoclinic'
loop_
_space_group_symop_operation_xyz
x,y,z
-x,1/2+y,-z
-x,-y,-z
x,1/2-y,z
loop_
_atom_site_type_symbol
_atom_site_label
_atom_site_fract_x
_atom_site_fract_y
_atom_site_fract_z
Si Si1 0.103322 0.750000 0.456011
Si Si2 0.603440 0.750000 0.638107
Si Si3 0.102043 0.250000 0.137011
Si Si4 0.769391 0.750000 0.480665
Si Si5 0.516314 0.250000 0.952084
Si Si6 0.809783 0.750000 0.077764
Si Si7 0.818091 0.250000 0.226616
O O1 0.186058 0.496778 0.528563
O O2 0.079458 0.750000 0.548782
O O3 0.962498 0.750000 0.212803
O O4 0.500000 0.500000 0.500000
O O5 0.748416 0.750000 0.745252
O O6 0.676340 0.750000 0.839763
O O7 0.157416 0.250000 0.320992
O O8 0.000000 0.500000 0.000000
O O9 0.601441 0.750000 0.280478
O O10 0.500000 0.500000 0.000000
O O11 0.667737 0.250000 0.092545
O O12 0.820937 0.497429 0.159589
#
# Coordination Sequence:
#
# PCOD9167587 Si02
#       7
#     2   2   2   2   2   2   2
#     4  12  24  45  68 105 137 174 221 279 338 419
#     4  12  28  50  72 106 145 187 243 301 353 417
#     4  12  27  50  76 105 139 187 248 301 351 417
#     4  12  24  42  74  99 134 179 224 280 347 399
#     4  12  23  43  65  97 139 176 218 278 331 409
#     4  12  26  43  71  96 140 181 222 276 344 406
#     4  12  24  43  68 102 136 178 224 267 342 417
#
# _framework density 21.506936
#
# number of rings (size 3 to 8) (size 9 to 14) (size 15 to 20)
#    0.000    0.000    2.857    7.714    4.000    0.000 
#    0.000    0.000    0.000    0.000    0.000    0.000 
#    0.000    0.000    0.000    0.000    0.000    0.000 
#
# Total GULP energy -78201.605230 kJ/mol
# GULP energy per Si atom -5585.828945 kJ/mol
# Density = 2.145799 g / cm^3
# Si number density = 21.506936 Si / 1000 Ang^3
#
#
#
# Elastic Constant Matrix: (Units=GPa)
#
#
# Indices 1 2 3 4 5 6 
#
# 1 84.3689 59.3318 39.0142 0.0000 8.1629 0.0000
# 2 59.3318 218.2185 73.0401 0.0000 -0.0900 0.0000
# 3 39.0142 73.0401 217.9345 0.0000 -5.8057 0.0000
# 4 0.0000 0.0000 0.0000 49.5310 0.0000 -0.9139
# 5 8.1629 -0.0900 -5.8057 0.0000 57.4499 0.0000
# 6 0.0000 0.0000 0.0000 -0.9139 0.0000 35.6051
#
#
#
# Elastic Compliance Matrix: (Units=1/GPa)
#
#
# Indices 1 2 3 4 5 6 
#
# 1 0.015384 -0.003651 -0.001593 0.000000 -0.002353 0.000000
# 2 -0.003651 0.006029 -0.001357 0.000000 0.000391 0.000000
# 3 -0.001593 -0.001357 0.005349 0.000000 0.000765 0.000000
# 4 0.000000 0.000000 0.000000 0.020199 0.000000 0.000518
# 5 -0.002353 0.000391 0.000765 0.000000 0.017819 0.000000
# 6 0.000000 0.000000 0.000000 0.000518 0.000000 0.028099
#
#
# Mechanical properties :
#
#
# Convention : Reuss Voigt Hill
#
# Bulk Modulus (GPa) = 73.73910 95.92156 84.83033
# Shear Modulus (GPa) = 45.20752 51.79292 48.50022
#
# Velocity S-wave (km/s) = 4.58973 4.91266 4.75394
# Velocity P-wave (km/s) = 7.90241 8.76790 8.34638
#
# Compressibility (1/GPa) = 0.01356133
#
# Stress axis : x y z
#
# Youngs Moduli (GPa) = 65.00129 165.85357 186.95555
#
# Poissons Ratio (x) = 0.60546 0.29787
# Poissons Ratio (y) = 0.23729 0.25366
# Poissons Ratio (z) = 0.10356 0.22503
#
# Static dielectric constant tensor:
#      x y z
#    x 1.833130 0.000000 0.012240 
#    y 0.000000 1.727740 0.000000 
#    z 0.012240 0.000000 1.768640 
# 
# From -- ./inp_files/23568.got.cif
#   From: 2010.05.17/outbox.cif.g08.bks.cpg/sg11_12_cif.got.tgz:23568.got - 2010.06.03 12:22:45.
