data_PCOD9167050
_publ_section_title
;
Structure prediction by ZEFSAII (Michael W. Deem and Ramdas Pophale) SiO2 
 PCOD9167050
Probable space group: P 21/M
;
_chemical_formula_sum "Si O2"
_cell_formula_units_Z 24
_cell_length_a 18.364521
_cell_length_b 7.505437
_cell_length_c 12.080663
_cell_angle_alpha 90.000000
_cell_angle_beta 48.865670
_cell_angle_gamma 90.000000
_cell_volume 1254.119764
_symmetry_space_group_name_H-M "P 21/M"
_symmetry_group_IT_number 11
_symmetry_cell_setting 'monoclinic'
loop_
_space_group_symop_operation_xyz
x,y,z
-x,1/2+y,-z
-x,-y,-z
x,1/2-y,z
loop_
_atom_site_type_symbol
_atom_site_label
_atom_site_fract_x
_atom_site_fract_y
_atom_site_fract_z
Si Si1 0.749561 0.452659 0.942086
Si Si2 0.890666 0.464216 0.236156
Si Si3 0.386874 0.535917 0.113126
Si Si4 0.749561 0.452659 0.558791
Si Si5 0.888452 0.538173 0.611548
Si Si6 0.890667 0.035784 0.982511
O O1 0.719563 0.250000 0.999772
O O2 0.665119 0.531885 0.947808
O O3 0.838518 0.453223 0.767673
O O4 0.800942 0.533891 0.998920
O O5 0.881507 0.250000 0.244587
O O6 0.800942 0.533891 0.399196
O O7 1.000000 0.500000 0.169684
O O8 0.887057 0.529046 0.112943
O O9 0.370382 0.750000 0.129618
O O10 0.334881 0.468116 0.278046
O O11 0.500000 0.500000 0.000000
O O12 0.719563 0.250000 0.561102
O O13 0.838519 0.453222 0.555289
O O14 0.870178 0.750000 0.629821
O O15 0.000000 0.500000 0.500000
O O16 0.881508 0.250000 0.992398
#
# Coordination Sequence:
#
# PCOD9167050 Si02
#       6
#     4   4   4   4   4   4
#     4   9  18  32  47  65  90 118 150 187 226 270
#     4   9  17  29  46  68  94 124 154 182 215 259
#     4   9  18  32  49  67  87 113 147 191 238 280
#     4   9  18  32  47  65  90 118 150 187 226 270
#     4  11  20  28  41  63  91 121 151 183 222 268
#     4   9  17  29  46  68  94 124 154 182 215 259
#
# _framework density 19.136928999999999
#
# number of rings (size 3 to 8) (size 9 to 14) (size 15 to 20)
#    0.000    2.667    0.000    3.500    0.000    6.667 
#    0.000    0.000    0.000    1.000    0.000    0.000 
#    0.000    0.000    0.000    0.000    0.000    0.667 
#
# Total GULP energy -133603.453339 kJ/mol
# GULP energy per Si atom -5566.810556 kJ/mol
# Density = 1.909337 g / cm^3
# Si number density = 19.136929 Si / 1000 Ang^3
#
#
#
# Elastic Constant Matrix: (Units=GPa)
#
#
# Indices 1 2 3 4 5 6 
#
# 1 119.4709 -4.8405 63.5584 0.0000 -14.1813 0.0000
# 2 -4.8405 70.2966 -4.3090 0.0000 1.8408 0.0000
# 3 63.5584 -4.3090 111.7594 0.0000 -12.5369 0.0000
# 4 0.0000 0.0000 0.0000 12.2873 0.0000 -7.7737
# 5 -14.1813 1.8408 -12.5369 0.0000 31.6070 0.0000
# 6 0.0000 0.0000 0.0000 -7.7737 0.0000 14.5308
#
#
#
# Elastic Compliance Matrix: (Units=1/GPa)
#
#
# Indices 1 2 3 4 5 6 
#
# 1 0.012252 0.000362 -0.006635 0.000000 0.002844 0.000000
# 2 0.000362 0.014282 0.000282 0.000000 -0.000557 0.000000
# 3 -0.006635 0.000282 0.012973 0.000000 0.002153 0.000000
# 4 0.000000 0.000000 0.000000 0.123024 0.000000 0.065815
# 5 0.002844 -0.000557 0.002153 0.000000 0.033801 0.000000
# 6 0.000000 0.000000 0.000000 0.065815 0.000000 0.104029
#
#
# Mechanical properties :
#
#
# Convention : Reuss Voigt Hill
#
# Bulk Modulus (GPa) = 36.32769 45.59384 40.96076
# Shear Modulus (GPa) = 15.55120 28.15954 21.85537
#
# Velocity S-wave (km/s) = 2.85376 3.84014 3.38309
# Velocity P-wave (km/s) = 5.46652 6.59841 6.05895
#
# Compressibility (1/GPa) = 0.02752721
#
# Stress axis : x y z
#
# Youngs Moduli (GPa) = 81.61702 70.01679 77.08040
#
# Poissons Ratio (x) = -0.02538 0.51142
# Poissons Ratio (y) = -0.02958 -0.02174
# Poissons Ratio (z) = 0.54152 -0.01975
#
# Static dielectric constant tensor:
#      x y z
#    x 1.639770 0.000000 0.000030 
#    y 0.000000 1.758090 0.000000 
#    z 0.000030 0.000000 1.639780 
# 
# From -- ./inp_files/33780.got.cif
#   From: 2010.05.17/outbox.cif.g08.bks.cpg/sg11_17_cif.got.tgz:33780.got - 2010.06.03 12:22:45.
