data_PCOD9167109
_publ_section_title
;
Structure prediction by ZEFSAII (Michael W. Deem and Ramdas Pophale) SiO2 
 PCOD9167109
Probable space group: P 21/M
;
_chemical_formula_sum "Si O2"
_cell_formula_units_Z 24
_cell_length_a 11.719043
_cell_length_b 17.787388
_cell_length_c 11.620786
_cell_angle_alpha 90.000000
_cell_angle_beta 32.003488
_cell_angle_gamma 90.000000
_cell_volume 1283.783665
_symmetry_space_group_name_H-M "P 21/M"
_symmetry_group_IT_number 11
_symmetry_cell_setting 'monoclinic'
loop_
_space_group_symop_operation_xyz
x,y,z
-x,1/2+y,-z
-x,-y,-z
x,1/2-y,z
loop_
_atom_site_type_symbol
_atom_site_label
_atom_site_fract_x
_atom_site_fract_y
_atom_site_fract_z
Si Si1 0.795890 0.546661 0.718318
Si Si2 0.279998 0.161115 0.768526
Si Si3 0.009879 0.048160 0.874369
Si Si4 0.927227 0.663565 0.799242
Si Si5 0.572779 0.032330 0.112270
Si Si6 0.334311 0.928688 0.485268
O O1 0.843661 0.612825 0.766872
O O2 0.642217 0.575492 0.746279
O O3 0.000000 0.500000 0.500000
O O4 0.683904 0.485978 0.897047
O O5 0.325665 0.250000 0.714810
O O6 0.109853 0.128175 0.823168
O O7 0.486495 0.105619 0.582600
O O8 0.181491 0.150828 0.982102
O O9 0.177298 0.997293 0.657278
O O10 0.771609 0.056372 0.023633
O O11 0.000000 0.000000 0.000000
O O12 0.898661 0.750000 0.796302
O O13 0.175979 0.640088 0.596686
O O14 0.466569 0.959822 0.264022
#
# Coordination Sequence:
#
# PCOD9167109 Si02
#       6
#     4   4   4   4   4   4
#     4  11  20  39  60  86 118 153 199 248 292 354
#     4  11  24  39  58  90 127 157 195 253 308 355
#     4  12  21  37  60  90 119 158 204 244 296 362
#     4  11  22  38  59  92 123 150 195 253 310 353
#     4  11  22  34  61  90 113 150 207 241 295 343
#     4  12  19  38  60  91 116 155 205 248 291 359
#
# _framework density 18.694738999999998
#
# number of rings (size 3 to 8) (size 9 to 14) (size 15 to 20)
#    0.000    0.667    8.333    1.000    0.000    0.000 
#    0.000    0.833    0.000    4.000    0.000    0.000 
#    0.000    0.000    0.000    0.000    0.000    0.000 
#
# Total GULP energy -133605.931957 kJ/mol
# GULP energy per Si atom -5566.913832 kJ/mol
# Density = 1.865219 g / cm^3
# Si number density = 18.694739 Si / 1000 Ang^3
#
#
#
# Elastic Constant Matrix: (Units=GPa)
#
#
# Indices 1 2 3 4 5 6 
#
# 1 130.6380 22.5626 24.2017 0.0000 -39.0611 0.0000
# 2 22.5626 64.7185 18.9496 0.0000 -8.9189 0.0000
# 3 24.2017 18.9496 85.6035 0.0000 -8.1610 0.0000
# 4 0.0000 0.0000 0.0000 14.3375 0.0000 0.0594
# 5 -39.0611 -8.9189 -8.1610 0.0000 34.0761 0.0000
# 6 0.0000 0.0000 0.0000 0.0594 0.0000 27.7406
#
#
#
# Elastic Compliance Matrix: (Units=1/GPa)
#
#
# Indices 1 2 3 4 5 6 
#
# 1 0.012233 -0.001939 -0.001781 0.000000 0.013089 0.000000
# 2 -0.001939 0.017255 -0.003124 0.000000 0.001545 0.000000
# 3 -0.001781 -0.003124 0.012899 0.000000 0.000229 0.000000
# 4 0.000000 0.000000 0.000000 0.069748 0.000000 -0.000149
# 5 0.013089 0.001545 0.000229 0.000000 0.044809 0.000000
# 6 0.000000 0.000000 0.000000 -0.000149 0.000000 0.036049
#
#
# Mechanical properties :
#
#
# Convention : Reuss Voigt Hill
#
# Bulk Modulus (GPa) = 34.84640 45.82088 40.33364
# Shear Modulus (GPa) = 23.12155 29.58058 26.35106
#
# Velocity S-wave (km/s) = 3.52062 3.98212 3.75846
# Velocity P-wave (km/s) = 5.93351 6.76064 6.36054
#
# Compressibility (1/GPa) = 0.02869737
#
# Stress axis : x y z
#
# Youngs Moduli (GPa) = 81.74429 57.95305 77.52630
#
# Poissons Ratio (x) = 0.11240 0.13811
# Poissons Ratio (y) = 0.15854 0.24220
# Poissons Ratio (z) = 0.14562 0.18105
#
# Static dielectric constant tensor:
#      x y z
#    x 1.732240 0.000000 -0.054960 
#    y 0.000000 1.600930 0.000000 
#    z -0.054960 0.000000 1.721710 
# 
# From -- ./inp_files/4756.got.cif
#   From: 2010.05.17/outbox.cif.g08.bks.cpg/sg11_3_cif.got.tgz:4756.got - 2010.06.03 12:22:45.
