data_PCOD9167115
_publ_section_title
;
Structure prediction by ZEFSAII (Michael W. Deem and Ramdas Pophale) SiO2 
 PCOD9167115
Probable space group: P 21/M
;
_chemical_formula_sum "Si O2"
_cell_formula_units_Z 32
_cell_length_a 9.461194
_cell_length_b 14.899098
_cell_length_c 12.163133
_cell_angle_alpha 90.000000
_cell_angle_beta 108.049161
_cell_angle_gamma 90.000000
_cell_volume 1630.183349
_symmetry_space_group_name_H-M "P 21/M"
_symmetry_group_IT_number 11
_symmetry_cell_setting 'monoclinic'
loop_
_space_group_symop_operation_xyz
x,y,z
-x,1/2+y,-z
-x,-y,-z
x,1/2-y,z
loop_
_atom_site_type_symbol
_atom_site_label
_atom_site_fract_x
_atom_site_fract_y
_atom_site_fract_z
Si Si1 0.684285 0.150346 0.587919
Si Si2 0.144588 0.150842 0.984626
Si Si3 0.142308 0.390890 0.236005
Si Si4 0.329636 0.976779 0.980626
Si Si5 0.332070 0.146084 0.496640
Si Si6 0.178939 0.588729 0.161426
Si Si7 0.825776 0.019367 0.449232
Si Si8 0.187387 0.646268 0.763339
O O1 0.712690 0.250000 0.549893
O O2 0.508747 0.132456 0.538997
O O3 0.740468 0.145742 0.726268
O O4 0.770719 0.077014 0.539157
O O5 0.182686 0.250000 0.951357
O O6 0.175414 0.148147 0.123189
O O7 0.968893 0.132937 0.924570
O O8 0.233136 0.068753 0.950700
O O9 0.264331 0.372146 0.358819
O O10 0.128512 0.496601 0.208239
O O11 0.986073 0.355653 0.244103
O O12 0.276058 0.901532 0.882580
O O13 0.291731 0.938427 0.092109
O O14 0.500000 0.000000 0.000000
O O15 0.301067 0.250000 0.517270
O O16 0.258030 0.075651 0.562209
O O17 0.793835 0.081204 0.336513
O O18 0.000000 0.000000 0.500000
O O19 0.231135 0.750000 0.754732
#
# Coordination Sequence:
#
# PCOD9167115 Si02
#       8
#     4   4   4   4   4   4   4   4
#     4  11  25  43  65  98 132 174 222 271 331 393
#     4  11  22  41  69  97 128 173 223 269 320 391
#     4  11  20  40  68  98 128 169 223 274 319 385
#     4  11  26  43  66 100 139 169 212 274 341 397
#     4  11  24  42  66  95 130 174 222 270 329 388
#     4  11  21  42  68  96 129 176 219 269 328 385
#     4  12  25  41  64  95 135 171 218 275 330 385
#     4  12  24  42  67  96 130 176 224 269 330 399
#
# _framework density 19.629695000000002
#
# number of rings (size 3 to 8) (size 9 to 14) (size 15 to 20)
#    0.000    0.750    5.000    3.000    1.750    2.500 
#    0.000    0.625    0.000    0.000    0.000    0.000 
#    0.000    0.000    0.000    0.000    0.000    0.000 
#
# Total GULP energy -178850.868171 kJ/mol
# GULP energy per Si atom -5589.089630 kJ/mol
# Density = 1.958502 g / cm^3
# Si number density = 19.629695 Si / 1000 Ang^3
#
#
#
# Elastic Constant Matrix: (Units=GPa)
#
#
# Indices 1 2 3 4 5 6 
#
# 1 103.2973 55.5578 41.7427 0.0000 7.8983 0.0000
# 2 55.5578 159.5219 46.5926 0.0000 -8.8041 0.0000
# 3 41.7427 46.5926 89.0978 0.0000 1.0346 0.0000
# 4 0.0000 0.0000 0.0000 15.7424 0.0000 -1.9378
# 5 7.8983 -8.8041 1.0346 0.0000 28.0212 0.0000
# 6 0.0000 0.0000 0.0000 -1.9378 0.0000 12.8374
#
#
#
# Elastic Compliance Matrix: (Units=1/GPa)
#
#
# Indices 1 2 3 4 5 6 
#
# 1 0.013917 -0.003816 -0.004467 0.000000 -0.004957 0.000000
# 2 -0.003816 0.008620 -0.002765 0.000000 0.003886 0.000000
# 3 -0.004467 -0.002765 0.014764 0.000000 -0.000155 0.000000
# 4 0.000000 0.000000 0.000000 0.064725 0.000000 0.009770
# 5 -0.004957 0.003886 -0.000155 0.000000 0.038311 0.000000
# 6 0.000000 0.000000 0.000000 0.009770 0.000000 0.079372
#
#
# Mechanical properties :
#
#
# Convention : Reuss Voigt Hill
#
# Bulk Modulus (GPa) = 65.76742 71.07812 68.42277
# Shear Modulus (GPa) = 20.25318 25.18846 22.72082
#
# Velocity S-wave (km/s) = 3.21559 3.58604 3.40585
# Velocity P-wave (km/s) = 6.88211 7.30988 7.09922
#
# Compressibility (1/GPa) = 0.01520510
#
# Stress axis : x y z
#
# Youngs Moduli (GPa) = 71.85242 116.01244 67.73105
#
# Poissons Ratio (x) = 0.44269 0.30258
# Poissons Ratio (y) = 0.27418 0.18727
# Poissons Ratio (z) = 0.32099 0.32077
#
# Static dielectric constant tensor:
#      x y z
#    x 1.648010 0.000000 -0.005840 
#    y 0.000000 1.717640 0.000000 
#    z -0.005840 0.000000 1.686590 
# 
# From -- ./inp_files/31920.got.cif
#   From: 2010.05.17/outbox.cif.g08.bks.cpg/sg11_16_cif.got.tgz:31920.got - 2010.06.03 12:22:45.
