data_PCOD9167069
_publ_section_title
;
Structure prediction by ZEFSAII (Michael W. Deem and Ramdas Pophale) SiO2 
 PCOD9167069
Probable space group: P 21/M
;
_chemical_formula_sum "Si O2"
_cell_formula_units_Z 32
_cell_length_a 15.511465
_cell_length_b 7.769228
_cell_length_c 15.541551
_cell_angle_alpha 90.000000
_cell_angle_beta 79.652668
_cell_angle_gamma 90.000000
_cell_volume 1842.485358
_symmetry_space_group_name_H-M "P 21/M"
_symmetry_group_IT_number 11
_symmetry_cell_setting 'monoclinic'
loop_
_space_group_symop_operation_xyz
x,y,z
-x,1/2+y,-z
-x,-y,-z
x,1/2-y,z
loop_
_atom_site_type_symbol
_atom_site_label
_atom_site_fract_x
_atom_site_fract_y
_atom_site_fract_z
Si Si1 0.058688 0.049914 0.804603
Si Si2 0.418652 0.455930 0.129054
Si Si3 0.065768 0.044479 0.612179
Si Si4 0.753261 0.960818 0.751693
Si Si5 0.130984 0.050629 0.105944
Si Si6 0.872730 0.541463 0.578307
Si Si7 0.202621 0.551373 0.911774
Si Si8 0.388397 0.958662 0.936551
O O1 0.034143 0.250000 0.798958
O O2 0.081384 0.978881 0.705691
O O3 0.139326 0.037078 0.855067
O O4 0.972353 0.961432 0.858209
O O5 0.422916 0.250000 0.138424
O O6 0.344406 0.520487 0.207323
O O7 0.518370 0.521477 0.117105
O O8 0.386929 0.491698 0.037351
O O9 0.079373 0.250000 0.611601
O O10 0.122161 0.977544 0.521050
O O11 0.964738 0.008875 0.605896
O O12 0.753171 0.750000 0.750809
O O13 0.817108 0.012550 0.818965
O O14 0.794811 0.018491 0.654228
O O15 0.155480 0.250000 0.089018
O O16 0.159092 0.957068 0.014063
O O17 0.870134 0.750000 0.576829
O O18 0.209032 0.750000 0.884134
O O19 0.300847 0.479469 0.905201
O O20 0.387545 0.750000 0.933823
#
# Coordination Sequence:
#
# PCOD9167069 Si02
#       8
#     4   4   4   4   4   4   4   4
#     4  11  22  34  46  64  89 123 158 191 223 259
#     4   9  16  29  47  67  90 115 144 179 222 270
#     4   9  18  30  45  65  89 115 147 186 223 259
#     4   9  16  26  46  71  92 117 145 174 216 269
#     4  11  20  32  47  67  92 123 155 186 218 260
#     4   9  16  29  47  67  90 115 144 179 222 270
#     4  11  22  34  46  64  89 123 158 191 223 259
#     4   9  18  30  45  65  89 115 147 186 223 259
#
# _framework density 17.367844000000002
#
# number of rings (size 3 to 8) (size 9 to 14) (size 15 to 20)
#    0.000    2.250    2.500    1.500    0.000    1.000 
#    0.000    0.625    0.000    0.000    0.000    0.875 
#    0.000    0.000    0.000    0.000    0.000    0.000 
#
# Total GULP energy -178461.234778 kJ/mol
# GULP energy per Si atom -5576.913587 kJ/mol
# Density = 1.732831 g / cm^3
# Si number density = 17.367844 Si / 1000 Ang^3
#
#
#
# Elastic Constant Matrix: (Units=GPa)
#
#
# Indices 1 2 3 4 5 6 
#
# 1 107.9866 -7.1308 63.7674 0.0000 -16.9976 0.0000
# 2 -7.1308 20.9454 -1.8234 0.0000 3.8926 0.0000
# 3 63.7674 -1.8234 102.1041 0.0000 -23.0174 0.0000
# 4 0.0000 0.0000 0.0000 3.0018 0.0000 2.9348
# 5 -16.9976 3.8926 -23.0174 0.0000 25.7091 0.0000
# 6 0.0000 0.0000 0.0000 2.9348 0.0000 7.8351
#
#
#
# Elastic Compliance Matrix: (Units=1/GPa)
#
#
# Indices 1 2 3 4 5 6 
#
# 1 0.015080 0.004116 -0.009068 0.000000 0.001229 0.000000
# 2 0.004116 0.050331 -0.003478 0.000000 -0.008013 0.000000
# 3 -0.009068 -0.003478 0.017743 0.000000 0.010417 0.000000
# 4 0.000000 0.000000 0.000000 0.525626 0.000000 -0.196882
# 5 0.001229 -0.008013 0.010417 0.000000 0.050249 0.000000
# 6 0.000000 0.000000 0.000000 -0.196882 0.000000 0.201376
#
#
# Mechanical properties :
#
#
# Convention : Reuss Voigt Hill
#
# Bulk Modulus (GPa) = 15.08415 37.85140 26.46778
# Shear Modulus (GPa) = 5.55949 19.05740 12.30845
#
# Velocity S-wave (km/s) = 1.79108 3.31612 2.66501
# Velocity P-wave (km/s) = 3.60295 6.04181 4.97417
#
# Compressibility (1/GPa) = 0.06629475
#
# Stress axis : x y z
#
# Youngs Moduli (GPa) = 66.31251 19.86852 56.35993
#
# Poissons Ratio (x) = -0.08178 0.51104
# Poissons Ratio (y) = -0.27296 0.19604
# Poissons Ratio (z) = 0.60129 0.06911
#
# Static dielectric constant tensor:
#      x y z
#    x 1.588000 0.000000 -0.024610 
#    y 0.000000 1.616960 0.000000 
#    z -0.024610 0.000000 1.599590 
# 
# From -- ./inp_files/51219.got.cif
#   From: 2010.05.17/outbox.cif.g08.bks.cpg/sg11_26_cif.got.tgz:51219.got - 2010.06.03 12:22:45.
