data_PCOD9167592
_publ_section_title
;
Structure prediction by ZEFSAII (Michael W. Deem and Ramdas Pophale) SiO2 
 PCOD9167592
Probable space group: P 21/M
;
_chemical_formula_sum "Si O2"
_cell_formula_units_Z 24
_cell_length_a 8.111523
_cell_length_b 28.181682
_cell_length_c 7.288878
_cell_angle_alpha 90.000000
_cell_angle_beta 35.898181
_cell_angle_gamma 90.000000
_cell_volume 976.977216
_symmetry_space_group_name_H-M "P 21/M"
_symmetry_group_IT_number 11
_symmetry_cell_setting 'monoclinic'
loop_
_space_group_symop_operation_xyz
x,y,z
-x,1/2+y,-z
-x,-y,-z
x,1/2-y,z
loop_
_atom_site_type_symbol
_atom_site_label
_atom_site_fract_x
_atom_site_fract_y
_atom_site_fract_z
Si Si1 0.850571 0.696150 0.734385
Si Si2 0.408150 0.658481 0.392225
Si Si3 0.597285 0.654076 0.608339
Si Si4 0.906383 0.092413 0.806485
Si Si5 0.381392 0.004478 0.811480
Si Si6 0.885955 0.063071 0.418263
O O1 0.769800 0.750000 0.850889
O O2 0.679706 0.660599 0.019575
O O3 0.770855 0.685415 0.596103
O O4 0.172783 0.688091 0.496931
O O5 0.484959 0.677473 0.524025
O O6 0.286281 0.605274 0.523551
O O7 0.811276 0.611974 0.356011
O O8 0.334052 0.631756 0.952181
O O9 0.983415 0.083774 0.524831
O O10 0.767301 0.044633 0.004980
O O11 0.500000 0.000000 0.500000
O O12 0.661644 0.021194 0.665834
O O13 0.139626 0.042902 0.070568
#
# Coordination Sequence:
#
# PCOD9167592 Si02
#       6
#     4   4   4   4   4   4
#     4  12  26  49  76 109 147 184 238 310 375 456
#     4  12  26  47  77 109 146 195 245 300 376 446
#     4  12  25  48  76 108 146 197 245 304 370 449
#     4  12  24  46  71 105 148 197 258 301 365 435
#     4  12  26  41  66 109 149 198 259 309 360 430
#     4  12  23  45  71 100 152 200 249 309 366 433
#
# _framework density 24.565567999999999
#
# number of rings (size 3 to 8) (size 9 to 14) (size 15 to 20)
#    0.000    0.000    3.333    7.000    0.000    4.000 
#    0.000    0.000    0.000    0.000    0.000    0.000 
#    0.000    0.000    0.000    0.000    0.000    0.000 
#
# Total GULP energy -134605.172183 kJ/mol
# GULP energy per Si atom -5608.548841 kJ/mol
# Density = 2.450966 g / cm^3
# Si number density = 24.565568 Si / 1000 Ang^3
#
#
#
# Elastic Constant Matrix: (Units=GPa)
#
#
# Indices 1 2 3 4 5 6 
#
# 1 137.3746 27.2961 21.3281 0.0000 8.6133 0.0000
# 2 27.2961 62.1655 36.2503 0.0000 3.7507 0.0000
# 3 21.3281 36.2503 143.9526 0.0000 -4.5812 0.0000
# 4 0.0000 0.0000 0.0000 20.1173 0.0000 1.3659
# 5 8.6133 3.7507 -4.5812 0.0000 38.9228 0.0000
# 6 0.0000 0.0000 0.0000 1.3659 0.0000 12.0956
#
#
#
# Elastic Compliance Matrix: (Units=1/GPa)
#
#
# Indices 1 2 3 4 5 6 
#
# 1 0.008079 -0.003198 -0.000440 0.000000 -0.001532 0.000000
# 2 -0.003198 0.020344 -0.004707 0.000000 -0.001807 0.000000
# 3 -0.000440 -0.004707 0.008246 0.000000 0.001522 0.000000
# 4 0.000000 0.000000 0.000000 0.050093 0.000000 -0.005657
# 5 -0.001532 -0.001807 0.001522 0.000000 0.026384 0.000000
# 6 0.000000 0.000000 0.000000 -0.005657 0.000000 0.083314
#
#
# Mechanical properties :
#
#
# Convention : Reuss Voigt Hill
#
# Bulk Modulus (GPa) = 50.05457 57.02686 53.54071
# Shear Modulus (GPa) = 22.74699 31.46834 27.10767
#
# Velocity S-wave (km/s) = 3.04628 3.58298 3.32547
# Velocity P-wave (km/s) = 5.72654 6.35465 6.04875
#
# Compressibility (1/GPa) = 0.01997820
#
# Stress axis : x y z
#
# Youngs Moduli (GPa) = 123.77380 49.15455 121.27627
#
# Poissons Ratio (x) = 0.15721 0.05341
# Poissons Ratio (y) = 0.39587 0.57081
# Poissons Ratio (z) = 0.05451 0.23135
#
# Static dielectric constant tensor:
#      x y z
#    x 1.996550 0.000000 -0.001390 
#    y 0.000000 1.986530 0.000000 
#    z -0.001390 0.000000 1.879720 
# 
# From -- ./inp_files/15381.got.cif
#   From: 2010.05.17/outbox.cif.g08.bks.cpg/sg11_8_cif.got.tgz:15381.got - 2010.06.03 12:22:45.
