data_PCOD9167362
_publ_section_title
;
Structure prediction by ZEFSAII (Michael W. Deem and Ramdas Pophale) SiO2 
 PCOD9167362
Probable space group: P 21/M
;
_chemical_formula_sum "Si O2"
_cell_formula_units_Z 22
_cell_length_a 8.967162
_cell_length_b 10.601458
_cell_length_c 10.942106
_cell_angle_alpha 90.000000
_cell_angle_beta 68.527955
_cell_angle_gamma 90.000000
_cell_volume 968.016680
_symmetry_space_group_name_H-M "P 21/M"
_symmetry_group_IT_number 11
_symmetry_cell_setting 'monoclinic'
loop_
_space_group_symop_operation_xyz
x,y,z
-x,1/2+y,-z
-x,-y,-z
x,1/2-y,z
loop_
_atom_site_type_symbol
_atom_site_label
_atom_site_fract_x
_atom_site_fract_y
_atom_site_fract_z
Si Si1 0.946324 0.611653 0.426876
Si Si2 0.764037 0.044843 0.807915
Si Si3 0.479436 0.614230 0.331381
Si Si4 0.650427 0.250000 0.027927
Si Si5 0.743493 0.750000 0.865374
Si Si6 0.099158 0.750000 0.818907
Si Si7 0.288412 0.952084 0.623735
O O1 0.954777 0.750000 0.481196
O O2 0.773625 0.576241 0.427946
O O3 0.000000 0.500000 0.500000
O O4 0.064052 0.602014 0.276942
O O5 0.652052 0.088602 0.730323
O O6 0.700448 0.119700 0.944344
O O7 0.766810 0.893024 0.807484
O O8 0.555858 0.750000 0.283961
O O9 0.602868 0.500239 0.298939
O O10 0.392831 0.615863 0.489258
O O11 0.454586 0.250000 0.073280
O O12 0.764902 0.250000 0.114877
O O13 0.907663 0.750000 0.905103
O O14 0.145966 0.868666 0.718803
#
# Coordination Sequence:
#
# PCOD9167362 Si02
#       7
#     4   4   4   2   2   2   4
#     4  12  25  42  71 108 150 190 238 300 375 457
#     4  12  25  48  75 105 145 192 245 309 369 445
#     4  11  22  42  71 104 146 192 232 303 377 443
#     4  12  28  53  73 104 149 199 265 310 361 441
#     4  12  28  48  78 106 144 204 254 306 382 430
#     4  12  26  49  75 106 151 197 253 318 361 437
#     4  11  24  41  69 106 147 185 246 298 373 449
#
# _framework density 22.726882
#
# number of rings (size 3 to 8) (size 9 to 14) (size 15 to 20)
#    0.000    0.364    6.364    2.182    2.545    0.727 
#    4.909    0.000    0.000    0.000    0.000    0.000 
#    0.000    0.000    0.000    0.000    0.000    0.000 
#
# Total GULP energy -122619.468684 kJ/mol
# GULP energy per Si atom -5573.612213 kJ/mol
# Density = 2.267515 g / cm^3
# Si number density = 22.726882 Si / 1000 Ang^3
#
#
#
# Elastic Constant Matrix: (Units=GPa)
#
#
# Indices 1 2 3 4 5 6 
#
# 1 111.4965 20.3479 25.8717 0.0000 -5.0263 0.0000
# 2 20.3479 169.7935 26.3284 0.0000 3.7545 0.0000
# 3 25.8717 26.3284 37.6599 0.0000 -2.2314 0.0000
# 4 0.0000 0.0000 0.0000 21.4729 0.0000 4.4469
# 5 -5.0263 3.7545 -2.2314 0.0000 27.0669 0.0000
# 6 0.0000 0.0000 0.0000 4.4469 0.0000 29.5549
#
#
#
# Elastic Compliance Matrix: (Units=1/GPa)
#
#
# Indices 1 2 3 4 5 6 
#
# 1 0.010728 -0.000211 -0.007138 0.000000 0.001433 0.000000
# 2 -0.000211 0.006656 -0.004588 0.000000 -0.001341 0.000000
# 3 -0.007138 -0.004588 0.034794 0.000000 0.002179 0.000000
# 4 0.000000 0.000000 0.000000 0.048068 0.000000 -0.007232
# 5 0.001433 -0.001341 0.002179 0.000000 0.037577 0.000000
# 6 0.000000 0.000000 0.000000 -0.007232 0.000000 0.034924
#
#
# Mechanical properties :
#
#
# Convention : Reuss Voigt Hill
#
# Bulk Modulus (GPa) = 35.32972 51.56065 43.44518
# Shear Modulus (GPa) = 24.26544 32.04575 28.15560
#
# Velocity S-wave (km/s) = 3.27111 3.75912 3.52357
# Velocity P-wave (km/s) = 5.46315 6.44807 5.97594
#
# Compressibility (1/GPa) = 0.02830478
#
# Stress axis : x y z
#
# Youngs Moduli (GPa) = 93.21215 150.24520 28.74084
#
# Poissons Ratio (x) = 0.03163 0.20515
# Poissons Ratio (y) = 0.01962 0.13186
# Poissons Ratio (z) = 0.66535 0.68931
#
# Static dielectric constant tensor:
#      x y z
#    x 1.872690 0.000000 -0.013490 
#    y 0.000000 1.882870 0.000000 
#    z -0.013490 0.000000 1.870680 
# 
# From -- ./inp_files/31107.got.cif
#   From: 2010.05.17/outbox.cif.g08.bks.cpg/sg11_16_cif.got.tgz:31107.got - 2010.06.03 12:22:45.
