data_PCOD9167005
_publ_section_title
;
Structure prediction by ZEFSAII (Michael W. Deem and Ramdas Pophale) SiO2 
 PCOD9167005
Probable space group: P 21/M
;
_chemical_formula_sum "Si O2"
_cell_formula_units_Z 16
_cell_length_a 11.204321
_cell_length_b 13.322418
_cell_length_c 10.152225
_cell_angle_alpha 90.000000
_cell_angle_beta 154.141615
_cell_angle_gamma 90.000000
_cell_volume 660.943026
_symmetry_space_group_name_H-M "P 21/M"
_symmetry_group_IT_number 11
_symmetry_cell_setting 'monoclinic'
loop_
_space_group_symop_operation_xyz
x,y,z
-x,1/2+y,-z
-x,-y,-z
x,1/2-y,z
loop_
_atom_site_type_symbol
_atom_site_label
_atom_site_fract_x
_atom_site_fract_y
_atom_site_fract_z
Si Si1 0.950689 0.062300 0.259734
Si Si2 0.750550 0.139903 0.476018
Si Si3 0.456067 0.250000 0.399189
Si Si4 0.047958 0.750000 0.928530
Si Si5 0.439447 0.366312 0.892679
O O1 0.006827 0.149793 0.209554
O O2 0.638485 0.073579 0.992848
O O3 0.049570 0.953749 0.311849
O O4 0.135758 0.093256 0.570135
O O5 0.893723 0.250000 0.601895
O O6 0.553903 0.156577 0.406479
O O7 0.563552 0.127992 0.161026
O O8 0.145547 0.250000 0.135665
O O9 0.640601 0.250000 0.713061
O O10 0.447626 0.250000 0.862072
#
# Coordination Sequence:
#
# PCOD9167005 Si02
#       5
#     4   4   2   2   4
#     4  12  23  41  69  97 126 164 207 266 317 372
#     4   9  24  45  63  96 130 168 206 259 317 382
#     4  10  26  44  60  92 124 174 216 250 308 368
#     4  12  24  40  66  90 126 166 222 254 304 366
#     4  11  21  41  67 100 127 159 205 263 326 379
#
# _framework density 24.207834999999999
#
# number of rings (size 3 to 8) (size 9 to 14) (size 15 to 20)
#    0.750    0.500    2.500    3.000    0.000    6.000 
#    0.000    0.000    0.000    0.000    0.000    0.000 
#    0.000    0.000    0.000    0.000    0.000    0.000 
#
# Total GULP energy -89663.388237 kJ/mol
# GULP energy per Si atom -5603.961765 kJ/mol
# Density = 2.415274 g / cm^3
# Si number density = 24.207835 Si / 1000 Ang^3
#
#
#
# Elastic Constant Matrix: (Units=GPa)
#
#
# Indices 1 2 3 4 5 6 
#
# 1 87.8065 40.6224 12.2914 0.0000 -3.1826 0.0000
# 2 40.6224 188.2101 16.6839 0.0000 7.6163 0.0000
# 3 12.2914 16.6839 69.6325 0.0000 10.8050 0.0000
# 4 0.0000 0.0000 0.0000 25.9099 0.0000 10.8924
# 5 -3.1826 7.6163 10.8050 0.0000 29.8897 0.0000
# 6 0.0000 0.0000 0.0000 10.8924 0.0000 28.4111
#
#
#
# Elastic Compliance Matrix: (Units=1/GPa)
#
#
# Indices 1 2 3 4 5 6 
#
# 1 0.013055 -0.002748 -0.002088 0.000000 0.002845 0.000000
# 2 -0.002748 0.006033 -0.000717 0.000000 -0.001571 0.000000
# 3 -0.002088 -0.000717 0.015793 0.000000 -0.005749 0.000000
# 4 0.000000 0.000000 0.000000 0.046011 0.000000 -0.017640
# 5 0.002845 -0.001571 -0.005749 0.000000 0.036238 0.000000
# 6 0.000000 0.000000 0.000000 -0.017640 0.000000 0.041960
#
#
# Mechanical properties :
#
#
# Convention : Reuss Voigt Hill
#
# Bulk Modulus (GPa) = 42.05629 53.87161 47.96395
# Shear Modulus (GPa) = 28.07071 35.24555 31.65813
#
# Velocity S-wave (km/s) = 3.40894 3.81984 3.62023
# Velocity P-wave (km/s) = 5.73631 6.46197 6.10992
#
# Compressibility (1/GPa) = 0.02377766
#
# Stress axis : x y z
#
# Youngs Moduli (GPa) = 76.59734 165.74377 63.31750
#
# Poissons Ratio (x) = 0.45544 0.13218
# Poissons Ratio (y) = 0.21048 0.04539
# Poissons Ratio (z) = 0.15990 0.11881
#
# Static dielectric constant tensor:
#      x y z
#    x 1.913350 0.000000 -0.015740 
#    y 0.000000 1.947550 0.000000 
#    z -0.015740 0.000000 1.874230 
# 
# From -- ./inp_files/29510.got.cif
#   From: 2010.05.17/outbox.cif.g08.bks.cpg/sg11_15_cif.got.tgz:29510.got - 2010.06.03 12:22:45.
