data_PCOD9167626
_publ_section_title
;
Structure prediction by ZEFSAII (Michael W. Deem and Ramdas Pophale) SiO2 
 PCOD9167626
Probable space group: P 21/M
;
_chemical_formula_sum "Si O2"
_cell_formula_units_Z 28
_cell_length_a 13.680207
_cell_length_b 7.383046
_cell_length_c 20.943443
_cell_angle_alpha 90.000000
_cell_angle_beta 150.431743
_cell_angle_gamma 90.000000
_cell_volume 1043.826555
_symmetry_space_group_name_H-M "P 21/M"
_symmetry_group_IT_number 11
_symmetry_cell_setting 'monoclinic'
loop_
_space_group_symop_operation_xyz
x,y,z
-x,1/2+y,-z
-x,-y,-z
x,1/2-y,z
loop_
_atom_site_type_symbol
_atom_site_label
_atom_site_fract_x
_atom_site_fract_y
_atom_site_fract_z
Si Si1 0.121332 0.462186 0.004215
Si Si2 0.284083 0.466885 0.919499
Si Si3 0.077475 0.456707 0.454030
Si Si4 0.354250 0.955132 0.812204
Si Si5 0.506733 0.964126 0.297746
Si Si6 0.263893 0.973446 0.283825
Si Si7 0.834331 0.464162 0.640733
O O1 0.136183 0.250000 0.997873
O O2 0.657344 0.483038 0.850312
O O3 0.955834 0.536004 0.862163
O O4 0.000000 0.500000 0.000000
O O5 0.313248 0.250000 0.932072
O O6 0.423419 0.536141 0.056404
O O7 0.324022 0.549020 0.872384
O O8 0.052466 0.488915 0.793758
O O9 0.053366 0.250000 0.462601
O O10 0.276406 0.538972 0.597536
O O11 0.854603 0.537849 0.330660
O O12 0.146230 0.454293 0.418553
O O13 0.368596 0.750000 0.795923
O O14 0.535111 0.750000 0.322466
O O15 0.414889 0.031634 0.313248
O O16 0.265653 0.750000 0.284639
O O17 0.298404 0.033803 0.376260
O O18 0.798569 0.250000 0.610797
#
# Coordination Sequence:
#
# PCOD9167626 Si02
#       7
#     4   4   4   4   4   4   4
#     4   9  16  28  45  61  76  96 127 165 199 226
#     4   8  13  21  35  53  71  94 125 156 183 217
#     4   9  17  27  38  55  81 107 128 154 189 226
#     4   8  13  22  35  51  72  97 124 154 187 219
#     4   9  17  29  42  56  77 104 131 159 191 223
#     4   8  15  27  41  56  76 100 124 156 194 225
#     4   9  16  26  39  56  79 104 128 153 185 229
#
# _framework density 26.824380999999999
#
# number of rings (size 3 to 8) (size 9 to 14) (size 15 to 20)
#    0.000    3.429    0.000    1.286    0.000    1.143 
#    0.000    3.571    0.000    0.000    0.000    1.000 
#    0.000    0.000    0.000    0.000    0.000    0.000 
#
# Total GULP energy -156001.069591 kJ/mol
# GULP energy per Si atom -5571.466771 kJ/mol
# Density = 2.676333 g / cm^3
# Si number density = 26.824381 Si / 1000 Ang^3
#
#
#
# Elastic Constant Matrix: (Units=GPa)
#
#
# Indices 1 2 3 4 5 6 
#
# 1 79.3932 7.2234 13.5168 0.0000 -35.5416 0.0000
# 2 7.2234 80.8738 13.6208 0.0000 12.5453 0.0000
# 3 13.5168 13.6208 203.7223 0.0000 66.2687 0.0000
# 4 0.0000 0.0000 0.0000 16.0023 0.0000 0.0584
# 5 -35.5416 12.5453 66.2687 0.0000 15.7036 0.0000
# 6 0.0000 0.0000 0.0000 0.0584 0.0000 -6.5337
#
#
#
# Elastic Compliance Matrix: (Units=1/GPa)
#
#
# Indices 1 2 3 4 5 6 
#
# 1 0.003080 0.001656 0.005775 0.000000 -0.018722 0.000000
# 2 0.001656 0.011854 -0.002572 0.000000 0.005131 0.000000
# 3 0.005775 -0.002572 0.000597 0.000000 0.012605 0.000000
# 4 0.000000 0.000000 0.000000 0.062489 0.000000 0.000559
# 5 -0.018722 0.005131 0.012605 0.000000 -0.035985 0.000000
# 6 0.000000 0.000000 0.000000 0.000559 0.000000 -0.153048
#
#
# Mechanical properties :
#
#
# Convention : Reuss Voigt Hill
#
# Bulk Modulus (GPa) = 39.60191 48.07902 43.84046
# Shear Modulus (GPa) = -44.51741 27.00966 -8.75387
#
# Velocity S-wave (km/s) = -4.07822 3.17662 -1.80845
# Velocity P-wave (km/s) = 2.71669 5.60510 3.46675
#
# Compressibility (1/GPa) = 0.02525131
#
# Stress axis : x y z
#
# Youngs Moduli (GPa) = 324.64691 84.35886 1674.45895
#
# Poissons Ratio (x) = -0.13974 -9.67008
# Poissons Ratio (y) = -0.53777 4.30616
# Poissons Ratio (z) = -1.87485 0.21694
#
# Static dielectric constant tensor:
#      x y z
#    x 2.150030 0.000000 0.063900 
#    y 0.000000 2.069810 0.000000 
#    z 0.063900 0.000000 2.207710 
# 
# From -- ./inp_files/44728.got.cif
#   From: 2010.05.17/outbox.cif.g08.bks.cpg/sg11_23_cif.got.tgz:44728.got - 2010.06.03 12:22:45.
