data_PCOD9167144
_publ_section_title
;
Structure prediction by ZEFSAII (Michael W. Deem and Ramdas Pophale) SiO2 
 PCOD9167144
Probable space group: P 21/M
;
_chemical_formula_sum "Si O2"
_cell_formula_units_Z 28
_cell_length_a 27.381432
_cell_length_b 7.791467
_cell_length_c 7.192136
_cell_angle_alpha 90.000000
_cell_angle_beta 46.489639
_cell_angle_gamma 90.000000
_cell_volume 1112.809823
_symmetry_space_group_name_H-M "P 21/M"
_symmetry_group_IT_number 11
_symmetry_cell_setting 'monoclinic'
loop_
_space_group_symop_operation_xyz
x,y,z
-x,1/2+y,-z
-x,-y,-z
x,1/2-y,z
loop_
_atom_site_type_symbol
_atom_site_label
_atom_site_fract_x
_atom_site_fract_y
_atom_site_fract_z
Si Si1 0.785448 0.946501 0.541819
Si Si2 0.072589 0.948482 0.888626
Si Si3 0.503162 0.043104 0.771985
Si Si4 0.353608 0.548690 0.598907
Si Si5 0.215700 0.951106 0.882192
Si Si6 0.924681 0.564788 0.717466
Si Si7 0.642175 0.960209 0.850709
O O1 0.788550 0.750000 0.594469
O O2 0.710128 0.018858 0.777509
O O3 0.856957 0.031990 0.406848
O O4 0.784125 0.956241 0.317889
O O5 0.069256 0.750000 0.957157
O O6 0.080898 0.066410 0.045732
O O7 0.000000 0.000000 0.000000
O O8 0.504764 0.250000 0.749373
O O9 0.575662 0.971347 0.517508
O O10 0.431140 0.983462 0.882077
O O11 0.500000 0.000000 0.000000
O O12 0.354485 0.750000 0.644575
O O13 0.278642 0.480513 0.836142
O O14 0.355844 0.527628 0.367243
O O15 0.226524 0.750000 0.814711
O O16 0.142304 0.966131 0.164870
O O17 0.920676 0.750000 0.638774
O O18 0.000000 0.500000 0.500000
O O19 0.644002 0.750000 0.840084
#
# Coordination Sequence:
#
# PCOD9167144 Si02
#       7
#     4   4   4   4   4   4   4
#     4   9  15  24  37  55  77 105 139 176 214 257
#     4  11  21  34  50  69  91 118 150 187 227 271
#     4   8  12  18  26  40  62  92 127 164 201 240
#     4   8  13  19  29  44  66  95 130 167 204 244
#     4   9  15  24  37  55  77 105 139 176 214 257
#     4  11  21  34  50  69  91 118 150 187 227 271
#     4   8  13  19  29  44  66  95 130 167 204 244
#
# _framework density 25.161532000000001
#
# number of rings (size 3 to 8) (size 9 to 14) (size 15 to 20)
#    0.000    2.857    0.000    5.143    0.000    1.143 
#    0.000    0.000    0.000    0.000    0.000    0.000 
#    0.000    0.000    0.000    1.286    0.000   14.286 
#
# Total GULP energy -155985.158665 kJ/mol
# GULP energy per Si atom -5570.898524 kJ/mol
# Density = 2.510426 g / cm^3
# Si number density = 25.161532 Si / 1000 Ang^3
#
#
#
# Elastic Constant Matrix: (Units=GPa)
#
#
# Indices 1 2 3 4 5 6 
#
# 1 103.3804 -7.4980 112.7604 0.0000 -44.3652 0.0000
# 2 -7.4980 80.7901 6.2330 0.0000 -15.0848 0.0000
# 3 112.7604 6.2330 95.4027 0.0000 -86.8697 0.0000
# 4 0.0000 0.0000 0.0000 2.4600 0.0000 -1.7486
# 5 -44.3652 -15.0848 -86.8697 0.0000 94.0655 0.0000
# 6 0.0000 0.0000 0.0000 -1.7486 0.0000 4.7834
#
#
#
# Elastic Compliance Matrix: (Units=1/GPa)
#
#
# Indices 1 2 3 4 5 6 
#
# 1 -0.003796 0.001111 0.018515 0.000000 0.015487 0.000000
# 2 0.001111 0.013104 0.001391 0.000000 0.003910 0.000000
# 3 0.018515 0.001391 -0.020983 0.000000 -0.010422 0.000000
# 4 0.000000 0.000000 0.000000 0.549216 0.000000 0.200767
# 5 0.015487 0.003910 -0.010422 0.000000 0.008937 0.000000
# 6 0.000000 0.000000 0.000000 0.200767 0.000000 0.282449
#
#
# Mechanical properties :
#
#
# Convention : Reuss Voigt Hill
#
# Bulk Modulus (GPa) = 32.93832 55.84046 44.38939
# Shear Modulus (GPa) = 6.27343 31.46694 18.87019
#
# Velocity S-wave (km/s) = 1.58072 3.54021 2.74151
# Velocity P-wave (km/s) = 4.05595 6.24114 5.26320
#
# Compressibility (1/GPa) = 0.03035978
#
# Stress axis : x y z
#
# Youngs Moduli (GPa) = -263.46579 76.31489 -47.65692
#
# Poissons Ratio (x) = -0.08478 0.88239
# Poissons Ratio (y) = 0.29270 0.06630
# Poissons Ratio (z) = 4.87817 -0.10617
#
# Static dielectric constant tensor:
#      x y z
#    x 2.221900 0.000000 0.143640 
#    y 0.000000 1.768990 0.000000 
#    z 0.143640 0.000000 2.445770 
# 
# From -- ./inp_files/29036.got.cif
#   From: 2010.05.17/outbox.cif.g08.bks.cpg/sg11_15_cif.got.tgz:29036.got - 2010.06.03 12:22:45.
