data_PCOD9167623
_publ_section_title
;
Structure prediction by ZEFSAII (Michael W. Deem and Ramdas Pophale) SiO2 
 PCOD9167623
Probable space group: P 21/M
;
_chemical_formula_sum "Si O2"
_cell_formula_units_Z 32
_cell_length_a 7.881310
_cell_length_b 21.156290
_cell_length_c 15.142594
_cell_angle_alpha 90.000000
_cell_angle_beta 146.204519
_cell_angle_gamma 90.000000
_cell_volume 1404.405965
_symmetry_space_group_name_H-M "P 21/M"
_symmetry_group_IT_number 11
_symmetry_cell_setting 'monoclinic'
loop_
_space_group_symop_operation_xyz
x,y,z
-x,1/2+y,-z
-x,-y,-z
x,1/2-y,z
loop_
_atom_site_type_symbol
_atom_site_label
_atom_site_fract_x
_atom_site_fract_y
_atom_site_fract_z
Si Si1 0.421840 0.439921 0.185429
Si Si2 0.239309 0.560378 0.002150
Si Si3 0.740837 0.678663 0.502855
Si Si4 0.739309 0.060378 0.502150
Si Si5 0.759163 0.821337 0.997145
Si Si6 0.417478 0.821358 0.183412
Si Si7 0.082522 0.821358 0.316588
Si Si8 0.921840 0.560079 0.685429
O O1 0.408830 0.500180 0.116153
O O2 0.676280 0.443374 0.371062
O O3 0.425839 0.375986 0.130682
O O4 0.095821 0.439914 0.096122
O O5 0.398499 0.624726 0.102340
O O6 0.176280 0.556626 0.871062
O O7 0.863830 0.750000 0.564333
O O8 0.662596 0.665988 0.366629
O O9 0.410443 0.678130 0.408633
O O10 0.925839 0.624014 0.630682
O O11 0.898499 0.124726 0.602339
O O12 0.404178 0.060086 0.403878
O O13 0.908830 0.000180 0.616153
O O14 0.636170 0.750000 0.935668
O O15 0.089557 0.821870 0.091367
O O16 0.837404 0.834012 0.133371
O O17 0.454585 0.750000 0.165311
O O18 0.045415 0.750000 0.334689
#
# Coordination Sequence:
#
# PCOD9167623 Si02
#       8
#     4   4   4   4   4   4   4   4
#     4   9  15  20  25  31  37  43  49  55  60  65
#     4   9  15  20  25  31  37  43  49  55  60  65
#     4   8  13  20  27  32  37  43  48  53  60  67
#     4   9  15  20  25  31  37  43  49  55  60  65
#     4   8  13  20  27  32  37  43  48  53  60  67
#     4   8  13  20  27  32  37  43  48  53  60  67
#     4   8  13  20  27  32  37  43  48  53  60  67
#     4   9  15  20  25  31  37  43  49  55  60  65
#
# _framework density 22.785433000000001
#
# number of rings (size 3 to 8) (size 9 to 14) (size 15 to 20)
#    0.000    3.500    0.000    3.000    0.000    7.000 
#    0.000    5.000    0.000    0.000    0.000    0.000 
#    0.000    0.000    0.000    0.000    0.000    0.000 
#
# Total GULP energy -178904.081822 kJ/mol
# GULP energy per Si atom -5590.752557 kJ/mol
# Density = 2.273357 g / cm^3
# Si number density = 22.785433 Si / 1000 Ang^3
#
#
#
# Elastic Constant Matrix: (Units=GPa)
#
#
# Indices 1 2 3 4 5 6 
#
# 1 83.7493 37.2770 41.6801 0.0000 11.6152 0.0000
# 2 37.2770 236.2106 171.9924 0.0000 -63.0573 0.0000
# 3 41.6801 171.9924 201.4404 0.0000 -52.2644 0.0000
# 4 0.0000 0.0000 0.0000 39.0893 0.0000 -24.2919
# 5 11.6152 -63.0573 -52.2644 0.0000 28.2977 0.0000
# 6 0.0000 0.0000 0.0000 -24.2919 0.0000 -16.4236
#
#
#
# Elastic Compliance Matrix: (Units=1/GPa)
#
#
# Indices 1 2 3 4 5 6 
#
# 1 0.036170 -0.016225 -0.013178 0.000000 -0.075341 0.000000
# 2 -0.016225 0.022360 -0.002071 0.000000 0.052661 0.000000
# 3 -0.013178 -0.002071 0.018558 0.000000 0.035070 0.000000
# 4 0.000000 0.000000 0.000000 0.013330 0.000000 -0.019716
# 5 -0.075341 0.052661 0.035070 0.000000 0.248382 0.000000
# 6 0.000000 0.000000 0.000000 -0.019716 0.000000 -0.031726
#
#
# Mechanical properties :
#
#
# Convention : Reuss Voigt Hill
#
# Bulk Modulus (GPa) = 70.72508 113.69992 92.21250
# Shear Modulus (GPa) = 13.34270 28.22275 20.78273
#
# Velocity S-wave (km/s) = 2.42250 3.52324 3.02339
# Velocity P-wave (km/s) = 6.23953 8.15840 7.26262
#
# Compressibility (1/GPa) = 0.01413926
#
# Stress axis : x y z
#
# Youngs Moduli (GPa) = 27.64742 44.72254 53.88383
#
# Poissons Ratio (x) = 0.72563 0.71009
# Poissons Ratio (y) = 0.44859 0.11160
# Poissons Ratio (z) = 0.36434 0.09263
#
# Static dielectric constant tensor:
#      x y z
#    x 1.837910 0.000000 0.022020 
#    y 0.000000 1.794920 0.000000 
#    z 0.022020 0.000000 1.783160 
# 
# From -- ./inp_files/65901.got.cif
#   From: 2010.05.17/outbox.cif.g08.bks.cpg/sg11_33_cif.got.tgz:65901.got - 2010.06.03 12:22:45.
