data_PCOD9167184
_publ_section_title
;
Structure prediction by ZEFSAII (Michael W. Deem and Ramdas Pophale) SiO2 
 PCOD9167184
Probable space group: P 21/M
;
_chemical_formula_sum "Si O2"
_cell_formula_units_Z 20
_cell_length_a 12.603438
_cell_length_b 16.270937
_cell_length_c 6.122939
_cell_angle_alpha 90.000000
_cell_angle_beta 130.797891
_cell_angle_gamma 90.000000
_cell_volume 950.535556
_symmetry_space_group_name_H-M "P 21/M"
_symmetry_group_IT_number 11
_symmetry_cell_setting 'monoclinic'
loop_
_space_group_symop_operation_xyz
x,y,z
-x,1/2+y,-z
-x,-y,-z
x,1/2-y,z
loop_
_atom_site_type_symbol
_atom_site_label
_atom_site_fract_x
_atom_site_fract_y
_atom_site_fract_z
Si Si1 0.421329 0.250000 0.718398
Si Si2 0.978745 0.658716 0.199201
Si Si3 0.242617 0.408592 0.374813
Si Si4 0.751317 0.089658 0.679003
Si Si5 0.558506 0.250000 0.400937
Si Si6 0.024054 0.918509 0.672853
O O1 0.334725 0.335117 0.590356
O O2 0.491086 0.250000 0.560981
O O3 0.488480 0.250000 0.058124
O O4 0.978598 0.750000 0.102354
O O5 0.113277 0.610188 0.288811
O O6 0.003074 0.658256 0.488205
O O7 0.827398 0.618558 0.949110
O O8 0.308436 0.499316 0.455090
O O9 0.099602 0.416489 0.319339
O O10 0.648009 0.165760 0.522007
O O11 0.824393 0.083054 0.013828
O O12 0.000000 0.000000 0.500000
#
# Coordination Sequence:
#
# PCOD9167184 Si02
#       6
#     2   4   4   4   2   4
#     4  12  32  51  70  99 136 194 256 290 334 400
#     4  11  21  37  67 106 140 173 213 284 369 433
#     4  11  24  43  68 102 140 179 229 292 355 422
#     4  11  24  43  68 102 140 179 229 292 355 422
#     4  12  32  51  70  99 136 194 256 290 334 400
#     4  11  21  36  70 110 140 170 218 283 368 444
#
# _framework density 21.040769999999998
#
# number of rings (size 3 to 8) (size 9 to 14) (size 15 to 20)
#    0.000    0.800    6.000    1.200    8.400    1.600 
#    0.000    0.000    0.000    0.000    0.000    0.000 
#    0.000    0.000    0.000    0.000    0.000    0.000 
#
# Total GULP energy -111367.194417 kJ/mol
# GULP energy per Si atom -5568.359721 kJ/mol
# Density = 2.099288 g / cm^3
# Si number density = 21.040770 Si / 1000 Ang^3
#
#
#
# Elastic Constant Matrix: (Units=GPa)
#
#
# Indices 1 2 3 4 5 6 
#
# 1 39.8905 23.4476 23.1291 0.0000 -1.6783 0.0000
# 2 23.4476 212.3525 73.8478 0.0000 19.3924 0.0000
# 3 23.1291 73.8478 135.0514 0.0000 -3.6833 0.0000
# 4 0.0000 0.0000 0.0000 30.9306 0.0000 -2.7511
# 5 -1.6783 19.3924 -3.6833 0.0000 20.6745 0.0000
# 6 0.0000 0.0000 0.0000 -2.7511 0.0000 26.0655
#
#
#
# Elastic Compliance Matrix: (Units=1/GPa)
#
#
# Indices 1 2 3 4 5 6 
#
# 1 0.028627 -0.002274 -0.003555 0.000000 0.003823 0.000000
# 2 -0.002274 0.006861 -0.003560 0.000000 -0.007254 0.000000
# 3 -0.003555 -0.003560 0.010092 0.000000 0.004849 0.000000
# 4 0.000000 0.000000 0.000000 0.032637 0.000000 0.003445
# 5 0.003823 -0.007254 0.004849 0.000000 0.056347 0.000000
# 6 0.000000 0.000000 0.000000 0.003445 0.000000 0.038729
#
#
# Mechanical properties :
#
#
# Convention : Reuss Voigt Hill
#
# Bulk Modulus (GPa) = 37.30982 69.79371 53.55176
# Shear Modulus (GPa) = 24.87506 33.32546 29.10026
#
# Velocity S-wave (km/s) = 3.44209 3.98408 3.72296
# Velocity P-wave (km/s) = 5.79379 7.37608 6.63229
#
# Compressibility (1/GPa) = 0.02680260
#
# Stress axis : x y z
#
# Youngs Moduli (GPa) = 34.93161 145.75847 99.08549
#
# Poissons Ratio (x) = 0.33142 0.35226
# Poissons Ratio (y) = 0.07943 0.35274
# Poissons Ratio (z) = 0.12419 0.51889
#
# Static dielectric constant tensor:
#      x y z
#    x 1.791860 0.000000 -0.081080 
#    y 0.000000 1.830240 0.000000 
#    z -0.081080 0.000000 1.848460 
# 
# From -- ./inp_files/4709.got.cif
#   From: 2010.05.17/outbox.cif.g08.bks.cpg/sg11_3_cif.got.tgz:4709.got - 2010.06.03 12:22:45.
