data_PCOD9167357
_publ_section_title
;
Structure prediction by ZEFSAII (Michael W. Deem and Ramdas Pophale) SiO2 
 PCOD9167357
Probable space group: P 21/M
;
_chemical_formula_sum "Si O2"
_cell_formula_units_Z 16
_cell_length_a 7.470964
_cell_length_b 8.910017
_cell_length_c 14.422546
_cell_angle_alpha 90.000000
_cell_angle_beta 39.667005
_cell_angle_gamma 90.000000
_cell_volume 612.828163
_symmetry_space_group_name_H-M "P 21/M"
_symmetry_group_IT_number 11
_symmetry_cell_setting 'monoclinic'
loop_
_space_group_symop_operation_xyz
x,y,z
-x,1/2+y,-z
-x,-y,-z
x,1/2-y,z
loop_
_atom_site_type_symbol
_atom_site_label
_atom_site_fract_x
_atom_site_fract_y
_atom_site_fract_z
Si Si1 0.500942 0.750000 0.741762
Si Si2 0.795580 0.571116 0.914865
Si Si3 0.545941 0.250000 0.617880
Si Si4 0.999102 0.750000 0.071872
Si Si5 0.964608 0.945513 0.644486
Si Si6 0.214239 0.250000 0.558061
O O1 0.679184 0.885484 0.715159
O O2 0.541929 0.750000 0.616064
O O3 0.189652 0.750000 0.903917
O O4 0.747023 0.750000 0.964537
O O5 0.923968 0.421163 0.917427
O O6 0.974660 0.590275 0.749327
O O7 0.500000 0.500000 0.000000
O O8 0.341365 0.250000 0.609612
O O9 0.763643 0.383952 0.516922
O O10 0.337076 0.250000 0.787154
O O11 0.004296 0.117488 0.624025
#
# Coordination Sequence:
#
# PCOD9167357 Si02
#       6
#     2   4   2   2   4   2
#     4  11  24  44  62  95 140 164 214 271 336 396
#     4  12  20  36  66  99 128 163 227 275 316 373
#     4  11  24  42  68  93 130 170 228 273 314 384
#     4  12  24  40  66  98 132 174 218 276 322 394
#     4  11  22  42  66  94 129 171 222 270 317 399
#     4  12  24  38  68 100 128 174 210 276 340 380
#
# _framework density 26.108459
#
# number of rings (size 3 to 8) (size 9 to 14) (size 15 to 20)
#    0.000    0.500    8.750    1.500    0.000    0.000 
#    0.000    1.250    0.000    3.000    0.000    0.000 
#    0.000    0.000    0.000    0.000    0.000    0.000 
#
# Total GULP energy -89268.248589 kJ/mol
# GULP energy per Si atom -5579.265537 kJ/mol
# Density = 2.604904 g / cm^3
# Si number density = 26.108459 Si / 1000 Ang^3
#
#
#
# Elastic Constant Matrix: (Units=GPa)
#
#
# Indices 1 2 3 4 5 6 
#
# 1 79.3311 32.9627 29.9914 0.0000 -4.6560 0.0000
# 2 32.9627 271.0915 44.4070 0.0000 -17.2743 0.0000
# 3 29.9914 44.4070 180.2360 0.0000 -5.9696 0.0000
# 4 0.0000 0.0000 0.0000 -25.8641 0.0000 31.9635
# 5 -4.6560 -17.2743 -5.9696 0.0000 56.3355 0.0000
# 6 0.0000 0.0000 0.0000 31.9635 0.0000 -12.7188
#
#
#
# Elastic Compliance Matrix: (Units=1/GPa)
#
#
# Indices 1 2 3 4 5 6 
#
# 1 0.013938 -0.001338 -0.001972 0.000000 0.000533 0.000000
# 2 -0.001338 0.004039 -0.000738 0.000000 0.001050 0.000000
# 3 -0.001972 -0.000738 0.006067 0.000000 0.000254 0.000000
# 4 0.000000 0.000000 0.000000 0.018361 0.000000 0.046143
# 5 0.000533 0.001050 0.000254 0.000000 0.018144 0.000000
# 6 0.000000 0.000000 0.000000 0.046143 0.000000 0.037338
#
#
# Mechanical properties :
#
#
# Convention : Reuss Voigt Hill
#
# Bulk Modulus (GPa) = 62.70142 82.82009 72.76075
# Shear Modulus (GPa) = 44.92446 31.77036 38.34741
#
# Velocity S-wave (km/s) = 4.15262 3.49214 3.83662
# Velocity P-wave (km/s) = 6.86004 6.93184 6.89604
#
# Compressibility (1/GPa) = 0.01594860
#
# Stress axis : x y z
#
# Youngs Moduli (GPa) = 71.74599 247.57324 164.83653
#
# Poissons Ratio (x) = 0.33120 0.32507
# Poissons Ratio (y) = 0.09598 0.12162
# Poissons Ratio (z) = 0.14149 0.18266
#
# Static dielectric constant tensor:
#      x y z
#    x 2.076940 0.000000 0.083120 
#    y 0.000000 2.072070 0.000000 
#    z 0.083120 0.000000 2.013450 
# 
# From -- ./inp_files/23890.got.cif
#   From: 2010.05.17/outbox.cif.g08.bks.cpg/sg11_12_cif.got.tgz:23890.got - 2010.06.03 12:22:45.
