data_PCOD9167811
_publ_section_title
;
Structure prediction by ZEFSAII (Michael W. Deem and Ramdas Pophale) SiO2 
 PCOD9167811
Probable space group: P 21/M
;
_chemical_formula_sum "Si O2"
_cell_formula_units_Z 32
_cell_length_a 12.000000
_cell_length_b 9.000000
_cell_length_c 21.000000
_cell_angle_alpha 90.000000
_cell_angle_beta 50.000000
_cell_angle_gamma 90.000000
_cell_volume 1737.388797
_symmetry_space_group_name_H-M "P 21/M"
_symmetry_group_IT_number 11
_symmetry_cell_setting 'monoclinic'
loop_
_space_group_symop_operation_xyz
x,y,z
-x,1/2+y,-z
-x,-y,-z
x,1/2-y,z
loop_
_atom_site_type_symbol
_atom_site_label
_atom_site_fract_x
_atom_site_fract_y
_atom_site_fract_z
Si Si1 0.133759 0.428596 0.304548
Si Si2 0.775797 0.072421 0.085669
Si Si3 0.445799 0.071672 0.380557
Si Si4 0.308623 0.074426 0.625001
Si Si5 0.454351 0.430327 0.234234
Si Si6 0.979316 0.576763 0.909178
Si Si7 0.156503 0.427972 0.548489
Si Si8 0.983925 0.075655 0.779785
O O1 0.129855 0.250000 0.307974
O O2 0.296610 0.478387 0.265385
O O3 0.091472 0.486807 0.249730
O O4 0.998693 0.492159 0.395772
O O5 0.791940 0.250000 0.065465
O O6 0.605724 0.032704 0.143999
O O7 0.856469 0.052334 0.124357
O O8 0.869841 0.970518 0.004897
O O9 0.460850 0.250000 0.379800
O O10 0.481522 0.019524 0.296639
O O11 0.273597 0.039939 0.451302
O O12 0.554959 0.004706 0.392770
O O13 0.340671 0.250000 0.610243
O O14 0.252663 0.028043 0.575457
O O15 0.158287 0.049919 0.717894
O O16 0.447647 0.250000 0.238074
O O17 0.967139 0.750000 0.897655
O O18 0.933906 0.478495 0.866238
O O19 0.131124 0.250000 0.562180
O O20 0.961544 0.250000 0.776497
#
# Coordination Sequence:
#
# PCOD9167811 Si02
#       8
#     4   4   4   4   4   4   4   4
#     4  10  20  35  54  73  97 132 176 219 251 292
#     4   9  18  34  54  77 110 142 164 200 255 304
#     4  10  19  32  52  75 101 135 171 208 255 310
#     4   9  18  31  47  73 106 133 163 207 254 302
#     4   9  19  35  53  74 100 133 173 213 254 298
#     4  10  19  32  55  85 109 132 168 205 244 303
#     4   9  19  34  50  72 104 137 168 208 259 306
#     4  10  20  35  54  76 104 136 169 207 257 307
#
# _framework density 18.418444999999998
#
# number of rings (size 3 to 8) (size 9 to 14) (size 15 to 20)
#    0.000    2.500    0.000    3.000    0.000    5.000 
#    0.000    3.750    0.000    0.000    0.000    0.000 
#    0.000    0.000    0.000    0.000    0.000    0.000 
#
# Total GULP energy -178218.323081 kJ/mol
# GULP energy per Si atom -5569.322596 kJ/mol
# Density = 1.837652 g / cm^3
# Si number density = 18.418445 Si / 1000 Ang^3
#
#
#
# Elastic Constant Matrix: (Units=GPa)
#
#
# Indices 1 2 3 4 5 6 
#
# 1 77.9659 21.7053 25.0911 0.0000 -47.5886 0.0000
# 2 21.7053 8.5545 17.9547 0.0000 -19.2493 0.0000
# 3 25.0911 17.9547 39.5869 0.0000 -12.0733 0.0000
# 4 0.0000 0.0000 0.0000 20.5092 0.0000 -8.0540
# 5 -47.5886 -19.2493 -12.0733 0.0000 22.7950 0.0000
# 6 0.0000 0.0000 0.0000 -8.0540 0.0000 22.1000
#
#
#
# Elastic Compliance Matrix: (Units=1/GPa)
#
#
# Indices 1 2 3 4 5 6 
#
# 1 0.069396 -0.134601 0.031704 0.000000 0.048005 0.000000
# 2 -0.134601 0.155969 -0.036923 0.000000 -0.168850 0.000000
# 3 0.031704 -0.036923 0.038868 0.000000 0.055594 0.000000
# 4 0.000000 0.000000 0.000000 0.056902 0.000000 0.020737
# 5 0.048005 -0.168850 0.055594 0.000000 0.030946 0.000000
# 6 0.000000 0.000000 0.000000 0.020737 0.000000 0.052806
#
#
# Mechanical properties :
#
#
# Convention : Reuss Voigt Hill
#
# Bulk Modulus (GPa) = -64.90598 28.40102 -18.25248
# Shear Modulus (GPa) = 7.35952 17.17125 12.26539
#
# Velocity S-wave (km/s) = 2.00110 3.05665 2.58336
# Velocity P-wave (km/s) = 5.47512 5.28307 1.01640
#
# Compressibility (1/GPa) = -0.01540690
#
# Stress axis : x y z
#
# Youngs Moduli (GPa) = 14.41000 6.41154 25.72817
#
# Poissons Ratio (x) = 0.86300 -0.81568
# Poissons Ratio (y) = 1.93959 0.94997
# Poissons Ratio (z) = -0.45685 0.23673
#
# Static dielectric constant tensor:
#      x y z
#    x 1.610040 0.000000 0.027300 
#    y 0.000000 1.616820 0.000000 
#    z 0.027300 0.000000 1.738000 
# 
# From -- ./inp_files/64347.got.cif
#   From: 2010.05.17/outbox.ucp.g08.bks.cvg/sg11_33_cif.got.tgz:64347.got - 2010.06.11 11:38:39.
