data_PCOD9167381
_publ_section_title
;
Structure prediction by ZEFSAII (Michael W. Deem and Ramdas Pophale) SiO2 
 PCOD9167381
Probable space group: P 21/M
;
_chemical_formula_sum "Si O2"
_cell_formula_units_Z 20
_cell_length_a 7.943838
_cell_length_b 7.630719
_cell_length_c 16.562108
_cell_angle_alpha 90.000000
_cell_angle_beta 47.297741
_cell_angle_gamma 90.000000
_cell_volume 737.789591
_symmetry_space_group_name_H-M "P 21/M"
_symmetry_group_IT_number 11
_symmetry_cell_setting 'monoclinic'
loop_
_space_group_symop_operation_xyz
x,y,z
-x,1/2+y,-z
-x,-y,-z
x,1/2-y,z
loop_
_atom_site_type_symbol
_atom_site_label
_atom_site_fract_x
_atom_site_fract_y
_atom_site_fract_z
Si Si1 0.326397 0.042499 0.368712
Si Si2 0.221847 0.041813 0.224434
Si Si3 0.761448 0.542452 0.432359
Si Si4 0.181829 0.038000 0.835966
Si Si5 0.690658 0.043745 0.018776
O O1 0.282382 0.250000 0.379919
O O2 0.265495 0.967115 0.300915
O O3 0.204739 0.967537 0.487705
O O4 0.601097 0.019410 0.286916
O O5 0.260272 0.250000 0.213081
O O6 0.428868 0.971004 0.100946
O O7 0.951410 0.014876 0.306574
O O8 0.500000 0.500000 0.500000
O O9 0.781064 0.750000 0.429384
O O10 0.173900 0.250000 0.836969
O O11 0.247926 0.976968 0.905343
O O12 0.923267 0.968968 0.902954
O O13 0.686810 0.250000 0.002773
#
# Coordination Sequence:
#
# PCOD9167381 Si02
#       5
#     4   4   4   4   4
#     4   9  19  34  51  73 102 132 161 200 249 292
#     4   9  17  32  53  75 101 130 160 198 243 291
#     4  11  23  37  52  71  97 130 167 206 249 295
#     4   9  15  24  44  73 101 129 161 196 235 285
#     4   8  15  27  43  69 104 133 156 192 243 288
#
# _framework density 27.107999
#
# number of rings (size 3 to 8) (size 9 to 14) (size 15 to 20)
#    0.000    2.800    0.000    3.000    0.000    5.600 
#    0.000    0.000    0.000    1.200    0.000    0.000 
#    0.000    0.000    0.000    0.000    0.000    0.000 
#
# Total GULP energy -111790.089208 kJ/mol
# GULP energy per Si atom -5589.504460 kJ/mol
# Density = 2.704630 g / cm^3
# Si number density = 27.107999 Si / 1000 Ang^3
#
#
#
# Elastic Constant Matrix: (Units=GPa)
#
#
# Indices 1 2 3 4 5 6 
#
# 1 80.9243 -1.2818 44.1557 0.0000 -33.1198 0.0000
# 2 -1.2818 95.2993 7.5249 0.0000 4.0852 0.0000
# 3 44.1557 7.5249 270.8090 0.0000 -19.2770 0.0000
# 4 0.0000 0.0000 0.0000 28.8465 0.0000 -8.1914
# 5 -33.1198 4.0852 -19.2770 0.0000 61.5932 0.0000
# 6 0.0000 0.0000 0.0000 -8.1914 0.0000 19.0257
#
#
#
# Elastic Compliance Matrix: (Units=1/GPa)
#
#
# Indices 1 2 3 4 5 6 
#
# 1 0.017006 0.000037 -0.002172 0.000000 0.008462 0.000000
# 2 0.000037 0.010556 -0.000356 0.000000 -0.000791 0.000000
# 3 -0.002172 -0.000356 0.004066 0.000000 0.000128 0.000000
# 4 0.000000 0.000000 0.000000 0.039495 0.000000 0.017004
# 5 0.008462 -0.000791 0.000128 0.000000 0.020879 0.000000
# 6 0.000000 0.000000 0.000000 0.017004 0.000000 0.059882
#
#
# Mechanical properties :
#
#
# Convention : Reuss Voigt Hill
#
# Bulk Modulus (GPa) = 37.52637 60.87001 49.19819
# Shear Modulus (GPa) = 30.16683 48.33534 39.25109
#
# Velocity S-wave (km/s) = 3.33954 4.22722 3.80932
# Velocity P-wave (km/s) = 5.36129 6.80656 6.12669
#
# Compressibility (1/GPa) = 0.02664793
#
# Stress axis : x y z
#
# Youngs Moduli (GPa) = 58.80254 94.73489 245.95817
#
# Poissons Ratio (x) = -0.00355 0.53410
# Poissons Ratio (y) = -0.00220 0.08750
# Poissons Ratio (z) = 0.12769 0.03370
#
# Static dielectric constant tensor:
#      x y z
#    x 2.296460 0.000000 -0.035890 
#    y 0.000000 1.959010 0.000000 
#    z -0.035890 0.000000 2.028000 
# 
# From -- ./inp_files/16012.got.cif
#   From: 2010.05.17/outbox.cif.g08.bks.cpg/sg11_9_cif.got.tgz:16012.got - 2010.06.03 12:22:45.
