data_PCOD9167529
_publ_section_title
;
Structure prediction by ZEFSAII (Michael W. Deem and Ramdas Pophale) SiO2 
 PCOD9167529
Probable space group: P 21/M
;
_chemical_formula_sum "Si O2"
_cell_formula_units_Z 22
_cell_length_a 13.901594
_cell_length_b 12.604568
_cell_length_c 6.576484
_cell_angle_alpha 90.000000
_cell_angle_beta 103.953841
_cell_angle_gamma 90.000000
_cell_volume 1118.349473
_symmetry_space_group_name_H-M "P 21/M"
_symmetry_group_IT_number 11
_symmetry_cell_setting 'monoclinic'
loop_
_space_group_symop_operation_xyz
x,y,z
-x,1/2+y,-z
-x,-y,-z
x,1/2-y,z
loop_
_atom_site_type_symbol
_atom_site_label
_atom_site_fract_x
_atom_site_fract_y
_atom_site_fract_z
Si Si1 0.425926 0.938367 0.812568
Si Si2 0.311628 0.444017 0.407407
Si Si3 0.112295 0.126552 0.532391
Si Si4 0.564058 0.750000 0.711443
Si Si5 0.730932 0.370719 0.934286
Si Si6 0.060016 0.956281 0.837969
O O1 0.484679 0.842814 0.739838
O O2 0.385071 0.019394 0.623951
O O3 0.334857 0.895070 0.900692
O O4 0.500000 0.000000 0.000000
O O5 0.206820 0.413936 0.454457
O O6 0.356875 0.343500 0.316612
O O7 0.297997 0.543267 0.249875
O O8 0.123949 0.250000 0.587711
O O9 0.015009 0.107412 0.345346
O O10 0.100408 0.055273 0.726878
O O11 0.712110 0.250000 0.857218
O O12 0.846165 0.387889 0.044890
O O13 0.000000 0.000000 0.000000
#
# Coordination Sequence:
#
# PCOD9167529 Si02
#       6
#     4   4   4   2   4   4
#     4  12  27  46  68 104 142 184 238 287 355 417
#     4  12  26  47  72 106 140 184 239 290 353 418
#     4  11  24  45  73 106 144 181 233 297 348 421
#     4  12  26  46  76 100 140 190 228 300 348 416
#     4  12  26  45  72 103 144 190 233 290 350 423
#     4  11  24  47  70 104 145 185 234 282 356 427
#
# _framework density 19.671847
#
# number of rings (size 3 to 8) (size 9 to 14) (size 15 to 20)
#    0.000    0.364    7.273    1.091    1.273    2.182 
#    4.909    0.000    0.000    0.000    0.000    0.000 
#    0.000    0.000    0.000    0.000    0.000    0.000 
#
# Total GULP energy -122571.005700 kJ/mol
# GULP energy per Si atom -5571.409350 kJ/mol
# Density = 1.962707 g / cm^3
# Si number density = 19.671847 Si / 1000 Ang^3
#
#
#
# Elastic Constant Matrix: (Units=GPa)
#
#
# Indices 1 2 3 4 5 6 
#
# 1 126.6031 37.8035 20.4933 0.0000 -21.6771 0.0000
# 2 37.8035 157.5725 23.3154 0.0000 -0.0460 0.0000
# 3 20.4933 23.3154 45.9152 0.0000 5.8943 0.0000
# 4 0.0000 0.0000 0.0000 -5.1165 0.0000 4.0366
# 5 -21.6771 -0.0460 5.8943 0.0000 46.4270 0.0000
# 6 0.0000 0.0000 0.0000 4.0366 0.0000 35.6838
#
#
#
# Elastic Compliance Matrix: (Units=1/GPa)
#
#
# Indices 1 2 3 4 5 6 
#
# 1 0.010005 -0.001772 -0.004234 0.000000 0.005207 0.000000
# 2 -0.001772 0.007185 -0.002798 0.000000 -0.000465 0.000000
# 3 -0.004234 -0.002798 0.025764 0.000000 -0.005251 0.000000
# 4 0.000000 0.000000 0.000000 -0.179434 0.000000 0.020298
# 5 0.005207 -0.000465 -0.005251 0.000000 0.024637 0.000000
# 6 0.000000 0.000000 0.000000 0.020298 0.000000 0.025728
#
#
# Mechanical properties :
#
#
# Convention : Reuss Voigt Hill
#
# Bulk Modulus (GPa) = 39.45447 54.81281 47.13364
# Shear Modulus (GPa) = -83.25221 31.96411 -25.64405
#
# Velocity S-wave (km/s) = -6.51248 4.03534 -3.61445
# Velocity P-wave (km/s) = 6.03738 7.04528 2.56769
#
# Compressibility (1/GPa) = 0.02534567
#
# Stress axis : x y z
#
# Youngs Moduli (GPa) = 99.95188 139.17230 38.81408
#
# Poissons Ratio (x) = 0.24665 0.16434
# Poissons Ratio (y) = 0.17714 0.10860
# Poissons Ratio (z) = 0.42319 0.38940
#
# Static dielectric constant tensor:
#      x y z
#    x 1.672150 0.000000 0.007090 
#    y 0.000000 1.657360 0.000000 
#    z 0.007090 0.000000 1.690750 
# 
# From -- ./inp_files/6240.got.cif
#   From: 2010.05.17/outbox.cif.g08.bks.cpg/sg11_4_cif.got.tgz:6240.got - 2010.06.03 12:22:45.
