data_PCOD9167405
_publ_section_title
;
Structure prediction by ZEFSAII (Michael W. Deem and Ramdas Pophale) SiO2 
 PCOD9167405
Probable space group: P 21/M
;
_chemical_formula_sum "Si O2"
_cell_formula_units_Z 28
_cell_length_a 26.050863
_cell_length_b 8.512220
_cell_length_c 9.232683
_cell_angle_alpha 90.000000
_cell_angle_beta 44.722723
_cell_angle_gamma 90.000000
_cell_volume 1440.674781
_symmetry_space_group_name_H-M "P 21/M"
_symmetry_group_IT_number 11
_symmetry_cell_setting 'monoclinic'
loop_
_space_group_symop_operation_xyz
x,y,z
-x,1/2+y,-z
-x,-y,-z
x,1/2-y,z
loop_
_atom_site_type_symbol
_atom_site_label
_atom_site_fract_x
_atom_site_fract_y
_atom_site_fract_z
Si Si1 0.861081 0.063392 0.948798
Si Si2 0.278679 0.060806 0.603118
Si Si3 0.584027 0.060459 0.173549
Si Si4 0.725816 0.439188 0.713225
Si Si5 0.862464 0.563229 0.621453
Si Si6 0.001453 0.936857 0.833631
Si Si7 0.419684 0.060509 0.495275
O O1 0.867767 0.250000 0.952565
O O2 0.865765 0.017971 0.771206
O O3 0.926279 0.980842 0.905228
O O4 0.784683 0.005715 0.167696
O O5 0.275102 0.250000 0.610893
O O6 0.357196 0.010328 0.509496
O O7 0.268011 0.999018 0.462597
O O8 0.584171 0.250000 0.177554
O O9 0.502299 0.008331 0.293675
O O10 0.597560 0.999476 0.308778
O O11 0.648378 0.010839 0.937674
O O12 0.730097 0.250000 0.706797
O O13 0.790742 0.507608 0.679961
O O14 0.860970 0.750000 0.644293
O O15 0.932490 0.514797 0.386949
O O16 0.011450 0.750000 0.814736
O O17 0.000000 0.000000 0.000000
O O18 0.419519 0.250000 0.499035
#
# Coordination Sequence:
#
# PCOD9167405 Si02
#       7
#     4   4   4   4   4   4   4
#     4  12  25  43  65  91 122 158 200 245 295 351
#     4  11  23  39  59  86 120 158 200 247 300 355
#     4   9  19  36  58  84 115 152 196 245 297 354
#     4  11  23  39  59  86 120 158 200 247 300 355
#     4  12  25  43  65  91 122 158 200 245 295 351
#     4  12  25  44  67  94 126 160 198 242 295 350
#     4   9  19  36  58  84 115 152 196 245 297 354
#
# _framework density 19.435338000000002
#
# number of rings (size 3 to 8) (size 9 to 14) (size 15 to 20)
#    0.000    1.143    0.000    6.857    0.000    5.143 
#    0.000    0.000    0.000    0.000    0.000    0.000 
#    0.000    0.000    0.000    0.000    0.000    0.000 
#
# Total GULP energy -156651.441254 kJ/mol
# GULP energy per Si atom -5594.694330 kJ/mol
# Density = 1.939110 g / cm^3
# Si number density = 19.435338 Si / 1000 Ang^3
#
#
#
# Elastic Constant Matrix: (Units=GPa)
#
#
# Indices 1 2 3 4 5 6 
#
# 1 114.7307 -14.8809 0.2388 0.0000 -3.2047 0.0000
# 2 -14.8809 37.7834 -39.3675 0.0000 -9.1437 0.0000
# 3 0.2388 -39.3675 138.8645 0.0000 11.3565 0.0000
# 4 0.0000 0.0000 0.0000 7.1480 0.0000 53.2408
# 5 -3.2047 -9.1437 11.3565 0.0000 29.4054 0.0000
# 6 0.0000 0.0000 0.0000 53.2408 0.0000 -54.6400
#
#
#
# Elastic Compliance Matrix: (Units=1/GPa)
#
#
# Indices 1 2 3 4 5 6 
#
# 1 0.009531 0.005812 0.001444 0.000000 0.002288 0.000000
# 2 0.005812 0.042929 0.011376 0.000000 0.009589 0.000000
# 3 0.001444 0.011376 0.010452 0.000000 -0.000342 0.000000
# 4 0.000000 0.000000 0.000000 0.016942 0.000000 0.016508
# 5 0.002288 0.009589 -0.000342 0.000000 0.037370 0.000000
# 6 0.000000 0.000000 0.000000 0.016508 0.000000 -0.002216
#
#
# Mechanical properties :
#
#
# Convention : Reuss Voigt Hill
#
# Bulk Modulus (GPa) = 9.98230 20.37325 15.17778
# Shear Modulus (GPa) = 44.99021 19.40855 32.19938
#
# Velocity S-wave (km/s) = 4.81653 3.16353 4.07473
# Velocity P-wave (km/s) = 6.00660 4.88356 5.47396
#
# Compressibility (1/GPa) = 0.10017728
#
# Stress axis : x y z
#
# Youngs Moduli (GPa) = 104.92253 23.29404 95.67718
#
# Poissons Ratio (x) = -0.13539 -0.13818
# Poissons Ratio (y) = -0.60984 -1.08844
# Poissons Ratio (z) = -0.15153 -0.26500
#
# Static dielectric constant tensor:
#      x y z
#    x 1.650660 0.000000 -0.023770 
#    y 0.000000 1.654170 0.000000 
#    z -0.023770 0.000000 1.650560 
# 
# From -- ./inp_files/28420.got.cif
#   From: 2010.05.17/outbox.cif.g08.bks.cpg/sg11_15_cif.got.tgz:28420.got - 2010.06.03 12:22:45.
