data_PCOD9167094
_publ_section_title
;
Structure prediction by ZEFSAII (Michael W. Deem and Ramdas Pophale) SiO2 
 PCOD9167094
Probable space group: P 21/M
;
_chemical_formula_sum "Si O2"
_cell_formula_units_Z 32
_cell_length_a 23.339357
_cell_length_b 8.922444
_cell_length_c 18.634452
_cell_angle_alpha 90.000000
_cell_angle_beta 155.416402
_cell_angle_gamma 90.000000
_cell_volume 1614.373663
_symmetry_space_group_name_H-M "P 21/M"
_symmetry_group_IT_number 11
_symmetry_cell_setting 'monoclinic'
loop_
_space_group_symop_operation_xyz
x,y,z
-x,1/2+y,-z
-x,-y,-z
x,1/2-y,z
loop_
_atom_site_type_symbol
_atom_site_label
_atom_site_fract_x
_atom_site_fract_y
_atom_site_fract_z
Si Si1 0.636496 0.422109 0.184670
Si Si2 0.063804 0.068084 0.289651
Si Si3 0.240910 0.925688 0.053697
Si Si4 0.082716 0.430964 0.479032
Si Si5 0.497593 0.927799 0.575601
Si Si6 0.777477 0.425186 0.140901
Si Si7 0.499535 0.078265 0.178220
Si Si8 0.669493 0.928922 0.493555
O O1 0.639203 0.250000 0.164867
O O2 0.781206 0.499285 0.331703
O O3 0.609801 0.427152 0.239923
O O4 0.500000 0.500000 0.000000
O O5 0.065774 0.250000 0.292525
O O6 0.084909 0.024526 0.396899
O O7 0.186371 0.019296 0.377257
O O8 0.910001 0.024671 0.091291
O O9 0.264006 0.750000 0.098134
O O10 0.230992 0.933564 0.955897
O O11 0.363412 0.022266 0.225024
O O12 0.089412 0.250000 0.490148
O O13 0.932037 0.476121 0.336700
O O14 0.488752 0.750000 0.560929
O O15 0.500000 0.000000 0.500000
O O16 0.372643 0.992411 0.480958
O O17 0.761791 0.250000 0.142332
O O18 0.647764 0.521250 0.018253
O O19 0.486960 0.250000 0.189114
O O20 0.553636 0.972972 0.303093
O O21 0.671049 0.750000 0.504373
#
# Coordination Sequence:
#
# PCOD9167094 Si02
#       8
#     4   4   4   4   4   4   4   4
#     4  11  24  39  56  81 114 153 191 234 283 337
#     4   8  16  31  57  87 113 143 182 228 277 330
#     4   9  17  34  57  84 114 146 185 228 275 331
#     4   9  17  34  57  84 113 146 186 229 277 334
#     4  12  25  40  57  82 115 153 191 232 280 332
#     4   9  18  32  57  86 113 146 185 227 278 333
#     4  11  22  35  54  85 117 144 186 237 279 325
#     4  11  20  35  60  87 113 147 187 228 278 335
#
# _framework density 19.821929999999998
#
# number of rings (size 3 to 8) (size 9 to 14) (size 15 to 20)
#    0.000    2.000    2.500    3.750    0.000    2.000 
#    0.000    4.375    0.000    0.000    0.000    0.000 
#    0.000    0.000    0.000    0.000    0.000    0.000 
#
# Total GULP energy -178710.172519 kJ/mol
# GULP energy per Si atom -5584.692891 kJ/mol
# Density = 1.977681 g / cm^3
# Si number density = 19.821930 Si / 1000 Ang^3
#
#
#
# Elastic Constant Matrix: (Units=GPa)
#
#
# Indices 1 2 3 4 5 6 
#
# 1 85.4188 19.5874 28.7925 0.0000 18.2328 0.0000
# 2 19.5874 71.6794 23.8639 0.0000 10.3594 0.0000
# 3 28.7925 23.8639 76.4706 0.0000 32.2928 0.0000
# 4 0.0000 0.0000 0.0000 26.6206 0.0000 3.3254
# 5 18.2328 10.3594 32.2928 0.0000 40.0490 0.0000
# 6 0.0000 0.0000 0.0000 3.3254 0.0000 19.5407
#
#
#
# Elastic Compliance Matrix: (Units=1/GPa)
#
#
# Indices 1 2 3 4 5 6 
#
# 1 0.013995 -0.002296 -0.003204 0.000000 -0.003194 0.000000
# 2 -0.002296 0.015946 -0.004263 0.000000 0.000358 0.000000
# 3 -0.003204 -0.004263 0.022035 0.000000 -0.015206 0.000000
# 4 0.000000 0.000000 0.000000 0.038381 0.000000 -0.006531
# 5 -0.003194 0.000358 -0.015206 0.000000 0.038592 0.000000
# 6 0.000000 0.000000 0.000000 -0.006531 0.000000 0.052287
#
#
# Mechanical properties :
#
#
# Convention : Reuss Voigt Hill
#
# Bulk Modulus (GPa) = 30.81642 42.00628 36.41135
# Shear Modulus (GPa) = 23.63186 27.99705 25.81446
#
# Velocity S-wave (km/s) = 3.45658 3.76231 3.61268
# Velocity P-wave (km/s) = 5.61347 6.33333 5.98423
#
# Compressibility (1/GPa) = 0.03245023
#
# Stress axis : x y z
#
# Youngs Moduli (GPa) = 71.45229 62.71201 45.38237
#
# Poissons Ratio (x) = 0.14399 0.14541
# Poissons Ratio (y) = 0.16406 0.19345
# Poissons Ratio (z) = 0.22894 0.26733
#
# Static dielectric constant tensor:
#      x y z
#    x 1.734400 0.000000 0.015580 
#    y 0.000000 1.666500 0.000000 
#    z 0.015580 0.000000 1.704970 
# 
# From -- ./inp_files/67277.got.cif
#   From: 2010.05.17/outbox.cif.g08.bks.cpg/sg11_34_cif.got.tgz:67277.got - 2010.06.03 12:22:45.
