data_PCOD9167562
_publ_section_title
;
Structure prediction by ZEFSAII (Michael W. Deem and Ramdas Pophale) SiO2 
 PCOD9167562
Probable space group: P 21/M
;
_chemical_formula_sum "Si O2"
_cell_formula_units_Z 18
_cell_length_a 11.455678
_cell_length_b 10.741552
_cell_length_c 4.991176
_cell_angle_alpha 90.000000
_cell_angle_beta 100.443950
_cell_angle_gamma 90.000000
_cell_volume 603.997814
_symmetry_space_group_name_H-M "P 21/M"
_symmetry_group_IT_number 11
_symmetry_cell_setting 'monoclinic'
loop_
_space_group_symop_operation_xyz
x,y,z
-x,1/2+y,-z
-x,-y,-z
x,1/2-y,z
loop_
_atom_site_type_symbol
_atom_site_label
_atom_site_fract_x
_atom_site_fract_y
_atom_site_fract_z
Si Si1 0.458925 0.750000 0.597060
Si Si2 0.697215 0.470363 0.239793
Si Si3 0.346219 0.250000 0.676782
Si Si4 0.149505 0.250000 0.940620
Si Si5 0.058985 0.750000 0.456735
Si Si6 0.909628 0.949744 0.729217
Si Si7 0.733127 0.250000 0.857210
O O1 0.404677 0.875925 0.694414
O O2 0.596964 0.750000 0.592072
O O3 0.405288 0.750000 0.273470
O O4 0.634573 0.608402 0.193664
O O5 0.808576 0.492018 0.489913
O O6 0.751465 0.378157 0.028564
O O7 0.205650 0.250000 0.674643
O O8 0.177392 0.369847 0.117939
O O9 0.008515 0.250000 0.855344
O O10 0.999697 0.632128 0.581322
O O11 0.191531 0.750000 0.389791
O O12 0.000000 0.000000 0.000000
#
# Coordination Sequence:
#
# PCOD9167562 Si02
#       7
#     2   4   2   2   2   4   2
#     4  11  29  51  85 121 162 221 284 367 429 504
#     4  11  27  56  82 124 170 218 290 355 431 511
#     4  12  25  56  85 115 165 222 294 354 425 507
#     4  11  26  46  74 119 159 218 278 341 423 494
#     4  11  26  52  76 119 174 228 275 349 429 522
#     4  11  27  50  79 121 171 225 274 343 429 517
#     4  11  30  53  80 128 170 223 287 353 436 503
#
# _framework density 29.801437
#
# number of rings (size 3 to 8) (size 9 to 14) (size 15 to 20)
#    0.000    0.889    2.222    1.333    6.222   10.667 
#    8.000    0.000    0.000    1.333    0.000    0.000 
#    0.000    0.000    0.000    0.000    0.000    0.000 
#
# Total GULP energy -100278.213190 kJ/mol
# GULP energy per Si atom -5571.011844 kJ/mol
# Density = 2.973361 g / cm^3
# Si number density = 29.801437 Si / 1000 Ang^3
#
#
#
# Elastic Constant Matrix: (Units=GPa)
#
#
# Indices 1 2 3 4 5 6 
#
# 1 174.3351 69.5610 48.4123 0.0000 -24.8790 0.0000
# 2 69.5610 310.5239 70.3262 0.0000 -20.9594 0.0000
# 3 48.4123 70.3262 152.6854 0.0000 5.9426 0.0000
# 4 0.0000 0.0000 0.0000 67.8571 0.0000 -11.4573
# 5 -24.8790 -20.9594 5.9426 0.0000 65.8271 0.0000
# 6 0.0000 0.0000 0.0000 -11.4573 0.0000 34.4187
#
#
#
# Elastic Compliance Matrix: (Units=1/GPa)
#
#
# Indices 1 2 3 4 5 6 
#
# 1 0.007002 -0.000976 -0.001868 0.000000 0.002504 0.000000
# 2 -0.000976 0.003846 -0.001500 0.000000 0.000991 0.000000
# 3 -0.001868 -0.001500 0.007907 0.000000 -0.001897 0.000000
# 4 0.000000 0.000000 0.000000 0.015614 0.000000 0.005198
# 5 0.002504 0.000991 -0.001897 0.000000 0.016624 0.000000
# 6 0.000000 0.000000 0.000000 0.005198 0.000000 0.030784
#
#
# Mechanical properties :
#
#
# Convention : Reuss Voigt Hill
#
# Bulk Modulus (GPa) = 99.35460 112.68258 106.01859
# Shear Modulus (GPa) = 53.29291 63.57024 58.43157
#
# Velocity S-wave (km/s) = 4.23338 4.62359 4.43278
# Velocity P-wave (km/s) = 7.57011 8.14841 7.86458
#
# Compressibility (1/GPa) = 0.01006496
#
# Stress axis : x y z
#
# Youngs Moduli (GPa) = 142.82256 260.02634 126.47818
#
# Poissons Ratio (x) = 0.25390 0.23623
# Poissons Ratio (y) = 0.13946 0.18976
# Poissons Ratio (z) = 0.26676 0.39012
#
# Static dielectric constant tensor:
#      x y z
#    x 2.195490 0.000000 -0.037440 
#    y 0.000000 2.667840 0.000000 
#    z -0.037440 0.000000 2.324960 
# 
# From -- ./inp_files/4018.got.cif
#   From: 2010.05.17/outbox.cif.g08.bks.cpg/sg11_3_cif.got.tgz:4018.got - 2010.06.03 12:22:45.
