data_PCOD9167585
_publ_section_title
;
Structure prediction by ZEFSAII (Michael W. Deem and Ramdas Pophale) SiO2 
 PCOD9167585
Probable space group: P 21/M
;
_chemical_formula_sum "Si O2"
_cell_formula_units_Z 24
_cell_length_a 10.381153
_cell_length_b 8.818185
_cell_length_c 32.260027
_cell_angle_alpha 90.000000
_cell_angle_beta 152.493245
_cell_angle_gamma 90.000000
_cell_volume 1363.934353
_symmetry_space_group_name_H-M "P 21/M"
_symmetry_group_IT_number 11
_symmetry_cell_setting 'monoclinic'
loop_
_space_group_symop_operation_xyz
x,y,z
-x,1/2+y,-z
-x,-y,-z
x,1/2-y,z
loop_
_atom_site_type_symbol
_atom_site_label
_atom_site_fract_x
_atom_site_fract_y
_atom_site_fract_z
Si Si1 0.146391 0.069347 0.225087
Si Si2 0.761017 0.569691 0.049781
Si Si3 0.709613 0.432602 0.431910
Si Si4 0.409153 0.433127 0.430348
Si Si5 0.837103 0.069137 0.223867
Si Si6 0.250357 0.930636 0.044989
O O1 0.136914 0.250000 0.213464
O O2 0.456754 0.028321 0.328540
O O3 0.949396 0.043658 0.209047
O O4 0.030478 0.976376 0.153529
O O5 0.730464 0.750000 0.038054
O O6 0.500000 0.500000 0.000000
O O7 0.768918 0.497499 0.006751
O O8 0.727241 0.250000 0.437532
O O9 0.609726 0.480978 0.449426
O O10 0.000000 0.500000 0.500000
O O11 0.500000 0.500000 0.500000
O O12 0.417277 0.250000 0.434353
O O13 0.093242 0.474927 0.326876
O O14 0.789947 0.250000 0.214635
O O15 0.550533 0.981759 0.148389
O O16 0.231666 0.750000 0.038697
O O17 0.000000 0.000000 0.000000
#
# Coordination Sequence:
#
# PCOD9167585 Si02
#       6
#     4   4   4   4   4   4
#     4   9  18  35  59  84 112 149 194 238 282 333
#     4  12  23  37  60  89 117 149 192 238 282 338
#     4   9  19  36  57  83 115 150 186 233 286 335
#     4   9  19  36  58  84 112 148 190 234 281 336
#     4   9  18  36  60  82 111 150 193 238 284 335
#     4  12  25  41  60  85 117 153 191 236 290 343
#
# _framework density 17.596153999999999
#
# number of rings (size 3 to 8) (size 9 to 14) (size 15 to 20)
#    0.000    2.000    1.667    5.000    0.000    2.000 
#    3.000    3.333    0.000    0.000    0.000    0.000 
#    0.000    0.000    0.000    0.000    0.000    0.000 
#
# Total GULP energy -134004.846725 kJ/mol
# GULP energy per Si atom -5583.535280 kJ/mol
# Density = 1.755610 g / cm^3
# Si number density = 17.596154 Si / 1000 Ang^3
#
#
#
# Elastic Constant Matrix: (Units=GPa)
#
#
# Indices 1 2 3 4 5 6 
#
# 1 129.4577 62.6455 98.9161 0.0000 3.7969 0.0000
# 2 62.6455 92.0889 70.4248 0.0000 5.2532 0.0000
# 3 98.9161 70.4248 153.6971 0.0000 5.5171 0.0000
# 4 0.0000 0.0000 0.0000 37.3859 0.0000 -0.0551
# 5 3.7969 5.2532 5.5171 0.0000 36.4821 0.0000
# 6 0.0000 0.0000 0.0000 -0.0551 0.0000 31.0902
#
#
#
# Elastic Compliance Matrix: (Units=1/GPa)
#
#
# Indices 1 2 3 4 5 6 
#
# 1 0.016454 -0.004776 -0.008410 0.000000 0.000247 0.000000
# 2 -0.004776 0.018160 -0.005200 0.000000 -0.001332 0.000000
# 3 -0.008410 -0.005200 0.014321 0.000000 -0.000542 0.000000
# 4 0.000000 0.000000 0.000000 0.026748 0.000000 0.000047
# 5 0.000247 -0.001332 -0.000542 0.000000 0.027659 0.000000
# 6 0.000000 0.000000 0.000000 0.000047 0.000000 0.032165
#
#
# Mechanical properties :
#
#
# Convention : Reuss Voigt Hill
#
# Bulk Modulus (GPa) = 82.20934 93.24628 87.72781
# Shear Modulus (GPa) = 28.35532 30.54213 29.44873
#
# Velocity S-wave (km/s) = 4.01864 4.17073 4.09539
# Velocity P-wave (km/s) = 8.26766 8.73503 8.50455
#
# Compressibility (1/GPa) = 0.01216407
#
# Stress axis : x y z
#
# Youngs Moduli (GPa) = 60.77365 55.06481 69.82761
#
# Poissons Ratio (x) = 0.26298 0.58727
# Poissons Ratio (y) = 0.29025 0.36309
# Poissons Ratio (z) = 0.51112 0.28632
#
# Static dielectric constant tensor:
#      x y z
#    x 1.567400 0.000000 -0.003360 
#    y 0.000000 1.586940 0.000000 
#    z -0.003360 0.000000 1.606710 
# 
# From -- ./inp_files/28929.got.cif
#   From: 2010.05.17/outbox.cif.g08.bks.cpg/sg11_15_cif.got.tgz:28929.got - 2010.06.03 12:22:45.
