data_PCOD9167544
_publ_section_title
;
Structure prediction by ZEFSAII (Michael W. Deem and Ramdas Pophale) SiO2 
 PCOD9167544
Probable space group: P 21/M
;
_chemical_formula_sum "Si O2"
_cell_formula_units_Z 28
_cell_length_a 5.046150
_cell_length_b 30.644029
_cell_length_c 7.658466
_cell_angle_alpha 90.000000
_cell_angle_beta 61.442480
_cell_angle_gamma 90.000000
_cell_volume 1040.181931
_symmetry_space_group_name_H-M "P 21/M"
_symmetry_group_IT_number 11
_symmetry_cell_setting 'monoclinic'
loop_
_space_group_symop_operation_xyz
x,y,z
-x,1/2+y,-z
-x,-y,-z
x,1/2-y,z
loop_
_atom_site_type_symbol
_atom_site_label
_atom_site_fract_x
_atom_site_fract_y
_atom_site_fract_z
Si Si1 0.652891 0.046672 0.999622
Si Si2 0.139057 0.698713 0.920783
Si Si3 0.628391 0.858550 0.945868
Si Si4 0.093670 0.073596 0.545265
Si Si5 0.289155 0.959810 0.622223
Si Si6 0.801273 0.702968 0.401711
Si Si7 0.712241 0.344478 0.579836
O O1 0.437465 0.090242 0.076765
O O2 0.791352 0.040590 0.149382
O O3 0.906897 0.059034 0.776012
O O4 0.500000 0.000000 0.000000
O O5 0.148947 0.750000 0.862711
O O6 0.958855 0.662752 0.861800
O O7 0.448134 0.675479 0.881486
O O8 0.952398 0.700451 0.162502
O O9 0.479088 0.855028 0.184847
O O10 0.990556 0.041972 0.419556
O O11 0.956687 0.117308 0.507180
O O12 0.445599 0.076437 0.479976
O O13 0.500000 0.000000 0.500000
O O14 0.665433 0.750000 0.468139
O O15 0.532438 0.668632 0.483989
O O16 0.075603 0.696532 0.445986
#
# Coordination Sequence:
#
# PCOD9167544 Si02
#       7
#     4   4   4   4   4   4   4
#     4  11  25  45  70  99 140 185 221 285 336 392
#     4   9  16  30  52  82 123 160 205 273 325 382
#     4   9  19  33  52  89 120 163 219 257 324 402
#     4  11  25  45  66  96 133 173 227 279 327 396
#     4  12  26  45  68  98 129 177 233 269 334 401
#     4   9  15  25  47  82 118 155 203 256 318 390
#     4   9  17  31  51  78 120 162 201 263 322 373
#
# _framework density 26.918368000000001
#
# number of rings (size 3 to 8) (size 9 to 14) (size 15 to 20)
#    0.000    2.000    1.429    2.143    0.000    9.714 
#    0.000    0.000    0.000    0.000    0.000   20.000 
#    0.000    0.000    0.000    0.000    0.000    0.286 
#
# Total GULP energy -156644.526132 kJ/mol
# GULP energy per Si atom -5594.447362 kJ/mol
# Density = 2.685710 g / cm^3
# Si number density = 26.918368 Si / 1000 Ang^3
#
#
#
# Elastic Constant Matrix: (Units=GPa)
#
#
# Indices 1 2 3 4 5 6 
#
# 1 84.4154 10.7258 -5.6406 0.0000 -14.0736 0.0000
# 2 10.7258 153.1770 -3.5511 0.0000 -5.2416 0.0000
# 3 -5.6406 -3.5511 130.4452 0.0000 3.1418 0.0000
# 4 0.0000 0.0000 0.0000 11.4885 0.0000 -0.6983
# 5 -14.0736 -5.2416 3.1418 0.0000 40.3939 0.0000
# 6 0.0000 0.0000 0.0000 -0.6983 0.0000 31.1703
#
#
#
# Elastic Compliance Matrix: (Units=1/GPa)
#
#
# Indices 1 2 3 4 5 6 
#
# 1 0.012683 -0.000731 0.000425 0.000000 0.004291 0.000000
# 2 -0.000731 0.006603 0.000134 0.000000 0.000592 0.000000
# 3 0.000425 0.000134 0.007699 0.000000 -0.000433 0.000000
# 4 0.000000 0.000000 0.000000 0.087162 0.000000 0.001953
# 5 0.004291 0.000592 -0.000433 0.000000 0.026362 0.000000
# 6 0.000000 0.000000 0.000000 0.001953 0.000000 0.032126
#
#
# Mechanical properties :
#
#
# Convention : Reuss Voigt Hill
#
# Bulk Modulus (GPa) = 37.53802 41.23396 39.38599
# Shear Modulus (GPa) = 27.49392 41.04411 34.26901
#
# Velocity S-wave (km/s) = 3.19937 3.90906 3.57188
# Velocity P-wave (km/s) = 5.25580 5.97710 5.62801
#
# Compressibility (1/GPa) = 0.02663966
#
# Stress axis : x y z
#
# Youngs Moduli (GPa) = 78.84641 151.44730 129.89508
#
# Poissons Ratio (x) = 0.11077 -0.05523
# Poissons Ratio (y) = 0.05767 -0.01739
# Poissons Ratio (z) = -0.03352 -0.02028
#
# Static dielectric constant tensor:
#      x y z
#    x 2.021700 0.000000 -0.009300 
#    y 0.000000 2.001960 0.000000 
#    z -0.009300 0.000000 2.159800 
# 
# From -- ./inp_files/10795.got.cif
#   From: 2010.05.17/outbox.cif.g08.bks.cpg/sg11_6_cif.got.tgz:10795.got - 2010.06.03 12:22:45.
