data_PCOD9167189
_publ_section_title
;
Structure prediction by ZEFSAII (Michael W. Deem and Ramdas Pophale) SiO2 
 PCOD9167189
Probable space group: P 21/M
;
_chemical_formula_sum "Si O2"
_cell_formula_units_Z 24
_cell_length_a 15.260856
_cell_length_b 7.814780
_cell_length_c 14.568647
_cell_angle_alpha 90.000000
_cell_angle_beta 140.897567
_cell_angle_gamma 90.000000
_cell_volume 1095.831385
_symmetry_space_group_name_H-M "P 21/M"
_symmetry_group_IT_number 11
_symmetry_cell_setting 'monoclinic'
loop_
_space_group_symop_operation_xyz
x,y,z
-x,1/2+y,-z
-x,-y,-z
x,1/2-y,z
loop_
_atom_site_type_symbol
_atom_site_label
_atom_site_fract_x
_atom_site_fract_y
_atom_site_fract_z
Si Si1 0.726911 0.448121 0.617640
Si Si2 0.953558 0.959349 0.120507
Si Si3 0.453523 0.053721 0.696789
Si Si4 0.785380 0.957048 0.370157
Si Si5 0.711163 0.947742 0.800009
Si Si6 0.075661 0.455431 0.699916
O O1 0.728010 0.250000 0.588857
O O2 0.643355 0.547290 0.472580
O O3 0.665927 0.460036 0.670261
O O4 0.885902 0.509007 0.756305
O O5 0.948858 0.750000 0.114328
O O6 0.900822 0.016915 0.177785
O O7 0.853209 0.020125 0.958213
O O8 0.489039 0.250000 0.746470
O O9 0.357043 0.981364 0.699671
O O10 0.593576 0.959730 0.782062
O O11 0.778591 0.750000 0.363319
O O12 0.823701 0.019709 0.299210
O O13 0.918057 0.004185 0.540677
O O14 0.730456 0.750000 0.790844
O O15 0.088211 0.250000 0.711643
#
# Coordination Sequence:
#
# PCOD9167189 Si02
#       6
#     4   4   4   4   4   4
#     4  11  21  37  59  82 104 138 182 226 270 316
#     4   9  19  35  57  82 108 139 178 218 267 321
#     4  11  22  37  54  80 112 144 179 219 265 316
#     4   9  18  31  53  82 109 136 172 218 265 309
#     4  11  23  38  54  77 109 146 181 220 267 318
#     4   9  16  32  56  81 107 136 172 217 264 316
#
# _framework density 21.901177000000001
#
# number of rings (size 3 to 8) (size 9 to 14) (size 15 to 20)
#    0.000    2.000    1.667    2.500    0.000    0.667 
#    0.000    5.000    0.000    0.000    0.000    0.000 
#    0.000    0.000    0.000    0.000    0.000    0.000 
#
# Total GULP energy -134075.757825 kJ/mol
# GULP energy per Si atom -5586.489909 kJ/mol
# Density = 2.185133 g / cm^3
# Si number density = 21.901177 Si / 1000 Ang^3
#
#
#
# Elastic Constant Matrix: (Units=GPa)
#
#
# Indices 1 2 3 4 5 6 
#
# 1 96.3083 -3.2062 -3.7462 0.0000 1.9844 0.0000
# 2 -3.2062 38.6259 -2.9720 0.0000 -0.5619 0.0000
# 3 -3.7462 -2.9720 35.3245 0.0000 5.4817 0.0000
# 4 0.0000 0.0000 0.0000 9.5339 0.0000 1.1713
# 5 1.9844 -0.5619 5.4817 0.0000 29.5612 0.0000
# 6 0.0000 0.0000 0.0000 1.1713 0.0000 14.3411
#
#
#
# Elastic Compliance Matrix: (Units=1/GPa)
#
#
# Indices 1 2 3 4 5 6 
#
# 1 0.010487 0.000960 0.001338 0.000000 -0.000934 0.000000
# 2 0.000960 0.026146 0.002301 0.000000 0.000006 0.000000
# 3 0.001338 0.002301 0.029500 0.000000 -0.005516 0.000000
# 4 0.000000 0.000000 0.000000 0.105952 0.000000 -0.008654
# 5 -0.000934 0.000006 -0.005516 0.000000 0.034914 0.000000
# 6 0.000000 0.000000 0.000000 -0.008654 0.000000 0.070437
#
#
# Mechanical properties :
#
#
# Convention : Reuss Voigt Hill
#
# Bulk Modulus (GPa) = 13.27501 16.71222 14.99361
# Shear Modulus (GPa) = 17.04454 22.69944 19.87199
#
# Velocity S-wave (km/s) = 2.79274 3.22288 3.01549
# Velocity P-wave (km/s) = 4.05877 4.63644 4.35719
#
# Compressibility (1/GPa) = 0.07532952
#
# Stress axis : x y z
#
# Youngs Moduli (GPa) = 95.36026 38.24653 33.89781
#
# Poissons Ratio (x) = -0.03671 -0.04535
# Poissons Ratio (y) = -0.09153 -0.07799
# Poissons Ratio (z) = -0.12757 -0.08799
#
# Static dielectric constant tensor:
#      x y z
#    x 1.844790 0.000000 0.006560 
#    y 0.000000 1.814650 0.000000 
#    z 0.006560 0.000000 1.757620 
# 
# From -- ./inp_files/20407.got.cif
#   From: 2010.05.17/outbox.cif.g08.bks.cpg/sg11_11_cif.got.tgz:20407.got - 2010.06.03 12:22:45.
