data_PCOD9167711
_publ_section_title
;
Structure prediction by ZEFSAII (Michael W. Deem and Ramdas Pophale) SiO2 
 PCOD9167711
Probable space group: P 21/M
;
_chemical_formula_sum "Si O2"
_cell_formula_units_Z 32
_cell_length_a 12.000000
_cell_length_b 9.000000
_cell_length_c 21.000000
_cell_angle_alpha 90.000000
_cell_angle_beta 130.000000
_cell_angle_gamma 90.000000
_cell_volume 1737.388797
_symmetry_space_group_name_H-M "P 21/M"
_symmetry_group_IT_number 11
_symmetry_cell_setting 'monoclinic'
loop_
_space_group_symop_operation_xyz
x,y,z
-x,1/2+y,-z
-x,-y,-z
x,1/2-y,z
loop_
_atom_site_type_symbol
_atom_site_label
_atom_site_fract_x
_atom_site_fract_y
_atom_site_fract_z
Si Si1 0.135357 0.927377 0.962041
Si Si2 0.785323 0.928580 0.281968
Si Si3 0.084906 0.074275 0.434949
Si Si4 0.856417 0.571701 0.170294
Si Si5 0.687273 0.571138 0.378485
Si Si6 0.396643 0.072120 0.307013
Si Si7 0.194599 0.427763 0.114605
Si Si8 0.841542 0.925393 0.678109
O O1 0.151620 0.750000 0.964497
O O2 0.964408 0.961472 0.913434
O O3 0.180894 0.999057 0.911444
O O4 0.212471 0.991274 0.053580
O O5 0.783864 0.750000 0.279930
O O6 0.683170 0.977910 0.302874
O O7 0.767067 0.976457 0.201504
O O8 0.941382 0.983788 0.364673
O O9 0.049305 0.250000 0.428197
O O10 0.170026 0.024203 0.529125
O O11 0.180709 0.058672 0.405666
O O12 0.849226 0.750000 0.162011
O O13 0.019952 0.519385 0.247901
O O14 0.686437 0.750000 0.379437
O O15 0.549059 0.508305 0.363512
O O16 0.416112 0.250000 0.313794
O O17 0.311496 0.031154 0.210914
O O18 0.295881 0.034009 0.329896
O O19 0.198992 0.250000 0.105907
O O20 0.875054 0.750000 0.702623
#
# Coordination Sequence:
#
# PCOD9167711 Si02
#       8
#     4   4   4   4   4   4   4   4
#     4  10  18  30  50  76 103 129 157 197 245 291
#     4   9  19  34  51  72 100 129 164 211 253 287
#     4   9  18  32  53  75  97 126 164 211 255 293
#     4  10  18  29  49  75 100 129 162 201 248 294
#     4  10  21  35  49  71 100 132 169 208 248 290
#     4  10  20  34  50  69 100 137 166 197 240 293
#     4   9  18  32  48  71 102 132 160 195 239 291
#     4   9  17  32  49  70 100 131 162 202 250 293
#
# _framework density 18.418444999999998
#
# number of rings (size 3 to 8) (size 9 to 14) (size 15 to 20)
#    0.000    2.500    1.250    1.125    0.000    3.500 
#    0.000    0.000    0.000    0.750    0.000    0.000 
#    0.000    0.000    0.000    0.000    0.000    0.000 
#
# Total GULP energy -178331.292825 kJ/mol
# GULP energy per Si atom -5572.852901 kJ/mol
# Density = 1.837652 g / cm^3
# Si number density = 18.418445 Si / 1000 Ang^3
#
#
#
# Elastic Constant Matrix: (Units=GPa)
#
#
# Indices 1 2 3 4 5 6 
#
# 1 57.2121 7.8998 3.7403 0.0000 -23.6161 0.0000
# 2 7.8998 7.4515 3.8564 0.0000 -12.0469 0.0000
# 3 3.7403 3.8564 28.9581 0.0000 -22.4793 0.0000
# 4 0.0000 0.0000 0.0000 24.7285 0.0000 -4.0757
# 5 -23.6161 -12.0469 -22.4793 0.0000 32.6108 0.0000
# 6 0.0000 0.0000 0.0000 -4.0757 0.0000 15.4468
#
#
#
# Elastic Compliance Matrix: (Units=1/GPa)
#
#
# Indices 1 2 3 4 5 6 
#
# 1 0.081126 0.263057 0.162466 0.000000 0.267918 0.000000
# 2 0.263057 1.505814 0.742488 0.000000 1.258581 0.000000
# 3 0.162466 0.742488 0.470896 0.000000 0.716538 0.000000
# 4 0.000000 0.000000 0.000000 0.042278 0.000000 0.011155
# 5 0.267918 1.258581 0.716538 0.000000 1.183547 0.000000
# 6 0.000000 0.000000 0.000000 0.011155 0.000000 0.067681
#
#
# Mechanical properties :
#
#
# Convention : Reuss Voigt Hill
#
# Bulk Modulus (GPa) = 0.22759 13.84607 7.03683
# Shear Modulus (GPa) = 2.01618 19.76557 10.89087
#
# Velocity S-wave (km/s) = 1.04739 3.27944 2.43431
# Velocity P-wave (km/s) = 1.25958 4.67690 3.42491
#
# Compressibility (1/GPa) = 4.39385875
#
# Stress axis : x y z
#
# Youngs Moduli (GPa) = 12.32645 0.66409 2.12361
#
# Poissons Ratio (x) = -0.17469 -0.34502
# Poissons Ratio (y) = -3.24255 -1.57676
# Poissons Ratio (z) = -2.00263 -0.49308
#
# Static dielectric constant tensor:
#      x y z
#    x 1.665390 0.000000 -0.025340 
#    y 0.000000 1.607790 0.000000 
#    z -0.025340 0.000000 1.626140 
# 
# From -- ./inp_files/40662.got.cif
#   From: 2010.05.17/outbox.ucp.g08.bks.cvg/sg11_21_cif.got.tgz:40662.got - 2010.06.11 11:38:39.
