data_PCOD9167483
_publ_section_title
;
Structure prediction by ZEFSAII (Michael W. Deem and Ramdas Pophale) SiO2 
 PCOD9167483
Probable space group: P 21/M
;
_chemical_formula_sum "Si O2"
_cell_formula_units_Z 20
_cell_length_a 4.853786
_cell_length_b 13.286330
_cell_length_c 11.561384
_cell_angle_alpha 90.000000
_cell_angle_beta 97.963937
_cell_angle_gamma 90.000000
_cell_volume 738.391334
_symmetry_space_group_name_H-M "P 21/M"
_symmetry_group_IT_number 11
_symmetry_cell_setting 'monoclinic'
loop_
_space_group_symop_operation_xyz
x,y,z
-x,1/2+y,-z
-x,-y,-z
x,1/2-y,z
loop_
_atom_site_type_symbol
_atom_site_label
_atom_site_fract_x
_atom_site_fract_y
_atom_site_fract_z
Si Si1 0.693629 0.408589 0.034925
Si Si2 0.549585 0.750000 0.464375
Si Si3 0.820896 0.935776 0.583859
Si Si4 0.916627 0.442706 0.808140
Si Si5 0.664545 0.750000 0.851235
Si Si6 0.017263 0.250000 0.696074
Si Si7 0.863989 0.250000 0.288004
O O1 0.472062 0.339627 0.086643
O O2 0.930825 0.460790 0.126927
O O3 0.500000 0.500000 0.000000
O O4 0.795043 0.382088 0.912139
O O5 0.569214 0.863525 0.522815
O O6 0.310606 0.750000 0.353005
O O7 0.845305 0.750000 0.419425
O O8 0.024238 0.850058 0.647462
O O9 0.747580 0.007756 0.690306
O O10 0.000000 0.000000 0.500000
O O11 0.099511 0.354107 0.761963
O O12 0.985321 0.750000 0.832796
O O13 0.468655 0.750000 0.726963
#
# Coordination Sequence:
#
# PCOD9167483 Si02
#       7
#     4   2   4   4   2   2   2
#     4  11  26  45  76 112 148 205 255 319 387 467
#     4  11  28  48  73 114 148 206 253 310 389 457
#     4  11  23  48  77 111 155 199 258 318 381 462
#     4  11  25  47  73 110 154 196 257 314 395 448
#     4  12  25  50  77 107 157 194 263 315 381 458
#     4  12  27  50  73 108 157 195 255 317 383 461
#     4  11  26  48  75 111 148 205 245 318 379 456
#
# _framework density 27.085909999999998
#
# number of rings (size 3 to 8) (size 9 to 14) (size 15 to 20)
#    0.000    0.800    4.000    1.800    5.600    4.800 
#    7.200    0.000    0.000    0.000    0.000    0.000 
#    0.000    0.000    0.000    0.000    0.000    0.000 
#
# Total GULP energy -111607.215842 kJ/mol
# GULP energy per Si atom -5580.360792 kJ/mol
# Density = 2.702426 g / cm^3
# Si number density = 27.085910 Si / 1000 Ang^3
#
#
#
# Elastic Constant Matrix: (Units=GPa)
#
#
# Indices 1 2 3 4 5 6 
#
# 1 58.5755 15.7621 23.0534 0.0000 -12.1306 0.0000
# 2 15.7621 160.8662 48.7685 0.0000 -19.5829 0.0000
# 3 23.0534 48.7685 147.1088 0.0000 -28.9412 0.0000
# 4 0.0000 0.0000 0.0000 100.3732 0.0000 8.0085
# 5 -12.1306 -19.5829 -28.9412 0.0000 43.5616 0.0000
# 6 0.0000 0.0000 0.0000 8.0085 0.0000 45.3738
#
#
#
# Elastic Compliance Matrix: (Units=1/GPa)
#
#
# Indices 1 2 3 4 5 6 
#
# 1 0.018805 -0.000810 -0.001979 0.000000 0.003558 0.000000
# 2 -0.000810 0.007074 -0.001883 0.000000 0.001704 0.000000
# 3 -0.001979 -0.001883 0.008578 0.000000 0.004302 0.000000
# 4 0.000000 0.000000 0.000000 0.010105 0.000000 -0.001784
# 5 0.003558 0.001704 0.004302 0.000000 0.027571 0.000000
# 6 0.000000 0.000000 0.000000 -0.001784 0.000000 0.022354
#
#
# Mechanical properties :
#
#
# Convention : Reuss Voigt Hill
#
# Bulk Modulus (GPa) = 39.81664 60.19095 50.00380
# Shear Modulus (GPa) = 44.56267 56.45951 50.51109
#
# Velocity S-wave (km/s) = 4.06055 4.57054 4.32307
# Velocity P-wave (km/s) = 6.05938 7.07980 6.58938
#
# Compressibility (1/GPa) = 0.02511513
#
# Stress axis : x y z
#
# Youngs Moduli (GPa) = 53.17616 141.36413 116.57316
#
# Poissons Ratio (x) = 0.11445 0.23065
# Poissons Ratio (y) = 0.04305 0.21952
# Poissons Ratio (z) = 0.10521 0.26620
#
# Static dielectric constant tensor:
#      x y z
#    x 2.121730 0.000000 -0.005960 
#    y 0.000000 2.165940 0.000000 
#    z -0.005960 0.000000 2.141430 
# 
# From -- ./inp_files/29585.got.cif
#   From: 2010.05.17/outbox.cif.g08.bks.cpg/sg11_15_cif.got.tgz:29585.got - 2010.06.03 12:22:45.
