data_PCOD9167211
_publ_section_title
;
Structure prediction by ZEFSAII (Michael W. Deem and Ramdas Pophale) SiO2 
 PCOD9167211
Probable space group: P 21/M
;
_chemical_formula_sum "Si O2"
_cell_formula_units_Z 26
_cell_length_a 8.337765
_cell_length_b 15.249700
_cell_length_c 11.723011
_cell_angle_alpha 90.000000
_cell_angle_beta 130.029713
_cell_angle_gamma 90.000000
_cell_volume 1141.339920
_symmetry_space_group_name_H-M "P 21/M"
_symmetry_group_IT_number 11
_symmetry_cell_setting 'monoclinic'
loop_
_space_group_symop_operation_xyz
x,y,z
-x,1/2+y,-z
-x,-y,-z
x,1/2-y,z
loop_
_atom_site_type_symbol
_atom_site_label
_atom_site_fract_x
_atom_site_fract_y
_atom_site_fract_z
Si Si1 0.049157 0.148330 0.291752
Si Si2 0.624273 0.846499 0.999275
Si Si3 0.533142 0.399268 0.474943
Si Si4 0.247191 0.918808 0.669881
Si Si5 0.591977 0.604997 0.241075
Si Si6 0.536895 0.250000 0.638020
Si Si7 0.165666 0.982945 0.980687
O O1 0.995672 0.250000 0.252294
O O2 0.293240 0.138146 0.367832
O O3 0.970926 0.120243 0.382431
O O4 0.920696 0.086073 0.148845
O O5 0.686406 0.750000 0.987154
O O6 0.417226 0.877050 0.836096
O O7 0.594851 0.846959 0.121061
O O8 0.785718 0.924089 0.052594
O O9 0.500000 0.500000 0.500000
O O10 0.658371 0.399008 0.412366
O O11 0.642376 0.329500 0.608744
O O12 0.245126 0.024482 0.680362
O O13 0.579244 0.673555 0.336510
O O14 0.372057 0.553043 0.135728
O O15 0.000000 0.000000 0.000000
#
# Coordination Sequence:
#
# PCOD9167211 Si02
#       7
#     4   4   4   4   4   2   4
#     4  12  25  43  74 107 136 181 244 293 344 417
#     4  11  21  40  68 104 137 180 226 283 362 426
#     4  12  28  50  70  98 144 193 237 288 341 414
#     4  11  23  44  74 102 138 188 234 292 349 415
#     4  11  21  44  72  97 140 178 223 291 363 417
#     4  12  26  46  70 100 138 190 234 282 358 420
#     4  11  24  40  66 106 141 173 224 294 361 412
#
# _framework density 22.780241
#
# number of rings (size 3 to 8) (size 9 to 14) (size 15 to 20)
#    0.000    0.615    6.154    3.231    3.231    2.462 
#    0.000    0.000    3.385    0.000    0.000    0.000 
#    0.000    0.000    0.000    0.000    0.000    0.000 
#
# Total GULP energy -144788.732735 kJ/mol
# GULP energy per Si atom -5568.797413 kJ/mol
# Density = 2.272839 g / cm^3
# Si number density = 22.780241 Si / 1000 Ang^3
#
#
#
# Elastic Constant Matrix: (Units=GPa)
#
#
# Indices 1 2 3 4 5 6 
#
# 1 126.7219 38.3767 21.1700 0.0000 -31.6770 0.0000
# 2 38.3767 221.0487 34.8720 0.0000 -18.4431 0.0000
# 3 21.1700 34.8720 48.4876 0.0000 -24.4854 0.0000
# 4 0.0000 0.0000 0.0000 90.0574 0.0000 -26.6155
# 5 -31.6770 -18.4431 -24.4854 0.0000 39.3744 0.0000
# 6 0.0000 0.0000 0.0000 -26.6155 0.0000 46.7997
#
#
#
# Elastic Compliance Matrix: (Units=1/GPa)
#
#
# Indices 1 2 3 4 5 6 
#
# 1 0.010143 -0.001165 0.000371 0.000000 0.007845 0.000000
# 2 -0.001165 0.005237 -0.003634 0.000000 -0.000744 0.000000
# 3 0.000371 -0.003634 0.032605 0.000000 0.018872 0.000000
# 4 0.000000 0.000000 0.000000 0.013347 0.000000 0.007591
# 5 0.007845 -0.000744 0.018872 0.000000 0.043097 0.000000
# 6 0.000000 0.000000 0.000000 0.007591 0.000000 0.025685
#
#
# Mechanical properties :
#
#
# Convention : Reuss Voigt Hill
#
# Bulk Modulus (GPa) = 25.55523 65.01062 45.28292
# Shear Modulus (GPa) = 32.89190 55.36893 44.13041
#
# Velocity S-wave (km/s) = 3.80396 4.93543 4.40616
# Velocity P-wave (km/s) = 5.52594 7.81524 6.76809
#
# Compressibility (1/GPa) = 0.03913094
#
# Stress axis : x y z
#
# Youngs Moduli (GPa) = 98.58781 190.93774 30.66985
#
# Poissons Ratio (x) = 0.22243 -0.01138
# Poissons Ratio (y) = 0.11485 0.11144
# Poissons Ratio (z) = -0.03657 0.69377
#
# Static dielectric constant tensor:
#      x y z
#    x 1.830030 0.000000 0.022090 
#    y 0.000000 1.741400 0.000000 
#    z 0.022090 0.000000 1.955180 
# 
# From -- ./inp_files/31762.got.cif
#   From: 2010.05.17/outbox.cif.g08.bks.cpg/sg11_16_cif.got.tgz:31762.got - 2010.06.03 12:22:45.
