data_PCOD9167178
_publ_section_title
;
Structure prediction by ZEFSAII (Michael W. Deem and Ramdas Pophale) SiO2 
 PCOD9167178
Probable space group: P 21/M
;
_chemical_formula_sum "Si O2"
_cell_formula_units_Z 32
_cell_length_a 27.207842
_cell_length_b 8.474833
_cell_length_c 21.780680
_cell_angle_alpha 90.000000
_cell_angle_beta 159.055973
_cell_angle_gamma 90.000000
_cell_volume 1795.225341
_symmetry_space_group_name_H-M "P 21/M"
_symmetry_group_IT_number 11
_symmetry_cell_setting 'monoclinic'
loop_
_space_group_symop_operation_xyz
x,y,z
-x,1/2+y,-z
-x,-y,-z
x,1/2-y,z
loop_
_atom_site_type_symbol
_atom_site_label
_atom_site_fract_x
_atom_site_fract_y
_atom_site_fract_z
Si Si1 0.407646 0.560360 0.448393
Si Si2 0.102830 0.061003 0.068702
Si Si3 0.400565 0.940822 0.971366
Si Si4 0.017722 0.059714 0.334569
Si Si5 0.274639 0.559931 0.953085
Si Si6 0.906842 0.559997 0.080746
Si Si7 0.389974 0.060177 0.211124
Si Si8 0.698281 0.559268 0.273438
O O1 0.500000 0.500000 0.500000
O O2 0.406163 0.750000 0.445578
O O3 0.255441 0.496122 0.262501
O O4 0.480825 0.509587 0.597262
O O5 0.101564 0.250000 0.066317
O O6 0.064294 0.006190 0.954773
O O7 0.000000 0.000000 0.000000
O O8 0.398027 0.750000 0.968230
O O9 0.331686 0.996495 0.954256
O O10 0.320751 0.000343 0.818202
O O11 0.560108 0.990236 0.148789
O O12 0.017308 0.250000 0.336212
O O13 0.879732 0.004118 0.209368
O O14 0.159666 0.003805 0.530436
O O15 0.000648 0.008171 0.244154
O O16 0.270158 0.750000 0.945904
O O17 0.372928 0.510016 0.123719
O O18 0.916091 0.750000 0.093524
O O19 0.749549 0.516946 0.914790
O O20 0.392418 0.250000 0.209016
O O21 0.700031 0.750000 0.274845
#
# Coordination Sequence:
#
# PCOD9167178 Si02
#       8
#     4   4   4   4   4   4   4   4
#     4  11  21  36  59  84 110 144 186 230 274 327
#     4  11  23  40  57  80 112 146 184 230 280 330
#     4   9  18  33  51  71 100 132 164 205 252 301
#     4   9  18  32  51  75 100 130 170 209 251 306
#     4   9  18  32  50  74 102 132 167 210 255 302
#     4   9  18  35  55  75 105 139 173 216 264 315
#     4   9  18  34  54  78 106 136 173 218 264 313
#     4   9  18  33  51  71  99 132 167 205 248 303
#
# _framework density 17.825061000000002
#
# number of rings (size 3 to 8) (size 9 to 14) (size 15 to 20)
#    0.000    2.500    1.250    0.750    0.000    3.500 
#    2.250    0.000    0.000    0.000    0.000    0.000 
#    0.000    0.000    0.000    0.000    0.000    0.000 
#
# Total GULP energy -178469.826910 kJ/mol
# GULP energy per Si atom -5577.182091 kJ/mol
# Density = 1.778449 g / cm^3
# Si number density = 17.825061 Si / 1000 Ang^3
#
#
#
# Elastic Constant Matrix: (Units=GPa)
#
#
# Indices 1 2 3 4 5 6 
#
# 1 173.2918 24.0850 104.8859 0.0000 -13.6317 0.0000
# 2 24.0850 11.7471 22.5545 0.0000 -0.6921 0.0000
# 3 104.8859 22.5545 165.1283 0.0000 -17.0063 0.0000
# 4 0.0000 0.0000 0.0000 26.3203 0.0000 -5.9863
# 5 -13.6317 -0.6921 -17.0063 0.0000 20.6063 0.0000
# 6 0.0000 0.0000 0.0000 -5.9863 0.0000 26.5813
#
#
#
# Elastic Compliance Matrix: (Units=1/GPa)
#
#
# Indices 1 2 3 4 5 6 
#
# 1 0.010581 -0.012416 -0.004751 0.000000 0.002662 0.000000
# 2 -0.012416 0.131865 -0.011491 0.000000 -0.013268 0.000000
# 3 -0.004751 -0.011491 0.011235 0.000000 0.005743 0.000000
# 4 0.000000 0.000000 0.000000 0.040045 0.000000 0.009018
# 5 0.002662 -0.013268 0.005743 0.000000 0.054584 0.000000
# 6 0.000000 0.000000 0.000000 0.009018 0.000000 0.039651
#
#
# Mechanical properties :
#
#
# Convention : Reuss Voigt Hill
#
# Bulk Modulus (GPa) = 10.37724 72.57975 41.47849
# Shear Modulus (GPa) = 13.24860 27.94436 20.59648
#
# Velocity S-wave (km/s) = 2.72923 3.96372 3.40292
# Velocity P-wave (km/s) = 3.97064 7.85839 6.22576
#
# Compressibility (1/GPa) = 0.09636476
#
# Stress axis : x y z
#
# Youngs Moduli (GPa) = 94.50784 7.58351 89.01049
#
# Poissons Ratio (x) = 0.09415 0.42288
# Poissons Ratio (y) = 1.17339 1.02285
# Poissons Ratio (z) = 0.44900 0.08714
#
# Static dielectric constant tensor:
#      x y z
#    x 1.597170 0.000000 0.003050 
#    y 0.000000 1.608730 0.000000 
#    z 0.003050 0.000000 1.598530 
# 
# From -- ./inp_files/67148.got.cif
#   From: 2010.05.17/outbox.cif.g08.bks.cpg/sg11_34_cif.got.tgz:67148.got - 2010.06.03 12:22:45.
