data_PCOD9167120
_publ_section_title
;
Structure prediction by ZEFSAII (Michael W. Deem and Ramdas Pophale) SiO2 
 PCOD9167120
Probable space group: P 21/M
;
_chemical_formula_sum "Si O2"
_cell_formula_units_Z 32
_cell_length_a 11.523870
_cell_length_b 17.914947
_cell_length_c 14.215647
_cell_angle_alpha 90.000000
_cell_angle_beta 32.166773
_cell_angle_gamma 90.000000
_cell_volume 1562.452042
_symmetry_space_group_name_H-M "P 21/M"
_symmetry_group_IT_number 11
_symmetry_cell_setting 'monoclinic'
loop_
_space_group_symop_operation_xyz
x,y,z
-x,1/2+y,-z
-x,-y,-z
x,1/2-y,z
loop_
_atom_site_type_symbol
_atom_site_label
_atom_site_fract_x
_atom_site_fract_y
_atom_site_fract_z
Si Si1 0.458743 0.163206 0.372826
Si Si2 0.755776 0.910339 0.134194
Si Si3 0.776616 0.915568 0.783784
Si Si4 0.988760 0.663988 0.814871
Si Si5 0.448490 0.585358 0.507154
Si Si6 0.951607 0.836747 0.482863
Si Si7 0.257833 0.913438 0.135738
Si Si8 0.164302 0.928191 0.989326
O O1 0.514339 0.250000 0.336171
O O2 0.428611 0.134533 0.499224
O O3 0.246947 0.152407 0.454223
O O4 0.657258 0.118391 0.190446
O O5 0.533238 0.900771 0.343658
O O6 0.936567 0.921685 0.091538
O O7 0.833999 0.845725 0.011661
O O8 0.758170 0.985798 0.070632
O O9 0.905187 0.889523 0.603149
O O10 0.861034 0.865456 0.811768
O O11 0.803699 0.002737 0.789644
O O12 0.517559 0.905351 0.947238
O O13 0.058144 0.750000 0.757266
O O14 0.196873 0.609750 0.686727
O O15 0.500000 0.500000 0.500000
O O16 0.954055 0.750000 0.510450
O O17 0.165346 0.858484 0.277966
O O18 0.156610 0.902118 0.101920
#
# Coordination Sequence:
#
# PCOD9167120 Si02
#       8
#     4   4   4   4   4   4   4   4
#     4  11  23  40  66 100 135 170 218 281 341 394
#     4  11  23  40  69  99 129 177 220 272 341 409
#     4  11  25  45  69  96 134 177 225 282 331 394
#     4  12  27  45  66  99 141 180 225 279 343 409
#     4  12  24  42  71  98 134 178 222 277 336 412
#     4  11  25  43  67  98 134 175 219 274 340 398
#     4  11  24  43  72 101 126 175 235 278 325 404
#     4  11  20  42  69  98 132 170 223 276 339 401
#
# _framework density 20.480627999999999
#
# number of rings (size 3 to 8) (size 9 to 14) (size 15 to 20)
#    0.000    0.750    5.000    2.625    1.750    3.500 
#    0.000    0.000    0.000    0.000    0.000    0.000 
#    0.000    0.000    0.000    0.000    0.000    0.000 
#
# Total GULP energy -179002.122385 kJ/mol
# GULP energy per Si atom -5593.816325 kJ/mol
# Density = 2.043401 g / cm^3
# Si number density = 20.480628 Si / 1000 Ang^3
#
#
#
# Elastic Constant Matrix: (Units=GPa)
#
#
# Indices 1 2 3 4 5 6 
#
# 1 69.8616 17.0291 2.3453 0.0000 19.7699 0.0000
# 2 17.0291 56.7451 4.5123 0.0000 -2.9305 0.0000
# 3 2.3453 4.5123 68.9381 0.0000 25.4965 0.0000
# 4 0.0000 0.0000 0.0000 28.8494 0.0000 5.1594
# 5 19.7699 -2.9305 25.4965 0.0000 27.2653 0.0000
# 6 0.0000 0.0000 0.0000 5.1594 0.0000 19.7846
#
#
#
# Elastic Compliance Matrix: (Units=1/GPa)
#
#
# Indices 1 2 3 4 5 6 
#
# 1 0.024279 -0.009555 0.010228 0.000000 -0.028196 0.000000
# 2 -0.009555 0.021856 -0.006935 0.000000 0.015763 0.000000
# 3 0.010228 -0.006935 0.026952 0.000000 -0.033365 0.000000
# 4 0.000000 0.000000 0.000000 0.036358 0.000000 -0.009481
# 5 -0.028196 0.015763 -0.033365 0.000000 0.090016 0.000000
# 6 0.000000 0.000000 0.000000 -0.009481 0.000000 0.053017
#
#
# Mechanical properties :
#
#
# Convention : Reuss Voigt Hill
#
# Bulk Modulus (GPa) = 16.51271 27.03535 21.77403
# Shear Modulus (GPa) = 17.53215 26.62372 22.07794
#
# Velocity S-wave (km/s) = 2.92898 3.60939 3.28684
# Velocity P-wave (km/s) = 4.41800 5.53167 5.00590
#
# Compressibility (1/GPa) = 0.06055942
#
# Stress axis : x y z
#
# Youngs Moduli (GPa) = 41.18813 45.75447 37.10360
#
# Poissons Ratio (x) = 0.43720 -0.37948
# Poissons Ratio (y) = 0.39357 0.25733
# Poissons Ratio (z) = -0.42125 0.31733
#
# Static dielectric constant tensor:
#      x y z
#    x 1.710670 0.000000 -0.007450 
#    y 0.000000 1.718820 0.000000 
#    z -0.007450 0.000000 1.738710 
# 
# From -- ./inp_files/50639.got.cif
#   From: 2010.05.17/outbox.cif.g08.bks.cpg/sg11_26_cif.got.tgz:50639.got - 2010.06.03 12:22:45.
