data_PCOD9167292
_publ_section_title
;
Structure prediction by ZEFSAII (Michael W. Deem and Ramdas Pophale) SiO2 
 PCOD9167292
Probable space group: P 21/M
;
_chemical_formula_sum "Si O2"
_cell_formula_units_Z 20
_cell_length_a 21.785606
_cell_length_b 8.764179
_cell_length_c 15.596570
_cell_angle_alpha 90.000000
_cell_angle_beta 17.528825
_cell_angle_gamma 90.000000
_cell_volume 896.900241
_symmetry_space_group_name_H-M "P 21/M"
_symmetry_group_IT_number 11
_symmetry_cell_setting 'monoclinic'
loop_
_space_group_symop_operation_xyz
x,y,z
-x,1/2+y,-z
-x,-y,-z
x,1/2-y,z
loop_
_atom_site_type_symbol
_atom_site_label
_atom_site_fract_x
_atom_site_fract_y
_atom_site_fract_z
Si Si1 0.696978 0.933476 0.690402
Si Si2 0.798737 0.427322 0.234102
Si Si3 0.496876 0.067356 0.233498
Si Si4 0.712813 0.576994 0.194450
Si Si5 0.101427 0.076620 0.238895
O O1 0.705112 0.750000 0.682842
O O2 0.645234 0.977086 0.659317
O O3 0.894110 0.996967 0.480299
O O4 0.500000 0.000000 0.000000
O O5 0.768700 0.250000 0.288554
O O6 0.618465 0.510961 0.526721
O O7 0.842720 0.459161 0.075148
O O8 0.000000 0.500000 0.000000
O O9 0.512132 0.250000 0.214613
O O10 0.730824 0.001950 0.921754
O O11 0.500000 0.500000 0.500000
O O12 0.722448 0.750000 0.216459
O O13 0.772799 0.585122 0.017366
O O14 0.056593 0.250000 0.328096
#
# Coordination Sequence:
#
# PCOD9167292 Si02
#       5
#     4   4   4   4   4
#     4  11  26  47  71  98 128 168 217 277 340 397
#     4  12  24  38  59  90 129 174 219 266 322 383
#     4  11  24  43  68  97 130 170 220 272 329 394
#     4  11  22  37  60  92 130 171 213 258 312 377
#     4  11  24  42  68 100 134 176 220 268 328 391
#
# _framework density 22.299025
#
# number of rings (size 3 to 8) (size 9 to 14) (size 15 to 20)
#    0.000    0.800    2.000    5.400    0.000    9.600 
#    0.000    0.000    0.000    0.000    0.000    0.000 
#    0.000    0.000    0.000    0.000    0.000    0.000 
#
# Total GULP energy -111408.881556 kJ/mol
# GULP energy per Si atom -5570.444078 kJ/mol
# Density = 2.224827 g / cm^3
# Si number density = 22.299025 Si / 1000 Ang^3
#
#
#
# Elastic Constant Matrix: (Units=GPa)
#
#
# Indices 1 2 3 4 5 6 
#
# 1 75.6004 27.0903 22.0585 0.0000 -19.7064 0.0000
# 2 27.0903 118.8574 32.8816 0.0000 -16.0373 0.0000
# 3 22.0585 32.8816 101.1256 0.0000 -33.4594 0.0000
# 4 0.0000 0.0000 0.0000 37.7236 0.0000 -7.8967
# 5 -19.7064 -16.0373 -33.4594 0.0000 45.0651 0.0000
# 6 0.0000 0.0000 0.0000 -7.8967 0.0000 28.7976
#
#
#
# Elastic Compliance Matrix: (Units=1/GPa)
#
#
# Indices 1 2 3 4 5 6 
#
# 1 0.015815 -0.002656 -0.000809 0.000000 0.005369 0.000000
# 2 -0.002656 0.009759 -0.002425 0.000000 0.000511 0.000000
# 3 -0.000809 -0.002425 0.013855 0.000000 0.009070 0.000000
# 4 0.000000 0.000000 0.000000 0.028123 0.000000 0.007712
# 5 0.005369 0.000511 0.009070 0.000000 0.031454 0.000000
# 6 0.000000 0.000000 0.000000 0.007712 0.000000 0.036840
#
#
# Mechanical properties :
#
#
# Convention : Reuss Voigt Hill
#
# Bulk Modulus (GPa) = 36.16931 51.07155 43.62043
# Shear Modulus (GPa) = 31.87940 36.55414 34.21677
#
# Velocity S-wave (km/s) = 3.78515 4.05318 3.92146
# Velocity P-wave (km/s) = 5.94630 6.69755 6.33307
#
# Compressibility (1/GPa) = 0.02764775
#
# Stress axis : x y z
#
# Youngs Moduli (GPa) = 63.23084 102.47420 72.17863
#
# Poissons Ratio (x) = 0.27219 0.05843
# Poissons Ratio (y) = 0.16795 0.17500
# Poissons Ratio (z) = 0.05118 0.24845
#
# Static dielectric constant tensor:
#      x y z
#    x 0.532490 0.000000 0.071020 
#    y 0.000000 1.836560 0.000000 
#    z 0.071020 0.000000 1.817570 
# 
# From -- ./inp_files/54145.got.cif
#   From: 2010.05.17/outbox.cif.g08.bks.cpg/sg11_28_cif.got.tgz:54145.got - 2010.06.03 12:22:45.
