data_PCOD9167806
_publ_section_title
;
Structure prediction by ZEFSAII (Michael W. Deem and Ramdas Pophale) SiO2 
 PCOD9167806
Probable space group: P 21/M
;
_chemical_formula_sum "Si O2"
_cell_formula_units_Z 32
_cell_length_a 15.000000
_cell_length_b 21.000000
_cell_length_c 15.000000
_cell_angle_alpha 90.000000
_cell_angle_beta 160.000000
_cell_angle_gamma 90.000000
_cell_volume 1616.045177
_symmetry_space_group_name_H-M "P 21/M"
_symmetry_group_IT_number 11
_symmetry_cell_setting 'monoclinic'
loop_
_space_group_symop_operation_xyz
x,y,z
-x,1/2+y,-z
-x,-y,-z
x,1/2-y,z
loop_
_atom_site_type_symbol
_atom_site_label
_atom_site_fract_x
_atom_site_fract_y
_atom_site_fract_z
Si Si1 0.568718 0.926650 0.044248
Si Si2 0.884534 0.324578 0.678009
Si Si3 0.314472 0.172819 0.220748
Si Si4 0.566291 0.108579 0.892856
Si Si5 0.102554 0.462410 0.357889
Si Si6 0.873561 0.089471 0.509572
Si Si7 0.767282 0.320203 0.931457
Si Si8 0.699690 0.885133 0.601544
O O1 0.473105 0.887239 0.039528
O O2 0.877174 0.921552 0.319173
O O3 0.395693 0.908142 0.796793
O O4 0.500000 0.000000 0.000000
O O5 0.927601 0.250000 0.718798
O O6 0.592411 0.336552 0.435998
O O7 0.922906 0.349470 0.615360
O O8 0.091068 0.349483 0.943459
O O9 0.287878 0.250000 0.216454
O O10 0.299976 0.129586 0.294500
O O11 0.298470 0.081621 0.600000
O O12 0.650306 0.171871 0.920161
O O13 0.805538 0.060545 0.093794
O O14 0.134279 0.532045 0.426865
O O15 0.202033 0.450953 0.350313
O O16 0.733805 0.250000 0.862793
O O17 0.586529 0.367410 0.703937
O O18 0.070554 0.338164 0.218290
#
# Coordination Sequence:
#
# PCOD9167806 Si02
#       8
#     4   4   4   4   4   4   4   4
#     4  12  21  35  60  86 105 136 191 224 262 323
#     4  10  23  40  57  79 109 145 185 229 272 314
#     4  10  19  36  58  78 104 141 188 226 261 320
#     4  10  20  33  50  79 109 137 174 222 260 313
#     4  10  19  34  52  80 112 138 170 219 275 322
#     4  12  22  37  59  81 109 144 182 228 277 321
#     4  10  19  32  50  76 113 144 170 212 275 330
#     4  10  20  32  55  82 108 138 182 223 266 320
#
# _framework density 19.801427
#
# number of rings (size 3 to 8) (size 9 to 14) (size 15 to 20)
#    0.000    1.500    2.500    3.750    0.000    1.000 
#    0.000    2.500    0.000    0.000    0.000    0.000 
#    0.000    0.000    0.000    0.000    0.000    0.000 
#
# Total GULP energy -178502.995403 kJ/mol
# GULP energy per Si atom -5578.218606 kJ/mol
# Density = 1.975636 g / cm^3
# Si number density = 19.801427 Si / 1000 Ang^3
#
#
#
# Elastic Constant Matrix: (Units=GPa)
#
#
# Indices 1 2 3 4 5 6 
#
# 1 40.6873 11.9477 -19.7804 0.0000 -17.7825 0.0000
# 2 11.9477 -14.3037 18.8218 0.0000 8.1993 0.0000
# 3 -19.7804 18.8218 61.9324 0.0000 -26.0570 0.0000
# 4 0.0000 0.0000 0.0000 16.3426 0.0000 -22.5263
# 5 -17.7825 8.1993 -26.0570 0.0000 19.5045 0.0000
# 6 0.0000 0.0000 0.0000 -22.5263 0.0000 6.3213
#
#
#
# Elastic Compliance Matrix: (Units=1/GPa)
#
#
# Indices 1 2 3 4 5 6 
#
# 1 0.022639 0.030171 0.003218 0.000000 0.012257 0.000000
# 2 0.030171 0.020383 0.026055 0.000000 0.053746 0.000000
# 3 0.003218 0.026055 0.013433 0.000000 0.009927 0.000000
# 4 0.000000 0.000000 0.000000 -0.015642 0.000000 -0.055741
# 5 0.012257 0.053746 0.009927 0.000000 0.053113 0.000000
# 6 0.000000 0.000000 0.000000 -0.055741 0.000000 -0.040439
#
#
# Mechanical properties :
#
#
# Convention : Reuss Voigt Hill
#
# Bulk Modulus (GPa) = 5.70309 12.25491 8.97900
# Shear Modulus (GPa) = -719.13350 13.58881 -352.77235
#
# Velocity S-wave (km/s) = -19.07776 2.62249 -13.36195
# Velocity P-wave (km/s) = 21.96349 3.92075 15.28108
#
# Compressibility (1/GPa) = 0.17534359
#
# Stress axis : x y z
#
# Youngs Moduli (GPa) = 44.17081 49.05980 74.44400
#
# Poissons Ratio (x) = -1.48019 -0.23958
# Poissons Ratio (y) = -1.33269 -1.93961
# Poissons Ratio (z) = -0.14215 -1.27823
#
# Static dielectric constant tensor:
#      x y z
#    x 1.715820 0.000000 -0.022820 
#    y 0.000000 1.835480 0.000000 
#    z -0.022820 0.000000 1.696020 
# 
# From -- ./inp_files/52690.got.cif
#   From: 2010.05.17/outbox.ucp.g08.bks.cvg/sg11_27_cif.got.tgz:52690.got - 2010.06.11 11:38:39.
