data_PCOD9167901
_publ_section_title
;
Structure prediction by ZEFSAII (Michael W. Deem and Ramdas Pophale) SiO2 
 PCOD9167901
Probable space group: P 21/M
;
_chemical_formula_sum "Si O2"
_cell_formula_units_Z 32
_cell_length_a 12.000000
_cell_length_b 18.000000
_cell_length_c 15.000000
_cell_angle_alpha 90.000000
_cell_angle_beta 30.000000
_cell_angle_gamma 90.000000
_cell_volume 1620.000000
_symmetry_space_group_name_H-M "P 21/M"
_symmetry_group_IT_number 11
_symmetry_cell_setting 'monoclinic'
loop_
_space_group_symop_operation_xyz
x,y,z
-x,1/2+y,-z
-x,-y,-z
x,1/2-y,z
loop_
_atom_site_type_symbol
_atom_site_label
_atom_site_fract_x
_atom_site_fract_y
_atom_site_fract_z
Si Si1 0.041122 0.340050 0.977844
Si Si2 0.644327 0.419660 0.768535
Si Si3 0.471048 0.660092 0.696599
Si Si4 0.068644 0.838084 0.565512
Si Si5 0.786999 0.660275 0.324891
Si Si6 0.796299 0.160442 0.834878
Si Si7 0.637674 0.598430 0.763939
Si Si8 0.178230 0.160642 0.082678
O O1 0.052621 0.250000 0.971856
O O2 0.789020 0.358776 0.124645
O O3 0.101618 0.362386 0.036434
O O4 0.191507 0.367669 0.791142
O O5 0.733162 0.386672 0.613403
O O6 0.796253 0.383929 0.741761
O O7 0.648463 0.509037 0.767592
O O8 0.397564 0.386452 0.954379
O O9 0.492763 0.750000 0.693274
O O10 0.573621 0.638836 0.530200
O O11 0.602231 0.620868 0.685604
O O12 0.111989 0.750000 0.523137
O O13 0.852304 0.863270 0.659118
O O14 0.006217 0.850672 0.712442
O O15 0.784193 0.750000 0.320419
O O16 0.999233 0.642793 0.240628
O O17 0.792712 0.250000 0.822320
O O18 0.574532 0.133334 0.038540
O O19 0.229169 0.250000 0.047776
#
# Coordination Sequence:
#
# PCOD9167901 Si02
#       8
#     4   4   4   4   4   4   4   4
#     4   9  18  35  59  88 115 146 199 257 296 341
#     4  12  25  40  58  89 126 159 193 243 301 359
#     4  10  19  35  59  87 117 151 198 253 302 349
#     4  11  23  40  63  88 118 159 201 242 292 355
#     4   9  18  32  58  90 114 143 190 252 306 340
#     4  11  20  36  62  88 117 155 197 242 298 359
#     4  12  23  38  60  90 123 157 194 243 306 359
#     4  10  22  40  63  87 116 159 205 242 290 355
#
# _framework density 19.753086
#
# number of rings (size 3 to 8) (size 9 to 14) (size 15 to 20)
#    0.000    1.500    2.500    3.750    0.000    2.000 
#    0.000    4.375    0.000    1.500    0.000    0.000 
#    0.000    0.000    0.000    0.000    0.000    0.000 
#
# Total GULP energy -178763.657736 kJ/mol
# GULP energy per Si atom -5586.364304 kJ/mol
# Density = 1.970813 g / cm^3
# Si number density = 19.753086 Si / 1000 Ang^3
#
#
#
# Elastic Constant Matrix: (Units=GPa)
#
#
# Indices 1 2 3 4 5 6 
#
# 1 84.8206 -0.2704 -4.5296 0.0000 32.8986 0.0000
# 2 -0.2704 37.6481 -13.7541 0.0000 -0.1528 0.0000
# 3 -4.5296 -13.7541 60.4074 0.0000 25.8243 0.0000
# 4 0.0000 0.0000 0.0000 2.7181 0.0000 3.3353
# 5 32.8986 -0.1528 25.8243 0.0000 28.4443 0.0000
# 6 0.0000 0.0000 0.0000 3.3353 0.0000 7.2996
#
#
#
# Elastic Compliance Matrix: (Units=1/GPa)
#
#
# Indices 1 2 3 4 5 6 
#
# 1 0.102407 0.040058 0.110060 0.000000 -0.218151 0.000000
# 2 0.040058 0.046314 0.054340 0.000000 -0.095418 0.000000
# 3 0.110060 0.054340 0.149498 0.000000 -0.262731 0.000000
# 4 0.000000 0.000000 0.000000 0.837419 0.000000 -0.382633
# 5 -0.218151 -0.095418 -0.262731 0.000000 0.525488 0.000000
# 6 0.000000 0.000000 0.000000 -0.382633 0.000000 0.311826
#
#
# Mechanical properties :
#
#
# Convention : Reuss Voigt Hill
#
# Bulk Modulus (GPa) = 1.41415 16.19643 8.80529
# Shear Modulus (GPa) = 2.77817 21.12108 11.94962
#
# Velocity S-wave (km/s) = 1.18722 3.27349 2.46224
# Velocity P-wave (km/s) = 1.61146 4.74393 3.54272
#
# Compressibility (1/GPa) = 0.70713644
#
# Stress axis : x y z
#
# Youngs Moduli (GPa) = 9.76493 21.59155 6.68907
#
# Poissons Ratio (x) = -0.86492 -0.73620
# Poissons Ratio (y) = -0.39117 -0.36349
# Poissons Ratio (z) = -1.07473 -1.17329
#
# Static dielectric constant tensor:
#      x y z
#    x 1.694890 0.000000 0.024520 
#    y 0.000000 1.651660 0.000000 
#    z 0.024520 0.000000 1.744210 
# 
# From -- ./inp_files/50666.got.cif
#   From: 2010.05.17/outbox.ucp.g08.bks.cvg/sg11_26_cif.got.tgz:50666.got - 2010.06.11 11:38:39.
