data_PCOD9167407
_publ_section_title
;
Structure prediction by ZEFSAII (Michael W. Deem and Ramdas Pophale) SiO2 
 PCOD9167407
Probable space group: P 21/M
;
_chemical_formula_sum "Si O2"
_cell_formula_units_Z 32
_cell_length_a 29.140727
_cell_length_b 8.316493
_cell_length_c 11.756106
_cell_angle_alpha 90.000000
_cell_angle_beta 31.855159
_cell_angle_gamma 90.000000
_cell_volume 1503.667753
_symmetry_space_group_name_H-M "P 21/M"
_symmetry_group_IT_number 11
_symmetry_cell_setting 'monoclinic'
loop_
_space_group_symop_operation_xyz
x,y,z
-x,1/2+y,-z
-x,-y,-z
x,1/2-y,z
loop_
_atom_site_type_symbol
_atom_site_label
_atom_site_fract_x
_atom_site_fract_y
_atom_site_fract_z
Si Si1 0.039333 0.943254 0.593716
Si Si2 0.872627 0.444701 0.827411
Si Si3 0.916317 0.443538 0.245923
Si Si4 0.664242 0.563561 0.976023
Si Si5 0.475493 0.066803 0.372098
Si Si6 0.422943 0.939077 0.244135
Si Si7 0.313607 0.562985 0.834738
Si Si8 0.728466 0.941547 0.590397
O O1 0.043763 0.750000 0.584457
O O2 0.091673 0.000679 0.371582
O O3 0.074557 0.999321 0.641398
O O4 0.939834 0.994043 0.779801
O O5 0.873818 0.250000 0.825024
O O6 0.772466 0.495252 0.049374
O O7 0.911729 0.250000 0.254979
O O8 0.829151 0.513521 0.374316
O O9 0.000000 0.500000 0.000000
O O10 0.687983 0.750000 0.942032
O O11 0.560281 0.543273 0.200450
O O12 0.703502 0.460077 0.995459
O O13 0.695113 0.510787 0.786669
O O14 0.505451 0.250000 0.320015
O O15 0.431799 0.034600 0.342460
O O16 0.401055 0.029359 0.619523
O O17 0.434219 0.750000 0.242278
O O18 0.331958 0.972004 0.374003
O O19 0.500000 0.000000 0.000000
O O20 0.327584 0.750000 0.778845
O O21 0.716169 0.750000 0.604882
#
# Coordination Sequence:
#
# PCOD9167407 Si02
#       8
#     4   4   4   4   4   4   4   4
#     4   9  19  37  61  87 117 154 197 248 304 364
#     4   9  19  36  60  88 116 153 197 246 303 365
#     4  11  24  42  63  90 127 166 208 259 317 378
#     4  11  23  40  63  90 123 160 206 258 312 377
#     4  12  25  41  62  88 123 165 207 255 313 370
#     4  12  24  42  67  94 125 162 208 259 313 372
#     4  11  23  39  59  87 126 164 206 255 310 375
#     4  11  24  42  67  96 125 163 212 262 315 378
#
# _framework density 21.281296999999999
#
# number of rings (size 3 to 8) (size 9 to 14) (size 15 to 20)
#    0.000    1.250    1.250    4.875    0.000    5.500 
#    0.000    5.000    0.000    0.000    0.000    0.000 
#    0.000    0.000    0.000    0.000    0.000    0.000 
#
# Total GULP energy -179028.500943 kJ/mol
# GULP energy per Si atom -5594.640654 kJ/mol
# Density = 2.123286 g / cm^3
# Si number density = 21.281297 Si / 1000 Ang^3
#
#
#
# Elastic Constant Matrix: (Units=GPa)
#
#
# Indices 1 2 3 4 5 6 
#
# 1 74.0215 -12.6309 9.4836 0.0000 -15.6921 0.0000
# 2 -12.6309 30.8568 -6.3836 0.0000 4.6769 0.0000
# 3 9.4836 -6.3836 59.8401 0.0000 -20.1904 0.0000
# 4 0.0000 0.0000 0.0000 25.8803 0.0000 -2.0765
# 5 -15.6921 4.6769 -20.1904 0.0000 36.9142 0.0000
# 6 0.0000 0.0000 0.0000 -2.0765 0.0000 32.4846
#
#
#
# Elastic Compliance Matrix: (Units=1/GPa)
#
#
# Indices 1 2 3 4 5 6 
#
# 1 0.015722 0.005547 0.000145 0.000000 0.006060 0.000000
# 2 0.005547 0.035330 0.002667 0.000000 -0.000659 0.000000
# 3 0.000145 0.002667 0.020700 0.000000 0.011045 0.000000
# 4 0.000000 0.000000 0.000000 0.038839 0.000000 0.002483
# 5 0.006060 -0.000659 0.011045 0.000000 0.035791 0.000000
# 6 0.000000 0.000000 0.000000 0.002483 0.000000 0.030943
#
#
# Mechanical properties :
#
#
# Convention : Reuss Voigt Hill
#
# Bulk Modulus (GPa) = 11.30320 16.18404 13.74362
# Shear Modulus (GPa) = 26.30258 30.67244 28.48751
#
# Velocity S-wave (km/s) = 3.51942 3.80055 3.66268
# Velocity P-wave (km/s) = 4.67311 5.18461 4.93549
#
# Compressibility (1/GPa) = 0.08847055
#
# Stress axis : x y z
#
# Youngs Moduli (GPa) = 63.60409 28.30442 48.31019
#
# Poissons Ratio (x) = -0.15701 -0.00699
# Poissons Ratio (y) = -0.35282 -0.12886
# Poissons Ratio (z) = -0.00920 -0.07550
#
# Static dielectric constant tensor:
#      x y z
#    x 1.768190 0.000000 0.015660 
#    y 0.000000 2.011390 0.000000 
#    z 0.015660 0.000000 1.776210 
# 
# From -- ./inp_files/45213.got.cif
#   From: 2010.05.17/outbox.cif.g08.bks.cpg/sg11_23_cif.got.tgz:45213.got - 2010.06.03 12:22:45.
