data_PCOD9167399
_publ_section_title
;
Structure prediction by ZEFSAII (Michael W. Deem and Ramdas Pophale) SiO2 
 PCOD9167399
Probable space group: P 21/M
;
_chemical_formula_sum "Si O2"
_cell_formula_units_Z 20
_cell_length_a 10.317608
_cell_length_b 13.684847
_cell_length_c 7.076200
_cell_angle_alpha 90.000000
_cell_angle_beta 106.336008
_cell_angle_gamma 90.000000
_cell_volume 958.787369
_symmetry_space_group_name_H-M "P 21/M"
_symmetry_group_IT_number 11
_symmetry_cell_setting 'monoclinic'
loop_
_space_group_symop_operation_xyz
x,y,z
-x,1/2+y,-z
-x,-y,-z
x,1/2-y,z
loop_
_atom_site_type_symbol
_atom_site_label
_atom_site_fract_x
_atom_site_fract_y
_atom_site_fract_z
Si Si1 0.996763 0.414484 0.255248
Si Si2 0.621956 0.360393 0.541272
Si Si3 0.908788 0.387435 0.832842
Si Si4 0.147279 0.098840 0.671065
Si Si5 0.440147 0.465665 0.775986
O O1 0.950335 0.641447 0.208522
O O2 0.092159 0.493810 0.187157
O O3 0.089924 0.364307 0.447842
O O4 0.918026 0.361329 0.056409
O O5 0.576571 0.250000 0.475773
O O6 0.778720 0.354952 0.666413
O O7 0.543759 0.403667 0.691228
O O8 0.891677 0.482666 0.327322
O O9 0.401894 0.561545 0.635576
O O10 0.306373 0.100169 0.753521
O O11 0.500000 0.500000 0.000000
#
# Coordination Sequence:
#
# PCOD9167399 Si02
#       5
#     4   4   4   4   4
#     4   8  14  25  55  83 106 134 182 236 285 352
#     4  11  24  40  57  89 125 157 205 261 309 362
#     4   9  16  30  55  82 110 142 184 242 295 353
#     4   9  15  30  53  83 104 142 196 232 281 354
#     4  11  23  38  63  87 119 170 206 247 307 365
#
# _framework density 20.859681999999999
#
# number of rings (size 3 to 8) (size 9 to 14) (size 15 to 20)
#    1.200    1.200    2.000    1.200    0.000    0.800 
#    0.000    1.000    0.000    3.600    0.000    0.000 
#    0.000    0.000    0.000    0.000    0.000    0.000 
#
# Total GULP energy -111340.250256 kJ/mol
# GULP energy per Si atom -5567.012513 kJ/mol
# Density = 2.081220 g / cm^3
# Si number density = 20.859682 Si / 1000 Ang^3
#
#
#
# Elastic Constant Matrix: (Units=GPa)
#
#
# Indices 1 2 3 4 5 6 
#
# 1 117.0862 16.3178 43.6101 0.0000 5.6250 0.0000
# 2 16.3178 92.1402 13.2962 0.0000 -0.4406 0.0000
# 3 43.6101 13.2962 144.4803 0.0000 -15.5738 0.0000
# 4 0.0000 0.0000 0.0000 -8.0758 0.0000 4.5399
# 5 5.6250 -0.4406 -15.5738 0.0000 25.1190 0.0000
# 6 0.0000 0.0000 0.0000 4.5399 0.0000 -11.5575
#
#
#
# Elastic Compliance Matrix: (Units=1/GPa)
#
#
# Indices 1 2 3 4 5 6 
#
# 1 0.010222 -0.001335 -0.003442 0.000000 -0.004447 0.000000
# 2 -0.001335 0.011179 -0.000613 0.000000 0.000115 0.000000
# 3 -0.003442 -0.000613 0.008679 0.000000 0.006141 0.000000
# 4 0.000000 0.000000 0.000000 -0.158921 0.000000 -0.062426
# 5 -0.004447 0.000115 0.006141 0.000000 0.044616 0.000000
# 6 0.000000 0.000000 0.000000 -0.062426 0.000000 -0.111046
#
#
# Mechanical properties :
#
#
# Convention : Reuss Voigt Hill
#
# Bulk Modulus (GPa) = 51.81655 55.57277 53.69466
# Shear Modulus (GPa) = -28.08067 19.79600 -4.14234
#
# Velocity S-wave (km/s) = -3.67300 3.08394 -1.41072
# Velocity P-wave (km/s) = 2.62803 6.27535 4.81075
#
# Compressibility (1/GPa) = 0.01929885
#
# Stress axis : x y z
#
# Youngs Moduli (GPa) = 97.82443 89.45740 115.22486
#
# Poissons Ratio (x) = 0.11942 0.39660
# Poissons Ratio (y) = 0.13059 0.07068
# Poissons Ratio (z) = 0.33671 0.05488
#
# Static dielectric constant tensor:
#      x y z
#    x 1.754110 0.000000 -0.004980 
#    y 0.000000 1.781100 0.000000 
#    z -0.004980 0.000000 1.752830 
# 
# From -- ./inp_files/17581.got.cif
#   From: 2010.05.17/outbox.cif.g08.bks.cpg/sg11_9_cif.got.tgz:17581.got - 2010.06.03 12:22:45.
