data_PCOD9167444
_publ_section_title
;
Structure prediction by ZEFSAII (Michael W. Deem and Ramdas Pophale) SiO2 
 PCOD9167444
Probable space group: P 21/M
;
_chemical_formula_sum "Si O2"
_cell_formula_units_Z 32
_cell_length_a 16.599356
_cell_length_b 21.402852
_cell_length_c 12.887219
_cell_angle_alpha 90.000000
_cell_angle_beta 22.530567
_cell_angle_gamma 90.000000
_cell_volume 1754.367986
_symmetry_space_group_name_H-M "P 21/M"
_symmetry_group_IT_number 11
_symmetry_cell_setting 'monoclinic'
loop_
_space_group_symop_operation_xyz
x,y,z
-x,1/2+y,-z
-x,-y,-z
x,1/2-y,z
loop_
_atom_site_type_symbol
_atom_site_label
_atom_site_fract_x
_atom_site_fract_y
_atom_site_fract_z
Si Si1 0.810740 0.955748 0.256413
Si Si2 0.278445 0.680025 0.746944
Si Si3 0.202255 0.678268 0.594675
Si Si4 0.571871 0.063626 0.791106
Si Si5 0.948342 0.078714 0.838351
Si Si6 0.598595 0.524104 0.221647
Si Si7 0.260434 0.144096 0.830027
Si Si8 0.844154 0.532943 0.600725
O O1 0.602513 0.994934 0.483480
O O2 0.805651 0.895354 0.191737
O O3 0.854529 0.936025 0.321974
O O4 0.000000 0.000000 0.000000
O O5 0.194583 0.750000 0.862908
O O6 0.232949 0.662578 0.680713
O O7 0.531887 0.680952 0.449909
O O8 0.178951 0.633199 0.949968
O O9 0.276547 0.750000 0.490455
O O10 0.320307 0.626318 0.384244
O O11 0.949980 0.676189 0.878199
O O12 0.477990 0.025549 0.805322
O O13 0.743908 0.023142 0.649679
O O14 0.359784 0.069073 0.111555
O O15 0.030484 0.081124 0.622833
O O16 0.793435 0.019617 0.015794
O O17 0.660362 0.593154 0.181565
O O18 0.000000 0.500000 0.500000
#
# Coordination Sequence:
#
# PCOD9167444 Si02
#       8
#     4   4   4   4   4   4   4   4
#     4  12  21  31  52  91 126 156 189 239 311 376
#     4  11  24  40  59  87 124 166 207 246 295 374
#     4  11  24  41  62  90 125 167 207 246 302 372
#     4  11  23  41  62  92 125 153 207 259 308 366
#     4  12  22  38  58  87 126 160 197 249 313 367
#     4  12  21  33  60  93 121 156 195 257 313 367
#     4  12  21  35  58  90 127 158 197 244 307 369
#     4  11  24  40  65  92 120 156 200 259 320 356
#
# _framework density 18.240186000000001
#
# number of rings (size 3 to 8) (size 9 to 14) (size 15 to 20)
#    0.000    0.500    7.500    3.000    0.000    0.000 
#    0.000    0.625    0.000    0.750    0.000    0.000 
#    0.000    0.000    0.000    0.000    0.000    0.000 
#
# Total GULP energy -178457.404130 kJ/mol
# GULP energy per Si atom -5576.793879 kJ/mol
# Density = 1.819867 g / cm^3
# Si number density = 18.240186 Si / 1000 Ang^3
#
#
#
# Elastic Constant Matrix: (Units=GPa)
#
#
# Indices 1 2 3 4 5 6 
#
# 1 106.5161 36.6558 30.1356 0.0000 -6.3682 0.0000
# 2 36.6558 80.5020 42.5650 0.0000 13.2459 0.0000
# 3 30.1356 42.5650 110.9079 0.0000 9.2667 0.0000
# 4 0.0000 0.0000 0.0000 18.5987 0.0000 4.3020
# 5 -6.3682 13.2459 9.2667 0.0000 37.7641 0.0000
# 6 0.0000 0.0000 0.0000 4.3020 0.0000 14.0153
#
#
#
# Elastic Compliance Matrix: (Units=1/GPa)
#
#
# Indices 1 2 3 4 5 6 
#
# 1 0.011905 -0.005297 -0.001557 0.000000 0.004248 0.000000
# 2 -0.005297 0.018583 -0.005180 0.000000 -0.006140 0.000000
# 3 -0.001557 -0.005180 0.011534 0.000000 -0.001276 0.000000
# 4 0.000000 0.000000 0.000000 0.057876 0.000000 -0.017765
# 5 0.004248 -0.006140 -0.001276 0.000000 0.029663 0.000000
# 6 0.000000 0.000000 0.000000 -0.017765 0.000000 0.076804
#
#
# Mechanical properties :
#
#
# Convention : Reuss Voigt Hill
#
# Bulk Modulus (GPa) = 55.69250 57.40430 56.54840
# Shear Modulus (GPa) = 21.14900 26.64692 23.89796
#
# Velocity S-wave (km/s) = 3.40880 3.82631 3.62357
# Velocity P-wave (km/s) = 6.78913 7.14566 6.96968
#
# Compressibility (1/GPa) = 0.01795574
#
# Stress axis : x y z
#
# Youngs Moduli (GPa) = 83.99495 53.81305 86.69977
#
# Poissons Ratio (x) = 0.28503 0.13499
# Poissons Ratio (y) = 0.44489 0.44907
# Poissons Ratio (z) = 0.13078 0.27873
#
# Static dielectric constant tensor:
#      x y z
#    x 1.673530 0.000000 0.015020 
#    y 0.000000 1.634730 0.000000 
#    z 0.015020 0.000000 1.686040 
# 
# From -- ./inp_files/53854.got.cif
#   From: 2010.05.17/outbox.cif.g08.bks.cpg/sg11_27_cif.got.tgz:53854.got - 2010.06.03 12:22:45.
