data_PCOD9167155
_publ_section_title
;
Structure prediction by ZEFSAII (Michael W. Deem and Ramdas Pophale) SiO2 
 PCOD9167155
Probable space group: P 21/M
;
_chemical_formula_sum "Si O2"
_cell_formula_units_Z 24
_cell_length_a 9.573573
_cell_length_b 8.750718
_cell_length_c 19.757584
_cell_angle_alpha 90.000000
_cell_angle_beta 60.573317
_cell_angle_gamma 90.000000
_cell_volume 1441.658192
_symmetry_space_group_name_H-M "P 21/M"
_symmetry_group_IT_number 11
_symmetry_cell_setting 'monoclinic'
loop_
_space_group_symop_operation_xyz
x,y,z
-x,1/2+y,-z
-x,-y,-z
x,1/2-y,z
loop_
_atom_site_type_symbol
_atom_site_label
_atom_site_fract_x
_atom_site_fract_y
_atom_site_fract_z
Si Si1 0.595731 0.930817 0.915081
Si Si2 0.425494 0.069232 0.229645
Si Si3 0.795434 0.935616 0.361160
Si Si4 0.837565 0.933751 0.507260
Si Si5 0.863217 0.433185 0.770744
Si Si6 0.515566 0.432985 0.646809
O O1 0.614736 0.750000 0.919033
O O2 0.509630 0.956399 0.862327
O O3 0.769299 0.006745 0.859274
O O4 0.500000 0.000000 0.000000
O O5 0.421242 0.250000 0.243475
O O6 0.244366 0.003795 0.264354
O O7 0.512485 0.983258 0.269155
O O8 0.792312 0.750000 0.361578
O O9 0.816559 0.982882 0.433882
O O10 0.630479 0.986574 0.366044
O O11 0.953626 0.981500 0.281696
O O12 0.843979 0.750000 0.508023
O O13 0.681781 0.992513 0.583921
O O14 0.000000 0.000000 0.500000
O O15 0.853090 0.250000 0.770205
O O16 0.528110 0.250000 0.639723
#
# Coordination Sequence:
#
# PCOD9167155 Si02
#       6
#     4   4   4   4   4   4
#     4   9  18  31  52  81 109 133 171 216 259 310
#     4   9  19  33  50  77 106 133 172 216 257 305
#     4   9  20  35  52  75 104 139 178 216 260 310
#     4  11  22  37  55  77 105 137 178 223 262 305
#     4   9  16  31  54  77 103 135 172 216 262 306
#     4  11  21  35  53  75 104 141 179 215 260 311
#
# _framework density 16.647497999999999
#
# number of rings (size 3 to 8) (size 9 to 14) (size 15 to 20)
#    1.000    1.333    0.000    3.500    0.000    1.333 
#    0.000    7.500    0.000    1.000    0.000    0.000 
#    0.000    0.000    0.000    0.000    0.000    0.000 
#
# Total GULP energy -133629.874685 kJ/mol
# GULP energy per Si atom -5567.911445 kJ/mol
# Density = 1.660961 g / cm^3
# Si number density = 16.647498 Si / 1000 Ang^3
#
#
#
# Elastic Constant Matrix: (Units=GPa)
#
#
# Indices 1 2 3 4 5 6 
#
# 1 122.7796 35.0855 53.1908 0.0000 9.4702 0.0000
# 2 35.0855 59.7359 37.3363 0.0000 5.2599 0.0000
# 3 53.1908 37.3363 107.0364 0.0000 6.1939 0.0000
# 4 0.0000 0.0000 0.0000 28.3630 0.0000 1.6127
# 5 9.4702 5.2599 6.1939 0.0000 10.5697 0.0000
# 6 0.0000 0.0000 0.0000 1.6127 0.0000 19.8496
#
#
#
# Elastic Compliance Matrix: (Units=1/GPa)
#
#
# Indices 1 2 3 4 5 6 
#
# 1 0.011403 -0.003635 -0.004050 0.000000 -0.006035 0.000000
# 2 -0.003635 0.023006 -0.005946 0.000000 -0.004707 0.000000
# 3 -0.004050 -0.005946 0.013506 0.000000 -0.001327 0.000000
# 4 0.000000 0.000000 0.000000 0.035421 0.000000 -0.002878
# 5 -0.006035 -0.004707 -0.001327 0.000000 0.103138 0.000000
# 6 0.000000 0.000000 0.000000 -0.002878 0.000000 0.050613
#
#
# Mechanical properties :
#
#
# Convention : Reuss Voigt Hill
#
# Bulk Modulus (GPa) = 48.41716 60.08636 54.25176
# Shear Modulus (GPa) = 18.43431 22.68575 20.56003
#
# Velocity S-wave (km/s) = 3.33127 3.69550 3.51810
# Velocity P-wave (km/s) = 6.62898 7.37432 7.01156
#
# Compressibility (1/GPa) = 0.02065383
#
# Stress axis : x y z
#
# Youngs Moduli (GPa) = 87.69390 43.46604 74.04154
#
# Poissons Ratio (x) = 0.15801 0.29983
# Poissons Ratio (y) = 0.31879 0.44027
# Poissons Ratio (z) = 0.35512 0.25846
#
# Static dielectric constant tensor:
#      x y z
#    x 1.552450 0.000000 0.014360 
#    y 0.000000 1.560880 0.000000 
#    z 0.014360 0.000000 1.573420 
# 
# From -- ./inp_files/27203.got.cif
#   From: 2010.05.17/outbox.cif.g08.bks.cpg/sg11_14_cif.got.tgz:27203.got - 2010.06.03 12:22:45.
