data_PCOD9167137
_publ_section_title
;
Structure prediction by ZEFSAII (Michael W. Deem and Ramdas Pophale) SiO2 
 PCOD9167137
Probable space group: P 21/M
;
_chemical_formula_sum "Si O2"
_cell_formula_units_Z 28
_cell_length_a 9.830176
_cell_length_b 7.486576
_cell_length_c 33.394089
_cell_angle_alpha 90.000000
_cell_angle_beta 31.480175
_cell_angle_gamma 90.000000
_cell_volume 1283.376014
_symmetry_space_group_name_H-M "P 21/M"
_symmetry_group_IT_number 11
_symmetry_cell_setting 'monoclinic'
loop_
_space_group_symop_operation_xyz
x,y,z
-x,1/2+y,-z
-x,-y,-z
x,1/2-y,z
loop_
_atom_site_type_symbol
_atom_site_label
_atom_site_fract_x
_atom_site_fract_y
_atom_site_fract_z
Si Si1 0.678491 0.970076 0.245590
Si Si2 0.724248 0.967108 0.320978
Si Si3 0.297134 0.036495 0.585828
Si Si4 0.802702 0.448449 0.922468
Si Si5 0.175341 0.037401 0.994867
Si Si6 0.672610 0.466721 0.825379
Si Si7 0.297568 0.532022 0.271190
O O1 0.680325 0.750000 0.244107
O O2 0.603602 0.025419 0.309296
O O3 0.476807 0.028727 0.262392
O O4 0.968931 0.035771 0.160962
O O5 0.713053 0.750000 0.323863
O O6 0.623545 0.028903 0.389591
O O7 0.029638 0.017614 0.242601
O O8 0.276229 0.250000 0.594261
O O9 0.003475 0.973019 0.650229
O O10 0.500000 0.000000 0.500000
O O11 0.791149 0.250000 0.908801
O O12 0.500000 0.500000 0.000000
O O13 0.902968 0.453520 0.943261
O O14 0.179958 0.250000 0.000292
O O15 0.463937 0.972178 0.910062
O O16 0.000000 0.000000 0.000000
O O17 0.664610 0.250000 0.828176
O O18 0.599879 0.522329 0.798444
O O19 0.298465 0.750000 0.271281
#
# Coordination Sequence:
#
# PCOD9167137 Si02
#       7
#     4   4   4   4   4   4   4
#     4   9  16  28  48  71  93 121 166 211 240 276
#     4   8  14  26  46  69  88 115 157 198 230 272
#     4   9  17  30  50  73  96 119 147 187 236 289
#     4  11  22  35  52  75 103 137 173 215 264 310
#     4  11  21  33  50  73 101 133 171 219 265 305
#     4   8  14  26  44  65  89 119 160 202 237 277
#     4   8  14  26  46  70  91 118 159 202 235 273
#
# _framework density 21.817456
#
# number of rings (size 3 to 8) (size 9 to 14) (size 15 to 20)
#    0.000    2.857    0.000    4.286    0.000    4.571 
#    0.000    0.714    0.000   17.143    0.000    0.000 
#    0.000    0.000    0.000    0.000    0.000    0.000 
#
# Total GULP energy -156223.046625 kJ/mol
# GULP energy per Si atom -5579.394522 kJ/mol
# Density = 2.176780 g / cm^3
# Si number density = 21.817456 Si / 1000 Ang^3
#
#
#
# Elastic Constant Matrix: (Units=GPa)
#
#
# Indices 1 2 3 4 5 6 
#
# 1 119.9840 -2.5934 30.4077 0.0000 30.0195 0.0000
# 2 -2.5934 59.0699 -2.2278 0.0000 -3.1812 0.0000
# 3 30.4077 -2.2278 110.0927 0.0000 30.4148 0.0000
# 4 0.0000 0.0000 0.0000 13.0956 0.0000 0.7932
# 5 30.0195 -3.1812 30.4148 0.0000 31.1150 0.0000
# 6 0.0000 0.0000 0.0000 0.7932 0.0000 6.9577
#
#
#
# Elastic Compliance Matrix: (Units=1/GPa)
#
#
# Indices 1 2 3 4 5 6 
#
# 1 0.010989 -0.000087 -0.000145 0.000000 -0.010469 0.000000
# 2 -0.000087 0.017026 -0.000186 0.000000 0.002006 0.000000
# 3 -0.000145 -0.000186 0.012448 0.000000 -0.012047 0.000000
# 4 0.000000 0.000000 0.000000 0.076892 0.000000 -0.008766
# 5 -0.010469 0.002006 -0.012047 0.000000 0.054220 0.000000
# 6 0.000000 0.000000 0.000000 -0.008766 0.000000 0.144725
#
#
# Mechanical properties :
#
#
# Convention : Reuss Voigt Hill
#
# Bulk Modulus (GPa) = 25.23442 37.81329 31.52385
# Shear Modulus (GPa) = 15.13576 27.80435 21.47006
#
# Velocity S-wave (km/s) = 2.63676 3.57376 3.14040
# Velocity P-wave (km/s) = 4.56742 5.86501 5.25641
#
# Compressibility (1/GPa) = 0.03962842
#
# Stress axis : x y z
#
# Youngs Moduli (GPa) = 91.00373 58.73261 80.33698
#
# Poissons Ratio (x) = 0.00510 0.01161
# Poissons Ratio (y) = 0.00790 0.01492
# Poissons Ratio (z) = 0.01315 0.01091
#
# Static dielectric constant tensor:
#      x y z
#    x 1.814160 0.000000 0.008860 
#    y 0.000000 1.946360 0.000000 
#    z 0.008860 0.000000 1.789670 
# 
# From -- ./inp_files/72731.got.cif
#   From: 2010.05.17/outbox.cif.g08.bks.cpg/sg11_37_cif.got.tgz:72731.got - 2010.06.03 12:22:45.
