data_PCOD9167530
_publ_section_title
;
Structure prediction by ZEFSAII (Michael W. Deem and Ramdas Pophale) SiO2 
 PCOD9167530
Probable space group: P 21/M
;
_chemical_formula_sum "Si O2"
_cell_formula_units_Z 24
_cell_length_a 16.429072
_cell_length_b 14.928695
_cell_length_c 8.665558
_cell_angle_alpha 90.000000
_cell_angle_beta 150.022830
_cell_angle_gamma 90.000000
_cell_volume 1061.943838
_symmetry_space_group_name_H-M "P 21/M"
_symmetry_group_IT_number 11
_symmetry_cell_setting 'monoclinic'
loop_
_space_group_symop_operation_xyz
x,y,z
-x,1/2+y,-z
-x,-y,-z
x,1/2-y,z
loop_
_atom_site_type_symbol
_atom_site_label
_atom_site_fract_x
_atom_site_fract_y
_atom_site_fract_z
Si Si1 0.061324 0.428087 0.788041
Si Si2 0.842370 0.579649 0.394202
Si Si3 0.018863 0.250000 0.226669
Si Si4 0.141680 0.250000 0.114124
Si Si5 0.687835 0.250000 0.872326
Si Si6 0.516274 0.414393 0.132755
Si Si7 0.502621 0.250000 0.876803
Si Si8 0.357891 0.559633 0.340319
O O1 0.064148 0.403733 0.612183
O O2 0.892223 0.481393 0.539031
O O3 0.112379 0.340868 0.968177
O O4 0.193012 0.507569 0.026710
O O5 0.652721 0.589644 0.050151
O O6 0.885415 0.658808 0.580852
O O7 0.001312 0.250000 0.014797
O O8 0.867616 0.250000 0.093949
O O9 0.324560 0.250000 0.494652
O O10 0.645245 0.250000 0.982826
O O11 0.618034 0.157522 0.692218
O O12 0.523496 0.333161 0.026170
O O13 0.500000 0.500000 0.000000
O O14 0.645363 0.427022 0.480326
O O15 0.500000 0.500000 0.500000
#
# Coordination Sequence:
#
# PCOD9167530 Si02
#       8
#     4   4   2   2   2   4   2   4
#     4  11  25  44  75 104 142 189 239 295 359 430
#     4  11  24  46  71 103 144 190 237 290 363 430
#     4  12  25  47  75 101 146 188 235 304 361 425
#     4  12  25  45  71 110 137 188 241 298 358 436
#     4  12  27  47  71 105 142 186 247 298 357 433
#     4  12  25  44  71 106 145 188 236 299 359 427
#     4  12  27  45  71 104 147 188 239 302 358 424
#     4  12  24  45  74 107 143 188 238 298 362 430
#
# _framework density 22.600066000000002
#
# number of rings (size 3 to 8) (size 9 to 14) (size 15 to 20)
#    0.000    0.333    5.000    4.000    0.000    2.000 
#    0.000    2.500    0.000    0.000    0.000    0.000 
#    0.000    0.000    0.000    0.000    0.000    0.000 
#
# Total GULP energy -134134.441979 kJ/mol
# GULP energy per Si atom -5588.935082 kJ/mol
# Density = 2.254863 g / cm^3
# Si number density = 22.600066 Si / 1000 Ang^3
#
#
#
# Elastic Constant Matrix: (Units=GPa)
#
#
# Indices 1 2 3 4 5 6 
#
# 1 99.5849 38.0733 24.2822 0.0000 -22.2748 0.0000
# 2 38.0733 181.1943 28.1612 0.0000 -40.5900 0.0000
# 3 24.2822 28.1612 57.3688 0.0000 -25.3359 0.0000
# 4 0.0000 0.0000 0.0000 32.7224 0.0000 -21.3837
# 5 -22.2748 -40.5900 -25.3359 0.0000 42.8418 0.0000
# 6 0.0000 0.0000 0.0000 -21.3837 0.0000 27.0955
#
#
#
# Elastic Compliance Matrix: (Units=1/GPa)
#
#
# Indices 1 2 3 4 5 6 
#
# 1 0.012002 -0.001339 -0.003014 0.000000 0.003189 0.000000
# 2 -0.001339 0.007175 -0.000353 0.000000 0.005893 0.000000
# 3 -0.003014 -0.000353 0.024418 0.000000 0.012539 0.000000
# 4 0.000000 0.000000 0.000000 0.063106 0.000000 0.049803
# 5 0.003189 0.005893 0.012539 0.000000 0.037998 0.000000
# 6 0.000000 0.000000 0.000000 0.049803 0.000000 0.076211
#
#
# Mechanical properties :
#
#
# Convention : Reuss Voigt Hill
#
# Bulk Modulus (GPa) = 29.25477 57.68684 43.47080
# Shear Modulus (GPa) = 20.68538 37.04069 28.86304
#
# Velocity S-wave (km/s) = 3.02864 4.05280 3.57756
# Velocity P-wave (km/s) = 5.02025 6.89063 6.02842
#
# Compressibility (1/GPa) = 0.03418246
#
# Stress axis : x y z
#
# Youngs Moduli (GPa) = 83.32009 139.36652 40.95409
#
# Poissons Ratio (x) = 0.18662 0.12345
# Poissons Ratio (y) = 0.11157 0.01445
# Poissons Ratio (z) = 0.25116 0.04916
#
# Static dielectric constant tensor:
#      x y z
#    x 1.853000 0.000000 0.063960 
#    y 0.000000 1.813020 0.000000 
#    z 0.063960 0.000000 1.875520 
# 
# From -- ./inp_files/25017.got.cif
#   From: 2010.05.17/outbox.cif.g08.bks.cpg/sg11_13_cif.got.tgz:25017.got - 2010.06.03 12:22:45.
