data_PCOD9167232
_publ_section_title
;
Structure prediction by ZEFSAII (Michael W. Deem and Ramdas Pophale) SiO2 
 PCOD9167232
Probable space group: P 21/M
;
_chemical_formula_sum "Si O2"
_cell_formula_units_Z 24
_cell_length_a 17.372712
_cell_length_b 14.593380
_cell_length_c 8.677228
_cell_angle_alpha 90.000000
_cell_angle_beta 33.555651
_cell_angle_gamma 90.000000
_cell_volume 1215.991830
_symmetry_space_group_name_H-M "P 21/M"
_symmetry_group_IT_number 11
_symmetry_cell_setting 'monoclinic'
loop_
_space_group_symop_operation_xyz
x,y,z
-x,1/2+y,-z
-x,-y,-z
x,1/2-y,z
loop_
_atom_site_type_symbol
_atom_site_label
_atom_site_fract_x
_atom_site_fract_y
_atom_site_fract_z
Si Si1 0.035537 0.750000 0.895149
Si Si2 0.382931 0.444120 0.287172
Si Si3 0.927310 0.922849 0.225374
Si Si4 0.093366 0.925806 0.258108
Si Si5 0.527582 0.250000 0.024433
Si Si6 0.832744 0.250000 0.660939
Si Si7 0.656644 0.250000 0.465139
Si Si8 0.627638 0.047745 0.373311
O O1 0.085553 0.750000 0.636559
O O2 0.179587 0.750000 0.756498
O O3 0.940576 0.835617 0.094565
O O4 0.230379 0.446003 0.465791
O O5 0.439659 0.341078 0.205395
O O6 0.358448 0.493816 0.490046
O O7 0.500000 0.500000 0.000000
O O8 0.012463 0.901033 0.236906
O O9 0.000000 0.000000 0.000000
O O10 0.126157 0.839109 0.310074
O O11 0.239491 0.965591 0.956817
O O12 0.000000 0.000000 0.500000
O O13 0.669360 0.250000 0.888268
O O14 0.572966 0.250000 0.767462
O O15 0.622666 0.156643 0.426918
O O16 0.500000 0.000000 0.500000
#
# Coordination Sequence:
#
# PCOD9167232 Si02
#       8
#     2   4   4   4   2   2   2   4
#     4  11  22  44  73 102 138 186 243 291 350 429
#     4  12  26  46  73 110 137 189 249 289 356 425
#     4  12  24  45  74 101 140 187 239 294 345 427
#     4  12  26  44  70 106 142 187 235 292 364 417
#     4  11  25  44  75 102 144 187 238 296 349 439
#     4  11  26  44  73 106 143 185 236 296 363 425
#     4  11  21  46  71 102 137 196 237 281 370 423
#     4  12  26  45  72 103 146 188 237 302 359 432
#
# _framework density 19.736974
#
# number of rings (size 3 to 8) (size 9 to 14) (size 15 to 20)
#    0.000    0.333    5.000    3.500    7.000    0.667 
#    0.000    0.833    0.000    0.000    0.000    0.000 
#    0.000    0.000    0.000    0.000    0.000    0.000 
#
# Total GULP energy -134206.235624 kJ/mol
# GULP energy per Si atom -5591.926484 kJ/mol
# Density = 1.969205 g / cm^3
# Si number density = 19.736974 Si / 1000 Ang^3
#
#
#
# Elastic Constant Matrix: (Units=GPa)
#
#
# Indices 1 2 3 4 5 6 
#
# 1 107.6427 25.7460 52.2379 0.0000 -10.4247 0.0000
# 2 25.7460 151.2810 74.3297 0.0000 5.0749 0.0000
# 3 52.2379 74.3297 167.2389 0.0000 -7.9241 0.0000
# 4 0.0000 0.0000 0.0000 39.4967 0.0000 5.1597
# 5 -10.4247 5.0749 -7.9241 0.0000 38.9273 0.0000
# 6 0.0000 0.0000 0.0000 5.1597 0.0000 36.4076
#
#
#
# Elastic Compliance Matrix: (Units=1/GPa)
#
#
# Indices 1 2 3 4 5 6 
#
# 1 0.011170 -0.000413 -0.003192 0.000000 0.002395 0.000000
# 2 -0.000413 0.008612 -0.003793 0.000000 -0.002005 0.000000
# 3 -0.003192 -0.003793 0.008730 0.000000 0.001417 0.000000
# 4 0.000000 0.000000 0.000000 0.025796 0.000000 -0.003656
# 5 0.002395 -0.002005 0.001417 0.000000 0.026880 0.000000
# 6 0.000000 0.000000 0.000000 -0.003656 0.000000 0.027985
#
#
# Mechanical properties :
#
#
# Convention : Reuss Voigt Hill
#
# Bulk Modulus (GPa) = 72.91669 81.19886 77.05777
# Shear Modulus (GPa) = 38.89826 41.22293 40.06060
#
# Velocity S-wave (km/s) = 4.44422 4.57509 4.51013
# Velocity P-wave (km/s) = 7.95985 8.31495 8.13934
#
# Compressibility (1/GPa) = 0.01371428
#
# Stress axis : x y z
#
# Youngs Moduli (GPa) = 89.52767 116.12173 114.55267
#
# Poissons Ratio (x) = 0.04796 0.36564
# Poissons Ratio (y) = 0.03698 0.43455
# Poissons Ratio (z) = 0.28576 0.44051
#
# Static dielectric constant tensor:
#      x y z
#    x 1.705050 0.000000 -0.024870 
#    y 0.000000 1.672360 0.000000 
#    z -0.024870 0.000000 1.673000 
# 
# From -- ./inp_files/24898.got.cif
#   From: 2010.05.17/outbox.cif.g08.bks.cpg/sg11_13_cif.got.tgz:24898.got - 2010.06.03 12:22:45.
