data_PCOD9167327
_publ_section_title
;
Structure prediction by ZEFSAII (Michael W. Deem and Ramdas Pophale) SiO2 
 PCOD9167327
Probable space group: P 21/M
;
_chemical_formula_sum "Si O2"
_cell_formula_units_Z 32
_cell_length_a 11.270202
_cell_length_b 17.452288
_cell_length_c 14.578345
_cell_angle_alpha 90.000000
_cell_angle_beta 30.427561
_cell_angle_gamma 90.000000
_cell_volume 1452.204140
_symmetry_space_group_name_H-M "P 21/M"
_symmetry_group_IT_number 11
_symmetry_cell_setting 'monoclinic'
loop_
_space_group_symop_operation_xyz
x,y,z
-x,1/2+y,-z
-x,-y,-z
x,1/2-y,z
loop_
_atom_site_type_symbol
_atom_site_label
_atom_site_fract_x
_atom_site_fract_y
_atom_site_fract_z
Si Si1 0.075762 0.920427 0.746006
Si Si2 0.838186 0.423123 0.114550
Si Si3 0.479043 0.913763 0.971729
Si Si4 0.378529 0.334194 0.941947
Si Si5 0.065487 0.096879 0.694906
Si Si6 0.346847 0.063256 0.339238
Si Si7 0.249044 0.162673 0.754722
Si Si8 0.666076 0.107847 0.592776
O O1 0.227518 0.908274 0.735775
O O2 0.132395 0.874018 0.615362
O O3 0.104569 0.008496 0.699027
O O4 0.814593 0.898731 0.951571
O O5 0.607544 0.429836 0.207595
O O6 0.000000 0.500000 0.000000
O O7 0.004133 0.355747 0.967552
O O8 0.541514 0.854762 0.009743
O O9 0.213577 0.895633 0.119380
O O10 0.642378 0.912282 0.773247
O O11 0.500000 0.000000 0.000000
O O12 0.271830 0.250000 0.006591
O O13 0.587041 0.339705 0.729350
O O14 0.170791 0.107539 0.523605
O O15 0.197127 0.146533 0.683168
O O16 0.285164 0.973582 0.392054
O O17 0.324048 0.250000 0.719866
O O18 0.442001 0.107827 0.672863
#
# Coordination Sequence:
#
# PCOD9167327 Si02
#       8
#     4   4   4   4   4   4   4   4
#     4  11  22  39  70  99 126 163 215 266 318 386
#     4  12  19  38  67  96 128 167 210 258 318 386
#     4  12  23  43  66  94 124 166 220 274 311 373
#     4  12  26  43  63  93 132 173 211 267 336 385
#     4  11  23  42  68  96 124 168 218 268 314 377
#     4  11  22  40  70  98 122 163 223 270 312 372
#     4  12  24  39  63  97 137 173 205 257 332 393
#     4  11  22  40  66  98 130 162 209 269 325 383
#
# _framework density 22.035471000000001
#
# number of rings (size 3 to 8) (size 9 to 14) (size 15 to 20)
#    0.000    0.500    7.500    1.125    0.000    5.000 
#    0.000    2.500    0.000    0.000    0.000    0.000 
#    0.000    0.000    0.000    0.000    0.000    0.000 
#
# Total GULP energy -178850.303287 kJ/mol
# GULP energy per Si atom -5589.071978 kJ/mol
# Density = 2.198532 g / cm^3
# Si number density = 22.035471 Si / 1000 Ang^3
#
#
#
# Elastic Constant Matrix: (Units=GPa)
#
#
# Indices 1 2 3 4 5 6 
#
# 1 84.3202 5.9848 21.6966 0.0000 41.5578 0.0000
# 2 5.9848 32.8629 10.1811 0.0000 13.9692 0.0000
# 3 21.6966 10.1811 97.8544 0.0000 45.1950 0.0000
# 4 0.0000 0.0000 0.0000 13.2016 0.0000 2.0920
# 5 41.5578 13.9692 45.1950 0.0000 48.9224 0.0000
# 6 0.0000 0.0000 0.0000 2.0920 0.0000 10.3670
#
#
#
# Elastic Compliance Matrix: (Units=1/GPa)
#
#
# Indices 1 2 3 4 5 6 
#
# 1 0.023534 0.005479 0.007269 0.000000 -0.028271 0.000000
# 2 0.005479 0.036068 0.003382 0.000000 -0.018078 0.000000
# 3 0.007269 0.003382 0.020152 0.000000 -0.025757 0.000000
# 4 0.000000 0.000000 0.000000 0.078250 0.000000 -0.015790
# 5 -0.028271 -0.018078 -0.025757 0.000000 0.073412 0.000000
# 6 0.000000 0.000000 0.000000 -0.015790 0.000000 0.099647
#
#
# Mechanical properties :
#
#
# Convention : Reuss Voigt Hill
#
# Bulk Modulus (GPa) = 8.92740 32.30694 20.61717
# Shear Modulus (GPa) = 14.87473 26.30986 20.59229
#
# Velocity S-wave (km/s) = 2.60096 3.45915 3.06029
# Velocity P-wave (km/s) = 3.61665 5.53601 4.67587
#
# Compressibility (1/GPa) = 0.11201466
#
# Stress axis : x y z
#
# Youngs Moduli (GPa) = 42.49207 27.72521 49.62332
#
# Poissons Ratio (x) = -0.15192 -0.36072
# Poissons Ratio (y) = -0.23283 -0.16781
# Poissons Ratio (z) = -0.30888 -0.09376
#
# Static dielectric constant tensor:
#      x y z
#    x 1.825630 0.000000 0.016250 
#    y 0.000000 1.823570 0.000000 
#    z 0.016250 0.000000 1.849820 
# 
# From -- ./inp_files/39999.got.cif
#   From: 2010.05.17/outbox.cif.g08.bks.cpg/sg11_20_cif.got.tgz:39999.got - 2010.06.03 12:22:45.
