data_PCOD9167059
_publ_section_title
;
Structure prediction by ZEFSAII (Michael W. Deem and Ramdas Pophale) SiO2 
 PCOD9167059
Probable space group: P 21/M
;
_chemical_formula_sum "Si O2"
_cell_formula_units_Z 32
_cell_length_a 22.499964
_cell_length_b 14.518805
_cell_length_c 18.638079
_cell_angle_alpha 90.000000
_cell_angle_beta 162.676764
_cell_angle_gamma 90.000000
_cell_volume 1812.938978
_symmetry_space_group_name_H-M "P 21/M"
_symmetry_group_IT_number 11
_symmetry_cell_setting 'monoclinic'
loop_
_space_group_symop_operation_xyz
x,y,z
-x,1/2+y,-z
-x,-y,-z
x,1/2-y,z
loop_
_atom_site_type_symbol
_atom_site_label
_atom_site_fract_x
_atom_site_fract_y
_atom_site_fract_z
Si Si1 0.325394 0.895542 0.356820
Si Si2 0.161104 0.640320 0.608526
Si Si3 0.737455 0.604455 0.768881
Si Si4 0.415348 0.142736 0.830683
Si Si5 0.154862 0.944671 0.309729
Si Si6 0.663647 0.043896 0.327288
Si Si7 0.266278 0.359680 0.818859
Si Si8 0.093807 0.152913 0.187618
O O1 0.541782 0.860357 0.583565
O O2 0.285744 0.901355 0.396076
O O3 0.305074 0.999999 0.305075
O O4 0.138696 0.848327 0.103022
O O5 0.157325 0.750000 0.588368
O O6 0.205634 0.585606 0.587108
O O7 0.952970 0.614945 0.405947
O O8 0.352528 0.626209 0.880649
O O9 0.789956 0.651673 0.754281
O O10 0.934914 0.598644 0.045245
O O11 0.391211 0.250000 0.782412
O O12 0.296314 0.126212 0.768197
O O13 0.348968 0.066183 0.697936
O O14 0.246379 0.929650 0.492767
O O15 0.138588 0.055503 0.277180
O O16 0.442699 0.085607 0.061229
O O17 0.295251 0.250000 0.864212
O O18 0.138857 0.250000 0.277718
#
# Coordination Sequence:
#
# PCOD9167059 Si02
#       8
#     4   4   4   4   4   4   4   4
#     4   8  15  31  51  65  83 117 157 191 222 262
#     4   9  18  34  54  72  92 123 166 213 251 283
#     4   8  15  31  51  65  83 117 157 191 222 262
#     4   9  19  33  49  73 100 127 165 206 238 279
#     4   9  19  31  45  70 100 127 152 186 235 290
#     4  11  20  30  49  75 103 133 161 191 240 304
#     4   9  18  34  54  72  92 123 166 213 251 283
#     4   9  17  30  49  72  94 119 157 197 232 277
#
# _framework density 17.650895999999999
#
# number of rings (size 3 to 8) (size 9 to 14) (size 15 to 20)
#    0.000    3.000    0.000    4.125    0.000    4.000 
#    0.000    5.000    0.000    0.000    0.000    7.000 
#    0.000    0.000    0.000    0.000    0.000    0.000 
#
# Total GULP energy -178287.269577 kJ/mol
# GULP energy per Si atom -5571.477174 kJ/mol
# Density = 1.761072 g / cm^3
# Si number density = 17.650896 Si / 1000 Ang^3
#
#
#
# Elastic Constant Matrix: (Units=GPa)
#
#
# Indices 1 2 3 4 5 6 
#
# 1 49.9545 -0.2861 49.0721 0.0000 16.4939 0.0000
# 2 -0.2861 40.1503 3.1991 0.0000 7.8624 0.0000
# 3 49.0721 3.1991 71.2884 0.0000 31.5860 0.0000
# 4 0.0000 0.0000 0.0000 24.5962 0.0000 13.9414
# 5 16.4939 7.8624 31.5860 0.0000 38.1326 0.0000
# 6 0.0000 0.0000 0.0000 13.9414 0.0000 18.4156
#
#
#
# Elastic Compliance Matrix: (Units=1/GPa)
#
#
# Indices 1 2 3 4 5 6 
#
# 1 0.066653 0.001892 -0.052164 0.000000 0.013988 0.000000
# 2 0.001892 0.026173 0.000437 0.000000 -0.006577 0.000000
# 3 -0.052164 0.000437 0.063126 0.000000 -0.029815 0.000000
# 4 0.000000 0.000000 0.000000 0.071215 0.000000 -0.053913
# 5 0.013988 -0.006577 -0.029815 0.000000 0.046227 0.000000
# 6 0.000000 0.000000 0.000000 -0.053913 0.000000 0.095116
#
#
# Mechanical properties :
#
#
# Convention : Reuss Voigt Hill
#
# Bulk Modulus (GPa) = 17.76751 29.48482 23.62617
# Shear Modulus (GPa) = 10.26824 23.52277 16.89550
#
# Velocity S-wave (km/s) = 2.41455 3.65453 3.09723
# Velocity P-wave (km/s) = 4.22626 5.87777 5.11906
#
# Compressibility (1/GPa) = 0.05628250
#
# Stress axis : x y z
#
# Youngs Moduli (GPa) = 15.00314 38.20725 15.84144
#
# Poissons Ratio (x) = -0.07229 0.82635
# Poissons Ratio (y) = -0.02839 -0.00692
# Poissons Ratio (z) = 0.78262 -0.01670
#
# Static dielectric constant tensor:
#      x y z
#    x 1.571690 0.000000 0.031180 
#    y 0.000000 1.657720 0.000000 
#    z 0.031180 0.000000 1.585490 
# 
# From -- ./inp_files/61626.got.cif
#   From: 2010.05.17/outbox.cif.g08.bks.cpg/sg11_31_cif.got.tgz:61626.got - 2010.06.03 12:22:45.
