data_PCOD9167684
_publ_section_title
;
Structure prediction by ZEFSAII (Michael W. Deem and Ramdas Pophale) SiO2 
 PCOD9167684
Probable space group: P 21/M
;
_chemical_formula_sum "Si O2"
_cell_formula_units_Z 32
_cell_length_a 14.673327
_cell_length_b 14.308135
_cell_length_c 7.825694
_cell_angle_alpha 90.000000
_cell_angle_beta 83.851882
_cell_angle_gamma 90.000000
_cell_volume 1633.538470
_symmetry_space_group_name_H-M "P 21/M"
_symmetry_group_IT_number 11
_symmetry_cell_setting 'monoclinic'
loop_
_space_group_symop_operation_xyz
x,y,z
-x,1/2+y,-z
-x,-y,-z
x,1/2-y,z
loop_
_atom_site_type_symbol
_atom_site_label
_atom_site_fract_x
_atom_site_fract_y
_atom_site_fract_z
Si Si1 0.155406 0.543001 0.466372
Si Si2 0.645953 0.988115 0.549155
Si Si3 0.797444 0.146382 0.884223
Si Si4 0.002429 0.455061 0.270008
Si Si5 0.509569 0.146137 0.515496
Si Si6 0.362786 0.521291 0.040415
Si Si7 0.471623 0.354411 0.925354
Si Si8 0.008645 0.143759 0.923514
O O1 0.247087 0.494539 0.518114
O O2 0.188145 0.617183 0.316844
O O3 0.086425 0.586444 0.618409
O O4 0.087966 0.471994 0.378491
O O5 0.587445 0.895451 0.525348
O O6 0.589422 0.070817 0.465780
O O7 0.640515 0.003950 0.754629
O O8 0.756582 0.250000 0.900940
O O9 0.731412 0.071618 0.984370
O O10 0.897820 0.146255 0.943907
O O11 0.970881 0.558653 0.210487
O O12 0.035220 0.393641 0.104443
O O13 0.527772 0.250000 0.445530
O O14 0.502752 0.151164 0.722678
O O15 0.447461 0.591825 0.990396
O O16 0.384930 0.422898 0.951077
O O17 0.455188 0.250000 0.992365
O O18 0.040264 0.250000 0.879262
#
# Coordination Sequence:
#
# PCOD9167684 Si02
#       8
#     4   4   4   4   4   4   4   4
#     4   9  18  32  52  75 100 132 165 204 250 290
#     4   9  18  32  50  71  96 127 163 199 244 296
#     4   9  17  30  50  75 100 127 163 205 250 297
#     4   9  18  34  53  75 105 131 163 208 246 293
#     4   9  18  33  50  69  96 128 162 203 247 291
#     4   9  17  29  47  70  97 127 163 208 250 288
#     4   9  17  29  46  67  93 129 167 202 246 297
#     4   9  18  33  53  74  99 133 163 196 248 299
#
# _framework density 19.589376000000001
#
# number of rings (size 3 to 8) (size 9 to 14) (size 15 to 20)
#    0.000    3.000    0.000    0.375    0.000    5.000 
#    0.000    3.125    0.000   20.250    0.000    0.000 
#    0.000    0.000    0.000    0.000    0.000    0.000 
#
# Total GULP energy -178282.175548 kJ/mol
# GULP energy per Si atom -5571.317986 kJ/mol
# Density = 1.954479 g / cm^3
# Si number density = 19.589376 Si / 1000 Ang^3
#
#
#
# Elastic Constant Matrix: (Units=GPa)
#
#
# Indices 1 2 3 4 5 6 
#
# 1 60.9809 10.7696 9.6029 0.0000 -5.6168 0.0000
# 2 10.7696 101.9926 2.6344 0.0000 -9.5915 0.0000
# 3 9.6029 2.6344 16.8599 0.0000 0.3607 0.0000
# 4 0.0000 0.0000 0.0000 15.4905 0.0000 -3.8844
# 5 -5.6168 -9.5915 0.3607 0.0000 23.2432 0.0000
# 6 0.0000 0.0000 0.0000 -3.8844 0.0000 14.1383
#
#
#
# Elastic Compliance Matrix: (Units=1/GPa)
#
#
# Indices 1 2 3 4 5 6 
#
# 1 0.018667 -0.001311 -0.010516 0.000000 0.004133 0.000000
# 2 -0.001311 0.010341 -0.000954 0.000000 0.003965 0.000000
# 3 -0.010516 -0.000954 0.065535 0.000000 -0.003952 0.000000
# 4 0.000000 0.000000 0.000000 0.069332 0.000000 0.019049
# 5 0.004133 0.003965 -0.003952 0.000000 0.045720 0.000000
# 6 0.000000 0.000000 0.000000 0.019049 0.000000 0.075964
#
#
# Mechanical properties :
#
#
# Convention : Reuss Voigt Hill
#
# Bulk Modulus (GPa) = 14.49657 25.09412 19.79535
# Shear Modulus (GPa) = 14.96500 21.02950 17.99725
#
# Velocity S-wave (km/s) = 2.76694 3.28001 3.03434
# Velocity P-wave (km/s) = 4.19812 5.21368 4.73322
#
# Compressibility (1/GPa) = 0.06898183
#
# Stress axis : x y z
#
# Youngs Moduli (GPa) = 53.57139 96.70650 15.25897
#
# Poissons Ratio (x) = 0.12676 0.16046
# Poissons Ratio (y) = 0.07022 0.01456
# Poissons Ratio (z) = 0.56333 0.09226
#
# Static dielectric constant tensor:
#      x y z
#    x 1.693160 0.000000 0.003870 
#    y 0.000000 1.711570 0.000000 
#    z 0.003870 0.000000 1.727190 
# 
# From -- ./inp_files/21849.got.cif
#   From: 2010.05.17/outbox.cif.g08.bks.cpg/sg11_11_cif.got.tgz:21849.got - 2010.06.03 12:22:45.
