data_PCOD9167113
_publ_section_title
;
Structure prediction by ZEFSAII (Michael W. Deem and Ramdas Pophale) SiO2 
 PCOD9167113
Probable space group: P 21/M
;
_chemical_formula_sum "Si O2"
_cell_formula_units_Z 24
_cell_length_a 12.214142
_cell_length_b 17.212754
_cell_length_c 11.716570
_cell_angle_alpha 90.000000
_cell_angle_beta 152.967897
_cell_angle_gamma 90.000000
_cell_volume 1119.535392
_symmetry_space_group_name_H-M "P 21/M"
_symmetry_group_IT_number 11
_symmetry_cell_setting 'monoclinic'
loop_
_space_group_symop_operation_xyz
x,y,z
-x,1/2+y,-z
-x,-y,-z
x,1/2-y,z
loop_
_atom_site_type_symbol
_atom_site_label
_atom_site_fract_x
_atom_site_fract_y
_atom_site_fract_z
Si Si1 0.402349 0.555460 0.809776
Si Si2 0.033124 0.656906 0.087552
Si Si3 0.992283 0.160722 0.497395
Si Si4 0.555599 0.588429 0.513620
Si Si5 0.137564 0.429180 0.421258
Si Si6 0.863043 0.930602 0.143092
O O1 0.282145 0.630786 0.751874
O O2 0.213074 0.499182 0.574363
O O3 0.500000 0.500000 0.000000
O O4 0.576935 0.577497 0.868456
O O5 0.016348 0.750000 0.072588
O O6 0.298112 0.632471 0.286215
O O7 0.015185 0.620097 0.197354
O O8 0.790637 0.622826 0.800376
O O9 0.020506 0.250000 0.550816
O O10 0.080842 0.140909 0.452672
O O11 0.114684 0.108389 0.709447
O O12 0.500000 0.500000 0.500000
O O13 0.660692 0.588658 0.482918
O O14 0.911282 0.477628 0.161008
#
# Coordination Sequence:
#
# PCOD9167113 Si02
#       6
#     4   4   4   4   4   4
#     4  11  20  40  67  95 128 175 228 275 336 418
#     4  12  28  47  71 106 144 184 237 303 360 410
#     4  11  24  39  60 100 139 170 218 285 354 408
#     4  12  26  48  75 103 140 189 245 289 351 429
#     4  11  23  41  70  97 131 180 233 283 340 424
#     4  11  22  43  69  95 130 178 231 282 342 421
#
# _framework density 21.437463999999999
#
# number of rings (size 3 to 8) (size 9 to 14) (size 15 to 20)
#    0.000    0.667    5.000    3.500    4.667    2.667 
#    0.000    0.000    0.000    0.000    0.000    0.000 
#    0.000    0.000    0.000    0.000    0.000    0.000 
#
# Total GULP energy -133690.932939 kJ/mol
# GULP energy per Si atom -5570.455539 kJ/mol
# Density = 2.138867 g / cm^3
# Si number density = 21.437464 Si / 1000 Ang^3
#
#
#
# Elastic Constant Matrix: (Units=GPa)
#
#
# Indices 1 2 3 4 5 6 
#
# 1 132.7011 27.6777 19.8402 0.0000 22.7507 0.0000
# 2 27.6777 77.5233 21.0623 0.0000 6.1621 0.0000
# 3 19.8402 21.0623 58.7169 0.0000 19.6567 0.0000
# 4 0.0000 0.0000 0.0000 28.2788 0.0000 4.5323
# 5 22.7507 6.1621 19.6567 0.0000 28.8278 0.0000
# 6 0.0000 0.0000 0.0000 4.5323 0.0000 29.6044
#
#
#
# Elastic Compliance Matrix: (Units=1/GPa)
#
#
# Indices 1 2 3 4 5 6 
#
# 1 0.009268 -0.002810 0.000161 0.000000 -0.006823 0.000000
# 2 -0.002810 0.015152 -0.005369 0.000000 0.002640 0.000000
# 3 0.000161 -0.005369 0.024051 0.000000 -0.015379 0.000000
# 4 0.000000 0.000000 0.000000 0.036252 0.000000 -0.005550
# 5 -0.006823 0.002640 -0.015379 0.000000 0.049995 0.000000
# 6 0.000000 0.000000 0.000000 -0.005550 0.000000 0.034628
#
#
# Mechanical properties :
#
#
# Convention : Reuss Voigt Hill
#
# Bulk Modulus (GPa) = 30.83336 45.12242 37.97789
# Shear Modulus (GPa) = 25.48506 30.69962 28.09234
#
# Velocity S-wave (km/s) = 3.45165 3.78836 3.62392
# Velocity P-wave (km/s) = 5.50449 6.34268 5.93839
#
# Compressibility (1/GPa) = 0.03243240
#
# Stress axis : x y z
#
# Youngs Moduli (GPa) = 107.90359 65.99989 41.57840
#
# Poissons Ratio (x) = 0.18546 -0.00668
# Poissons Ratio (y) = 0.30321 0.22325
# Poissons Ratio (z) = -0.01733 0.35438
#
# Static dielectric constant tensor:
#      x y z
#    x 1.792760 0.000000 0.173980 
#    y 0.000000 1.519370 0.000000 
#    z 0.173980 0.000000 1.304030 
# 
# From -- ./inp_files/36105.got.cif
#   From: 2010.05.17/outbox.cif.g08.bks.cpg/sg11_19_cif.got.tgz:36105.got - 2010.06.03 12:22:45.
