data_PCOD9167476
_publ_section_title
;
Structure prediction by ZEFSAII (Michael W. Deem and Ramdas Pophale) SiO2 
 PCOD9167476
Probable space group: P 21/M
;
_chemical_formula_sum "Si O2"
_cell_formula_units_Z 22
_cell_length_a 5.807197
_cell_length_b 12.897947
_cell_length_c 15.371765
_cell_angle_alpha 90.000000
_cell_angle_beta 120.501670
_cell_angle_gamma 90.000000
_cell_volume 992.027738
_symmetry_space_group_name_H-M "P 21/M"
_symmetry_group_IT_number 11
_symmetry_cell_setting 'monoclinic'
loop_
_space_group_symop_operation_xyz
x,y,z
-x,1/2+y,-z
-x,-y,-z
x,1/2-y,z
loop_
_atom_site_type_symbol
_atom_site_label
_atom_site_fract_x
_atom_site_fract_y
_atom_site_fract_z
Si Si1 0.592959 0.750000 0.841317
Si Si2 0.870128 0.250000 0.944063
Si Si3 0.806620 0.250000 0.542463
Si Si4 0.863541 0.080512 0.229277
Si Si5 0.696755 0.250000 0.724729
Si Si6 0.221651 0.550770 0.979662
Si Si7 0.766534 0.865881 0.304896
Si Si8 0.732208 0.750000 0.666193
O O1 0.405402 0.649580 0.818369
O O2 0.690997 0.750000 0.761628
O O3 0.838383 0.750000 0.955300
O O4 0.895841 0.250000 0.844963
O O5 0.711973 0.152490 0.952340
O O6 0.715668 0.250000 0.625313
O O7 0.555362 0.250000 0.433076
O O8 0.007547 0.348423 0.577658
O O9 0.927954 0.072368 0.139651
O O10 0.090623 0.148354 0.320281
O O11 0.820919 0.966804 0.260440
O O12 0.524716 0.355117 0.710184
O O13 0.500000 0.500000 0.000000
O O14 0.000000 0.500000 0.000000
O O15 0.777096 0.750000 0.260485
#
# Coordination Sequence:
#
# PCOD9167476 Si02
#       8
#     2   2   2   4   2   4   4   2
#     4  11  24  45  68 103 142 187 244 284 369 433
#     4  12  23  46  69 103 140 195 230 298 354 440
#     4   9  22  43  67  99 131 178 236 295 357 434
#     4  11  23  45  67 103 140 186 230 298 362 432
#     4   9  21  40  67  92 139 178 227 289 353 430
#     4  12  27  42  70 107 146 190 241 288 359 436
#     4   8  22  42  65  95 131 177 232 284 359 422
#     4  11  24  44  71  99 138 178 237 296 359 429
#
# _framework density 22.176801999999999
#
# number of rings (size 3 to 8) (size 9 to 14) (size 15 to 20)
#    1.091    0.364    1.818    2.727    2.545    5.818 
#    6.545    1.818    0.000    0.000    0.000    0.000 
#    0.000    0.000    0.000    0.000    0.000    0.000 
#
# Total GULP energy -122549.658199 kJ/mol
# GULP energy per Si atom -5570.439009 kJ/mol
# Density = 2.212633 g / cm^3
# Si number density = 22.176802 Si / 1000 Ang^3
#
#
#
# Elastic Constant Matrix: (Units=GPa)
#
#
# Indices 1 2 3 4 5 6 
#
# 1 78.9459 34.0785 24.5580 0.0000 12.0745 0.0000
# 2 34.0785 122.2010 7.6871 0.0000 4.5378 0.0000
# 3 24.5580 7.6871 104.6573 0.0000 44.8552 0.0000
# 4 0.0000 0.0000 0.0000 12.3553 0.0000 0.5151
# 5 12.0745 4.5378 44.8552 0.0000 31.9205 0.0000
# 6 0.0000 0.0000 0.0000 0.5151 0.0000 7.8090
#
#
#
# Elastic Compliance Matrix: (Units=1/GPa)
#
#
# Indices 1 2 3 4 5 6 
#
# 1 0.015503 -0.004098 -0.002698 0.000000 -0.001490 0.000000
# 2 -0.004098 0.009313 0.000454 0.000000 -0.000412 0.000000
# 3 -0.002698 0.000454 0.024501 0.000000 -0.033473 0.000000
# 4 0.000000 0.000000 0.000000 0.081160 0.000000 -0.005354
# 5 -0.001490 -0.000412 -0.033473 0.000000 0.078987 0.000000
# 6 0.000000 0.000000 0.000000 -0.005354 0.000000 0.128410
#
#
# Mechanical properties :
#
#
# Convention : Reuss Voigt Hill
#
# Bulk Modulus (GPa) = 27.29800 48.71684 38.00742
# Shear Modulus (GPa) = 13.78283 26.38233 20.08258
#
# Velocity S-wave (km/s) = 2.49569 3.45285 3.01253
# Velocity P-wave (km/s) = 4.54319 6.15723 5.41073
#
# Compressibility (1/GPa) = 0.03663272
#
# Stress axis : x y z
#
# Youngs Moduli (GPa) = 64.50237 107.37807 40.81452
#
# Poissons Ratio (x) = 0.44008 0.11012
# Poissons Ratio (y) = 0.26436 -0.01854
# Poissons Ratio (z) = 0.17403 -0.04877
#
# Static dielectric constant tensor:
#      x y z
#    x 2.063050 0.000000 0.066680 
#    y 0.000000 1.892530 0.000000 
#    z 0.066680 0.000000 1.808010 
# 
# From -- ./inp_files/45792.got.cif
#   From: 2010.05.17/outbox.cif.g08.bks.cpg/sg11_23_cif.got.tgz:45792.got - 2010.06.03 12:22:45.
