data_PCOD9167140
_publ_section_title
;
Structure prediction by ZEFSAII (Michael W. Deem and Ramdas Pophale) SiO2 
 PCOD9167140
Probable space group: P 21/M
;
_chemical_formula_sum "Si O2"
_cell_formula_units_Z 32
_cell_length_a 26.596294
_cell_length_b 7.672486
_cell_length_c 21.453035
_cell_angle_alpha 90.000000
_cell_angle_beta 159.959851
_cell_angle_gamma 90.000000
_cell_volume 1500.143723
_symmetry_space_group_name_H-M "P 21/M"
_symmetry_group_IT_number 11
_symmetry_cell_setting 'monoclinic'
loop_
_space_group_symop_operation_xyz
x,y,z
-x,1/2+y,-z
-x,-y,-z
x,1/2-y,z
loop_
_atom_site_type_symbol
_atom_site_label
_atom_site_fract_x
_atom_site_fract_y
_atom_site_fract_z
Si Si1 0.608928 0.463774 0.328637
Si Si2 0.760204 0.035705 0.632091
Si Si3 0.716826 0.961051 0.016466
Si Si4 0.913204 0.454612 0.134398
Si Si5 0.615228 0.056831 0.582336
Si Si6 0.007724 0.459535 0.581411
Si Si7 0.187373 0.952115 0.538756
Si Si8 0.089609 0.047352 0.011932
O O1 0.610769 0.250000 0.329327
O O2 0.710018 0.515861 0.504802
O O3 0.443656 0.519646 0.149994
O O4 0.679204 0.527819 0.345872
O O5 0.762334 0.250000 0.635878
O O6 0.646917 0.969390 0.552501
O O7 0.927232 0.981445 0.840063
O O8 0.715842 0.750000 0.014616
O O9 0.842101 0.020680 0.210897
O O10 0.769589 0.019822 0.009762
O O11 0.943536 0.250000 0.163403
O O12 0.046800 0.539176 0.328718
O O13 0.899200 0.534015 0.049862
O O14 0.565928 0.250000 0.508602
O O15 0.500000 0.000000 0.500000
O O16 0.775494 0.052733 0.800621
O O17 0.006615 0.250000 0.586576
O O18 0.000000 0.500000 0.500000
O O19 0.872689 0.528420 0.466385
O O20 0.223916 0.750000 0.593047
O O21 0.103250 0.250000 0.045821
#
# Coordination Sequence:
#
# PCOD9167140 Si02
#       8
#     4   4   4   4   4   4   4   4
#     4   9  16  32  59  85 106 135 179 234 276 319
#     4   9  19  35  59  84 105 138 184 228 276 331
#     4   9  19  34  56  82 109 143 186 226 271 325
#     4  11  21  33  52  82 113 142 177 224 275 324
#     4  11  24  40  56  83 114 143 184 229 280 336
#     4   9  18  32  52  80 110 148 186 221 260 317
#     4   9  17  34  58  82 107 138 183 223 265 324
#     4  11  21  38  61  80 104 144 188 228 275 328
#
# _framework density 21.331289999999999
#
# number of rings (size 3 to 8) (size 9 to 14) (size 15 to 20)
#    0.000    2.250    1.250    3.000    1.750    2.000 
#    0.000    3.125    0.000    0.000    0.000    0.000 
#    0.000    0.000    0.000    0.000    0.000    0.000 
#
# Total GULP energy -178624.647882 kJ/mol
# GULP energy per Si atom -5582.020246 kJ/mol
# Density = 2.128274 g / cm^3
# Si number density = 21.331290 Si / 1000 Ang^3
#
#
#
# Elastic Constant Matrix: (Units=GPa)
#
#
# Indices 1 2 3 4 5 6 
#
# 1 172.5416 -2.7491 37.5994 0.0000 26.3522 0.0000
# 2 -2.7491 46.7750 -1.9048 0.0000 5.2142 0.0000
# 3 37.5994 -1.9048 45.6945 0.0000 26.9198 0.0000
# 4 0.0000 0.0000 0.0000 12.1599 0.0000 -3.2818
# 5 26.3522 5.2142 26.9198 0.0000 42.6136 0.0000
# 6 0.0000 0.0000 0.0000 -3.2818 0.0000 15.5363
#
#
#
# Elastic Compliance Matrix: (Units=1/GPa)
#
#
# Indices 1 2 3 4 5 6 
#
# 1 0.007100 0.000342 -0.005124 0.000000 -0.001196 0.000000
# 2 0.000342 0.022143 0.003763 0.000000 -0.005298 0.000000
# 3 -0.005124 0.003763 0.039281 0.000000 -0.022106 0.000000
# 4 0.000000 0.000000 0.000000 0.087209 0.000000 0.018422
# 5 -0.001196 -0.005298 -0.022106 0.000000 0.038819 0.000000
# 6 0.000000 0.000000 0.000000 0.018422 0.000000 0.068257
#
#
# Mechanical properties :
#
#
# Convention : Reuss Voigt Hill
#
# Bulk Modulus (GPa) = 15.04075 36.76689 25.90382
# Shear Modulus (GPa) = 17.42108 29.53301 23.47705
#
# Velocity S-wave (km/s) = 2.86088 3.72491 3.32112
# Velocity P-wave (km/s) = 4.24019 5.98110 5.18424
#
# Compressibility (1/GPa) = 0.06648606
#
# Stress axis : x y z
#
# Youngs Moduli (GPa) = 140.83852 45.16128 25.45786
#
# Poissons Ratio (x) = -0.01544 0.13044
# Poissons Ratio (y) = -0.04816 -0.09579
# Poissons Ratio (z) = 0.72160 -0.16993
#
# Static dielectric constant tensor:
#      x y z
#    x 1.802890 0.000000 0.029940 
#    y 0.000000 1.784470 0.000000 
#    z 0.029940 0.000000 1.737740 
# 
# From -- ./inp_files/67150.got.cif
#   From: 2010.05.17/outbox.cif.g08.bks.cpg/sg11_34_cif.got.tgz:67150.got - 2010.06.03 12:22:45.
