data_PCOD9167731
_publ_section_title
;
Structure prediction by ZEFSAII (Michael W. Deem and Ramdas Pophale) SiO2 
 PCOD9167731
Probable space group: P 21/M
;
_chemical_formula_sum "Si O2"
_cell_formula_units_Z 32
_cell_length_a 27.000000
_cell_length_b 9.000000
_cell_length_c 21.000000
_cell_angle_alpha 90.000000
_cell_angle_beta 160.000000
_cell_angle_gamma 90.000000
_cell_volume 1745.328791
_symmetry_space_group_name_H-M "P 21/M"
_symmetry_group_IT_number 11
_symmetry_cell_setting 'monoclinic'
loop_
_space_group_symop_operation_xyz
x,y,z
-x,1/2+y,-z
-x,-y,-z
x,1/2-y,z
loop_
_atom_site_type_symbol
_atom_site_label
_atom_site_fract_x
_atom_site_fract_y
_atom_site_fract_z
Si Si1 0.362506 0.069867 0.047650
Si Si2 0.853655 0.571137 0.103320
Si Si3 0.837279 0.428544 0.563956
Si Si4 0.356769 0.426071 0.412846
Si Si5 0.661786 0.572925 0.748492
Si Si6 0.678677 0.916291 0.263532
Si Si7 0.660655 0.417629 0.117827
Si Si8 0.327111 0.928844 0.512165
O O1 0.359353 0.250000 0.036645
O O2 0.516474 0.033264 0.267404
O O3 0.238273 0.019996 0.947175
O O4 0.341334 0.994418 0.953592
O O5 0.862673 0.750000 0.121869
O O6 0.013710 0.512152 0.285159
O O7 0.770927 0.544927 0.937394
O O8 0.844508 0.250000 0.575735
O O9 0.719317 0.476984 0.370488
O O10 0.791939 0.478349 0.579792
O O11 0.351540 0.250000 0.416188
O O12 0.519498 0.480006 0.593724
O O13 0.280150 0.461185 0.252387
O O14 0.309323 0.504000 0.420593
O O15 0.625071 0.750000 0.704618
O O16 0.737506 0.750000 0.343306
O O17 0.728813 0.984391 0.256762
O O18 0.505472 0.904660 0.059570
O O19 0.720943 0.250000 0.187490
O O20 0.323430 0.750000 0.502032
#
# Coordination Sequence:
#
# PCOD9167731 Si02
#       8
#     4   4   4   4   4   4   4   4
#     4  10  18  32  54  78 102 133 172 215 257 300
#     4   9  18  34  55  75 101 137 174 210 255 310
#     4  10  20  35  55  77 101 136 176 211 252 308
#     4  10  19  29  50  79 105 133 172 219 259 301
#     4   9  17  33  52  74 104 138 173 211 261 309
#     4  10  20  34  53  78 108 138 167 209 260 305
#     4  10  20  33  53  80 107 134 169 214 254 301
#     4  10  19  32  52  76 104 135 172 214 255 304
#
# _framework density 18.334654
#
# number of rings (size 3 to 8) (size 9 to 14) (size 15 to 20)
#    0.000    2.250    2.500    1.125    0.000    2.500 
#    0.000    2.500    0.000    0.000    0.000    0.000 
#    0.000    0.000    0.000    0.000    0.000    0.000 
#
# Total GULP energy -178219.930856 kJ/mol
# GULP energy per Si atom -5569.372839 kJ/mol
# Density = 1.829292 g / cm^3
# Si number density = 18.334654 Si / 1000 Ang^3
#
#
#
# Elastic Constant Matrix: (Units=GPa)
#
#
# Indices 1 2 3 4 5 6 
#
# 1 154.6602 45.7154 19.4844 0.0000 -17.4928 0.0000
# 2 45.7154 20.6009 4.8626 0.0000 3.4253 0.0000
# 3 19.4844 4.8626 0.9224 0.0000 10.4025 0.0000
# 4 0.0000 0.0000 0.0000 6.3115 0.0000 -4.5964
# 5 -17.4928 3.4253 10.4025 0.0000 20.3672 0.0000
# 6 0.0000 0.0000 0.0000 -4.5964 0.0000 28.9475
#
#
#
# Elastic Compliance Matrix: (Units=1/GPa)
#
#
# Indices 1 2 3 4 5 6 
#
# 1 0.009040 -0.027977 0.038672 0.000000 -0.007283 0.000000
# 2 -0.027977 0.131566 -0.087796 0.000000 -0.001313 0.000000
# 3 0.038672 -0.087796 -0.039696 0.000000 0.068255 0.000000
# 4 0.000000 0.000000 0.000000 0.179159 0.000000 0.028447
# 5 -0.007283 -0.001313 0.068255 0.000000 0.008203 0.000000
# 6 0.000000 0.000000 0.000000 0.028447 0.000000 0.039062
#
#
# Mechanical properties :
#
#
# Convention : Reuss Voigt Hill
#
# Bulk Modulus (GPa) = -18.76453 35.14535 8.19041
# Shear Modulus (GPa) = 10.78115 18.19996 14.49056
#
# Velocity S-wave (km/s) = 2.42754 3.15406 2.81434
# Velocity P-wave (km/s) = 1.54900 5.69864 3.87783
#
# Compressibility (1/GPa) = -0.05329203
#
# Stress axis : x y z
#
# Youngs Moduli (GPa) = 110.62447 7.60072 -25.19142
#
# Poissons Ratio (x) = 0.21264 0.97421
# Poissons Ratio (y) = 3.09493 -2.21172
# Poissons Ratio (z) = -4.27810 0.66732
#
# Static dielectric constant tensor:
#      x y z
#    x 1.625190 0.000000 0.003100 
#    y 0.000000 1.633310 0.000000 
#    z 0.003100 0.000000 1.668920 
# 
# From -- ./inp_files/67233.got.cif
#   From: 2010.05.17/outbox.ucp.g08.bks.cvg/sg11_34_cif.got.tgz:67233.got - 2010.06.11 11:38:39.
