data_PCOD9167618
_publ_section_title
;
Structure prediction by ZEFSAII (Michael W. Deem and Ramdas Pophale) SiO2 
 PCOD9167618
Probable space group: P 21/M
;
_chemical_formula_sum "Si O2"
_cell_formula_units_Z 28
_cell_length_a 24.650095
_cell_length_b 7.252362
_cell_length_c 21.182469
_cell_angle_alpha 90.000000
_cell_angle_beta 163.566978
_cell_angle_gamma 90.000000
_cell_volume 1071.269778
_symmetry_space_group_name_H-M "P 21/M"
_symmetry_group_IT_number 11
_symmetry_cell_setting 'monoclinic'
loop_
_space_group_symop_operation_xyz
x,y,z
-x,1/2+y,-z
-x,-y,-z
x,1/2-y,z
loop_
_atom_site_type_symbol
_atom_site_label
_atom_site_fract_x
_atom_site_fract_y
_atom_site_fract_z
Si Si1 0.403258 0.525357 0.619729
Si Si2 0.717008 0.530543 0.216549
Si Si3 0.986234 0.456681 0.201538
Si Si4 0.598881 0.537966 0.955457
Si Si5 0.390686 0.974695 0.459875
Si Si6 0.808006 0.043904 0.877597
Si Si7 0.834459 0.974576 0.477971
O O1 0.399121 0.750000 0.617611
O O2 0.208704 0.449234 0.431457
O O3 0.574165 0.462791 0.856975
O O4 0.397239 0.472965 0.540128
O O5 0.745028 0.750000 0.243275
O O6 0.849217 0.463849 0.421725
O O7 0.500000 0.500000 0.000000
O O8 0.720132 0.454796 0.148702
O O9 0.902641 0.250000 0.112509
O O10 0.004373 0.537904 0.292160
O O11 0.898210 0.548098 0.040511
O O12 0.657175 0.750000 0.014303
O O13 0.377642 0.533806 0.734814
O O14 0.392693 0.750000 0.459417
O O15 0.213904 0.034492 0.217633
O O16 0.586060 0.051799 0.649717
O O17 0.892224 0.250000 0.967241
O O18 0.836913 0.750000 0.482089
#
# Coordination Sequence:
#
# PCOD9167618 Si02
#       7
#     4   4   4   4   4   4   4
#     4   9  17  28  42  62  87 110 133 165 204 243
#     4   8  12  18  30  48  71 100 130 156 186 226
#     4   9  17  28  42  62  87 110 133 165 204 243
#     4   8  13  21  33  51  76 103 129 158 192 230
#     4   9  18  32  47  62  81 106 137 171 204 240
#     4   9  18  32  47  62  81 106 137 171 204 240
#     4   8  13  21  33  51  76 103 129 158 192 230
#
# _framework density 26.137208999999999
#
# number of rings (size 3 to 8) (size 9 to 14) (size 15 to 20)
#    0.000    3.429    0.000    0.000    0.000    1.714 
#    0.000    0.000    0.000    0.000    0.000    1.000 
#    0.000    0.000    0.000    0.000    0.000    0.000 
#
# Total GULP energy -156018.162484 kJ/mol
# GULP energy per Si atom -5572.077232 kJ/mol
# Density = 2.607772 g / cm^3
# Si number density = 26.137209 Si / 1000 Ang^3
#
#
#
# Elastic Constant Matrix: (Units=GPa)
#
#
# Indices 1 2 3 4 5 6 
#
# 1 140.3678 10.2872 42.8852 0.0000 -63.2845 0.0000
# 2 10.2872 135.0728 8.1271 0.0000 -15.9263 0.0000
# 3 42.8852 8.1271 221.9437 0.0000 -93.8231 0.0000
# 4 0.0000 0.0000 0.0000 24.7270 0.0000 -24.0238
# 5 -63.2845 -15.9263 -93.8231 0.0000 100.9299 0.0000
# 6 0.0000 0.0000 0.0000 -24.0238 0.0000 32.6704
#
#
#
# Elastic Compliance Matrix: (Units=1/GPa)
#
#
# Indices 1 2 3 4 5 6 
#
# 1 0.010122 0.000037 0.001200 0.000000 0.007467 0.000000
# 2 0.000037 0.007563 0.000379 0.000000 0.001569 0.000000
# 3 0.001200 0.000379 0.007583 0.000000 0.007861 0.000000
# 4 0.000000 0.000000 0.000000 0.141615 0.000000 0.104135
# 5 0.007467 0.001569 0.007861 0.000000 0.022145 0.000000
# 6 0.000000 0.000000 0.000000 0.104135 0.000000 0.107183
#
#
# Mechanical properties :
#
#
# Convention : Reuss Voigt Hill
#
# Bulk Modulus (GPa) = 35.08748 68.88705 51.98726
# Shear Modulus (GPa) = 16.53007 60.73776 38.63392
#
# Velocity S-wave (km/s) = 2.51755 4.82582 3.84880
# Velocity P-wave (km/s) = 4.68020 7.58053 6.29955
#
# Compressibility (1/GPa) = 0.02850020
#
# Stress axis : x y z
#
# Youngs Moduli (GPa) = 98.79894 132.22634 131.87086
#
# Poissons Ratio (x) = -0.00495 -0.15819
# Poissons Ratio (y) = -0.00370 -0.05002
# Poissons Ratio (z) = -0.11852 -0.05015
#
# Static dielectric constant tensor:
#      x y z
#    x 2.141410 0.000000 -0.134550 
#    y 0.000000 1.942550 0.000000 
#    z -0.134550 0.000000 2.111720 
# 
# From -- ./inp_files/26269.got.cif
#   From: 2010.05.17/outbox.cif.g08.bks.cpg/sg11_14_cif.got.tgz:26269.got - 2010.06.03 12:22:45.
