data_PCOD9167928
_publ_section_title
;
Structure prediction by ZEFSAII (Michael W. Deem and Ramdas Pophale) SiO2 
 PCOD9167928
Probable space group: P 21/M
;
_chemical_formula_sum "Si O2"
_cell_formula_units_Z 32
_cell_length_a 21.000000
_cell_length_b 9.000000
_cell_length_c 15.000000
_cell_angle_alpha 90.000000
_cell_angle_beta 40.000000
_cell_angle_gamma 90.000000
_cell_volume 1822.302873
_symmetry_space_group_name_H-M "P 21/M"
_symmetry_group_IT_number 11
_symmetry_cell_setting 'monoclinic'
loop_
_space_group_symop_operation_xyz
x,y,z
-x,1/2+y,-z
-x,-y,-z
x,1/2-y,z
loop_
_atom_site_type_symbol
_atom_site_label
_atom_site_fract_x
_atom_site_fract_y
_atom_site_fract_z
Si Si1 0.034478 0.928584 0.138706
Si Si2 0.781969 0.073329 0.186582
Si Si3 0.851694 0.574436 0.831879
Si Si4 0.314476 0.431008 0.348435
Si Si5 0.458341 0.926389 0.886715
Si Si6 0.722680 0.929605 0.810661
Si Si7 0.322689 0.575421 0.874534
Si Si8 0.191258 0.429508 0.654650
O O1 0.037895 0.750000 0.139364
O O2 0.924030 0.974904 0.231043
O O3 0.062876 0.991759 0.205334
O O4 0.118509 0.973119 0.975715
O O5 0.790032 0.250000 0.193714
O O6 0.690881 0.048094 0.215567
O O7 0.771665 0.991456 0.290917
O O8 0.869535 0.750000 0.813609
O O9 0.817501 0.527206 0.769512
O O10 0.754707 0.531498 0.993529
O O11 0.315130 0.250000 0.350580
O O12 0.429344 0.479813 0.224086
O O13 0.269349 0.474212 0.301059
O O14 0.254213 0.479644 0.500659
O O15 0.455525 0.750000 0.909941
O O16 0.423453 0.943888 0.821085
O O17 0.376825 0.004277 0.037120
O O18 0.714874 0.750000 0.823399
O O19 0.292502 0.750000 0.920453
O O20 0.194506 0.250000 0.653251
#
# Coordination Sequence:
#
# PCOD9167928 Si02
#       8
#     4   4   4   4   4   4   4   4
#     4   9  18  32  49  68  91 120 152 188 231 275
#     4   9  17  30  47  67  91 117 148 191 237 272
#     4   9  16  26  45  71  94 116 146 187 230 270
#     4   9  18  32  48  67  94 126 156 187 225 268
#     4   9  16  29  51  73  92 120 156 188 220 267
#     4   9  17  30  48  71  97 121 148 187 232 270
#     4   8  15  28  46  69  95 119 146 183 228 273
#     4  10  20  33  48  66  90 123 160 191 222 269
#
# _framework density 17.560198
#
# number of rings (size 3 to 8) (size 9 to 14) (size 15 to 20)
#    0.000    3.000    0.000    1.875    0.000    3.000 
#    0.000    2.500    0.000    0.000    0.000    0.000 
#    0.000    0.000    0.000    0.000    0.000    0.000 
#
# Total GULP energy -178135.330187 kJ/mol
# GULP energy per Si atom -5566.729068 kJ/mol
# Density = 1.752023 g / cm^3
# Si number density = 17.560198 Si / 1000 Ang^3
#
#
#
# Elastic Constant Matrix: (Units=GPa)
#
#
# Indices 1 2 3 4 5 6 
#
# 1 109.0522 14.5150 35.6049 0.0000 36.0327 0.0000
# 2 14.5150 6.1384 8.5599 0.0000 7.8501 0.0000
# 3 35.6049 8.5599 56.6191 0.0000 29.9439 0.0000
# 4 0.0000 0.0000 0.0000 15.8359 0.0000 5.2780
# 5 36.0327 7.8501 29.9439 0.0000 22.5732 0.0000
# 6 0.0000 0.0000 0.0000 5.2780 0.0000 21.7806
#
#
#
# Elastic Compliance Matrix: (Units=1/GPa)
#
#
# Indices 1 2 3 4 5 6 
#
# 1 0.023471 -0.004736 0.016417 0.000000 -0.057596 0.000000
# 2 -0.004736 0.312956 0.030910 0.000000 -0.142277 0.000000
# 3 0.016417 0.030910 0.074416 0.000000 -0.135669 0.000000
# 4 0.000000 0.000000 0.000000 0.068696 0.000000 -0.016647
# 5 -0.057596 -0.142277 -0.135669 0.000000 0.365686 0.000000
# 6 0.000000 0.000000 0.000000 -0.016647 0.000000 0.049946
#
#
# Mechanical properties :
#
#
# Convention : Reuss Voigt Hill
#
# Bulk Modulus (GPa) = 2.01603 32.12993 17.07298
# Shear Modulus (GPa) = 5.12647 19.57994 12.35321
#
# Velocity S-wave (km/s) = 1.71047 3.34281 2.65519
# Velocity P-wave (km/s) = 2.24756 5.76506 4.37535
#
# Compressibility (1/GPa) = 0.49602328
#
# Stress axis : x y z
#
# Youngs Moduli (GPa) = 42.60570 3.19534 13.43801
#
# Poissons Ratio (x) = 0.01513 -0.22061
# Poissons Ratio (y) = 0.20178 -0.41536
# Poissons Ratio (z) = -0.69945 -0.09877
#
# Static dielectric constant tensor:
#      x y z
#    x 1.652240 0.000000 0.001050 
#    y 0.000000 1.592910 0.000000 
#    z 0.001050 0.000000 1.567820 
# 
# From -- ./inp_files/54236.got.cif
#   From: 2010.05.17/outbox.ucp.g08.bks.cvg/sg11_28_cif.got.tgz:54236.got - 2010.06.11 11:38:39.
