data_PCOD9167463
_publ_section_title
;
Structure prediction by ZEFSAII (Michael W. Deem and Ramdas Pophale) SiO2 
 PCOD9167463
Probable space group: P 21/M
;
_chemical_formula_sum "Si O2"
_cell_formula_units_Z 20
_cell_length_a 21.853801
_cell_length_b 9.540053
_cell_length_c 13.662172
_cell_angle_alpha 90.000000
_cell_angle_beta 19.634765
_cell_angle_gamma 90.000000
_cell_volume 957.120620
_symmetry_space_group_name_H-M "P 21/M"
_symmetry_group_IT_number 11
_symmetry_cell_setting 'monoclinic'
loop_
_space_group_symop_operation_xyz
x,y,z
-x,1/2+y,-z
-x,-y,-z
x,1/2-y,z
loop_
_atom_site_type_symbol
_atom_site_label
_atom_site_fract_x
_atom_site_fract_y
_atom_site_fract_z
Si Si1 0.154578 0.408950 0.820371
Si Si2 0.732577 0.102650 0.638625
Si Si3 0.918131 0.413714 0.890057
Si Si4 0.509638 0.522205 0.814823
Si Si5 0.174529 0.582038 0.195530
O O1 0.093173 0.250000 0.929101
O O2 0.331446 0.404682 0.485588
O O3 0.186265 0.491478 0.873766
O O4 0.000000 0.500000 0.000000
O O5 0.833855 0.250000 0.494862
O O6 0.618168 0.096740 0.710791
O O7 0.876277 0.976260 0.424498
O O8 0.592978 0.094723 0.939261
O O9 0.923319 0.250000 0.911267
O O10 0.834136 0.424601 0.908656
O O11 0.347899 0.504146 0.981130
O O12 0.176808 0.750000 0.218181
O O13 0.000000 0.500000 0.500000
#
# Coordination Sequence:
#
# PCOD9167463 Si02
#       5
#     4   4   4   4   4
#     4  12  25  43  68  98 136 179 225 278 338 397
#     4  11  23  42  71 102 131 172 229 280 336 401
#     4  11  25  43  67  99 138 177 222 277 336 401
#     4  11  25  42  69 100 137 172 227 277 340 392
#     4  11  24  44  68  99 135 177 221 277 338 400
#
# _framework density 20.896008999999999
#
# number of rings (size 3 to 8) (size 9 to 14) (size 15 to 20)
#    0.000    0.800    4.000    3.000    0.000    7.200 
#    0.000    0.000    0.000    0.000    0.000    0.000 
#    0.000    0.000    0.000    0.000    0.000    0.000 
#
# Total GULP energy -111603.979141 kJ/mol
# GULP energy per Si atom -5580.198957 kJ/mol
# Density = 2.084845 g / cm^3
# Si number density = 20.896009 Si / 1000 Ang^3
#
#
#
# Elastic Constant Matrix: (Units=GPa)
#
#
# Indices 1 2 3 4 5 6 
#
# 1 137.9221 56.4845 38.4047 0.0000 -2.7541 0.0000
# 2 56.4845 124.7842 26.0002 0.0000 13.1937 0.0000
# 3 38.4047 26.0002 117.6042 0.0000 13.9476 0.0000
# 4 0.0000 0.0000 0.0000 5.5581 0.0000 -0.4586
# 5 -2.7541 13.1937 13.9476 0.0000 49.4401 0.0000
# 6 0.0000 0.0000 0.0000 -0.4586 0.0000 12.7648
#
#
#
# Elastic Compliance Matrix: (Units=1/GPa)
#
#
# Indices 1 2 3 4 5 6 
#
# 1 0.009684 -0.004104 -0.002534 0.000000 0.002349 0.000000
# 2 -0.004104 0.010294 -0.000603 0.000000 -0.002806 0.000000
# 3 -0.002534 -0.000603 0.009789 0.000000 -0.002742 0.000000
# 4 0.000000 0.000000 0.000000 0.180454 0.000000 0.006483
# 5 0.002349 -0.002806 -0.002742 0.000000 0.021880 0.000000
# 6 0.000000 0.000000 0.000000 0.006483 0.000000 0.078573
#
#
# Mechanical properties :
#
#
# Convention : Reuss Voigt Hill
#
# Bulk Modulus (GPa) = 65.42115 69.12103 67.27109
# Shear Modulus (GPa) = 15.14010 30.84734 22.99372
#
# Velocity S-wave (km/s) = 2.69466 3.84634 3.32081
# Velocity P-wave (km/s) = 6.40761 7.27160 6.85324
#
# Compressibility (1/GPa) = 0.01528558
#
# Stress axis : x y z
#
# Youngs Moduli (GPa) = 103.26805 97.14674 102.15629
#
# Poissons Ratio (x) = 0.39867 0.25882
# Poissons Ratio (y) = 0.42379 0.06159
# Poissons Ratio (z) = 0.26164 0.05857
#
# Static dielectric constant tensor:
#      x y z
#    x 1.768370 0.000000 0.010100 
#    y 0.000000 1.739000 0.000000 
#    z 0.010100 0.000000 1.739710 
# 
# From -- ./inp_files/55350.got.cif
#   From: 2010.05.17/outbox.cif.g08.bks.cpg/sg11_28_cif.got.tgz:55350.got - 2010.06.03 12:22:45.
