data_PCOD9167735
_publ_section_title
;
Structure prediction by ZEFSAII (Michael W. Deem and Ramdas Pophale) SiO2 
 PCOD9167735
Probable space group: P 21/M
;
_chemical_formula_sum "Si O2"
_cell_formula_units_Z 32
_cell_length_a 21.000000
_cell_length_b 9.000000
_cell_length_c 12.000000
_cell_angle_alpha 90.000000
_cell_angle_beta 130.000000
_cell_angle_gamma 90.000000
_cell_volume 1737.388797
_symmetry_space_group_name_H-M "P 21/M"
_symmetry_group_IT_number 11
_symmetry_cell_setting 'monoclinic'
loop_
_space_group_symop_operation_xyz
x,y,z
-x,1/2+y,-z
-x,-y,-z
x,1/2-y,z
loop_
_atom_site_type_symbol
_atom_site_label
_atom_site_fract_x
_atom_site_fract_y
_atom_site_fract_z
Si Si1 0.314117 0.570621 0.057703
Si Si2 0.444695 0.418812 0.775405
Si Si3 0.826828 0.075287 0.694636
Si Si4 0.986078 0.926489 0.863032
Si Si5 0.418338 0.074587 0.357422
Si Si6 0.376626 0.921456 0.901342
Si Si7 0.162631 0.570635 0.033235
Si Si8 0.645887 0.423135 0.510413
O O1 0.322900 0.750000 0.076856
O O2 0.389384 0.497326 0.209844
O O3 0.312371 0.537113 0.925237
O O4 0.232936 0.515481 0.030469
O O5 0.430220 0.250000 0.721476
O O6 0.535689 0.426204 0.932521
O O7 0.426800 0.529139 0.654049
O O8 0.384295 0.469099 0.807241
O O9 0.847041 0.250000 0.714605
O O10 0.825920 0.029054 0.824486
O O11 0.733683 0.055726 0.547645
O O12 0.899941 0.985911 0.719448
O O13 0.983295 0.750000 0.873328
O O14 0.069604 0.967904 0.891911
O O15 0.000000 0.000000 0.000000
O O16 0.426812 0.250000 0.358004
O O17 0.500000 0.000000 0.500000
O O18 0.353871 0.025162 0.380534
O O19 0.365269 0.750000 0.851320
O O20 0.169616 0.750000 0.040586
O O21 0.639891 0.250000 0.537060
#
# Coordination Sequence:
#
# PCOD9167735 Si02
#       8
#     4   4   4   4   4   4   4   4
#     4  10  18  33  53  72  98 130 166 205 245 291
#     4  10  20  34  51  73  99 125 163 210 251 293
#     4   9  17  30  46  67  96 130 162 196 242 290
#     4   9  16  26  42  65  94 129 164 195 236 287
#     4  12  24  35  48  70 100 134 169 199 243 297
#     4   9  19  34  53  72  92 126 167 205 247 294
#     4   8  14  27  45  67  96 128 159 194 240 286
#     4  11  21  35  53  72  99 131 166 206 250 296
#
# _framework density 18.418444999999998
#
# number of rings (size 3 to 8) (size 9 to 14) (size 15 to 20)
#    0.000    2.250    1.250    3.750    0.000    3.000 
#    0.000    0.625    0.000    0.000    0.000    0.875 
#    0.000    0.000    0.000    0.000    0.000    0.000 
#
# Total GULP energy -178222.970491 kJ/mol
# GULP energy per Si atom -5569.467828 kJ/mol
# Density = 1.837652 g / cm^3
# Si number density = 18.418445 Si / 1000 Ang^3
#
#
#
# Elastic Constant Matrix: (Units=GPa)
#
#
# Indices 1 2 3 4 5 6 
#
# 1 83.4189 16.6637 18.0747 0.0000 17.9017 0.0000
# 2 16.6637 39.2687 7.0493 0.0000 4.1122 0.0000
# 3 18.0747 7.0493 11.6294 0.0000 6.5518 0.0000
# 4 0.0000 0.0000 0.0000 19.1858 0.0000 0.3465
# 5 17.9017 4.1122 6.5518 0.0000 28.1478 0.0000
# 6 0.0000 0.0000 0.0000 0.3465 0.0000 18.9831
#
#
#
# Elastic Compliance Matrix: (Units=1/GPa)
#
#
# Indices 1 2 3 4 5 6 
#
# 1 0.019240 -0.003114 -0.024605 0.000000 -0.006054 0.000000
# 2 -0.003114 0.029079 -0.013247 0.000000 0.000815 0.000000
# 3 -0.024605 -0.013247 0.140822 0.000000 -0.015194 0.000000
# 4 0.000000 0.000000 0.000000 0.052139 0.000000 -0.000952
# 5 -0.006054 0.000815 -0.015194 0.000000 0.042795 0.000000
# 6 0.000000 0.000000 0.000000 -0.000952 0.000000 0.052696
#
#
# Mechanical properties :
#
#
# Convention : Reuss Voigt Hill
#
# Bulk Modulus (GPa) = 9.32754 24.21025 16.76890
# Shear Modulus (GPa) = 11.00256 19.43196 15.21726
#
# Velocity S-wave (km/s) = 2.44676 3.25164 2.87748
# Velocity P-wave (km/s) = 3.61350 5.22213 4.49044
#
# Compressibility (1/GPa) = 0.10720936
#
# Stress axis : x y z
#
# Youngs Moduli (GPa) = 51.97429 34.38851 7.10119
#
# Poissons Ratio (x) = 0.10707 0.17473
# Poissons Ratio (y) = 0.16183 0.09407
# Poissons Ratio (z) = 1.27885 0.45554
#
# Static dielectric constant tensor:
#      x y z
#    x 1.787740 0.000000 0.054850 
#    y 0.000000 1.623810 0.000000 
#    z 0.054850 0.000000 1.643980 
# 
# From -- ./inp_files/42896.got.cif
#   From: 2010.05.17/outbox.ucp.g08.bks.cvg/sg11_22_cif.got.tgz:42896.got - 2010.06.11 11:38:39.
