data_PCOD9167455
_publ_section_title
;
Structure prediction by ZEFSAII (Michael W. Deem and Ramdas Pophale) SiO2 
 PCOD9167455
Probable space group: P 21/M
;
_chemical_formula_sum "Si O2"
_cell_formula_units_Z 24
_cell_length_a 13.734336
_cell_length_b 14.154023
_cell_length_c 11.342943
_cell_angle_alpha 90.000000
_cell_angle_beta 32.419092
_cell_angle_gamma 90.000000
_cell_volume 1182.131234
_symmetry_space_group_name_H-M "P 21/M"
_symmetry_group_IT_number 11
_symmetry_cell_setting 'monoclinic'
loop_
_space_group_symop_operation_xyz
x,y,z
-x,1/2+y,-z
-x,-y,-z
x,1/2-y,z
loop_
_atom_site_type_symbol
_atom_site_label
_atom_site_fract_x
_atom_site_fract_y
_atom_site_fract_z
Si Si1 0.265570 0.141243 0.980856
Si Si2 0.474631 0.138241 0.356786
Si Si3 0.026478 0.975842 0.608769
Si Si4 0.147411 0.084317 0.839412
Si Si5 0.112804 0.853414 0.084516
Si Si6 0.445159 0.503743 0.193169
O O1 0.319080 0.250000 0.936263
O O2 0.204753 0.119261 0.909312
O O3 0.422322 0.072284 0.868976
O O4 0.090218 0.115023 0.237781
O O5 0.432428 0.250000 0.411189
O O6 0.337591 0.075447 0.574616
O O7 0.457754 0.099342 0.241023
O O8 0.686633 0.125554 0.171119
O O9 0.949048 0.063173 0.765631
O O10 0.238217 0.963710 0.416572
O O11 0.000000 0.000000 0.500000
O O12 0.031488 0.151398 0.872703
O O13 0.000000 0.000000 0.000000
O O14 0.123194 0.750000 0.132877
O O15 0.500000 0.500000 0.000000
#
# Coordination Sequence:
#
# PCOD9167455 Si02
#       6
#     4   4   4   4   4   4
#     4  12  27  45  67 105 144 181 231 290 352 415
#     4  11  23  41  70 105 137 181 238 287 341 417
#     4  12  24  46  71  99 137 184 233 291 350 418
#     4  12  23  44  70 101 144 189 226 283 347 411
#     4  11  23  42  69 104 138 182 236 283 342 417
#     4  12  24  45  71  97 139 182 234 289 354 414
#
# _framework density 20.302313999999999
#
# number of rings (size 3 to 8) (size 9 to 14) (size 15 to 20)
#    0.000    0.333    6.667    1.500    0.000    6.000 
#    0.000    0.000    0.000    0.000    0.000    0.000 
#    0.000    0.000    0.000    0.000    0.000    0.000 
#
# Total GULP energy -134044.043156 kJ/mol
# GULP energy per Si atom -5585.168465 kJ/mol
# Density = 2.025610 g / cm^3
# Si number density = 20.302314 Si / 1000 Ang^3
#
#
#
# Elastic Constant Matrix: (Units=GPa)
#
#
# Indices 1 2 3 4 5 6 
#
# 1 129.7423 25.8094 51.2252 0.0000 -4.4500 0.0000
# 2 25.8094 101.0799 36.2721 0.0000 2.9256 0.0000
# 3 51.2252 36.2721 145.4818 0.0000 -16.8630 0.0000
# 4 0.0000 0.0000 0.0000 12.8474 0.0000 -8.2085
# 5 -4.4500 2.9256 -16.8630 0.0000 53.1296 0.0000
# 6 0.0000 0.0000 0.0000 -8.2085 0.0000 19.0444
#
#
#
# Elastic Compliance Matrix: (Units=1/GPa)
#
#
# Indices 1 2 3 4 5 6 
#
# 1 0.009103 -0.001283 -0.002895 0.000000 -0.000086 0.000000
# 2 -0.001283 0.011165 -0.002508 0.000000 -0.001518 0.000000
# 3 -0.002895 -0.002508 0.008831 0.000000 0.002699 0.000000
# 4 0.000000 0.000000 0.000000 0.107418 0.000000 0.046299
# 5 -0.000086 -0.001518 0.002699 0.000000 0.019755 0.000000
# 6 0.000000 0.000000 0.000000 0.046299 0.000000 0.072465
#
#
# Mechanical properties :
#
#
# Convention : Reuss Voigt Hill
#
# Bulk Modulus (GPa) = 63.58613 66.99081 65.28847
# Shear Modulus (GPa) = 20.21421 34.53745 27.37583
#
# Velocity S-wave (km/s) = 3.15883 4.12898 3.67605
# Velocity P-wave (km/s) = 6.68520 7.46991 7.08843
#
# Compressibility (1/GPa) = 0.01572670
#
# Stress axis : x y z
#
# Youngs Moduli (GPa) = 109.85418 89.56876 113.23421
#
# Poissons Ratio (x) = 0.11490 0.32785
# Poissons Ratio (y) = 0.14093 0.28398
# Poissons Ratio (z) = 0.31806 0.22463
#
# Static dielectric constant tensor:
#      x y z
#    x 1.733950 0.000000 -0.019170 
#    y 0.000000 1.739670 0.000000 
#    z -0.019170 0.000000 1.738780 
# 
# From -- ./inp_files/39569.got.cif
#   From: 2010.05.17/outbox.cif.g08.bks.cpg/sg11_20_cif.got.tgz:39569.got - 2010.06.03 12:22:45.
