data_PCOD9167685
_publ_section_title
;
Structure prediction by ZEFSAII (Michael W. Deem and Ramdas Pophale) SiO2 
 PCOD9167685
Probable space group: P 21/M
;
_chemical_formula_sum "Si O2"
_cell_formula_units_Z 24
_cell_length_a 15.532748
_cell_length_b 14.181064
_cell_length_c 11.227283
_cell_angle_alpha 90.000000
_cell_angle_beta 24.802324
_cell_angle_gamma 90.000000
_cell_volume 1037.414371
_symmetry_space_group_name_H-M "P 21/M"
_symmetry_group_IT_number 11
_symmetry_cell_setting 'monoclinic'
loop_
_space_group_symop_operation_xyz
x,y,z
-x,1/2+y,-z
-x,-y,-z
x,1/2-y,z
loop_
_atom_site_type_symbol
_atom_site_label
_atom_site_fract_x
_atom_site_fract_y
_atom_site_fract_z
Si Si1 0.371963 0.141475 0.878770
Si Si2 0.061100 0.642119 0.437745
Si Si3 0.172677 0.042966 0.921546
Si Si4 0.876886 0.935509 0.441493
Si Si5 0.958111 0.147563 0.989536
Si Si6 0.468976 0.635868 0.071630
O O1 0.413185 0.250000 0.792250
O O2 0.342032 0.075474 0.802245
O O3 0.520736 0.112540 0.800493
O O4 0.148289 0.141856 0.224292
O O5 0.091488 0.750000 0.357976
O O6 0.026810 0.577810 0.366022
O O7 0.256596 0.616652 0.271415
O O8 0.118789 0.119572 0.890327
O O9 0.961668 0.024323 0.260994
O O10 0.197561 0.940742 0.827770
O O11 0.924521 0.855161 0.283869
O O12 0.650449 0.918332 0.775015
O O13 0.868413 0.250000 0.124766
O O14 0.506803 0.750000 0.018579
#
# Coordination Sequence:
#
# PCOD9167685 Si02
#       6
#     4   4   4   4   4   4
#     4   9  17  32  50  72 105 136 164 201 242 289
#     4   9  17  29  49  76 103 135 168 198 243 296
#     4   9  19  30  50  78 100 126 170 207 245 298
#     4   9  17  31  50  74 100 128 165 207 244 289
#     4   9  17  32  54  74  97 130 166 207 252 295
#     4   9  17  29  49  76 103 135 168 198 243 296
#
# _framework density 23.134440000000001
#
# number of rings (size 3 to 8) (size 9 to 14) (size 15 to 20)
#    1.000    2.000    0.000    3.000    0.000    2.667 
#    0.000    3.333    0.000    6.000    0.000    4.667 
#    0.000    0.000    0.000    0.000    0.000    0.000 
#
# Total GULP energy -133941.571077 kJ/mol
# GULP energy per Si atom -5580.898795 kJ/mol
# Density = 2.308178 g / cm^3
# Si number density = 23.134440 Si / 1000 Ang^3
#
#
#
# Elastic Constant Matrix: (Units=GPa)
#
#
# Indices 1 2 3 4 5 6 
#
# 1 183.1447 43.2372 47.2447 0.0000 -23.3615 0.0000
# 2 43.2372 94.8055 19.7947 0.0000 1.8518 0.0000
# 3 47.2447 19.7947 73.2431 0.0000 -26.5658 0.0000
# 4 0.0000 0.0000 0.0000 1.7134 0.0000 -5.5725
# 5 -23.3615 1.8518 -26.5658 0.0000 29.0452 0.0000
# 6 0.0000 0.0000 0.0000 -5.5725 0.0000 23.0893
#
#
#
# Elastic Compliance Matrix: (Units=1/GPa)
#
#
# Indices 1 2 3 4 5 6 
#
# 1 0.007267 -0.002844 -0.002593 0.000000 0.003654 0.000000
# 2 -0.002844 0.012843 -0.004135 0.000000 -0.006888 0.000000
# 3 -0.002593 -0.004135 0.023617 0.000000 0.019779 0.000000
# 4 0.000000 0.000000 0.000000 2.713365 0.000000 0.654856
# 5 0.003654 -0.006888 0.019779 0.000000 0.055898 0.000000
# 6 0.000000 0.000000 0.000000 0.654856 0.000000 0.201356
#
#
# Mechanical properties :
#
#
# Convention : Reuss Voigt Hill
#
# Bulk Modulus (GPa) = 40.67889 63.52741 52.10315
# Shear Modulus (GPa) = 1.64383 26.83070 14.23726
#
# Velocity S-wave (km/s) = 0.84386 3.40924 2.48345
# Velocity P-wave (km/s) = 4.30945 6.55873 5.54925
#
# Compressibility (1/GPa) = 0.02458278
#
# Stress axis : x y z
#
# Youngs Moduli (GPa) = 137.61491 77.86470 42.34161
#
# Poissons Ratio (x) = 0.22144 0.10981
# Poissons Ratio (y) = 0.39137 0.17507
# Poissons Ratio (z) = 0.35688 0.32195
#
# Static dielectric constant tensor:
#      x y z
#    x 1.839510 0.000000 0.008900 
#    y 0.000000 1.993270 0.000000 
#    z 0.008900 0.000000 1.865860 
# 
# From -- ./inp_files/39548.got.cif
#   From: 2010.05.17/outbox.cif.g08.bks.cpg/sg11_20_cif.got.tgz:39548.got - 2010.06.03 12:22:45.
