data_PCOD9167765
_publ_section_title
;
Structure prediction by ZEFSAII (Michael W. Deem and Ramdas Pophale) SiO2 
 PCOD9167765
Probable space group: P 21/M
;
_chemical_formula_sum "Si O2"
_cell_formula_units_Z 32
_cell_length_a 30.000000
_cell_length_b 9.000000
_cell_length_c 12.000000
_cell_angle_alpha 90.000000
_cell_angle_beta 30.000000
_cell_angle_gamma 90.000000
_cell_volume 1620.000000
_symmetry_space_group_name_H-M "P 21/M"
_symmetry_group_IT_number 11
_symmetry_cell_setting 'monoclinic'
loop_
_space_group_symop_operation_xyz
x,y,z
-x,1/2+y,-z
-x,-y,-z
x,1/2-y,z
loop_
_atom_site_type_symbol
_atom_site_label
_atom_site_fract_x
_atom_site_fract_y
_atom_site_fract_z
Si Si1 0.760777 0.577354 0.492245
Si Si2 0.122509 0.427189 0.568371
Si Si3 0.664593 0.426110 0.503844
Si Si4 0.176847 0.925871 0.230925
Si Si5 0.153329 0.927139 0.025570
Si Si6 0.364467 0.424360 0.833363
Si Si7 0.461446 0.927007 0.415056
Si Si8 0.054318 0.078385 0.045791
O O1 0.735882 0.750000 0.557243
O O2 0.791788 0.517961 0.545791
O O3 0.688257 0.500420 0.570385
O O4 0.855171 0.567892 0.221795
O O5 0.125119 0.250000 0.566209
O O6 0.125271 0.486905 0.437550
O O7 0.028320 0.483242 0.818620
O O8 0.661489 0.250000 0.528861
O O9 0.576902 0.469207 0.623015
O O10 0.748254 0.456373 0.239306
O O11 0.165364 0.750000 0.268679
O O12 0.151568 0.965989 0.159159
O O13 0.278914 0.973325 0.027685
O O14 0.137480 0.750000 0.047695
O O15 0.083940 0.017559 0.102161
O O16 0.339993 0.250000 0.880243
O O17 0.434133 0.442709 0.784161
O O18 0.413530 0.475697 0.613731
O O19 0.439808 0.750000 0.478483
O O20 0.027444 0.250000 0.108459
#
# Coordination Sequence:
#
# PCOD9167765 Si02
#       8
#     4   4   4   4   4   4   4   4
#     4   9  20  36  54  78 105 131 168 221 263 303
#     4  11  23  38  54  74 102 137 176 214 261 311
#     4   9  16  30  53  78 105 136 169 210 257 305
#     4  11  22  37  54  73 106 142 177 215 254 310
#     4   9  18  33  52  74 103 138 169 207 259 305
#     4  10  19  30  50  78 109 142 173 209 255 306
#     4   9  17  31  50  78 111 140 172 210 254 304
#     4  10  20  35  56  80 103 129 168 216 263 309
#
# _framework density 19.753086
#
# number of rings (size 3 to 8) (size 9 to 14) (size 15 to 20)
#    0.000    2.250    1.250    1.875    0.000    4.000 
#    0.000    0.000    0.000    0.750    0.000    0.000 
#    0.000    0.000    0.000    0.000    0.000    0.000 
#
# Total GULP energy -178506.964237 kJ/mol
# GULP energy per Si atom -5578.342632 kJ/mol
# Density = 1.970813 g / cm^3
# Si number density = 19.753086 Si / 1000 Ang^3
#
#
#
# Elastic Constant Matrix: (Units=GPa)
#
#
# Indices 1 2 3 4 5 6 
#
# 1 104.8989 37.9678 -6.2539 0.0000 -8.2114 0.0000
# 2 37.9678 32.9360 -1.7572 0.0000 2.9062 0.0000
# 3 -6.2539 -1.7572 7.5539 0.0000 3.3404 0.0000
# 4 0.0000 0.0000 0.0000 16.9733 0.0000 -5.0271
# 5 -8.2114 2.9062 3.3404 0.0000 23.2068 0.0000
# 6 0.0000 0.0000 0.0000 -5.0271 0.0000 31.1206
#
#
#
# Elastic Compliance Matrix: (Units=1/GPa)
#
#
# Indices 1 2 3 4 5 6 
#
# 1 0.018373 -0.021560 0.006544 0.000000 0.008259 0.000000
# 2 -0.021560 0.056644 0.001962 0.000000 -0.015005 0.000000
# 3 0.006544 0.001962 0.146677 0.000000 -0.019043 0.000000
# 4 0.000000 0.000000 0.000000 0.061876 0.000000 0.009995
# 5 0.008259 -0.015005 -0.019043 0.000000 0.050633 0.000000
# 6 0.000000 0.000000 0.000000 0.009995 0.000000 0.033748
#
#
# Mechanical properties :
#
#
# Convention : Reuss Voigt Hill
#
# Bulk Modulus (GPa) = 5.11283 22.81135 13.96209
# Shear Modulus (GPa) = 10.88721 21.95560 16.42140
#
# Velocity S-wave (km/s) = 2.35024 3.33754 2.88641
# Velocity P-wave (km/s) = 3.15576 5.14058 4.26523
#
# Compressibility (1/GPa) = 0.19558652
#
# Stress axis : x y z
#
# Youngs Moduli (GPa) = 54.42739 17.65409 6.81770
#
# Poissons Ratio (x) = 0.38062 -0.04461
# Poissons Ratio (y) = 1.17344 -0.01338
# Poissons Ratio (z) = -0.35617 -0.03464
#
# Static dielectric constant tensor:
#      x y z
#    x 1.715470 0.000000 0.005630 
#    y 0.000000 1.662190 0.000000 
#    z 0.005630 0.000000 1.752620 
# 
# From -- ./inp_files/38184.got.cif
#   From: 2010.05.17/outbox.ucp.g08.bks.cvg/sg11_20_cif.got.tgz:38184.got - 2010.06.11 11:38:39.
