data_PCOD9167656
_publ_section_title
;
Structure prediction by ZEFSAII (Michael W. Deem and Ramdas Pophale) SiO2 
 PCOD9167656
Probable space group: P 21/M
;
_chemical_formula_sum "Si O2"
_cell_formula_units_Z 32
_cell_length_a 23.564128
_cell_length_b 8.727748
_cell_length_c 7.029004
_cell_angle_alpha 90.000000
_cell_angle_beta 69.498760
_cell_angle_gamma 90.000000
_cell_volume 1354.039935
_symmetry_space_group_name_H-M "P 21/M"
_symmetry_group_IT_number 11
_symmetry_cell_setting 'monoclinic'
loop_
_space_group_symop_operation_xyz
x,y,z
-x,1/2+y,-z
-x,-y,-z
x,1/2-y,z
loop_
_atom_site_type_symbol
_atom_site_label
_atom_site_fract_x
_atom_site_fract_y
_atom_site_fract_z
Si Si1 0.390729 0.428000 0.310102
Si Si2 0.729885 0.423248 0.638454
Si Si3 0.237795 0.924573 0.842421
Si Si4 0.983021 0.564279 0.310315
Si Si5 0.483389 0.935244 0.728323
Si Si6 0.861154 0.425968 0.541565
Si Si7 0.892759 0.425828 0.949893
Si Si8 0.358706 0.428015 0.802031
O O1 0.393413 0.250000 0.259198
O O2 0.334620 0.498140 0.263323
O O3 0.459056 0.491937 0.214627
O O4 0.374392 0.439171 0.555885
O O5 0.726017 0.250000 0.716819
O O6 0.739187 0.416349 0.399609
O O7 0.793772 0.496283 0.626104
O O8 0.229313 0.750000 0.921921
O O9 0.291357 0.002075 0.899013
O O10 0.170774 0.998089 0.909862
O O11 0.983618 0.750000 0.311085
O O12 0.039632 0.507029 0.114932
O O13 0.000000 0.500000 0.500000
O O14 0.914448 0.505738 0.358746
O O15 0.483995 0.750000 0.725151
O O16 0.500000 0.000000 0.500000
O O17 0.415224 0.992509 0.840520
O O18 0.854478 0.250000 0.482237
O O19 0.882294 0.420174 0.734263
O O20 0.895702 0.250000 0.017904
O O21 0.357438 0.250000 0.851684
#
# Coordination Sequence:
#
# PCOD9167656 Si02
#       8
#     4   4   4   4   4   4   4   4
#     4   8  15  25  37  55  82 111 139 170 208 248
#     4   9  17  27  42  62  85 111 141 173 207 246
#     4   9  16  28  44  61  82 113 144 171 206 253
#     4   9  16  28  46  66  85 109 140 176 212 249
#     4   9  15  23  36  56  81 111 144 178 212 251
#     4   9  17  30  45  64  87 111 139 174 210 249
#     4   8  15  28  46  63  82 108 140 172 207 251
#     4   9  16  25  37  57  84 112 139 174 214 253
#
# _framework density 23.632981999999998
#
# number of rings (size 3 to 8) (size 9 to 14) (size 15 to 20)
#    0.000    3.250    0.000    2.625    0.000    4.000 
#    0.000    3.750    0.000    0.000    0.000    0.875 
#    0.000    0.000    0.000    0.000    0.000    0.000 
#
# Total GULP energy -178475.941964 kJ/mol
# GULP energy per Si atom -5577.373186 kJ/mol
# Density = 2.357919 g / cm^3
# Si number density = 23.632982 Si / 1000 Ang^3
#
#
#
# Elastic Constant Matrix: (Units=GPa)
#
#
# Indices 1 2 3 4 5 6 
#
# 1 194.9023 36.7386 48.0081 0.0000 -57.1199 0.0000
# 2 36.7386 48.7696 15.6289 0.0000 -33.2159 0.0000
# 3 48.0081 15.6289 119.3358 0.0000 -43.9704 0.0000
# 4 0.0000 0.0000 0.0000 13.3695 0.0000 -18.5700
# 5 -57.1199 -33.2159 -43.9704 0.0000 64.4511 0.0000
# 6 0.0000 0.0000 0.0000 -18.5700 0.0000 29.8754
#
#
#
# Elastic Compliance Matrix: (Units=1/GPa)
#
#
# Indices 1 2 3 4 5 6 
#
# 1 0.007077 -0.001823 -0.000860 0.000000 0.004746 0.000000
# 2 -0.001823 0.032627 0.002753 0.000000 0.017077 0.000000
# 3 -0.000860 0.002753 0.011497 0.000000 0.008500 0.000000
# 4 0.000000 0.000000 0.000000 0.547421 0.000000 0.340267
# 5 0.004746 0.017077 0.008500 0.000000 0.034322 0.000000
# 6 0.000000 0.000000 0.000000 0.340267 0.000000 0.244976
#
#
# Mechanical properties :
#
#
# Convention : Reuss Voigt Hill
#
# Bulk Modulus (GPa) = 19.47803 62.63988 41.05896
# Shear Modulus (GPa) = 5.58726 39.04801 22.31763
#
# Velocity S-wave (km/s) = 1.53926 4.06922 3.07635
# Velocity P-wave (km/s) = 3.37918 6.97430 5.47995
#
# Compressibility (1/GPa) = 0.05133990
#
# Stress axis : x y z
#
# Youngs Moduli (GPa) = 141.30076 30.64987 86.97846
#
# Poissons Ratio (x) = 0.05589 0.07477
# Poissons Ratio (y) = 0.25765 -0.23942
# Poissons Ratio (z) = 0.12146 -0.08437
#
# Static dielectric constant tensor:
#      x y z
#    x 1.981740 0.000000 -0.002330 
#    y 0.000000 1.842390 0.000000 
#    z -0.002330 0.000000 1.993220 
# 
# From -- ./inp_files/43769.got.cif
#   From: 2010.05.17/outbox.cif.g08.bks.cpg/sg11_22_cif.got.tgz:43769.got - 2010.06.03 12:22:45.
