data_PCOD9167740
_publ_section_title
;
Structure prediction by ZEFSAII (Michael W. Deem and Ramdas Pophale) SiO2 
 PCOD9167740
Probable space group: P 21/M
;
_chemical_formula_sum "Si O2"
_cell_formula_units_Z 32
_cell_length_a 24.000000
_cell_length_b 9.000000
_cell_length_c 15.000000
_cell_angle_alpha 90.000000
_cell_angle_beta 150.000000
_cell_angle_gamma 90.000000
_cell_volume 1620.000000
_symmetry_space_group_name_H-M "P 21/M"
_symmetry_group_IT_number 11
_symmetry_cell_setting 'monoclinic'
loop_
_space_group_symop_operation_xyz
x,y,z
-x,1/2+y,-z
-x,-y,-z
x,1/2-y,z
loop_
_atom_site_type_symbol
_atom_site_label
_atom_site_fract_x
_atom_site_fract_y
_atom_site_fract_z
Si Si1 0.568649 0.069417 0.371469
Si Si2 0.018227 0.571516 0.928246
Si Si3 0.637038 0.575399 0.790613
Si Si4 0.865996 0.574954 0.218351
Si Si5 0.769222 0.073543 0.253663
Si Si6 0.468416 0.428836 0.050428
Si Si7 0.273144 0.928331 0.258943
Si Si8 0.064751 0.927110 0.360193
O O1 0.566295 0.250000 0.366142
O O2 0.464445 0.021372 0.288639
O O3 0.677646 0.023745 0.577191
O O4 0.550700 0.022861 0.244870
O O5 0.010237 0.750000 0.923449
O O6 0.940694 0.509805 0.741562
O O7 0.000000 0.500000 0.000000
O O8 0.144174 0.529810 0.072988
O O9 0.618697 0.750000 0.747063
O O10 0.655344 0.493366 0.722888
O O11 0.749989 0.561222 0.004214
O O12 0.884155 0.750000 0.264465
O O13 0.850679 0.483359 0.287955
O O14 0.963277 0.526809 0.285493
O O15 0.750349 0.250000 0.216802
O O16 0.825854 0.049106 0.428425
O O17 0.654215 0.983814 0.090860
O O18 0.470070 0.250000 0.045943
O O19 0.500000 0.500000 0.000000
O O20 0.280121 0.750000 0.264135
O O21 0.052875 0.750000 0.327579
#
# Coordination Sequence:
#
# PCOD9167740 Si02
#       8
#     4   4   4   4   4   4   4   4
#     4   9  19  37  59  83 116 153 185 225 287 350
#     4  11  24  40  60  85 114 153 198 247 298 349
#     4  10  18  33  59  87 116 153 186 224 286 349
#     4  10  19  35  60  88 120 157 192 236 296 356
#     4  11  23  38  60  90 120 155 197 244 297 351
#     4  11  23  42  63  85 116 156 200 246 294 351
#     4  10  21  37  58  86 115 147 188 235 286 343
#     4  10  22  40  61  86 120 158 196 241 297 356
#
# _framework density 19.753086
#
# number of rings (size 3 to 8) (size 9 to 14) (size 15 to 20)
#    0.000    1.750    2.500    1.875    0.000    3.500 
#    0.000    3.750    0.000    0.000    0.000    0.000 
#    0.000    0.000    0.000    0.000    0.000    0.000 
#
# Total GULP energy -178753.169470 kJ/mol
# GULP energy per Si atom -5586.036546 kJ/mol
# Density = 1.970813 g / cm^3
# Si number density = 19.753086 Si / 1000 Ang^3
#
#
#
# Elastic Constant Matrix: (Units=GPa)
#
#
# Indices 1 2 3 4 5 6 
#
# 1 86.7771 25.6502 14.0769 0.0000 -41.4788 0.0000
# 2 25.6502 44.5802 22.4225 0.0000 -19.7438 0.0000
# 3 14.0769 22.4225 58.9140 0.0000 -31.6644 0.0000
# 4 0.0000 0.0000 0.0000 22.4616 0.0000 -5.9309
# 5 -41.4788 -19.7438 -31.6644 0.0000 36.5981 0.0000
# 6 0.0000 0.0000 0.0000 -5.9309 0.0000 39.0005
#
#
#
# Elastic Compliance Matrix: (Units=1/GPa)
#
#
# Indices 1 2 3 4 5 6 
#
# 1 0.043097 -0.009095 0.031364 0.000000 0.071074 0.000000
# 2 -0.009095 0.032200 -0.011749 0.000000 -0.003102 0.000000
# 3 0.031364 -0.011749 0.055422 0.000000 0.077158 0.000000
# 4 0.000000 0.000000 0.000000 0.046383 0.000000 0.007054
# 5 0.071074 -0.003102 0.077158 0.000000 0.172959 0.000000
# 6 0.000000 0.000000 0.000000 0.007054 0.000000 0.026713
#
#
# Mechanical properties :
#
#
# Convention : Reuss Voigt Hill
#
# Bulk Modulus (GPa) = 6.58941 34.95227 20.77084
# Shear Modulus (GPa) = 12.30554 28.15350 20.22952
#
# Velocity S-wave (km/s) = 2.49864 3.77937 3.20366
# Velocity P-wave (km/s) = 3.41576 6.06448 4.92165
#
# Compressibility (1/GPa) = 0.15175863
#
# Stress axis : x y z
#
# Youngs Moduli (GPa) = 23.20350 31.05582 18.04343
#
# Poissons Ratio (x) = 0.28244 -0.56591
# Poissons Ratio (y) = 0.21102 0.21200
# Poissons Ratio (z) = -0.72775 0.36488
#
# Static dielectric constant tensor:
#      x y z
#    x 1.670780 0.000000 0.008120 
#    y 0.000000 1.682780 0.000000 
#    z 0.008120 0.000000 1.727830 
# 
# From -- ./inp_files/51658.got.cif
#   From: 2010.05.17/outbox.ucp.g08.bks.cvg/sg11_26_cif.got.tgz:51658.got - 2010.06.11 11:38:39.
