data_PCOD9167921
_publ_section_title
;
Structure prediction by ZEFSAII (Michael W. Deem and Ramdas Pophale) SiO2 
 PCOD9167921
Probable space group: P 21/M
;
_chemical_formula_sum "Si O2"
_cell_formula_units_Z 28
_cell_length_a 15.000000
_cell_length_b 21.000000
_cell_length_c 9.000000
_cell_angle_alpha 90.000000
_cell_angle_beta 150.000000
_cell_angle_gamma 90.000000
_cell_volume 1417.500000
_symmetry_space_group_name_H-M "P 21/M"
_symmetry_group_IT_number 11
_symmetry_cell_setting 'monoclinic'
loop_
_space_group_symop_operation_xyz
x,y,z
-x,1/2+y,-z
-x,-y,-z
x,1/2-y,z
loop_
_atom_site_type_symbol
_atom_site_label
_atom_site_fract_x
_atom_site_fract_y
_atom_site_fract_z
Si Si1 0.794656 0.325663 0.307286
Si Si2 0.828658 0.675030 0.321150
Si Si3 0.855060 0.913462 0.642314
Si Si4 0.296629 0.369921 0.153275
Si Si5 0.119598 0.503476 0.822718
Si Si6 0.984087 0.322064 0.880716
Si Si7 0.473010 0.586137 0.251722
O O1 0.763867 0.250000 0.255441
O O2 0.841865 0.341012 0.547532
O O3 0.974277 0.338282 0.467504
O O4 0.628390 0.363758 0.001059
O O5 0.819182 0.750000 0.338928
O O6 0.805434 0.633269 0.434143
O O7 0.685602 0.655949 0.987971
O O8 0.665063 0.933441 0.449176
O O9 0.989142 0.964725 0.758799
O O10 0.974807 0.872651 0.931278
O O11 0.464335 0.384363 0.499806
O O12 0.182512 0.434839 0.971352
O O13 0.170143 0.321180 0.058289
O O14 0.000000 0.500000 0.500000
O O15 0.309918 0.537500 0.055822
O O16 0.944809 0.250000 0.877522
#
# Coordination Sequence:
#
# PCOD9167921 Si02
#       7
#     4   4   4   4   4   4   4
#     4   9  18  37  63  89 126 170 207 257 320 378
#     4  10  19  39  66  93 125 167 211 256 318 383
#     4  11  23  40  67  96 122 171 207 264 321 370
#     4  10  21  39  64  93 125 168 209 261 322 369
#     4  12  23  45  66  89 132 168 215 262 313 376
#     4   9  19  38  64  93 126 164 210 261 318 377
#     4  11  24  40  63  96 126 165 214 262 315 376
#
# _framework density 19.753086
#
# number of rings (size 3 to 8) (size 9 to 14) (size 15 to 20)
#    0.000    1.714    2.857    3.000    0.000    6.286 
#    2.571    0.000    0.000    0.000    0.000    0.000 
#    0.000    0.000    0.000    0.000    0.000    0.000 
#
# Total GULP energy -156174.405635 kJ/mol
# GULP energy per Si atom -5577.657344 kJ/mol
# Density = 1.970813 g / cm^3
# Si number density = 19.753086 Si / 1000 Ang^3
#
#
#
# Elastic Constant Matrix: (Units=GPa)
#
#
# Indices 1 2 3 4 5 6 
#
# 1 68.6199 18.9379 6.6352 0.0000 2.9874 0.0000
# 2 18.9379 80.5652 29.4382 0.0000 5.3468 0.0000
# 3 6.6352 29.4382 116.9253 0.0000 -7.9028 0.0000
# 4 0.0000 0.0000 0.0000 27.8063 0.0000 -0.5732
# 5 2.9874 5.3468 -7.9028 0.0000 39.7237 0.0000
# 6 0.0000 0.0000 0.0000 -0.5732 0.0000 36.5867
#
#
#
# Elastic Compliance Matrix: (Units=1/GPa)
#
#
# Indices 1 2 3 4 5 6 
#
# 1 0.015603 -0.003614 -0.000022 0.000000 -0.000691 0.000000
# 2 -0.003614 0.014768 -0.003679 0.000000 -0.002448 0.000000
# 3 -0.000022 -0.003679 0.009643 0.000000 0.002415 0.000000
# 4 0.000000 0.000000 0.000000 0.035975 0.000000 0.000564
# 5 -0.000691 -0.002448 0.002415 0.000000 0.026036 0.000000
# 6 0.000000 0.000000 0.000000 0.000564 0.000000 0.027341
#
#
# Mechanical properties :
#
#
# Convention : Reuss Voigt Hill
#
# Bulk Modulus (GPa) = 39.39329 41.79257 40.59293
# Shear Modulus (GPa) = 32.79626 34.89661 33.84643
#
# Velocity S-wave (km/s) = 4.07911 4.20770 4.14391
# Velocity P-wave (km/s) = 6.49397 6.69401 6.59475
#
# Compressibility (1/GPa) = 0.02538504
#
# Stress axis : x y z
#
# Youngs Moduli (GPa) = 64.09201 67.71246 103.70064
#
# Poissons Ratio (x) = 0.24468 0.00232
# Poissons Ratio (y) = 0.23160 0.38147
# Poissons Ratio (z) = 0.00143 0.24909
#
# Static dielectric constant tensor:
#      x y z
#    x 1.710950 0.000000 -0.014320 
#    y 0.000000 1.735130 0.000000 
#    z -0.014320 0.000000 1.693590 
# 
# From -- ./inp_files/23236.got.cif
#   From: 2010.05.17/outbox.ucp.g08.bks.cvg/sg11_12_cif.got.tgz:23236.got - 2010.06.11 11:38:39.
