data_PCOD9167880
_publ_section_title
;
Structure prediction by ZEFSAII (Michael W. Deem and Ramdas Pophale) SiO2 
 PCOD9167880
Probable space group: P 21/M
;
_chemical_formula_sum "Si O2"
_cell_formula_units_Z 32
_cell_length_a 21.000000
_cell_length_b 9.000000
_cell_length_c 27.000000
_cell_angle_alpha 90.000000
_cell_angle_beta 20.000000
_cell_angle_gamma 90.000000
_cell_volume 1745.328791
_symmetry_space_group_name_H-M "P 21/M"
_symmetry_group_IT_number 11
_symmetry_cell_setting 'monoclinic'
loop_
_space_group_symop_operation_xyz
x,y,z
-x,1/2+y,-z
-x,-y,-z
x,1/2-y,z
loop_
_atom_site_type_symbol
_atom_site_label
_atom_site_fract_x
_atom_site_fract_y
_atom_site_fract_z
Si Si1 0.053548 0.579579 0.282356
Si Si2 0.847660 0.423305 0.345064
Si Si3 0.707730 0.575667 0.597624
Si Si4 0.088749 0.929342 0.090252
Si Si5 0.872047 0.076045 0.053211
Si Si6 0.520107 0.427151 0.139859
Si Si7 0.568574 0.576884 0.999906
Si Si8 0.498456 0.080414 0.661874
O O1 0.122766 0.750000 0.227835
O O2 0.930633 0.538464 0.324583
O O3 0.925551 0.568159 0.424711
O O4 0.213428 0.459242 0.162348
O O5 0.906705 0.250000 0.309297
O O6 0.630431 0.425873 0.517434
O O7 0.922755 0.483202 0.238338
O O8 0.651554 0.750000 0.629641
O O9 0.638443 0.539275 0.703325
O O10 0.612595 0.466772 0.627557
O O11 0.063741 0.750000 0.111461
O O12 0.106026 0.972880 0.020101
O O13 0.281113 0.963673 0.979298
O O14 0.906936 0.250000 0.028086
O O15 0.665109 0.036062 0.220812
O O16 0.000000 0.000000 0.000000
O O17 0.519143 0.250000 0.131857
O O18 0.500093 0.507665 0.101949
O O19 0.526021 0.750000 0.030113
O O20 0.500000 0.500000 0.000000
O O21 0.430909 0.250000 0.716587
#
# Coordination Sequence:
#
# PCOD9167880 Si02
#       8
#     4   4   4   4   4   4   4   4
#     4  10  19  34  57  84 114 149 186 227 281 336
#     4  10  20  33  54  85 116 145 187 235 278 325
#     4   9  18  34  58  85 114 147 185 231 281 331
#     4  10  20  35  58  84 114 147 187 233 279 331
#     4  11  23  40  59  83 114 151 190 231 283 341
#     4  10  19  36  59  86 115 145 186 234 278 328
#     4  12  25  40  58  82 114 152 190 231 280 336
#     4  10  20  34  54  83 116 149 186 232 279 330
#
# _framework density 18.334654
#
# number of rings (size 3 to 8) (size 9 to 14) (size 15 to 20)
#    0.000    1.750    2.500    2.625    0.000    3.500 
#    0.000    1.250    0.000    0.000    0.000    0.000 
#    0.000    0.000    0.000    0.000    0.000    0.000 
#
# Total GULP energy -178373.823284 kJ/mol
# GULP energy per Si atom -5574.181978 kJ/mol
# Density = 1.829292 g / cm^3
# Si number density = 18.334654 Si / 1000 Ang^3
#
#
#
# Elastic Constant Matrix: (Units=GPa)
#
#
# Indices 1 2 3 4 5 6 
#
# 1 -0.7840 6.0625 -8.5667 0.0000 0.0753 0.0000
# 2 6.0625 42.9852 5.0473 0.0000 16.6072 0.0000
# 3 -8.5667 5.0473 48.7393 0.0000 22.7668 0.0000
# 4 0.0000 0.0000 0.0000 25.6437 0.0000 1.1170
# 5 0.0753 16.6072 22.7668 0.0000 11.3261 0.0000
# 6 0.0000 0.0000 0.0000 1.1170 0.0000 30.1370
#
#
#
# Elastic Compliance Matrix: (Units=1/GPa)
#
#
# Indices 1 2 3 4 5 6 
#
# 1 -0.372727 0.114357 -0.003089 0.000000 -0.158990 0.000000
# 2 0.114357 -0.039067 -0.036962 0.000000 0.130820 0.000000
# 3 -0.003089 -0.036962 -0.024957 0.000000 0.104384 0.000000
# 4 0.000000 0.000000 0.000000 0.039059 0.000000 -0.001448
# 5 -0.158990 0.130820 0.104384 0.000000 -0.312293 0.000000
# 6 0.000000 0.000000 0.000000 -0.001448 0.000000 0.033235
#
#
# Mechanical properties :
#
#
# Convention : Reuss Voigt Hill
#
# Bulk Modulus (GPa) = -3.47054 10.66964 3.59955
# Shear Modulus (GPa) = -5.42648 19.31453 6.94402
#
# Velocity S-wave (km/s) = -1.72224 3.24920 1.94823
# Velocity P-wave (km/s) = 2.41905 4.46189 2.65110
#
# Compressibility (1/GPa) = -0.28813983
#
# Stress axis : x y z
#
# Youngs Moduli (GPa) = -2.68293 -25.59721 -40.06902
#
# Poissons Ratio (x) = 2.92721 -0.12376
# Poissons Ratio (y) = 0.30681 -1.48105
# Poissons Ratio (z) = -0.00829 -0.94613
#
# Static dielectric constant tensor:
#      x y z
#    x 1.724570 0.000000 -0.087560 
#    y 0.000000 1.559150 0.000000 
#    z -0.087560 0.000000 1.735470 
# 
# From -- ./inp_files/72040.got.cif
#   From: 2010.05.17/outbox.ucp.g08.bks.cvg/sg11_37_cif.got.tgz:72040.got - 2010.06.11 11:38:39.
