data_PCOD9167831
_publ_section_title
;
Structure prediction by ZEFSAII (Michael W. Deem and Ramdas Pophale) SiO2 
 PCOD9167831
Probable space group: P 21/M
;
_chemical_formula_sum "Si O2"
_cell_formula_units_Z 32
_cell_length_a 15.000000
_cell_length_b 9.000000
_cell_length_c 15.000000
_cell_angle_alpha 90.000000
_cell_angle_beta 120.000000
_cell_angle_gamma 90.000000
_cell_volume 1753.701443
_symmetry_space_group_name_H-M "P 21/M"
_symmetry_group_IT_number 11
_symmetry_cell_setting 'monoclinic'
loop_
_space_group_symop_operation_xyz
x,y,z
-x,1/2+y,-z
-x,-y,-z
x,1/2-y,z
loop_
_atom_site_type_symbol
_atom_site_label
_atom_site_fract_x
_atom_site_fract_y
_atom_site_fract_z
Si Si1 0.011710 0.571072 0.774715
Si Si2 0.606543 0.570880 0.520104
Si Si3 0.793141 0.570998 0.742197
Si Si4 0.441910 0.069445 0.698146
Si Si5 0.325999 0.570806 0.161877
Si Si6 0.709690 0.572225 0.228811
Si Si7 0.058481 0.073358 0.610460
Si Si8 0.240321 0.572140 0.930917
O O1 0.009075 0.750000 0.762372
O O2 0.017555 0.495414 0.681649
O O3 0.119098 0.532773 0.876832
O O4 0.907580 0.525532 0.771635
O O5 0.500000 0.500000 0.500000
O O6 0.597171 0.750000 0.521312
O O7 0.705932 0.526016 0.626617
O O8 0.616468 0.529279 0.421459
O O9 0.791129 0.750000 0.747152
O O10 0.757866 0.499540 0.816156
O O11 0.443445 0.250000 0.703043
O O12 0.559973 0.020328 0.753343
O O13 0.382241 0.016638 0.755235
O O14 0.321854 0.750000 0.166581
O O15 0.302064 0.527686 0.049013
O O16 0.701250 0.750000 0.214645
O O17 0.819253 0.542096 0.330575
O O18 0.714689 0.499836 0.135017
O O19 0.044813 0.250000 0.603186
O O20 0.000000 0.000000 0.500000
O O21 0.245924 0.750000 0.925317
#
# Coordination Sequence:
#
# PCOD9167831 Si02
#       8
#     4   4   4   4   4   4   4   4
#     4   9  19  36  54  73 104 138 171 213 258 303
#     4  10  19  33  53  74 102 137 170 209 257 305
#     4  10  21  34  53  79 104 136 176 213 255 305
#     4   9  18  33  53  76 103 136 171 206 253 309
#     4  10  20  35  55  76 103 139 173 210 259 309
#     4   9  19  35  55  76 101 136 175 211 253 307
#     4  10  20  33  52  77 104 136 174 213 256 305
#     4   9  19  36  55  76 104 136 170 213 263 304
#
# _framework density 18.247119999999999
#
# number of rings (size 3 to 8) (size 9 to 14) (size 15 to 20)
#    0.000    2.500    1.250    0.375    1.750    2.500 
#    0.000    1.250    0.000    0.000    0.000    0.000 
#    0.000    0.000    0.000    0.000    0.000    0.000 
#
# Total GULP energy -178432.159551 kJ/mol
# GULP energy per Si atom -5576.004986 kJ/mol
# Density = 1.820559 g / cm^3
# Si number density = 18.247120 Si / 1000 Ang^3
#
#
#
# Elastic Constant Matrix: (Units=GPa)
#
#
# Indices 1 2 3 4 5 6 
#
# 1 72.9947 6.1591 -19.3144 0.0000 -19.0624 0.0000
# 2 6.1591 -7.0529 5.1896 0.0000 -3.6537 0.0000
# 3 -19.3144 5.1896 41.9703 0.0000 -16.4539 0.0000
# 4 0.0000 0.0000 0.0000 18.3631 0.0000 -4.0643
# 5 -19.0624 -3.6537 -16.4539 0.0000 -0.6278 0.0000
# 6 0.0000 0.0000 0.0000 -4.0643 0.0000 25.2735
#
#
#
# Elastic Compliance Matrix: (Units=1/GPa)
#
#
# Indices 1 2 3 4 5 6 
#
# 1 0.005166 0.010325 -0.007446 0.000000 -0.021799 0.000000
# 2 0.010325 -0.115895 0.014244 0.000000 -0.012340 0.000000
# 3 -0.007446 0.014244 0.006632 0.000000 -0.030628 0.000000
# 4 0.000000 0.000000 0.000000 0.056467 0.000000 0.009081
# 5 -0.021799 -0.012340 -0.030628 0.000000 -0.056428 0.000000
# 6 0.000000 0.000000 0.000000 0.009081 0.000000 0.041027
#
#
# Mechanical properties :
#
#
# Convention : Reuss Voigt Hill
#
# Bulk Modulus (GPa) = -14.31627 10.22008 -2.04810
# Shear Modulus (GPa) = -41.47249 16.32694 -12.57278
#
# Velocity S-wave (km/s) = -4.77259 2.99451 -2.62778
# Velocity P-wave (km/s) = 6.18328 4.19157 3.21432
#
# Compressibility (1/GPa) = -0.06985059
#
# Stress axis : x y z
#
# Youngs Moduli (GPa) = 193.58801 -8.62852 150.79390
#
# Poissons Ratio (x) = 0.08909 1.12274
# Poissons Ratio (y) = -1.99883 -2.14788
# Poissons Ratio (z) = 1.44136 0.12290
#
# Static dielectric constant tensor:
#      x y z
#    x 1.612950 0.000000 0.006540 
#    y 0.000000 1.610440 0.000000 
#    z 0.006540 0.000000 1.621950 
# 
# From -- ./inp_files/51634.got.cif
#   From: 2010.05.17/outbox.ucp.g08.bks.cvg/sg11_26_cif.got.tgz:51634.got - 2010.06.11 11:38:39.
