data_PCOD9167433
_publ_section_title
;
Structure prediction by ZEFSAII (Michael W. Deem and Ramdas Pophale) SiO2 
 PCOD9167433
Probable space group: P 21/M
;
_chemical_formula_sum "Si O2"
_cell_formula_units_Z 24
_cell_length_a 9.440304
_cell_length_b 17.764851
_cell_length_c 9.523777
_cell_angle_alpha 90.000000
_cell_angle_beta 46.258655
_cell_angle_gamma 90.000000
_cell_volume 1153.919814
_symmetry_space_group_name_H-M "P 21/M"
_symmetry_group_IT_number 11
_symmetry_cell_setting 'monoclinic'
loop_
_space_group_symop_operation_xyz
x,y,z
-x,1/2+y,-z
-x,-y,-z
x,1/2-y,z
loop_
_atom_site_type_symbol
_atom_site_label
_atom_site_fract_x
_atom_site_fract_y
_atom_site_fract_z
Si Si1 0.451795 0.835793 0.862313
Si Si2 0.095488 0.335057 0.447402
Si Si3 0.243370 0.944219 0.221433
Si Si4 0.286379 0.587973 0.719168
Si Si5 0.132043 0.404025 0.131261
Si Si6 0.524207 0.936006 0.286548
O O1 0.434544 0.750000 0.924003
O O2 0.678644 0.848575 0.666433
O O3 0.321693 0.850722 0.814567
O O4 0.383105 0.893682 0.027846
O O5 0.039435 0.250000 0.525637
O O6 0.092408 0.344237 0.280774
O O7 0.949721 0.395880 0.612358
O O8 0.358736 0.959193 0.286838
O O9 0.188034 0.019573 0.176925
O O10 0.362543 0.509501 0.733659
O O11 0.417287 0.601874 0.491244
O O12 0.062606 0.583059 0.825099
O O13 0.315031 0.386740 0.905258
#
# Coordination Sequence:
#
# PCOD9167433 Si02
#       6
#     4   4   4   4   4   4
#     4  11  25  45  65  90 132 174 213 266 326 385
#     4  11  25  42  64  95 129 170 217 263 318 383
#     4  12  23  42  70  97 125 169 224 265 315 379
#     4  11  25  40  62 100 133 163 209 267 329 381
#     4  12  23  40  70  99 126 168 215 272 314 379
#     4  11  23  40  65  97 127 164 208 266 319 376
#
# _framework density 20.798670999999999
#
# number of rings (size 3 to 8) (size 9 to 14) (size 15 to 20)
#    0.000    0.667    5.000    3.000    4.667    0.667 
#    0.000    0.833    0.000    0.000    0.000    0.000 
#    0.000    0.000    0.000    0.000    0.000    0.000 
#
# Total GULP energy -134322.811012 kJ/mol
# GULP energy per Si atom -5596.783792 kJ/mol
# Density = 2.075133 g / cm^3
# Si number density = 20.798671 Si / 1000 Ang^3
#
#
#
# Elastic Constant Matrix: (Units=GPa)
#
#
# Indices 1 2 3 4 5 6 
#
# 1 126.2280 5.8946 1.6162 0.0000 1.8783 0.0000
# 2 5.8946 44.2030 -0.1392 0.0000 -4.1799 0.0000
# 3 1.6162 -0.1392 81.2247 0.0000 2.7504 0.0000
# 4 0.0000 0.0000 0.0000 8.8740 0.0000 -8.0922
# 5 1.8783 -4.1799 2.7504 0.0000 32.9644 0.0000
# 6 0.0000 0.0000 0.0000 -8.0922 0.0000 12.6050
#
#
#
# Elastic Compliance Matrix: (Units=1/GPa)
#
#
# Indices 1 2 3 4 5 6 
#
# 1 0.007985 -0.001121 -0.000141 0.000000 -0.000585 0.000000
# 2 -0.001121 0.023055 -0.000039 0.000000 0.002991 0.000000
# 3 -0.000141 -0.000039 0.012349 0.000000 -0.001027 0.000000
# 4 0.000000 0.000000 0.000000 0.271813 0.000000 0.174499
# 5 -0.000585 0.002991 -0.001027 0.000000 0.030834 0.000000
# 6 0.000000 0.000000 0.000000 0.174499 0.000000 0.191358
#
#
# Mechanical properties :
#
#
# Convention : Reuss Voigt Hill
#
# Bulk Modulus (GPa) = 24.51766 29.59990 27.05878
# Shear Modulus (GPa) = 9.03192 27.17427 18.10309
#
# Velocity S-wave (km/s) = 2.08614 3.61853 2.95345
# Velocity P-wave (km/s) = 4.19718 5.63213 4.96675
#
# Compressibility (1/GPa) = 0.04078692
#
# Stress axis : x y z
#
# Youngs Moduli (GPa) = 125.23447 43.37452 80.97789
#
# Poissons Ratio (x) = 0.04861 0.01142
# Poissons Ratio (y) = 0.14034 0.00320
# Poissons Ratio (z) = 0.01766 0.00171
#
# Static dielectric constant tensor:
#      x y z
#    x 1.726020 0.000000 -0.003140 
#    y 0.000000 1.728250 0.000000 
#    z -0.003140 0.000000 1.755470 
# 
# From -- ./inp_files/14230.got.cif
#   From: 2010.05.17/outbox.cif.g08.bks.cpg/sg11_8_cif.got.tgz:14230.got - 2010.06.03 12:22:45.
