data_PCOD9167190
_publ_section_title
;
Structure prediction by ZEFSAII (Michael W. Deem and Ramdas Pophale) SiO2 
 PCOD9167190
Probable space group: P 21/M
;
_chemical_formula_sum "Si O2"
_cell_formula_units_Z 32
_cell_length_a 21.797036
_cell_length_b 8.772853
_cell_length_c 27.465682
_cell_angle_alpha 90.000000
_cell_angle_beta 19.454669
_cell_angle_gamma 90.000000
_cell_volume 1749.252129
_symmetry_space_group_name_H-M "P 21/M"
_symmetry_group_IT_number 11
_symmetry_cell_setting 'monoclinic'
loop_
_space_group_symop_operation_xyz
x,y,z
-x,1/2+y,-z
-x,-y,-z
x,1/2-y,z
loop_
_atom_site_type_symbol
_atom_site_label
_atom_site_fract_x
_atom_site_fract_y
_atom_site_fract_z
Si Si1 0.213134 0.425057 0.199684
Si Si2 0.396357 0.925375 0.150763
Si Si3 0.392183 0.935563 0.808816
Si Si4 0.598046 0.434359 0.087755
Si Si5 0.002692 0.933451 0.052505
Si Si6 0.621853 0.564434 0.545451
Si Si7 0.379552 0.933546 0.633687
Si Si8 0.033294 0.566759 0.243656
O O1 0.156189 0.250000 0.245849
O O2 0.249085 0.494709 0.225828
O O3 0.078422 0.516198 0.264890
O O4 0.410741 0.429847 0.023840
O O5 0.347110 0.750000 0.195230
O O6 0.444074 0.005721 0.165792
O O7 0.396500 0.750000 0.806373
O O8 0.423501 0.986686 0.840610
O O9 0.542250 0.986561 0.656983
O O10 0.190747 0.977767 0.939228
O O11 0.595168 0.250000 0.088799
O O12 0.797869 0.484664 0.917002
O O13 0.996521 0.750000 0.054676
O O14 0.823943 0.996981 0.213514
O O15 0.000000 0.000000 0.000000
O O16 0.625247 0.750000 0.543448
O O17 0.481666 0.522015 0.607611
O O18 0.830644 0.511954 0.380427
O O19 0.371087 0.750000 0.637672
O O20 0.500000 0.000000 0.500000
O O21 0.033440 0.750000 0.241747
#
# Coordination Sequence:
#
# PCOD9167190 Si02
#       8
#     4   4   4   4   4   4   4   4
#     4   9  16  27  45  70 101 133 164 204 254 304
#     4   9  16  27  45  70 102 132 163 205 254 303
#     4   9  18  33  54  77 102 138 178 216 260 317
#     4   9  17  29  49  75  99 129 172 213 254 305
#     4  11  21  37  60  83 110 144 186 230 274 327
#     4   9  18  34  54  75 103 139 177 215 260 320
#     4  11  23  39  58  83 112 144 184 230 280 330
#     4   9  17  29  49  74  99 131 172 212 254 307
#
# _framework density 18.293531000000002
#
# number of rings (size 3 to 8) (size 9 to 14) (size 15 to 20)
#    0.000    2.500    1.250    1.500    1.750    3.000 
#    0.000    2.500    0.000    0.750    0.000    0.000 
#    0.000    0.000    0.000    0.000    0.000    0.000 
#
# Total GULP energy -178436.918607 kJ/mol
# GULP energy per Si atom -5576.153706 kJ/mol
# Density = 1.825189 g / cm^3
# Si number density = 18.293531 Si / 1000 Ang^3
#
#
#
# Elastic Constant Matrix: (Units=GPa)
#
#
# Indices 1 2 3 4 5 6 
#
# 1 96.0429 8.1862 -2.1723 0.0000 24.6322 0.0000
# 2 8.1862 24.5282 -0.4090 0.0000 7.5717 0.0000
# 3 -2.1723 -0.4090 30.1936 0.0000 16.9825 0.0000
# 4 0.0000 0.0000 0.0000 17.5334 0.0000 -2.0216
# 5 24.6322 7.5717 16.9825 0.0000 23.1095 0.0000
# 6 0.0000 0.0000 0.0000 -2.0216 0.0000 27.2877
#
#
#
# Elastic Compliance Matrix: (Units=1/GPa)
#
#
# Indices 1 2 3 4 5 6 
#
# 1 0.022559 0.007568 0.028371 0.000000 -0.047373 0.000000
# 2 0.007568 0.052456 0.026350 0.000000 -0.044617 0.000000
# 3 0.028371 0.026350 0.097810 0.000000 -0.110751 0.000000
# 4 0.000000 0.000000 0.000000 0.057525 0.000000 0.004262
# 5 -0.047373 -0.044617 -0.110751 0.000000 0.189773 0.000000
# 6 0.000000 0.000000 0.000000 0.004262 0.000000 0.036962
#
#
# Mechanical properties :
#
#
# Convention : Reuss Voigt Hill
#
# Bulk Modulus (GPa) = 3.36245 17.99719 10.67982
# Shear Modulus (GPa) = 11.58369 23.26345 17.42357
#
# Velocity S-wave (km/s) = 2.51910 3.56993 3.08952
# Velocity P-wave (km/s) = 3.20986 5.18188 4.31017
#
# Compressibility (1/GPa) = 0.29740200
#
# Stress axis : x y z
#
# Youngs Moduli (GPa) = 44.32914 19.06361 10.22393
#
# Poissons Ratio (x) = -0.14427 -0.29006
# Poissons Ratio (y) = -0.33548 -0.26940
# Poissons Ratio (z) = -1.25765 -0.50233
#
# Static dielectric constant tensor:
#      x y z
#    x 1.622380 0.000000 0.008110 
#    y 0.000000 1.620060 0.000000 
#    z 0.008110 0.000000 1.631440 
# 
# From -- ./inp_files/72035.got.cif
#   From: 2010.05.17/outbox.cif.g08.bks.cpg/sg11_37_cif.got.tgz:72035.got - 2010.06.03 12:22:45.
