data_PCOD9167584
_publ_section_title
;
Structure prediction by ZEFSAII (Michael W. Deem and Ramdas Pophale) SiO2 
 PCOD9167584
Probable space group: P 21/M
;
_chemical_formula_sum "Si O2"
_cell_formula_units_Z 24
_cell_length_a 23.318118
_cell_length_b 8.836005
_cell_length_c 17.024873
_cell_angle_alpha 90.000000
_cell_angle_beta 23.810630
_cell_angle_gamma 90.000000
_cell_volume 1416.146747
_symmetry_space_group_name_H-M "P 21/M"
_symmetry_group_IT_number 11
_symmetry_cell_setting 'monoclinic'
loop_
_space_group_symop_operation_xyz
x,y,z
-x,1/2+y,-z
-x,-y,-z
x,1/2-y,z
loop_
_atom_site_type_symbol
_atom_site_label
_atom_site_fract_x
_atom_site_fract_y
_atom_site_fract_z
Si Si1 0.934555 0.568871 0.350345
Si Si2 0.581311 0.569408 0.973086
Si Si3 0.919536 0.431040 0.986685
Si Si4 0.632613 0.568904 0.639850
Si Si5 0.216676 0.431041 0.701832
Si Si6 0.893757 0.430580 0.569616
O O1 0.946789 0.750000 0.348671
O O2 0.779516 0.545341 0.504474
O O3 0.941014 0.480575 0.423216
O O4 0.053523 0.522863 0.137097
O O5 0.588135 0.750000 0.956830
O O6 0.737878 0.499953 0.778480
O O7 0.500000 0.500000 0.000000
O O8 0.491387 0.520396 0.161814
O O9 0.906564 0.250000 0.004083
O O10 0.068948 0.469606 0.842330
O O11 0.796751 0.499993 0.194772
O O12 0.605007 0.750000 0.676593
O O13 0.662982 0.522990 0.511462
O O14 0.222213 0.250000 0.701448
O O15 0.888971 0.250000 0.581697
O O16 0.000000 0.500000 0.500000
#
# Coordination Sequence:
#
# PCOD9167584 Si02
#       6
#     4   4   4   4   4   4
#     4   9  17  31  50  72 102 138 176 217 261 309
#     4  12  23  36  55  80 107 139 179 221 265 317
#     4   8  14  24  40  64  96 134 168 206 255 304
#     4   9  17  30  49  73 104 139 175 215 261 308
#     4   8  14  24  39  64  98 134 167 207 254 302
#     4  12  25  40  57  78 105 140 179 222 269 317
#
# _framework density 16.947396000000001
#
# number of rings (size 3 to 8) (size 9 to 14) (size 15 to 20)
#    0.000    2.333    1.667    5.000    0.000    1.333 
#    0.000    3.333    0.000    0.000    0.000    1.167 
#    0.000    0.000    0.000    0.000    0.000    0.000 
#
# Total GULP energy -133762.613638 kJ/mol
# GULP energy per Si atom -5573.442235 kJ/mol
# Density = 1.690882 g / cm^3
# Si number density = 16.947396 Si / 1000 Ang^3
#
#
#
# Elastic Constant Matrix: (Units=GPa)
#
#
# Indices 1 2 3 4 5 6 
#
# 1 86.0636 57.2745 79.3494 0.0000 24.8710 0.0000
# 2 57.2745 91.6172 59.1585 0.0000 16.3987 0.0000
# 3 79.3494 59.1585 113.3697 0.0000 34.5311 0.0000
# 4 0.0000 0.0000 0.0000 28.2711 0.0000 9.5327
# 5 24.8710 16.3987 34.5311 0.0000 37.8648 0.0000
# 6 0.0000 0.0000 0.0000 9.5327 0.0000 26.1655
#
#
#
# Elastic Compliance Matrix: (Units=1/GPa)
#
#
# Indices 1 2 3 4 5 6 
#
# 1 0.037974 -0.009961 -0.020904 0.000000 -0.001565 0.000000
# 2 -0.009961 0.019101 -0.003418 0.000000 0.001387 0.000000
# 3 -0.020904 -0.003418 0.028526 0.000000 -0.010804 0.000000
# 4 0.000000 0.000000 0.000000 0.040326 0.000000 -0.014692
# 5 -0.001565 0.001387 -0.010804 0.000000 0.036689 0.000000
# 6 0.000000 0.000000 0.000000 -0.014692 0.000000 0.043571
#
#
# Mechanical properties :
#
#
# Convention : Reuss Voigt Hill
#
# Bulk Modulus (GPa) = 58.70350 75.84612 67.27481
# Shear Modulus (GPa) = 17.82979 24.81148 21.32063
#
# Velocity S-wave (km/s) = 3.24708 3.83041 3.55074
# Velocity P-wave (km/s) = 6.98369 8.02582 7.52282
#
# Compressibility (1/GPa) = 0.01703476
#
# Stress axis : x y z
#
# Youngs Moduli (GPa) = 26.33401 52.35392 35.05618
#
# Poissons Ratio (x) = 0.52151 0.73280
# Poissons Ratio (y) = 0.26232 0.11981
# Poissons Ratio (z) = 0.55048 0.17893
#
# Static dielectric constant tensor:
#      x y z
#    x 1.588750 0.000000 0.036640 
#    y 0.000000 1.563060 0.000000 
#    z 0.036640 0.000000 1.590620 
# 
# From -- ./inp_files/48700.got.cif
#   From: 2010.05.17/outbox.cif.g08.bks.cpg/sg11_25_cif.got.tgz:48700.got - 2010.06.03 12:22:45.
