data_PCOD9167029
_publ_section_title
;
Structure prediction by ZEFSAII (Michael W. Deem and Ramdas Pophale) SiO2 
 PCOD9167029
Probable space group: P 21/M
;
_chemical_formula_sum "Si O2"
_cell_formula_units_Z 28
_cell_length_a 17.674935
_cell_length_b 20.713027
_cell_length_c 11.938155
_cell_angle_alpha 90.000000
_cell_angle_beta 19.281326
_cell_angle_gamma 90.000000
_cell_volume 1443.193558
_symmetry_space_group_name_H-M "P 21/M"
_symmetry_group_IT_number 11
_symmetry_cell_setting 'monoclinic'
loop_
_space_group_symop_operation_xyz
x,y,z
-x,1/2+y,-z
-x,-y,-z
x,1/2-y,z
loop_
_atom_site_type_symbol
_atom_site_label
_atom_site_fract_x
_atom_site_fract_y
_atom_site_fract_z
Si Si1 0.109701 0.498506 0.202292
Si Si2 0.373802 0.559992 0.118025
Si Si3 0.719338 0.171976 0.568979
Si Si4 0.528693 0.408563 0.261170
Si Si5 0.817539 0.489517 0.157852
Si Si6 0.752946 0.674443 0.194335
Si Si7 0.470484 0.388428 0.709863
O O1 0.868259 0.471809 0.580317
O O2 0.208335 0.570339 0.086550
O O3 0.091766 0.496833 0.092027
O O4 0.300827 0.447487 0.978190
O O5 0.334911 0.621958 0.253391
O O6 0.500000 0.500000 0.000000
O O7 0.508185 0.582264 0.819102
O O8 0.707640 0.250000 0.609973
O O9 0.546917 0.153634 0.708976
O O10 0.979974 0.154948 0.165663
O O11 0.384419 0.459811 0.536119
O O12 0.420592 0.344751 0.463644
O O13 0.698786 0.420370 0.338152
O O14 0.000000 0.500000 0.000000
O O15 0.757061 0.750000 0.180457
O O16 0.658752 0.647964 0.208511
#
# Coordination Sequence:
#
# PCOD9167029 Si02
#       7
#     4   4   4   4   4   4   4
#     4  11  20  38  61  94 127 162 207 257 315 379
#     4  12  24  40  63  94 129 167 210 258 318 378
#     4  11  25  43  65  92 126 171 217 259 312 382
#     4  11  21  36  56  92 125 159 197 260 316 367
#     4  11  19  33  62  93 127 157 199 259 320 364
#     4  11  22  41  65  90 123 166 214 260 312 376
#     4  11  19  38  66  91 122 156 214 261 307 371
#
# _framework density 19.401418
#
# number of rings (size 3 to 8) (size 9 to 14) (size 15 to 20)
#    0.000    0.857    4.286    6.000    0.000    0.571 
#    0.000    0.000    0.000    0.857    0.000    0.000 
#    0.000    0.000    0.000    0.000    0.000    0.000 
#
# Total GULP energy -156198.794799 kJ/mol
# GULP energy per Si atom -5578.528386 kJ/mol
# Density = 1.935726 g / cm^3
# Si number density = 19.401418 Si / 1000 Ang^3
#
#
#
# Elastic Constant Matrix: (Units=GPa)
#
#
# Indices 1 2 3 4 5 6 
#
# 1 90.9735 23.1199 23.7830 0.0000 -1.7534 0.0000
# 2 23.1199 80.7569 16.3035 0.0000 -1.6604 0.0000
# 3 23.7830 16.3035 58.4565 0.0000 3.2575 0.0000
# 4 0.0000 0.0000 0.0000 26.9285 0.0000 1.1795
# 5 -1.7534 -1.6604 3.2575 0.0000 41.1565 0.0000
# 6 0.0000 0.0000 0.0000 1.1795 0.0000 30.6229
#
#
#
# Elastic Compliance Matrix: (Units=1/GPa)
#
#
# Indices 1 2 3 4 5 6 
#
# 1 0.012891 -0.002762 -0.004519 0.000000 0.000795 0.000000
# 2 -0.002762 0.013741 -0.002745 0.000000 0.000654 0.000000
# 3 -0.004519 -0.002745 0.019815 0.000000 -0.001872 0.000000
# 4 0.000000 0.000000 0.000000 0.037198 0.000000 -0.001433
# 5 0.000795 0.000654 -0.001872 0.000000 0.024506 0.000000
# 6 0.000000 0.000000 0.000000 -0.001433 0.000000 0.032710
#
#
# Mechanical properties :
#
#
# Convention : Reuss Voigt Hill
#
# Bulk Modulus (GPa) = 37.88512 39.62220 38.75366
# Shear Modulus (GPa) = 29.46177 30.87361 30.16769
#
# Velocity S-wave (km/s) = 3.90107 3.99345 3.94753
# Velocity P-wave (km/s) = 6.31352 6.45989 6.38712
#
# Compressibility (1/GPa) = 0.02639559
#
# Stress axis : x y z
#
# Youngs Moduli (GPa) = 77.57501 72.77381 50.46668
#
# Poissons Ratio (x) = 0.20099 0.22804
# Poissons Ratio (y) = 0.21426 0.13854
# Poissons Ratio (z) = 0.35053 0.19978
#
# Static dielectric constant tensor:
#      x y z
#    x 1.713230 0.000000 -0.009950 
#    y 0.000000 1.720540 0.000000 
#    z -0.009950 0.000000 1.742730 
# 
# From -- ./inp_files/41990.got.cif
#   From: 2010.05.17/outbox.cif.g08.bks.cpg/sg11_21_cif.got.tgz:41990.got - 2010.06.03 12:22:45.
