data_PCOD9167719
_publ_section_title
;
Structure prediction by ZEFSAII (Michael W. Deem and Ramdas Pophale) SiO2 
 PCOD9167719
Probable space group: P 21/M
;
_chemical_formula_sum "Si O2"
_cell_formula_units_Z 28
_cell_length_a 30.000000
_cell_length_b 9.000000
_cell_length_c 9.000000
_cell_angle_alpha 90.000000
_cell_angle_beta 40.000000
_cell_angle_gamma 90.000000
_cell_volume 1561.973892
_symmetry_space_group_name_H-M "P 21/M"
_symmetry_group_IT_number 11
_symmetry_cell_setting 'monoclinic'
loop_
_space_group_symop_operation_xyz
x,y,z
-x,1/2+y,-z
-x,-y,-z
x,1/2-y,z
loop_
_atom_site_type_symbol
_atom_site_label
_atom_site_fract_x
_atom_site_fract_y
_atom_site_fract_z
Si Si1 0.646423 0.429539 0.977268
Si Si2 0.068053 0.071758 0.403691
Si Si3 0.213841 0.070773 0.870071
Si Si4 0.070272 0.429504 0.751421
Si Si5 0.357072 0.430296 0.684092
Si Si6 0.502269 0.568837 0.327195
Si Si7 0.793974 0.428299 0.436551
O O1 0.635925 0.250000 0.014532
O O2 0.719263 0.456918 0.706542
O O3 0.653270 0.501480 0.124257
O O4 0.577197 0.505204 0.081298
O O5 0.061722 0.250000 0.403465
O O6 0.070005 0.038481 0.574992
O O7 0.142914 0.029319 0.140491
O O8 0.000000 0.000000 0.500000
O O9 0.212409 0.250000 0.854922
O O10 0.286850 0.037032 0.768825
O O11 0.210719 0.991935 0.718395
O O12 0.069767 0.250000 0.772871
O O13 0.140157 0.496477 0.648049
O O14 0.000000 0.500000 0.000000
O O15 0.365170 0.250000 0.671078
O O16 0.430161 0.504365 0.441791
O O17 0.500000 0.500000 0.500000
O O18 0.501941 0.750000 0.328985
O O19 0.804396 0.250000 0.408101
#
# Coordination Sequence:
#
# PCOD9167719 Si02
#       7
#     4   4   4   4   4   4   4
#     4  10  20  35  55  81 112 146 186 232 279 332
#     4  10  22  39  59  85 113 145 183 225 271 323
#     4  10  22  39  58  80 110 148 188 229 277 331
#     4  11  23  40  62  87 117 149 186 228 275 330
#     4  10  19  34  57  83 110 144 187 233 282 335
#     4  10  18  30  52  81 111 144 183 229 281 335
#     4  11  24  39  57  83 114 148 188 232 279 328
#
# _framework density 17.926036
#
# number of rings (size 3 to 8) (size 9 to 14) (size 15 to 20)
#    0.000    1.714    0.000    6.429    0.000    8.571 
#    0.000    0.714    0.000    0.000    0.000    0.000 
#    0.000    0.000    0.000    0.000    0.000    0.000 
#
# Total GULP energy -156268.445905 kJ/mol
# GULP energy per Si atom -5581.015925 kJ/mol
# Density = 1.788524 g / cm^3
# Si number density = 17.926036 Si / 1000 Ang^3
#
#
#
# Elastic Constant Matrix: (Units=GPa)
#
#
# Indices 1 2 3 4 5 6 
#
# 1 175.7823 69.9109 96.4735 0.0000 -29.8652 0.0000
# 2 69.9109 119.7834 70.1042 0.0000 -14.7514 0.0000
# 3 96.4735 70.1042 166.0646 0.0000 -27.7983 0.0000
# 4 0.0000 0.0000 0.0000 35.2105 0.0000 -7.6432
# 5 -29.8652 -14.7514 -27.7983 0.0000 41.3858 0.0000
# 6 0.0000 0.0000 0.0000 -7.6432 0.0000 39.8005
#
#
#
# Elastic Compliance Matrix: (Units=1/GPa)
#
#
# Indices 1 2 3 4 5 6 
#
# 1 0.009446 -0.002947 -0.003694 0.000000 0.003285 0.000000
# 2 -0.002947 0.012038 -0.003388 0.000000 -0.000112 0.000000
# 3 -0.003694 -0.003388 0.010083 0.000000 0.002900 0.000000
# 4 0.000000 0.000000 0.000000 0.029636 0.000000 0.005691
# 5 0.003285 -0.000112 0.002900 0.000000 0.028441 0.000000
# 6 0.000000 0.000000 0.000000 0.005691 0.000000 0.026218
#
#
# Mechanical properties :
#
#
# Convention : Reuss Voigt Hill
#
# Bulk Modulus (GPa) = 86.88730 103.84528 95.36629
# Shear Modulus (GPa) = 35.77623 38.28881 37.03252
#
# Velocity S-wave (km/s) = 4.47225 4.62663 4.55009
# Velocity P-wave (km/s) = 8.67428 9.30573 8.99555
#
# Compressibility (1/GPa) = 0.01150916
#
# Stress axis : x y z
#
# Youngs Moduli (GPa) = 105.86232 83.07246 99.17279
#
# Poissons Ratio (x) = 0.24480 0.36632
# Poissons Ratio (y) = 0.31196 0.33605
# Poissons Ratio (z) = 0.39103 0.28149
#
# Static dielectric constant tensor:
#      x y z
#    x 1.607190 0.000000 -0.010280 
#    y 0.000000 1.606170 0.000000 
#    z -0.010280 0.000000 1.635670 
# 
# From -- ./inp_files/29044.got.cif
#   From: 2010.05.17/outbox.ucp.g08.bks.cvg/sg11_15_cif.got.tgz:29044.got - 2010.06.11 11:38:39.
