data_PCOD9167596
_publ_section_title
;
Structure prediction by ZEFSAII (Michael W. Deem and Ramdas Pophale) SiO2 
 PCOD9167596
Probable space group: P 21/M
;
_chemical_formula_sum "Si O2"
_cell_formula_units_Z 24
_cell_length_a 9.421210
_cell_length_b 30.963990
_cell_length_c 5.026033
_cell_angle_alpha 90.000000
_cell_angle_beta 128.092766
_cell_angle_gamma 90.000000
_cell_volume 1153.906982
_symmetry_space_group_name_H-M "P 21/M"
_symmetry_group_IT_number 11
_symmetry_cell_setting 'monoclinic'
loop_
_space_group_symop_operation_xyz
x,y,z
-x,1/2+y,-z
-x,-y,-z
x,1/2-y,z
loop_
_atom_site_type_symbol
_atom_site_label
_atom_site_fract_x
_atom_site_fract_y
_atom_site_fract_z
Si Si1 0.679423 0.200428 0.686984
Si Si2 0.524281 0.624812 0.380110
Si Si3 0.826852 0.076416 0.040479
Si Si4 0.769544 0.154611 0.290753
Si Si5 0.173448 0.440312 0.145241
Si Si6 0.286294 0.492465 0.774742
O O1 0.651503 0.250000 0.588125
O O2 0.498801 0.171125 0.505724
O O3 0.796549 0.174407 0.607025
O O4 0.770559 0.193410 0.078501
O O5 0.708953 0.600646 0.624664
O O6 0.366792 0.591815 0.298656
O O7 0.435670 0.634938 0.986569
O O8 0.885885 0.116042 0.301753
O O9 0.966488 0.069341 0.967130
O O10 0.800778 0.034738 0.193761
O O11 0.221460 0.478905 0.407751
O O12 0.231650 0.454766 0.919274
O O13 0.500000 0.500000 0.000000
#
# Coordination Sequence:
#
# PCOD9167596 Si02
#       6
#     4   4   4   4   4   4
#     4   9  17  32  58  83 105 143 181 221 284 343
#     4   8  22  35  58  81 113 142 188 227 283 322
#     4   9  22  40  56  84 113 153 191 234 279 334
#     4   8  19  32  55  80 109 139 184 226 272 330
#     4  12  24  38  59  82 114 157 190 233 282 333
#     4  12  24  38  58  81 118 151 197 240 273 326
#
# _framework density 20.798904
#
# number of rings (size 3 to 8) (size 9 to 14) (size 15 to 20)
#    2.000    0.000    1.667    2.000    4.667    4.000 
#    0.000    0.000    0.000    5.000    0.000    0.000 
#    0.000    0.000    0.000    0.000    0.000    0.000 
#
# Total GULP energy -133633.763379 kJ/mol
# GULP energy per Si atom -5568.073474 kJ/mol
# Density = 2.075156 g / cm^3
# Si number density = 20.798904 Si / 1000 Ang^3
#
#
#
# Elastic Constant Matrix: (Units=GPa)
#
#
# Indices 1 2 3 4 5 6 
#
# 1 75.9896 4.3521 11.4362 0.0000 -7.3486 0.0000
# 2 4.3521 89.0049 -4.1932 0.0000 -6.1658 0.0000
# 3 11.4362 -4.1932 40.7774 0.0000 -15.2823 0.0000
# 4 0.0000 0.0000 0.0000 18.7865 0.0000 -8.6637
# 5 -7.3486 -6.1658 -15.2823 0.0000 21.5567 0.0000
# 6 0.0000 0.0000 0.0000 -8.6637 0.0000 18.9481
#
#
#
# Elastic Compliance Matrix: (Units=1/GPa)
#
#
# Indices 1 2 3 4 5 6 
#
# 1 0.013889 -0.000660 -0.003077 0.000000 0.002364 0.000000
# 2 -0.000660 0.011825 0.003519 0.000000 0.005652 0.000000
# 3 -0.003077 0.003519 0.035043 0.000000 0.024801 0.000000
# 4 0.000000 0.000000 0.000000 0.067453 0.000000 0.030841
# 5 0.002364 0.005652 0.024801 0.000000 0.066394 0.000000
# 6 0.000000 0.000000 0.000000 0.030841 0.000000 0.066877
#
#
# Mechanical properties :
#
#
# Convention : Reuss Voigt Hill
#
# Bulk Modulus (GPa) = 16.57788 25.44023 21.00905
# Shear Modulus (GPa) = 17.72898 24.80339 21.26619
#
# Velocity S-wave (km/s) = 2.92276 3.45705 3.20107
# Velocity P-wave (km/s) = 4.40203 5.30971 4.87703
#
# Compressibility (1/GPa) = 0.06032136
#
# Stress axis : x y z
#
# Youngs Moduli (GPa) = 71.99809 84.56667 28.53642
#
# Poissons Ratio (x) = 0.05584 0.08781
# Poissons Ratio (y) = 0.04754 -0.10043
# Poissons Ratio (z) = 0.22154 -0.29763
#
# Static dielectric constant tensor:
#      x y z
#    x 1.750690 0.000000 -0.004160 
#    y 0.000000 1.766190 0.000000 
#    z -0.004160 0.000000 1.794970 
# 
# From -- ./inp_files/3101.got.cif
#   From: 2010.05.17/outbox.cif.g08.bks.cpg/sg11_2_cif.got.tgz:3101.got - 2010.06.03 12:22:45.
