data_PCOD9167424
_publ_section_title
;
Structure prediction by ZEFSAII (Michael W. Deem and Ramdas Pophale) SiO2 
 PCOD9167424
Probable space group: P 21/M
;
_chemical_formula_sum "Si O2"
_cell_formula_units_Z 20
_cell_length_a 26.720391
_cell_length_b 8.806522
_cell_length_c 9.207883
_cell_angle_alpha 90.000000
_cell_angle_beta 149.959812
_cell_angle_gamma 90.000000
_cell_volume 1084.686462
_symmetry_space_group_name_H-M "P 21/M"
_symmetry_group_IT_number 11
_symmetry_cell_setting 'monoclinic'
loop_
_space_group_symop_operation_xyz
x,y,z
-x,1/2+y,-z
-x,-y,-z
x,1/2-y,z
loop_
_atom_site_type_symbol
_atom_site_label
_atom_site_fract_x
_atom_site_fract_y
_atom_site_fract_z
Si Si1 0.293564 0.931706 0.655426
Si Si2 0.719624 0.067505 0.720644
Si Si3 0.092528 0.932913 0.321796
Si Si4 0.092591 0.068850 0.643695
Si Si5 0.501809 0.931218 0.842578
O O1 0.305697 0.750000 0.691747
O O2 0.277477 0.970360 0.444442
O O3 0.196190 0.974230 0.502018
O O4 0.396409 0.005710 0.969487
O O5 0.734606 0.250000 0.771238
O O6 0.607524 0.030838 0.495301
O O7 0.805618 0.981057 0.021163
O O8 0.085748 0.750000 0.308905
O O9 0.091456 0.999873 0.480013
O O10 0.000000 0.000000 0.000000
O O11 0.083904 0.250000 0.616210
O O12 0.000000 0.000000 0.500000
O O13 0.507242 0.750000 0.866089
O O14 0.500000 0.000000 0.000000
#
# Coordination Sequence:
#
# PCOD9167424 Si02
#       5
#     4   4   4   4   4
#     4   9  19  35  57  84 114 146 183 228 277 328
#     4   9  18  35  57  84 115 146 184 231 277 326
#     4  11  23  40  61  85 114 148 185 231 282 335
#     4  12  25  40  59  83 111 147 189 234 283 337
#     4   9  17  30  53  82 113 147 184 226 272 324
#
# _framework density 18.438507999999999
#
# number of rings (size 3 to 8) (size 9 to 14) (size 15 to 20)
#    0.000    2.000    0.000    5.400    0.000    7.200 
#    0.000    1.000    0.000    0.000    0.000    0.000 
#    0.000    0.000    0.000    0.000    0.000    0.000 
#
# Total GULP energy -111653.816984 kJ/mol
# GULP energy per Si atom -5582.690849 kJ/mol
# Density = 1.839654 g / cm^3
# Si number density = 18.438508 Si / 1000 Ang^3
#
#
#
# Elastic Constant Matrix: (Units=GPa)
#
#
# Indices 1 2 3 4 5 6 
#
# 1 129.7370 58.4148 94.6670 0.0000 24.9080 0.0000
# 2 58.4148 75.5839 75.1518 0.0000 16.1337 0.0000
# 3 94.6670 75.1518 178.1501 0.0000 31.6738 0.0000
# 4 0.0000 0.0000 0.0000 39.9825 0.0000 3.1381
# 5 24.9080 16.1337 31.6738 0.0000 32.9428 0.0000
# 6 0.0000 0.0000 0.0000 3.1381 0.0000 28.2932
#
#
#
# Elastic Compliance Matrix: (Units=1/GPa)
#
#
# Indices 1 2 3 4 5 6 
#
# 1 0.014308 -0.005795 -0.004511 0.000000 -0.003643 0.000000
# 2 -0.005795 0.025283 -0.007434 0.000000 -0.000852 0.000000
# 3 -0.004511 -0.007434 0.011932 0.000000 -0.004421 0.000000
# 4 0.000000 0.000000 0.000000 0.025231 0.000000 -0.002798
# 5 -0.003643 -0.000852 -0.004421 0.000000 0.037779 0.000000
# 6 0.000000 0.000000 0.000000 -0.002798 0.000000 0.035655
#
#
# Mechanical properties :
#
#
# Convention : Reuss Voigt Hill
#
# Bulk Modulus (GPa) = 62.33380 93.32646 77.83013
# Shear Modulus (GPa) = 26.17579 30.59285 28.38432
#
# Velocity S-wave (km/s) = 3.77188 4.07773 3.92778
# Velocity P-wave (km/s) = 7.26974 8.53788 7.92920
#
# Compressibility (1/GPa) = 0.01604266
#
# Stress axis : x y z
#
# Youngs Moduli (GPa) = 69.89022 39.55196 83.80543
#
# Poissons Ratio (x) = 0.22922 0.37802
# Poissons Ratio (y) = 0.40505 0.62304
# Poissons Ratio (z) = 0.31525 0.29404
#
# Static dielectric constant tensor:
#      x y z
#    x 1.662230 0.000000 0.029390 
#    y 0.000000 1.616240 0.000000 
#    z 0.029390 0.000000 1.639140 
# 
# From -- ./inp_files/23909.got.cif
#   From: 2010.05.17/outbox.cif.g08.bks.cpg/sg11_12_cif.got.tgz:23909.got - 2010.06.03 12:22:45.
