data_PCOD9167933
_publ_section_title
;
Structure prediction by ZEFSAII (Michael W. Deem and Ramdas Pophale) SiO2 
 PCOD9167933
Probable space group: P 21/M
;
_chemical_formula_sum "Si O2"
_cell_formula_units_Z 32
_cell_length_a 21.000000
_cell_length_b 9.000000
_cell_length_c 27.000000
_cell_angle_alpha 90.000000
_cell_angle_beta 20.000000
_cell_angle_gamma 90.000000
_cell_volume 1745.328791
_symmetry_space_group_name_H-M "P 21/M"
_symmetry_group_IT_number 11
_symmetry_cell_setting 'monoclinic'
loop_
_space_group_symop_operation_xyz
x,y,z
-x,1/2+y,-z
-x,-y,-z
x,1/2-y,z
loop_
_atom_site_type_symbol
_atom_site_label
_atom_site_fract_x
_atom_site_fract_y
_atom_site_fract_z
Si Si1 0.099911 0.926333 0.752670
Si Si2 0.945783 0.573524 0.113281
Si Si3 0.289052 0.071120 0.015473
Si Si4 0.089661 0.572489 0.251449
Si Si5 0.285590 0.928660 0.513776
Si Si6 0.708324 0.428801 0.689557
Si Si7 0.288553 0.428575 0.813432
Si Si8 0.948653 0.072298 0.609810
O O1 0.104461 0.750000 0.759149
O O2 0.241412 0.956760 0.604171
O O3 0.889885 0.964264 0.887831
O O4 0.137084 0.015242 0.775069
O O5 0.966373 0.750000 0.098753
O O6 0.807766 0.534309 0.168880
O O7 0.148122 0.500690 0.955478
O O8 0.293113 0.250000 0.017898
O O9 0.235750 0.999663 0.106948
O O10 0.491981 0.024262 0.847263
O O11 0.089529 0.750000 0.245219
O O12 0.129448 0.535037 0.279303
O O13 0.883433 0.509626 0.390322
O O14 0.268149 0.750000 0.519226
O O15 0.494347 0.973542 0.345547
O O16 0.712108 0.250000 0.681801
O O17 0.804751 0.469820 0.671593
O O18 0.850507 0.498096 0.546208
O O19 0.283851 0.250000 0.822946
O O20 0.973476 0.250000 0.588969
#
# Coordination Sequence:
#
# PCOD9167933 Si02
#       8
#     4   4   4   4   4   4   4   4
#     4   9  18  33  51  72  99 129 162 204 248 287
#     4  10  20  33  51  76 102 129 163 201 244 295
#     4   9  19  35  53  73  98 131 171 206 237 287
#     4  10  20  33  50  75 105 131 158 201 254 297
#     4   9  19  36  55  73  96 130 170 205 239 288
#     4   9  18  34  54  73  96 131 172 206 239 289
#     4   9  19  36  54  72  98 131 166 204 243 286
#     4   9  19  34  50  73 104 131 160 205 254 293
#
# _framework density 18.334654
#
# number of rings (size 3 to 8) (size 9 to 14) (size 15 to 20)
#    0.000    2.750    0.000    1.500    0.000    6.500 
#    0.000    3.750    0.000    0.000    0.000    0.000 
#    0.000    0.000    0.000    0.000    0.000    0.000 
#
# Total GULP energy -178434.587174 kJ/mol
# GULP energy per Si atom -5576.080849 kJ/mol
# Density = 1.829292 g / cm^3
# Si number density = 18.334654 Si / 1000 Ang^3
#
#
#
# Elastic Constant Matrix: (Units=GPa)
#
#
# Indices 1 2 3 4 5 6 
#
# 1 18.6345 4.8601 -29.3919 0.0000 15.3473 0.0000
# 2 4.8601 -1.7063 -4.8661 0.0000 2.8184 0.0000
# 3 -29.3919 -4.8661 31.9860 0.0000 -12.4459 0.0000
# 4 0.0000 0.0000 0.0000 30.1318 0.0000 6.4423
# 5 15.3473 2.8184 -12.4459 0.0000 18.7208 0.0000
# 6 0.0000 0.0000 0.0000 6.4423 0.0000 23.7745
#
#
#
# Elastic Compliance Matrix: (Units=1/GPa)
#
#
# Indices 1 2 3 4 5 6 
#
# 1 -0.105606 -0.005388 -0.086142 0.000000 0.030119 0.000000
# 2 -0.005388 -0.398953 -0.054708 0.000000 0.028108 0.000000
# 3 -0.086142 -0.054708 -0.034441 0.000000 0.055958 0.000000
# 4 0.000000 0.000000 0.000000 0.035229 0.000000 -0.009546
# 5 0.030119 0.028108 0.055958 0.000000 0.061695 0.000000
# 6 0.000000 0.000000 0.000000 -0.009546 0.000000 0.044649
#
#
# Mechanical properties :
#
#
# Convention : Reuss Voigt Hill
#
# Bulk Modulus (GPa) = -1.20268 -1.09795 -1.15032
# Shear Modulus (GPa) = -13.08514 19.74622 3.33054
#
# Velocity S-wave (km/s) = -2.67438 3.28531 1.34925
# Velocity P-wave (km/s) = 3.19278 3.71361 1.34109
#
# Compressibility (1/GPa) = -0.83147494
#
# Stress axis : x y z
#
# Youngs Moduli (GPa) = -9.46912 -2.50656 -29.03514
#
# Poissons Ratio (x) = -0.01350 -2.50113
# Poissons Ratio (y) = -0.05102 -1.58845
# Poissons Ratio (z) = -0.81569 -0.13713
#
# Static dielectric constant tensor:
#      x y z
#    x 1.646480 0.000000 0.003730 
#    y 0.000000 1.615650 0.000000 
#    z 0.003730 0.000000 1.605260 
# 
# From -- ./inp_files/71986.got.cif
#   From: 2010.05.17/outbox.ucp.g08.bks.cvg/sg11_36_cif.got.tgz:71986.got - 2010.06.11 11:38:39.
