data_PCOD9167784
_publ_section_title
;
Structure prediction by ZEFSAII (Michael W. Deem and Ramdas Pophale) SiO2 
 PCOD9167784
Probable space group: P 21/M
;
_chemical_formula_sum "Si O2"
_cell_formula_units_Z 28
_cell_length_a 30.000000
_cell_length_b 9.000000
_cell_length_c 30.000000
_cell_angle_alpha 90.000000
_cell_angle_beta 10.000000
_cell_angle_gamma 90.000000
_cell_volume 1406.550239
_symmetry_space_group_name_H-M "P 21/M"
_symmetry_group_IT_number 11
_symmetry_cell_setting 'monoclinic'
loop_
_space_group_symop_operation_xyz
x,y,z
-x,1/2+y,-z
-x,-y,-z
x,1/2-y,z
loop_
_atom_site_type_symbol
_atom_site_label
_atom_site_fract_x
_atom_site_fract_y
_atom_site_fract_z
Si Si1 0.819233 0.551888 0.775874
Si Si2 0.483347 0.429831 0.467844
Si Si3 0.747763 0.750000 0.762149
Si Si4 0.347836 0.906792 0.305366
Si Si5 0.782493 0.250000 0.768927
Si Si6 0.387649 0.072618 0.354366
Si Si7 0.913268 0.432147 0.880585
Si Si8 0.044858 0.569474 0.058662
O O1 0.774054 0.616836 0.771137
O O2 0.796070 0.382328 0.789463
O O3 0.098302 0.586497 0.519979
O O4 0.597621 0.592883 0.028450
O O5 0.500000 0.500000 0.500000
O O6 0.486036 0.250000 0.468855
O O7 0.222500 0.475284 0.700035
O O8 0.721693 0.477077 0.202579
O O9 0.977110 0.750000 0.501177
O O10 0.477978 0.750000 0.002937
O O11 0.339653 0.750000 0.338546
O O12 0.351347 0.032360 0.338765
O O13 0.390250 0.250000 0.355739
O O14 0.155848 0.017346 0.613131
O O15 0.656394 0.017225 0.108984
O O16 0.913583 0.250000 0.880536
O O17 0.926154 0.481070 0.919052
O O18 0.047762 0.750000 0.057024
#
# Coordination Sequence:
#
# PCOD9167784 Si02
#       8
#     4   4   2   4   2   4   4   4
#     4  12  25  42  65  89 119 154 191 232 280 333
#     4  10  19  31  49  75 104 143 184 226 272 328
#     4  12  22  46  62  92 122 152 192 224 286 340
#     4  12  24  43  61  85 119 160 190 224 279 346
#     4  12  26  40  68  94 118 148 190 246 280 320
#     4  10  21  34  59  85 111 138 180 236 281 326
#     4   9  17  33  53  84 109 136 179 233 285 328
#     4   9  17  30  52  75 105 141 181 226 278 333
#
# _framework density 19.906860999999999
#
# number of rings (size 3 to 8) (size 9 to 14) (size 15 to 20)
#    0.000    1.429    1.429    4.714    2.000    3.429 
#    0.000    0.000    0.000    5.143    0.000    0.000 
#    0.000    0.000    0.000    0.000    0.000    0.000 
#
# Total GULP energy -156211.865719 kJ/mol
# GULP energy per Si atom -5578.995204 kJ/mol
# Density = 1.986155 g / cm^3
# Si number density = 19.906861 Si / 1000 Ang^3
#
#
#
# Elastic Constant Matrix: (Units=GPa)
#
#
# Indices 1 2 3 4 5 6 
#
# 1 85.4511 10.9315 34.4232 0.0000 5.1022 0.0000
# 2 10.9315 53.8686 11.4230 0.0000 -0.2863 0.0000
# 3 34.4232 11.4230 107.8839 0.0000 -0.9390 0.0000
# 4 0.0000 0.0000 0.0000 9.7994 0.0000 -11.6788
# 5 5.1022 -0.2863 -0.9390 0.0000 29.6298 0.0000
# 6 0.0000 0.0000 0.0000 -11.6788 0.0000 49.6865
#
#
#
# Elastic Compliance Matrix: (Units=1/GPa)
#
#
# Indices 1 2 3 4 5 6 
#
# 1 0.013800 -0.001919 -0.004222 0.000000 -0.002529 0.000000
# 2 -0.001919 0.019257 -0.001423 0.000000 0.000471 0.000000
# 3 -0.004222 -0.001423 0.010776 0.000000 0.001055 0.000000
# 4 0.000000 0.000000 0.000000 0.141758 0.000000 0.033320
# 5 -0.002529 0.000471 0.001055 0.000000 0.034223 0.000000
# 6 0.000000 0.000000 0.000000 0.033320 0.000000 0.027958
#
#
# Mechanical properties :
#
#
# Convention : Reuss Voigt Hill
#
# Bulk Modulus (GPa) = 34.83521 40.08435 37.45978
# Shear Modulus (GPa) = 18.35077 30.51818 24.43447
#
# Velocity S-wave (km/s) = 3.03946 3.91966 3.50728
# Velocity P-wave (km/s) = 5.46396 6.37689 5.93799
#
# Compressibility (1/GPa) = 0.02870659
#
# Stress axis : x y z
#
# Youngs Moduli (GPa) = 72.46458 51.92855 92.79698
#
# Poissons Ratio (x) = 0.09963 0.39180
# Poissons Ratio (y) = 0.13903 0.13203
# Poissons Ratio (z) = 0.30595 0.07388
#
# Static dielectric constant tensor:
#      x y z
#    x 1.626320 0.000000 -0.036110 
#    y 0.000000 1.756270 0.000000 
#    z -0.036110 0.000000 1.845630 
# 
# From -- ./inp_files/73868.got.cif
#   From: 2010.05.17/outbox.ucp.g08.bks.cvg/sg11_37_cif.got.tgz:73868.got - 2010.06.11 11:38:39.
