data_PCOD9167937
_publ_section_title
;
Structure prediction by ZEFSAII (Michael W. Deem and Ramdas Pophale) SiO2 
 PCOD9167937
Probable space group: P 21/M
;
_chemical_formula_sum "Si O2"
_cell_formula_units_Z 28
_cell_length_a 15.000000
_cell_length_b 9.000000
_cell_length_c 12.000000
_cell_angle_alpha 90.000000
_cell_angle_beta 60.000000
_cell_angle_gamma 90.000000
_cell_volume 1402.961154
_symmetry_space_group_name_H-M "P 21/M"
_symmetry_group_IT_number 11
_symmetry_cell_setting 'monoclinic'
loop_
_space_group_symop_operation_xyz
x,y,z
-x,1/2+y,-z
-x,-y,-z
x,1/2-y,z
loop_
_atom_site_type_symbol
_atom_site_label
_atom_site_fract_x
_atom_site_fract_y
_atom_site_fract_z
Si Si1 0.699906 0.926768 0.532870
Si Si2 0.450923 0.573627 0.205103
Si Si3 0.988311 0.081393 0.194085
Si Si4 0.642726 0.073535 0.973084
Si Si5 0.177367 0.926659 0.993699
Si Si6 0.250768 0.918836 0.719904
Si Si7 0.930573 0.925914 0.449901
O O1 0.695768 0.750000 0.543599
O O2 0.810820 0.977412 0.515422
O O3 0.604779 0.998104 0.656522
O O4 0.702395 0.977018 0.402784
O O5 0.454743 0.750000 0.217863
O O6 0.561881 0.512109 0.100836
O O7 0.381603 0.538498 0.139351
O O8 0.011433 0.250000 0.215556
O O9 0.873143 0.082109 0.218494
O O10 0.982827 0.969923 0.300732
O O11 0.075374 0.023472 0.057117
O O12 0.625783 0.250000 0.000178
O O13 0.759489 0.042101 0.933590
O O14 0.154065 0.750000 0.000618
O O15 0.257092 0.962039 0.844499
O O16 0.288139 0.750000 0.680270
O O17 0.929414 0.750000 0.465629
O O18 0.000000 0.000000 0.500000
#
# Coordination Sequence:
#
# PCOD9167937 Si02
#       7
#     4   4   4   4   4   4   4
#     4  10  21  36  56  79 106 142 180 220 269 320
#     4  10  20  36  58  81 107 140 176 218 272 327
#     4  10  20  33  51  78 110 147 183 219 264 315
#     4   9  20  37  56  81 108 137 175 222 272 321
#     4  10  20  35  56  81 109 143 182 225 272 317
#     4   9  19  36  55  78 110 145 183 223 264 318
#     4  10  21  35  51  76 109 143 180 223 265 315
#
# _framework density 19.957787
#
# number of rings (size 3 to 8) (size 9 to 14) (size 15 to 20)
#    0.000    2.286    0.000    2.143    2.000    4.000 
#    0.000    0.714    0.000    0.000    0.000    0.000 
#    0.000    0.000    0.000    0.000    0.000    0.000 
#
# Total GULP energy -156185.194584 kJ/mol
# GULP energy per Si atom -5578.042664 kJ/mol
# Density = 1.991236 g / cm^3
# Si number density = 19.957787 Si / 1000 Ang^3
#
#
#
# Elastic Constant Matrix: (Units=GPa)
#
#
# Indices 1 2 3 4 5 6 
#
# 1 20.3058 4.2890 -8.6077 0.0000 10.6536 0.0000
# 2 4.2890 25.8459 20.2286 0.0000 -6.6001 0.0000
# 3 -8.6077 20.2286 61.1389 0.0000 -14.3698 0.0000
# 4 0.0000 0.0000 0.0000 34.2894 0.0000 -4.2052
# 5 10.6536 -6.6001 -14.3698 0.0000 19.8583 0.0000
# 6 0.0000 0.0000 0.0000 -4.2052 0.0000 18.8584
#
#
#
# Elastic Compliance Matrix: (Units=1/GPa)
#
#
# Indices 1 2 3 4 5 6 
#
# 1 0.090021 -0.038503 0.013320 0.000000 -0.051453 0.000000
# 2 -0.038503 0.069249 -0.021771 0.000000 0.027917 0.000000
# 3 0.013320 -0.021771 0.026574 0.000000 0.004848 0.000000
# 4 0.000000 0.000000 0.000000 0.029984 0.000000 0.006686
# 5 -0.051453 0.027917 0.004848 0.000000 0.090747 0.000000
# 6 0.000000 0.000000 0.000000 0.006686 0.000000 0.054518
#
#
# Mechanical properties :
#
#
# Convention : Reuss Voigt Hill
#
# Bulk Modulus (GPa) = 10.87710 15.45670 13.16690
# Shear Modulus (GPa) = 10.29560 20.69326 15.49443
#
# Velocity S-wave (km/s) = 2.27374 3.22351 2.78935
# Velocity P-wave (km/s) = 3.51498 4.64932 4.12136
#
# Compressibility (1/GPa) = 0.09193629
#
# Stress axis : x y z
#
# Youngs Moduli (GPa) = 11.10852 14.44074 37.63063
#
# Poissons Ratio (x) = 0.55601 -0.50124
# Poissons Ratio (y) = 0.42771 0.81925
# Poissons Ratio (z) = -0.14796 0.31439
#
# Static dielectric constant tensor:
#      x y z
#    x 1.730730 0.000000 0.037180 
#    y 0.000000 1.668320 0.000000 
#    z 0.037180 0.000000 1.714610 
# 
# From -- ./inp_files/37699.got.cif
#   From: 2010.05.17/outbox.ucp.g08.bks.cvg/sg11_19_cif.got.tgz:37699.got - 2010.06.11 11:38:39.
