data_PCOD9167722
_publ_section_title
;
Structure prediction by ZEFSAII (Michael W. Deem and Ramdas Pophale) SiO2 
 PCOD9167722
Probable space group: P 21/M
;
_chemical_formula_sum "Si O2"
_cell_formula_units_Z 32
_cell_length_a 21.000000
_cell_length_b 9.000000
_cell_length_c 30.000000
_cell_angle_alpha 90.000000
_cell_angle_beta 20.000000
_cell_angle_gamma 90.000000
_cell_volume 1939.254213
_symmetry_space_group_name_H-M "P 21/M"
_symmetry_group_IT_number 11
_symmetry_cell_setting 'monoclinic'
loop_
_space_group_symop_operation_xyz
x,y,z
-x,1/2+y,-z
-x,-y,-z
x,1/2-y,z
loop_
_atom_site_type_symbol
_atom_site_label
_atom_site_fract_x
_atom_site_fract_y
_atom_site_fract_z
Si Si1 0.419566 0.073926 0.491816
Si Si2 0.792970 0.924913 0.279524
Si Si3 0.466544 0.428844 0.194284
Si Si4 0.421202 0.070385 0.394884
Si Si5 0.818198 0.428714 0.098003
Si Si6 0.783404 0.929654 0.555350
Si Si7 0.179490 0.427875 0.000159
Si Si8 0.130971 0.571223 0.375282
O O1 0.468916 0.250000 0.459206
O O2 0.265029 0.054403 0.630938
O O3 0.348111 0.027461 0.490816
O O4 0.606937 0.982950 0.377840
O O5 0.824984 0.750000 0.249386
O O6 0.972827 0.019275 0.148956
O O7 0.480469 0.250000 0.182522
O O8 0.350333 0.471179 0.315555
O O9 0.331682 0.495475 0.245193
O O10 0.666862 0.503862 0.067577
O O11 0.410460 0.250000 0.399067
O O12 0.638257 0.035541 0.246150
O O13 0.304243 0.007063 0.431416
O O14 0.836226 0.250000 0.082656
O O15 0.784066 0.498338 0.072014
O O16 0.000000 0.500000 0.000000
O O17 0.773920 0.750000 0.561287
O O18 0.000097 0.963822 0.419314
O O19 0.192281 0.250000 0.989667
O O20 0.144489 0.750000 0.372352
O O21 0.000000 0.500000 0.500000
#
# Coordination Sequence:
#
# PCOD9167722 Si02
#       8
#     4   4   4   4   4   4   4   4
#     4   9  18  33  54  75  94 122 164 208 248 294
#     4  10  20  34  51  71  96 126 163 209 255 293
#     4  10  18  31  48  68  96 129 161 199 247 294
#     4   9  16  29  49  71  95 125 158 195 239 289
#     4  11  21  33  49  70 101 134 164 197 241 296
#     4   8  14  26  45  68  95 126 156 189 234 288
#     4  12  23  34  49  70  97 131 170 207 245 292
#     4   9  16  26  43  67  95 129 164 195 233 285
#
# _framework density 16.501189
#
# number of rings (size 3 to 8) (size 9 to 14) (size 15 to 20)
#    0.000    2.250    1.250    4.125    0.000    1.500 
#    0.000    0.625    0.000    0.000    0.000    0.875 
#    0.000    0.000    0.000    0.000    0.000    0.000 
#
# Total GULP energy -178204.226271 kJ/mol
# GULP energy per Si atom -5568.882071 kJ/mol
# Density = 1.646363 g / cm^3
# Si number density = 16.501189 Si / 1000 Ang^3
#
#
#
# Elastic Constant Matrix: (Units=GPa)
#
#
# Indices 1 2 3 4 5 6 
#
# 1 26.6272 -10.0801 -22.6637 0.0000 19.0605 0.0000
# 2 -10.0801 56.2446 -6.3062 0.0000 11.1975 0.0000
# 3 -22.6637 -6.3062 -15.9935 0.0000 22.5476 0.0000
# 4 0.0000 0.0000 0.0000 20.7570 0.0000 -8.2335
# 5 19.0605 11.1975 22.5476 0.0000 2.9165 0.0000
# 6 0.0000 0.0000 0.0000 -8.2335 0.0000 16.1538
#
#
#
# Elastic Compliance Matrix: (Units=1/GPa)
#
#
# Indices 1 2 3 4 5 6 
#
# 1 0.018535 0.000091 -0.016603 0.000000 0.006879 0.000000
# 2 0.000091 0.017072 -0.008412 0.000000 -0.001101 0.000000
# 3 -0.016603 -0.008412 0.013684 0.000000 0.035016 0.000000
# 4 0.000000 0.000000 0.000000 0.060385 0.000000 0.030778
# 5 0.006879 -0.001101 0.035016 0.000000 0.031443 0.000000
# 6 0.000000 0.000000 0.000000 0.030778 0.000000 0.077592
#
#
# Mechanical properties :
#
#
# Convention : Reuss Voigt Hill
#
# Bulk Modulus (GPa) = -1788.68016 -1.24687 -894.96352
# Shear Modulus (GPa) = 18.63076 15.02734 16.82905
#
# Velocity S-wave (km/s) = 3.36379 3.02103 3.19700
# Velocity P-wave (km/s) = 32.72976 3.37810 23.01983
#
# Compressibility (1/GPa) = -0.00055907
#
# Stress axis : x y z
#
# Youngs Moduli (GPa) = 53.95330 58.57628 73.07991
#
# Poissons Ratio (x) = -0.00532 1.21334
# Poissons Ratio (y) = -0.00490 0.61478
# Poissons Ratio (z) = 0.89578 0.49277
#
# Static dielectric constant tensor:
#      x y z
#    x 1.639030 0.000000 -0.011390 
#    y 0.000000 1.552630 0.000000 
#    z -0.011390 0.000000 1.534360 
# 
# From -- ./inp_files/67444.got.cif
#   From: 2010.05.17/outbox.ucp.g08.bks.cvg/sg11_34_cif.got.tgz:67444.got - 2010.06.11 11:38:39.
