data_PCOD9167649
_publ_section_title
;
Structure prediction by ZEFSAII (Michael W. Deem and Ramdas Pophale) SiO2 
 PCOD9167649
Probable space group: P 21/M
;
_chemical_formula_sum "Si O2"
_cell_formula_units_Z 32
_cell_length_a 11.075940
_cell_length_b 20.805178
_cell_length_c 7.499600
_cell_angle_alpha 90.000000
_cell_angle_beta 109.787692
_cell_angle_gamma 90.000000
_cell_volume 1626.141370
_symmetry_space_group_name_H-M "P 21/M"
_symmetry_group_IT_number 11
_symmetry_cell_setting 'monoclinic'
loop_
_space_group_symop_operation_xyz
x,y,z
-x,1/2+y,-z
-x,-y,-z
x,1/2-y,z
loop_
_atom_site_type_symbol
_atom_site_label
_atom_site_fract_x
_atom_site_fract_y
_atom_site_fract_z
Si Si1 0.140257 0.071317 0.857948
Si Si2 0.351793 0.322125 0.462214
Si Si3 0.351785 0.322125 0.889545
Si Si4 0.140256 0.071321 0.282290
Si Si5 0.358039 0.676422 0.396662
Si Si6 0.358047 0.823578 0.961399
Si Si7 0.149333 0.573709 0.856444
Si Si8 0.149332 0.573705 0.292896
O O1 0.245981 0.124957 0.877464
O O2 0.996767 0.088476 0.722292
O O3 0.176563 0.999692 0.812168
O O4 0.128129 0.065162 0.064056
O O5 0.319393 0.250000 0.380858
O O6 0.358945 0.318591 0.679458
O O7 0.245985 0.375041 0.368488
O O8 0.496115 0.338571 0.472421
O O9 0.319380 0.250000 0.938495
O O10 0.496104 0.338571 0.023664
O O11 0.996766 0.088482 0.274458
O O12 0.176562 0.999698 0.364387
O O13 0.328941 0.750000 0.434474
O O14 0.357138 0.675280 0.178578
O O15 0.253704 0.625107 0.406661
O O16 0.328953 0.750000 0.894490
O O17 0.253711 0.874890 0.847058
O O18 0.152464 0.575314 0.076236
#
# Coordination Sequence:
#
# PCOD9167649 Si02
#       8
#     4   4   4   4   4   4   4   4
#     4   9  17  29  46  68  92 115 141 180 225 261
#     4   9  18  31  45  63  88 116 147 183 218 255
#     4   9  18  31  45  63  88 116 147 183 218 255
#     4   9  17  29  46  68  92 115 141 180 225 261
#     4   8  14  26  44  63  84 115 152 182 210 254
#     4   8  14  26  44  63  84 115 152 182 210 254
#     4   8  15  28  44  65  92 116 143 181 218 255
#     4   8  15  28  44  65  92 116 143 181 218 255
#
# _framework density 19.678484999999998
#
# number of rings (size 3 to 8) (size 9 to 14) (size 15 to 20)
#    0.000    3.500    0.000    3.000    0.000    2.500 
#    0.000    5.000    0.000    1.500    0.000    0.000 
#    0.000    0.000    0.000    0.000    0.000    0.000 
#
# Total GULP energy -178348.623753 kJ/mol
# GULP energy per Si atom -5573.394492 kJ/mol
# Density = 1.963370 g / cm^3
# Si number density = 19.678485 Si / 1000 Ang^3
#
#
#
# Elastic Constant Matrix: (Units=GPa)
#
#
# Indices 1 2 3 4 5 6 
#
# 1 114.8097 129.5319 43.7404 0.0000 54.8984 0.0000
# 2 129.5319 187.9179 44.8422 0.0000 73.3595 0.0000
# 3 43.7404 44.8422 42.4282 0.0000 7.8181 0.0000
# 4 0.0000 0.0000 0.0000 22.0010 0.0000 15.2054
# 5 54.8984 73.3595 7.8181 0.0000 44.6220 0.0000
# 6 0.0000 0.0000 0.0000 15.2054 0.0000 39.5583
#
#
#
# Elastic Compliance Matrix: (Units=1/GPa)
#
#
# Indices 1 2 3 4 5 6 
#
# 1 0.066179 -0.019816 -0.039559 0.000000 -0.041910 0.000000
# 2 -0.019816 0.029524 -0.006534 0.000000 -0.023013 0.000000
# 3 -0.039559 -0.006534 0.062322 0.000000 0.048492 0.000000
# 4 0.000000 0.000000 0.000000 0.061895 0.000000 -0.023791
# 5 -0.041910 -0.023013 0.048492 0.000000 0.103311 0.000000
# 6 0.000000 0.000000 0.000000 -0.023791 0.000000 0.034424
#
#
# Mechanical properties :
#
#
# Convention : Reuss Voigt Hill
#
# Bulk Modulus (GPa) = 38.15926 86.82056 62.48991
# Shear Modulus (GPa) = 10.03595 29.70569 19.87082
#
# Velocity S-wave (km/s) = 2.26076 3.88951 3.18114
# Velocity P-wave (km/s) = 5.12330 8.02411 6.73181
#
# Compressibility (1/GPa) = 0.02620596
#
# Stress axis : x y z
#
# Youngs Moduli (GPa) = 15.11053 33.87076 16.04567
#
# Poissons Ratio (x) = 0.67119 0.63475
# Poissons Ratio (y) = 0.29944 0.10484
# Poissons Ratio (z) = 0.59776 0.22131
#
# Static dielectric constant tensor:
#      x y z
#    x 1.696690 0.000000 -0.036640 
#    y 0.000000 1.682700 0.000000 
#    z -0.036640 0.000000 1.739000 
# 
# From -- ./inp_files/35926.got.cif
#   From: 2010.05.17/outbox.cif.g08.bks.cpg/sg11_18_cif.got.tgz:35926.got - 2010.06.03 12:22:45.
