data_PCOD9167588
_publ_section_title
;
Structure prediction by ZEFSAII (Michael W. Deem and Ramdas Pophale) SiO2 
 PCOD9167588
Probable space group: P 21/M
;
_chemical_formula_sum "Si O2"
_cell_formula_units_Z 20
_cell_length_a 9.820862
_cell_length_b 22.959861
_cell_length_c 8.285557
_cell_angle_alpha 90.000000
_cell_angle_beta 147.530083
_cell_angle_gamma 90.000000
_cell_volume 1002.995446
_symmetry_space_group_name_H-M "P 21/M"
_symmetry_group_IT_number 11
_symmetry_cell_setting 'monoclinic'
loop_
_space_group_symop_operation_xyz
x,y,z
-x,1/2+y,-z
-x,-y,-z
x,1/2-y,z
loop_
_atom_site_type_symbol
_atom_site_label
_atom_site_fract_x
_atom_site_fract_y
_atom_site_fract_z
Si Si1 0.750035 0.750000 0.665028
Si Si2 0.250041 0.750000 0.941520
Si Si3 0.249999 0.014713 0.149698
Si Si4 0.250001 0.532625 0.805716
Si Si5 0.749988 0.340953 0.346302
Si Si6 0.750016 0.847089 0.940353
O O1 0.499614 0.750000 0.302900
O O2 0.750019 0.806994 0.780739
O O3 0.000481 0.750000 0.803788
O O4 0.250018 0.803096 0.815454
O O5 0.500000 0.000000 0.500000
O O6 0.249996 0.083179 0.097637
O O7 0.249998 0.971388 0.997584
O O8 0.000000 0.000000 0.000000
O O9 0.250008 0.593852 0.719135
O O10 0.000000 0.500000 0.500000
O O11 0.500000 0.500000 0.000000
O O12 0.000058 0.332116 0.705053
O O13 0.499917 0.332116 0.204915
#
# Coordination Sequence:
#
# PCOD9167588 Si02
#       6
#     2   2   4   4   4   4
#     4  12  28  46  68 100 136 170 224 282 338 386
#     4  12  28  46  70 104 126 176 226 290 330 376
#     4  12  26  41  67 102 140 173 217 271 342 391
#     4  12  23  44  67 102 133 172 220 275 321 401
#     4  12  24  46  72  95 133 178 229 268 329 399
#     4  12  25  47  69  97 135 184 219 268 334 410
#
# _framework density 19.940270999999999
#
# number of rings (size 3 to 8) (size 9 to 14) (size 15 to 20)
#    0.000    0.000    4.000    6.000    5.600    0.000 
#    0.000    0.000    0.000    0.000    0.000    0.000 
#    0.000    0.000    0.000    0.000    0.000    0.000 
#
# Total GULP energy -111928.086661 kJ/mol
# GULP energy per Si atom -5596.404333 kJ/mol
# Density = 1.989489 g / cm^3
# Si number density = 19.940271 Si / 1000 Ang^3
#
#
#
# Elastic Constant Matrix: (Units=GPa)
#
#
# Indices 1 2 3 4 5 6 
#
# 1 193.5729 40.2200 107.0182 0.0000 26.1942 0.0000
# 2 40.2200 98.2154 49.0653 0.0000 4.6624 0.0000
# 3 107.0182 49.0653 244.3818 0.0000 0.6091 0.0000
# 4 0.0000 0.0000 0.0000 23.7972 0.0000 -15.2689
# 5 26.1942 4.6624 0.6091 0.0000 54.5899 0.0000
# 6 0.0000 0.0000 0.0000 -15.2689 0.0000 52.7325
#
#
#
# Elastic Compliance Matrix: (Units=1/GPa)
#
#
# Indices 1 2 3 4 5 6 
#
# 1 0.007618 -0.001435 -0.003039 0.000000 -0.003499 0.000000
# 2 -0.001435 0.011636 -0.001707 0.000000 -0.000286 0.000000
# 3 -0.003039 -0.001707 0.005762 0.000000 0.001540 0.000000
# 4 0.000000 0.000000 0.000000 0.051610 0.000000 0.014944
# 5 -0.003499 -0.000286 0.001540 0.000000 0.020005 0.000000
# 6 0.000000 0.000000 0.000000 0.014944 0.000000 0.023291
#
#
# Mechanical properties :
#
#
# Convention : Reuss Voigt Hill
#
# Bulk Modulus (GPa) = 79.03399 103.19746 91.11573
# Shear Modulus (GPa) = 36.62984 48.88170 42.75577
#
# Velocity S-wave (km/s) = 4.29065 4.95654 4.63557
# Velocity P-wave (km/s) = 8.01671 9.19902 8.62814
#
# Compressibility (1/GPa) = 0.01265278
#
# Stress axis : x y z
#
# Youngs Moduli (GPa) = 131.27029 85.94200 173.56034
#
# Poissons Ratio (x) = 0.12335 0.52747
# Poissons Ratio (y) = 0.18841 0.29625
# Poissons Ratio (z) = 0.39894 0.14670
#
# Static dielectric constant tensor:
#      x y z
#    x 1.757890 0.000000 -0.039690 
#    y 0.000000 1.692160 0.000000 
#    z -0.039690 0.000000 1.682600 
# 
# From -- ./inp_files/10411.got.cif
#   From: 2010.05.17/outbox.cif.g08.bks.cpg/sg11_6_cif.got.tgz:10411.got - 2010.06.03 12:22:45.
