data_PCOD9167985
_publ_section_title
;
Structure prediction by ZEFSAII (Michael W. Deem and Ramdas Pophale) SiO2 
 PCOD9167985
Probable space group: P 21/M
;
_chemical_formula_sum "Si O2"
_cell_formula_units_Z 28
_cell_length_a 15.000000
_cell_length_b 9.000000
_cell_length_c 12.000000
_cell_angle_alpha 90.000000
_cell_angle_beta 110.000000
_cell_angle_gamma 90.000000
_cell_volume 1522.302046
_symmetry_space_group_name_H-M "P 21/M"
_symmetry_group_IT_number 11
_symmetry_cell_setting 'monoclinic'
loop_
_space_group_symop_operation_xyz
x,y,z
-x,1/2+y,-z
-x,-y,-z
x,1/2-y,z
loop_
_atom_site_type_symbol
_atom_site_label
_atom_site_fract_x
_atom_site_fract_y
_atom_site_fract_z
Si Si1 0.934118 0.929069 0.800954
Si Si2 0.322394 0.926121 0.952245
Si Si3 0.684615 0.928766 0.288711
Si Si4 0.590628 0.927733 0.599785
Si Si5 0.872396 0.073458 0.003694
Si Si6 0.463001 0.929006 0.200330
Si Si7 0.785198 0.929792 0.553392
O O1 0.929224 0.750000 0.796912
O O2 0.876465 0.981517 0.665592
O O3 0.044776 0.969825 0.871710
O O4 0.885271 0.988470 0.892953
O O5 0.330940 0.750000 0.933388
O O6 0.231379 0.950268 0.991497
O O7 0.301741 0.007853 0.828315
O O8 0.416100 0.972421 0.062009
O O9 0.689999 0.750000 0.288737
O O10 0.573877 0.966188 0.265497
O O11 0.758155 0.981703 0.416063
O O12 0.579593 0.750000 0.593618
O O13 0.689431 0.963703 0.581356
O O14 0.500000 0.000000 0.500000
O O15 0.592649 0.990707 0.725017
O O16 0.884479 0.250000 0.987790
O O17 0.453420 0.750000 0.205906
O O18 0.793306 0.750000 0.550144
#
# Coordination Sequence:
#
# PCOD9167985 Si02
#       7
#     4   4   4   4   4   4   4
#     4   9  17  32  56  78  98 129 164 199 246 303
#     4  10  21  35  51  73 102 133 167 209 255 295
#     4  10  20  35  51  68  98 135 173 211 243 291
#     4  11  20  32  51  75 104 132 164 204 248 298
#     4   9  18  33  52  77 105 127 156 206 256 293
#     4  10  20  35  52  72 101 134 168 210 253 292
#     4   9  18  33  51  73 101 132 166 203 245 292
#
# _framework density 18.393196
#
# number of rings (size 3 to 8) (size 9 to 14) (size 15 to 20)
#    0.000    2.286    1.429    1.714    0.000    1.714 
#    0.000    2.143    0.000    0.000    0.000    0.000 
#    0.000    0.000    0.000    0.000    0.000    0.000 
#
# Total GULP energy -156062.889365 kJ/mol
# GULP energy per Si atom -5573.674620 kJ/mol
# Density = 1.835133 g / cm^3
# Si number density = 18.393196 Si / 1000 Ang^3
#
#
#
# Elastic Constant Matrix: (Units=GPa)
#
#
# Indices 1 2 3 4 5 6 
#
# 1 19.5773 10.2116 22.3521 0.0000 12.9086 0.0000
# 2 10.2116 -0.9215 14.9772 0.0000 1.8618 0.0000
# 3 22.3521 14.9772 162.6296 0.0000 26.8323 0.0000
# 4 0.0000 0.0000 0.0000 32.6487 0.0000 -3.8219
# 5 12.9086 1.8618 26.8323 0.0000 32.4135 0.0000
# 6 0.0000 0.0000 0.0000 -3.8219 0.0000 16.9145
#
#
#
# Elastic Compliance Matrix: (Units=1/GPa)
#
#
# Indices 1 2 3 4 5 6 
#
# 1 0.022922 0.082752 -0.009823 0.000000 -0.005751 0.000000
# 2 0.082752 -0.133404 0.005890 0.000000 -0.030169 0.000000
# 3 -0.009823 0.005890 0.007374 0.000000 -0.002531 0.000000
# 4 0.000000 0.000000 0.000000 0.031461 0.000000 0.007109
# 5 -0.005751 -0.030169 -0.002531 0.000000 0.036969 0.000000
# 6 0.000000 0.000000 0.000000 0.007109 0.000000 0.060727
#
#
# Mechanical properties :
#
#
# Convention : Reuss Voigt Hill
#
# Bulk Modulus (GPa) = 18.33836 30.70747 24.52292
# Shear Modulus (GPa) = -44.08766 25.31163 -9.38801
#
# Velocity S-wave (km/s) = -4.90118 3.71366 -2.26167
# Velocity P-wave (km/s) = 4.69435 5.92618 2.55761
#
# Compressibility (1/GPa) = 0.05453050
#
# Stress axis : x y z
#
# Youngs Moduli (GPa) = 43.62534 -7.49603 135.60872
#
# Poissons Ratio (x) = 0.62031 1.33204
# Poissons Ratio (y) = -3.61008 -0.79869
# Poissons Ratio (z) = 0.42852 0.04415
#
# Static dielectric constant tensor:
#      x y z
#    x 1.645650 0.000000 0.009470 
#    y 0.000000 1.619300 0.000000 
#    z 0.009470 0.000000 1.657550 
# 
# From -- ./inp_files/37393.got.cif
#   From: 2010.05.17/outbox.ucp.g08.bks.cvg/sg11_19_cif.got.tgz:37393.got - 2010.06.11 11:38:39.
