data_PCOD9167358
_publ_section_title
;
Structure prediction by ZEFSAII (Michael W. Deem and Ramdas Pophale) SiO2 
 PCOD9167358
Probable space group: P 21/M
;
_chemical_formula_sum "Si O2"
_cell_formula_units_Z 30
_cell_length_a 17.357026
_cell_length_b 14.521835
_cell_length_c 6.336340
_cell_angle_alpha 90.000000
_cell_angle_beta 68.482717
_cell_angle_gamma 90.000000
_cell_volume 1485.804128
_symmetry_space_group_name_H-M "P 21/M"
_symmetry_group_IT_number 11
_symmetry_cell_setting 'monoclinic'
loop_
_space_group_symop_operation_xyz
x,y,z
-x,1/2+y,-z
-x,-y,-z
x,1/2-y,z
loop_
_atom_site_type_symbol
_atom_site_label
_atom_site_fract_x
_atom_site_fract_y
_atom_site_fract_z
Si Si1 0.272150 0.386905 0.031762
Si Si2 0.444272 0.354178 0.055295
Si Si3 0.729148 0.058710 0.262307
Si Si4 0.848737 0.349852 0.842129
Si Si5 0.558617 0.473841 0.637294
Si Si6 0.837787 0.518709 0.529371
Si Si7 0.859980 0.750000 0.044768
Si Si8 0.020276 0.097145 0.868677
O O1 0.223277 0.409732 0.296155
O O2 0.360469 0.347096 0.003649
O O3 0.289950 0.480532 0.890216
O O4 0.209563 0.328172 0.954618
O O5 0.466719 0.250000 0.102364
O O6 0.513419 0.403239 0.841081
O O7 0.426208 0.429034 0.257089
O O8 0.643908 0.071925 0.472437
O O9 0.796389 0.019176 0.358640
O O10 0.773537 0.137643 0.082873
O O11 0.843712 0.250000 0.742464
O O12 0.848311 0.433288 0.676828
O O13 0.934465 0.359002 0.881901
O O14 0.500000 0.500000 0.500000
O O15 0.922405 0.570360 0.388787
O O16 0.926385 0.668141 0.046338
O O17 0.000000 0.000000 0.000000
#
# Coordination Sequence:
#
# PCOD9167358 Si02
#       8
#     4   4   4   4   4   4   2   4
#     4  11  22  42  67 104 135 171 222 285 344 405
#     4  11  24  42  69 105 141 172 229 280 340 415
#     4  11  22  44  70  94 136 180 222 279 344 403
#     4  11  25  43  66  98 132 178 235 277 330 408
#     4  11  24  44  71 101 139 184 218 280 348 410
#     4  11  23  43  67  93 136 181 220 286 341 395
#     4  12  24  40  72 104 134 176 232 284 338 412
#     4  12  23  46  66  96 138 180 224 281 343 401
#
# _framework density 20.191087
#
# number of rings (size 3 to 8) (size 9 to 14) (size 15 to 20)
#    0.000    0.800    6.667    1.200    0.000    2.133 
#    7.200    1.333    0.000    0.000    0.000    0.000 
#    0.000    0.000    0.000    0.000    0.000    0.000 
#
# Total GULP energy -167012.550415 kJ/mol
# GULP energy per Si atom -5567.085014 kJ/mol
# Density = 2.014513 g / cm^3
# Si number density = 20.191087 Si / 1000 Ang^3
#
#
#
# Elastic Constant Matrix: (Units=GPa)
#
#
# Indices 1 2 3 4 5 6 
#
# 1 98.7152 38.2652 21.6267 0.0000 -8.2343 0.0000
# 2 38.2652 115.3541 14.0413 0.0000 -14.5593 0.0000
# 3 21.6267 14.0413 60.9906 0.0000 -24.1604 0.0000
# 4 0.0000 0.0000 0.0000 -1.2300 0.0000 -6.7610
# 5 -8.2343 -14.5593 -24.1604 0.0000 34.4175 0.0000
# 6 0.0000 0.0000 0.0000 -6.7610 0.0000 7.1154
#
#
#
# Elastic Compliance Matrix: (Units=1/GPa)
#
#
# Indices 1 2 3 4 5 6 
#
# 1 0.012378 -0.003798 -0.004125 0.000000 -0.001541 0.000000
# 2 -0.003798 0.010351 0.000469 0.000000 0.003799 0.000000
# 3 -0.004125 0.000469 0.024155 0.000000 0.016168 0.000000
# 4 0.000000 0.000000 0.000000 -0.130646 0.000000 -0.124139
# 5 -0.001541 0.003799 0.016168 0.000000 0.041643 0.000000
# 6 0.000000 0.000000 0.000000 -0.124139 0.000000 0.022584
#
#
# Mechanical properties :
#
#
# Convention : Reuss Voigt Hill
#
# Bulk Modulus (GPa) = 31.27424 46.99182 39.13303
# Shear Modulus (GPa) = 828.72311 21.46901 425.09606
#
# Velocity S-wave (km/s) = 20.28130 3.26435 14.52562
# Velocity P-wave (km/s) = 23.74793 6.12634 17.34209
#
# Compressibility (1/GPa) = 0.03197520
#
# Stress axis : x y z
#
# Youngs Moduli (GPa) = 80.79066 96.60541 41.39848
#
# Poissons Ratio (x) = 0.36694 0.17077
# Poissons Ratio (y) = 0.30687 -0.01940
# Poissons Ratio (z) = 0.33327 -0.04528
#
# Static dielectric constant tensor:
#      x y z
#    x 1.701340 0.000000 -0.017680 
#    y 0.000000 1.756930 0.000000 
#    z -0.017680 0.000000 1.742700 
# 
# From -- ./inp_files/8077.got.cif
#   From: 2010.05.17/outbox.cif.g08.bks.cpg/sg11_5_cif.got.tgz:8077.got - 2010.06.03 12:22:45.
