data_PCOD9167064
_publ_section_title
;
Structure prediction by ZEFSAII (Michael W. Deem and Ramdas Pophale) SiO2 
 PCOD9167064
Probable space group: P 21/M
;
_chemical_formula_sum "Si O2"
_cell_formula_units_Z 28
_cell_length_a 21.770758
_cell_length_b 9.081270
_cell_length_c 15.380442
_cell_angle_alpha 90.000000
_cell_angle_beta 155.585564
_cell_angle_gamma 90.000000
_cell_volume 1256.868806
_symmetry_space_group_name_H-M "P 21/M"
_symmetry_group_IT_number 11
_symmetry_cell_setting 'monoclinic'
loop_
_space_group_symop_operation_xyz
x,y,z
-x,1/2+y,-z
-x,-y,-z
x,1/2-y,z
loop_
_atom_site_type_symbol
_atom_site_label
_atom_site_fract_x
_atom_site_fract_y
_atom_site_fract_z
Si Si1 0.542591 0.422360 0.870522
Si Si2 0.932140 0.078391 0.496306
Si Si3 0.070615 0.427401 0.222767
Si Si4 0.682154 0.922795 0.583041
Si Si5 0.268948 0.573948 0.185071
Si Si6 0.246221 0.079115 0.977922
Si Si7 0.287588 0.426553 0.665555
O O1 0.580494 0.250000 0.930329
O O2 0.431131 0.431445 0.643620
O O3 0.446837 0.472144 0.830648
O O4 0.680911 0.516076 0.016131
O O5 0.908340 0.250000 0.447813
O O6 0.068461 0.065213 0.740526
O O7 0.783600 0.007297 0.344131
O O8 0.000000 0.000000 0.500000
O O9 0.067017 0.250000 0.209630
O O10 0.163666 0.482705 0.259962
O O11 0.170573 0.456562 0.436464
O O12 0.902143 0.475602 0.017251
O O13 0.696375 0.750000 0.623936
O O14 0.643047 0.010181 0.619391
O O15 0.278997 0.750000 0.195638
O O16 0.302461 0.511013 0.133365
O O17 0.284672 0.250000 0.036739
O O18 0.291656 0.250000 0.684783
#
# Coordination Sequence:
#
# PCOD9167064 Si02
#       7
#     4   4   4   4   4   4   4
#     4   9  20  38  61  85 115 158 198 232 283 340
#     4  11  24  41  64  93 118 145 183 231 287 345
#     4   8  15  29  51  78 110 148 188 233 284 335
#     4   9  18  33  51  77 114 152 194 241 283 329
#     4  11  20  31  52  80 112 153 198 238 288 339
#     4  11  24  40  58  84 117 151 190 238 287 336
#     4   9  17  36  63  88 116 150 188 234 285 340
#
# _framework density 22.277584999999998
#
# number of rings (size 3 to 8) (size 9 to 14) (size 15 to 20)
#    0.000    2.286    1.429    3.429    0.000    3.429 
#    0.000    3.571    0.000    0.000    0.000    0.000 
#    0.000    0.000    0.000    0.000    0.000    0.000 
#
# Total GULP energy -156462.580584 kJ/mol
# GULP energy per Si atom -5587.949307 kJ/mol
# Density = 2.222688 g / cm^3
# Si number density = 22.277585 Si / 1000 Ang^3
#
#
#
# Elastic Constant Matrix: (Units=GPa)
#
#
# Indices 1 2 3 4 5 6 
#
# 1 186.3932 73.3843 29.5510 0.0000 11.4924 0.0000
# 2 73.3843 78.0711 20.2599 0.0000 5.4359 0.0000
# 3 29.5510 20.2599 66.6862 0.0000 10.6015 0.0000
# 4 0.0000 0.0000 0.0000 14.2778 0.0000 3.0695
# 5 11.4924 5.4359 10.6015 0.0000 41.3545 0.0000
# 6 0.0000 0.0000 0.0000 3.0695 0.0000 36.4110
#
#
#
# Elastic Compliance Matrix: (Units=1/GPa)
#
#
# Indices 1 2 3 4 5 6 
#
# 1 0.008693 -0.007753 -0.001329 0.000000 -0.001056 0.000000
# 2 -0.007753 0.020843 -0.002923 0.000000 0.000164 0.000000
# 3 -0.001329 -0.002923 0.017048 0.000000 -0.003617 0.000000
# 4 0.000000 0.000000 0.000000 0.071332 0.000000 -0.006013
# 5 -0.001056 0.000164 -0.003617 0.000000 0.025380 0.000000
# 6 0.000000 0.000000 0.000000 -0.006013 0.000000 0.027971
#
#
# Mechanical properties :
#
#
# Convention : Reuss Voigt Hill
#
# Bulk Modulus (GPa) = 44.29774 64.17122 54.23448
# Shear Modulus (GPa) = 24.65466 32.27234 28.46350
#
# Velocity S-wave (km/s) = 3.33032 3.81024 3.57834
# Velocity P-wave (km/s) = 5.89200 6.94442 6.43975
#
# Compressibility (1/GPa) = 0.02257452
#
# Stress axis : x y z
#
# Youngs Moduli (GPa) = 115.03266 47.97681 58.65961
#
# Poissons Ratio (x) = 0.37196 0.07796
# Poissons Ratio (y) = 0.89184 0.17146
# Poissons Ratio (z) = 0.15287 0.14023
#
# Static dielectric constant tensor:
#      x y z
#    x 1.829010 0.000000 0.021350 
#    y 0.000000 1.739620 0.000000 
#    z 0.021350 0.000000 1.902050 
# 
# From -- ./inp_files/54504.got.cif
#   From: 2010.05.17/outbox.cif.g08.bks.cpg/sg11_28_cif.got.tgz:54504.got - 2010.06.03 12:22:45.
