data_PCOD9167195
_publ_section_title
;
Structure prediction by ZEFSAII (Michael W. Deem and Ramdas Pophale) SiO2 
 PCOD9167195
Probable space group: P 21/M
;
_chemical_formula_sum "Si O2"
_cell_formula_units_Z 24
_cell_length_a 7.487865
_cell_length_b 21.578170
_cell_length_c 8.150055
_cell_angle_alpha 90.000000
_cell_angle_beta 124.203260
_cell_angle_gamma 90.000000
_cell_volume 1089.091033
_symmetry_space_group_name_H-M "P 21/M"
_symmetry_group_IT_number 11
_symmetry_cell_setting 'monoclinic'
loop_
_space_group_symop_operation_xyz
x,y,z
-x,1/2+y,-z
-x,-y,-z
x,1/2-y,z
loop_
_atom_site_type_symbol
_atom_site_label
_atom_site_fract_x
_atom_site_fract_y
_atom_site_fract_z
Si Si1 0.302799 0.393760 0.987111
Si Si2 0.838271 0.033432 0.083589
Si Si3 0.506554 0.120818 0.750282
Si Si4 0.269675 0.028040 0.422855
Si Si5 0.877455 0.177821 0.735934
Si Si6 0.747758 0.090889 0.377982
O O1 0.248378 0.465340 0.915734
O O2 0.402581 0.363045 0.872399
O O3 0.085152 0.357425 0.919125
O O4 0.491001 0.397049 0.220470
O O5 0.828174 0.079485 0.235769
O O6 0.095198 0.031677 0.187366
O O7 0.673947 0.064725 0.874444
O O8 0.320183 0.092266 0.539532
O O9 0.661362 0.167842 0.733739
O O10 0.500000 0.000000 0.500000
O O11 0.190945 0.973498 0.502353
O O12 0.922087 0.250000 0.741236
O O13 0.838359 0.144438 0.540583
#
# Coordination Sequence:
#
# PCOD9167195 Si02
#       6
#     4   4   4   4   4   4
#     4  11  22  41  68  96 126 159 200 263 324 374
#     4  11  21  37  65 102 130 148 198 262 335 380
#     4  11  23  39  64  96 127 158 202 261 319 374
#     4  12  20  31  61 100 128 156 192 252 327 376
#     4  12  28  44  60  86 126 177 220 248 294 374
#     4  11  21  39  64  94 126 157 200 259 318 371
#
# _framework density 22.036724
#
# number of rings (size 3 to 8) (size 9 to 14) (size 15 to 20)
#    0.000    0.667    6.667    2.500    2.333    2.667 
#    0.000    2.500    0.000    0.000    0.000    0.000 
#    0.000    0.000    0.000    0.000    0.000    0.000 
#
# Total GULP energy -134125.828612 kJ/mol
# GULP energy per Si atom -5588.576192 kJ/mol
# Density = 2.198657 g / cm^3
# Si number density = 22.036724 Si / 1000 Ang^3
#
#
#
# Elastic Constant Matrix: (Units=GPa)
#
#
# Indices 1 2 3 4 5 6 
#
# 1 50.3405 26.1017 17.2521 0.0000 9.5329 0.0000
# 2 26.1017 95.6708 27.3642 0.0000 10.2396 0.0000
# 3 17.2521 27.3642 119.4436 0.0000 34.6775 0.0000
# 4 0.0000 0.0000 0.0000 12.8722 0.0000 4.3400
# 5 9.5329 10.2396 34.6775 0.0000 46.1613 0.0000
# 6 0.0000 0.0000 0.0000 4.3400 0.0000 14.4794
#
#
#
# Elastic Compliance Matrix: (Units=1/GPa)
#
#
# Indices 1 2 3 4 5 6 
#
# 1 0.023851 -0.005842 -0.001346 0.000000 -0.002618 0.000000
# 2 -0.005842 0.012635 -0.002030 0.000000 -0.000071 0.000000
# 3 -0.001346 -0.002030 0.011281 0.000000 -0.007746 0.000000
# 4 0.000000 0.000000 0.000000 0.086421 0.000000 -0.025903
# 5 -0.002618 -0.000071 -0.007746 0.000000 0.028038 0.000000
# 6 0.000000 0.000000 0.000000 -0.025903 0.000000 0.076828
#
#
# Mechanical properties :
#
#
# Convention : Reuss Voigt Hill
#
# Bulk Modulus (GPa) = 34.09574 45.21011 39.65292
# Shear Modulus (GPa) = 18.70791 27.68502 23.19647
#
# Velocity S-wave (km/s) = 2.91682 3.54830 3.24794
# Velocity P-wave (km/s) = 5.18166 6.11126 5.66556
#
# Compressibility (1/GPa) = 0.02932918
#
# Stress axis : x y z
#
# Youngs Moduli (GPa) = 41.92691 79.14762 88.64826
#
# Poissons Ratio (x) = 0.46237 0.11936
# Poissons Ratio (y) = 0.24493 0.17997
# Poissons Ratio (z) = 0.05645 0.16068
#
# Static dielectric constant tensor:
#      x y z
#    x 1.999640 0.000000 -0.013030 
#    y 0.000000 1.766280 0.000000 
#    z -0.013030 0.000000 1.829400 
# 
# From -- ./inp_files/14851.got.cif
#   From: 2010.05.17/outbox.cif.g08.bks.cpg/sg11_8_cif.got.tgz:14851.got - 2010.06.03 12:22:45.
