data_PCOD9167124
_publ_section_title
;
Structure prediction by ZEFSAII (Michael W. Deem and Ramdas Pophale) SiO2 
 PCOD9167124
Probable space group: P 21/M
;
_chemical_formula_sum "Si O2"
_cell_formula_units_Z 32
_cell_length_a 15.693246
_cell_length_b 13.780275
_cell_length_c 11.876227
_cell_angle_alpha 90.000000
_cell_angle_beta 26.855366
_cell_angle_gamma 90.000000
_cell_volume 1160.212561
_symmetry_space_group_name_H-M "P 21/M"
_symmetry_group_IT_number 11
_symmetry_cell_setting 'monoclinic'
loop_
_space_group_symop_operation_xyz
x,y,z
-x,1/2+y,-z
-x,-y,-z
x,1/2-y,z
loop_
_atom_site_type_symbol
_atom_site_label
_atom_site_fract_x
_atom_site_fract_y
_atom_site_fract_z
Si Si1 0.016533 0.632016 0.036072
Si Si2 0.413051 0.365573 0.772501
Si Si3 0.117327 0.139543 0.579471
Si Si4 0.158845 0.864661 0.640158
Si Si5 0.303558 0.859230 0.009735
Si Si6 0.709641 0.642608 0.852746
Si Si7 0.439508 0.868729 0.626017
Si Si8 0.665735 0.076560 0.780045
O O1 0.997068 0.750000 0.056010
O O2 0.014826 0.600572 0.907596
O O3 0.229542 0.612627 0.826618
O O4 0.873338 0.599822 0.303804
O O5 0.369192 0.250000 0.818968
O O6 0.631500 0.372346 0.553395
O O7 0.414776 0.402631 0.641861
O O8 0.287863 0.403996 0.024974
O O9 0.196006 0.250000 0.490763
O O10 0.896872 0.146236 0.814129
O O11 0.198822 0.095952 0.367160
O O12 0.120425 0.750000 0.664497
O O13 0.174094 0.920600 0.504173
O O14 0.373702 0.750000 0.947402
O O15 0.266369 0.900794 0.175790
O O16 0.442494 0.904939 0.751804
O O17 0.798562 0.750000 0.757232
O O18 0.487600 0.654030 0.087621
O O19 0.457763 0.750000 0.610252
O O20 0.500000 0.000000 0.000000
#
# Coordination Sequence:
#
# PCOD9167124 Si02
#       8
#     4   4   4   4   4   4   4   4
#     4   7  10  19  39  66  86 100 132 181 219 250
#     4   7  10  18  36  62  85 104 130 166 207 249
#     4   8  14  25  46  73  90 103 134 182 227 262
#     4   8  13  24  43  62  80 108 146 182 213 250
#     4   9  16  28  46  66  87 111 139 174 218 263
#     4   9  16  28  47  68  89 113 141 176 219 263
#     4   7  10  18  36  61  83 102 129 167 209 250
#     4  11  21  30  41  61  90 121 152 183 213 251
#
# _framework density 27.581151999999999
#
# number of rings (size 3 to 8) (size 9 to 14) (size 15 to 20)
#    0.000    3.750    0.000    4.875    0.000    0.000 
#    0.000    0.625    0.000   14.250    0.000    7.000 
#    0.000    0.000    0.000    0.000    0.000    0.000 
#
# Total GULP energy -178392.569219 kJ/mol
# GULP energy per Si atom -5574.767788 kJ/mol
# Density = 2.751838 g / cm^3
# Si number density = 27.581152 Si / 1000 Ang^3
#
#
#
# Elastic Constant Matrix: (Units=GPa)
#
#
# Indices 1 2 3 4 5 6 
#
# 1 69.2823 14.5293 101.8484 0.0000 40.5750 0.0000
# 2 14.5293 53.0887 28.2127 0.0000 21.2560 0.0000
# 3 101.8484 28.2127 235.4521 0.0000 102.8007 0.0000
# 4 0.0000 0.0000 0.0000 5.6719 0.0000 25.6983
# 5 40.5750 21.2560 102.8007 0.0000 102.4650 0.0000
# 6 0.0000 0.0000 0.0000 25.6983 0.0000 22.0800
#
#
#
# Elastic Compliance Matrix: (Units=1/GPa)
#
#
# Indices 1 2 3 4 5 6 
#
# 1 0.040346 -0.002446 -0.018516 0.000000 0.003107 0.000000
# 2 -0.002446 0.020843 0.000045 0.000000 -0.003401 0.000000
# 3 -0.018516 0.000045 0.016111 0.000000 -0.008841 0.000000
# 4 0.000000 0.000000 0.000000 -0.041258 0.000000 0.048019
# 5 0.003107 -0.003401 -0.008841 0.000000 0.018105 0.000000
# 6 0.000000 0.000000 0.000000 0.048019 0.000000 -0.010599
#
#
# Mechanical properties :
#
#
# Convention : Reuss Voigt Hill
#
# Bulk Modulus (GPa) = 28.19496 71.88933 50.04215
# Shear Modulus (GPa) = 51.43766 40.25889 45.84827
#
# Velocity S-wave (km/s) = 4.32320 3.82468 4.08156
# Velocity P-wave (km/s) = 5.92999 6.75467 6.35572
#
# Compressibility (1/GPa) = 0.03546733
#
# Stress axis : x y z
#
# Youngs Moduli (GPa) = 24.78542 47.97686 62.06812
#
# Poissons Ratio (x) = 0.11736 1.14926
# Poissons Ratio (y) = 0.06063 -0.00282
# Poissons Ratio (z) = 0.45893 -0.00218
#
# Static dielectric constant tensor:
#      x y z
#    x 2.029970 0.000000 0.071470 
#    y 0.000000 2.280180 0.000000 
#    z 0.071470 0.000000 2.162070 
# 
# From -- ./inp_files/41828.got.cif
#   From: 2010.05.17/outbox.cif.g08.bks.cpg/sg11_21_cif.got.tgz:41828.got - 2010.06.03 12:22:45.
