data_PCOD9167632
_publ_section_title
;
Structure prediction by ZEFSAII (Michael W. Deem and Ramdas Pophale) SiO2 
 PCOD9167632
Probable space group: P 21/M
;
_chemical_formula_sum "Si O2"
_cell_formula_units_Z 32
_cell_length_a 14.500801
_cell_length_b 7.351044
_cell_length_c 13.763024
_cell_angle_alpha 90.000000
_cell_angle_beta 107.420798
_cell_angle_gamma 90.000000
_cell_volume 1399.791056
_symmetry_space_group_name_H-M "P 21/M"
_symmetry_group_IT_number 11
_symmetry_cell_setting 'monoclinic'
loop_
_space_group_symop_operation_xyz
x,y,z
-x,1/2+y,-z
-x,-y,-z
x,1/2-y,z
loop_
_atom_site_type_symbol
_atom_site_label
_atom_site_fract_x
_atom_site_fract_y
_atom_site_fract_z
Si Si1 0.088510 0.028327 0.412377
Si Si2 0.134213 0.468584 0.841357
Si Si3 0.866609 0.545905 0.362639
Si Si4 0.945509 0.033448 0.880494
Si Si5 0.241374 0.968223 0.076502
Si Si6 0.274988 0.470497 0.376438
Si Si7 0.570123 0.533603 0.430350
Si Si8 0.414547 0.542225 0.241718
O O1 0.080906 0.250000 0.412562
O O2 0.134471 0.967287 0.530008
O O3 0.162966 0.977200 0.350954
O O4 0.981835 0.949517 0.376419
O O5 0.126700 0.250000 0.829745
O O6 0.172737 0.537589 0.749694
O O7 0.025669 0.540023 0.830946
O O8 0.201436 0.500546 0.955858
O O9 0.826280 0.750000 0.359293
O O10 0.937954 0.250000 0.863063
O O11 0.838640 0.960736 0.871167
O O12 0.000000 0.000000 0.000000
O O13 0.244239 0.750000 0.089728
O O14 0.348227 0.038650 0.135680
O O15 0.279866 0.250000 0.372690
O O16 0.328394 0.528336 0.493628
O O17 0.337834 0.543930 0.307526
O O18 0.500000 0.500000 0.500000
O O19 0.578125 0.750000 0.418193
O O20 0.512288 0.459959 0.318617
O O21 0.437954 0.750000 0.222243
#
# Coordination Sequence:
#
# PCOD9167632 Si02
#       8
#     4   4   4   4   4   4   4   4
#     4   9  18  31  44  63  85 107 138 174 210 247
#     4   9  17  28  42  57  76 106 138 168 203 241
#     4   9  18  31  46  61  82 109 139 176 211 243
#     4   8  14  24  35  49  71  97 126 157 189 224
#     4   9  17  27  39  58  82 106 134 168 200 238
#     4   9  17  28  43  62  86 112 138 168 205 247
#     4   8  14  26  41  59  83 110 136 165 201 243
#     4   9  17  27  42  63  87 112 139 168 201 244
#
# _framework density 22.860554
#
# number of rings (size 3 to 8) (size 9 to 14) (size 15 to 20)
#    0.000    3.250    0.000    0.000    1.750    1.500 
#    0.000    0.000    0.000    0.000    0.000    0.875 
#    0.000    0.000    0.000    0.000    0.000    0.000 
#
# Total GULP energy -178271.910989 kJ/mol
# GULP energy per Si atom -5570.997218 kJ/mol
# Density = 2.280852 g / cm^3
# Si number density = 22.860554 Si / 1000 Ang^3
#
#
#
# Elastic Constant Matrix: (Units=GPa)
#
#
# Indices 1 2 3 4 5 6 
#
# 1 29.0443 -4.6808 -1.4676 0.0000 13.1694 0.0000
# 2 -4.6808 102.1319 -2.1648 0.0000 1.6393 0.0000
# 3 -1.4676 -2.1648 118.7373 0.0000 12.3664 0.0000
# 4 0.0000 0.0000 0.0000 12.5249 0.0000 1.6461
# 5 13.1694 1.6393 12.3664 0.0000 39.2563 0.0000
# 6 0.0000 0.0000 0.0000 1.6461 0.0000 1.8053
#
#
#
# Elastic Compliance Matrix: (Units=1/GPa)
#
#
# Indices 1 2 3 4 5 6 
#
# 1 0.041546 0.002184 0.002083 0.000000 -0.014685 0.000000
# 2 0.002184 0.009919 0.000338 0.000000 -0.001253 0.000000
# 3 0.002083 0.000338 0.008817 0.000000 -0.003490 0.000000
# 4 0.000000 0.000000 0.000000 0.090712 0.000000 -0.082714
# 5 -0.014685 -0.001253 -0.003490 0.000000 0.031552 0.000000
# 6 0.000000 0.000000 0.000000 -0.082714 0.000000 0.629356
#
#
# Mechanical properties :
#
#
# Convention : Reuss Voigt Hill
#
# Bulk Modulus (GPa) = 14.39017 25.92078 20.15547
# Shear Modulus (GPa) = 6.05433 27.93241 16.99337
#
# Velocity S-wave (km/s) = 1.62915 3.49930 2.72940
# Velocity P-wave (km/s) = 3.13803 5.26214 4.33228
#
# Compressibility (1/GPa) = 0.06949191
#
# Stress axis : x y z
#
# Youngs Moduli (GPa) = 24.06981 100.82027 113.41219
#
# Poissons Ratio (x) = -0.22018 -0.23621
# Poissons Ratio (y) = -0.05257 -0.03838
# Poissons Ratio (z) = -0.05013 -0.03412
#
# Static dielectric constant tensor:
#      x y z
#    x 1.776950 0.000000 -0.425820 
#    y 0.000000 1.849490 0.000000 
#    z -0.425820 0.000000 -1.353980 
# 
# From -- ./inp_files/52968.got.cif
#   From: 2010.05.17/outbox.cif.g08.bks.cpg/sg11_27_cif.got.tgz:52968.got - 2010.06.03 12:22:45.
