data_PCOD9167274
_publ_section_title
;
Structure prediction by ZEFSAII (Michael W. Deem and Ramdas Pophale) SiO2 
 PCOD9167274
Probable space group: P 21/M
;
_chemical_formula_sum "Si O2"
_cell_formula_units_Z 32
_cell_length_a 26.997369
_cell_length_b 7.696100
_cell_length_c 21.004073
_cell_angle_alpha 90.000000
_cell_angle_beta 21.262371
_cell_angle_gamma 90.000000
_cell_volume 1582.597547
_symmetry_space_group_name_H-M "P 21/M"
_symmetry_group_IT_number 11
_symmetry_cell_setting 'monoclinic'
loop_
_space_group_symop_operation_xyz
x,y,z
-x,1/2+y,-z
-x,-y,-z
x,1/2-y,z
loop_
_atom_site_type_symbol
_atom_site_label
_atom_site_fract_x
_atom_site_fract_y
_atom_site_fract_z
Si Si1 0.345624 0.453788 0.702996
Si Si2 0.594436 0.958671 0.978202
Si Si3 0.408850 0.037591 0.875392
Si Si4 0.281424 0.537349 0.526486
Si Si5 0.300271 0.958262 0.279778
Si Si6 0.906644 0.037550 0.366666
Si Si7 0.779729 0.536343 0.015208
Si Si8 0.840383 0.043870 0.194362
O O1 0.500000 0.500000 0.500000
O O2 0.346171 0.250000 0.712372
O O3 0.291634 0.528416 0.834481
O O4 0.242434 0.490121 0.768929
O O5 0.585326 0.750000 0.992059
O O6 0.697145 0.001551 0.798059
O O7 0.627217 0.020346 0.009902
O O8 0.444170 0.024388 0.136641
O O9 0.407863 0.250000 0.876444
O O10 0.563664 0.984186 0.673551
O O11 0.305554 0.980960 0.944328
O O12 0.281170 0.750000 0.527212
O O13 0.180202 0.483903 0.591105
O O14 0.227905 0.474622 0.658945
O O15 0.303000 0.750000 0.282718
O O16 0.174633 0.020528 0.472970
O O17 0.907812 0.250000 0.365263
O O18 0.062900 0.980784 0.176133
O O19 0.779697 0.750000 0.015398
O O20 0.829424 0.250000 0.211039
O O21 0.000000 0.000000 0.000000
#
# Coordination Sequence:
#
# PCOD9167274 Si02
#       8
#     4   4   4   4   4   4   4   4
#     4  11  22  38  58  82 109 143 184 226 274 329
#     4   9  16  27  46  71  96 123 157 201 247 294
#     4   9  15  27  46  71  96 122 164 212 249 288
#     4   9  16  28  49  73  96 125 168 213 251 295
#     4   9  16  27  46  71  96 124 157 198 247 298
#     4   9  15  27  46  71  98 126 164 209 250 292
#     4   9  18  30  49  75 100 127 168 217 256 298
#     4  11  22  36  56  82 111 143 178 226 278 326
#
# _framework density 20.219922
#
# number of rings (size 3 to 8) (size 9 to 14) (size 15 to 20)
#    0.000    2.500    1.250    2.250    0.000    4.000 
#    0.000    0.625    0.000    9.000    0.000    0.000 
#    0.000    0.000    0.000    0.000    0.000    0.000 
#
# Total GULP energy -178626.876187 kJ/mol
# GULP energy per Si atom -5582.089881 kJ/mol
# Density = 2.017390 g / cm^3
# Si number density = 20.219922 Si / 1000 Ang^3
#
#
#
# Elastic Constant Matrix: (Units=GPa)
#
#
# Indices 1 2 3 4 5 6 
#
# 1 202.2766 1.0692 119.2141 0.0000 16.3149 0.0000
# 2 1.0692 30.8060 4.4600 0.0000 1.8045 0.0000
# 3 119.2141 4.4600 144.1278 0.0000 11.0066 0.0000
# 4 0.0000 0.0000 0.0000 16.1115 0.0000 5.1395
# 5 16.3149 1.8045 11.0066 0.0000 43.6495 0.0000
# 6 0.0000 0.0000 0.0000 5.1395 0.0000 16.8458
#
#
#
# Elastic Compliance Matrix: (Units=1/GPa)
#
#
# Indices 1 2 3 4 5 6 
#
# 1 0.009786 0.000916 -0.007995 0.000000 -0.001680 0.000000
# 2 0.000916 0.032746 -0.001674 0.000000 -0.001274 0.000000
# 3 -0.007995 -0.001674 0.013632 0.000000 -0.000380 0.000000
# 4 0.000000 0.000000 0.000000 0.068759 0.000000 -0.020978
# 5 -0.001680 -0.001274 -0.000380 0.000000 0.023686 0.000000
# 6 0.000000 0.000000 0.000000 -0.020978 0.000000 0.065762
#
#
# Mechanical properties :
#
#
# Convention : Reuss Voigt Hill
#
# Bulk Modulus (GPa) = 25.86669 69.63302 47.74986
# Shear Modulus (GPa) = 20.42799 32.15250 26.29025
#
# Velocity S-wave (km/s) = 3.18195 3.99198 3.60976
# Velocity P-wave (km/s) = 5.13032 7.46729 6.40627
#
# Compressibility (1/GPa) = 0.03865976
#
# Stress axis : x y z
#
# Youngs Moduli (GPa) = 102.18658 30.53771 73.35842
#
# Poissons Ratio (x) = -0.02798 0.58646
# Poissons Ratio (y) = -0.09362 0.12279
# Poissons Ratio (z) = 0.81693 0.05112
#
# Static dielectric constant tensor:
#      x y z
#    x 1.704710 0.000000 0.032880 
#    y 0.000000 1.762890 0.000000 
#    z 0.032880 0.000000 1.693230 
# 
# From -- ./inp_files/66943.got.cif
#   From: 2010.05.17/outbox.cif.g08.bks.cpg/sg11_34_cif.got.tgz:66943.got - 2010.06.03 12:22:45.
