data_PCOD9167915
_publ_section_title
;
Structure prediction by ZEFSAII (Michael W. Deem and Ramdas Pophale) SiO2 
 PCOD9167915
Probable space group: P 21/M
;
_chemical_formula_sum "Si O2"
_cell_formula_units_Z 28
_cell_length_a 9.000000
_cell_length_b 9.000000
_cell_length_c 27.000000
_cell_angle_alpha 90.000000
_cell_angle_beta 140.000000
_cell_angle_gamma 90.000000
_cell_volume 1405.776502
_symmetry_space_group_name_H-M "P 21/M"
_symmetry_group_IT_number 11
_symmetry_cell_setting 'monoclinic'
loop_
_space_group_symop_operation_xyz
x,y,z
-x,1/2+y,-z
-x,-y,-z
x,1/2-y,z
loop_
_atom_site_type_symbol
_atom_site_label
_atom_site_fract_x
_atom_site_fract_y
_atom_site_fract_z
Si Si1 0.483738 0.070031 0.627472
Si Si2 0.241638 0.071321 0.670052
Si Si3 0.016771 0.429769 0.786864
Si Si4 0.653851 0.425402 0.851743
Si Si5 0.841908 0.925423 0.068370
Si Si6 0.708258 0.069991 0.521001
Si Si7 0.523805 0.425227 0.103945
O O1 0.477833 0.250000 0.618306
O O2 0.347451 0.035452 0.643223
O O3 0.757380 0.028289 0.703744
O O4 0.354491 0.987138 0.550005
O O5 0.229211 0.250000 0.670159
O O6 0.445299 0.030506 0.760813
O O7 0.971022 0.022101 0.604316
O O8 0.019046 0.250000 0.786601
O O9 0.090880 0.486471 0.860532
O O10 0.241325 0.493986 0.817173
O O11 0.616709 0.250000 0.855665
O O12 0.648614 0.537243 0.895835
O O13 0.911607 0.434340 0.895870
O O14 0.791896 0.750000 0.062352
O O15 0.621251 0.984268 0.981096
O O16 0.699334 0.250000 0.521435
O O17 0.500000 0.000000 0.500000
O O18 0.565956 0.250000 0.108953
#
# Coordination Sequence:
#
# PCOD9167915 Si02
#       7
#     4   4   4   4   4   4   4
#     4  10  20  39  65  88 110 145 195 242 283 333
#     4   9  19  38  64  87 109 146 197 238 273 334
#     4  10  20  37  61  84 108 150 199 236 279 343
#     4  10  19  37  62  84 108 150 201 239 276 334
#     4   9  18  36  60  83 110 148 197 244 284 334
#     4  11  24  40  60  90 123 152 184 228 284 342
#     4  11  23  35  51  84 124 153 184 238 297 338
#
# _framework density 19.917818
#
# number of rings (size 3 to 8) (size 9 to 14) (size 15 to 20)
#    0.000    2.000    1.429    2.143    2.000    0.571 
#    0.000    4.286    0.000    0.000    0.000    0.000 
#    0.000    0.000    0.000    0.000    0.000    0.000 
#
# Total GULP energy -155982.035370 kJ/mol
# GULP energy per Si atom -5570.786978 kJ/mol
# Density = 1.987248 g / cm^3
# Si number density = 19.917818 Si / 1000 Ang^3
#
#
#
# Elastic Constant Matrix: (Units=GPa)
#
#
# Indices 1 2 3 4 5 6 
#
# 1 44.7960 6.8479 7.1443 0.0000 4.4514 0.0000
# 2 6.8479 20.6444 12.1651 0.0000 5.4988 0.0000
# 3 7.1443 12.1651 107.9692 0.0000 21.2203 0.0000
# 4 0.0000 0.0000 0.0000 26.4502 0.0000 -1.9994
# 5 4.4514 5.4988 21.2203 0.0000 39.9484 0.0000
# 6 0.0000 0.0000 0.0000 -1.9994 0.0000 25.0590
#
#
#
# Elastic Compliance Matrix: (Units=1/GPa)
#
#
# Indices 1 2 3 4 5 6 
#
# 1 0.023637 -0.007187 -0.000481 0.000000 -0.001389 0.000000
# 2 -0.007187 0.054806 -0.004884 0.000000 -0.004149 0.000000
# 3 -0.000481 -0.004884 0.010832 0.000000 -0.005028 0.000000
# 4 0.000000 0.000000 0.000000 0.038036 0.000000 0.003035
# 5 -0.001389 -0.004149 -0.005028 0.000000 0.028429 0.000000
# 6 0.000000 0.000000 0.000000 0.003035 0.000000 0.040148
#
#
# Mechanical properties :
#
#
# Convention : Reuss Voigt Hill
#
# Bulk Modulus (GPa) = 15.58346 25.08046 20.33196
# Shear Modulus (GPa) = 20.62844 28.10835 24.36840
#
# Velocity S-wave (km/s) = 3.22169 3.76069 3.50158
# Velocity P-wave (km/s) = 4.65617 5.61038 5.15540
#
# Compressibility (1/GPa) = 0.06417060
#
# Stress axis : x y z
#
# Youngs Moduli (GPa) = 42.30686 18.24605 92.31662
#
# Poissons Ratio (x) = 0.13113 0.04443
# Poissons Ratio (y) = 0.30406 0.45089
# Poissons Ratio (z) = 0.02036 0.08912
#
# Static dielectric constant tensor:
#      x y z
#    x 1.813860 0.000000 -0.030840 
#    y 0.000000 1.685360 0.000000 
#    z -0.030840 0.000000 1.706790 
# 
# From -- ./inp_files/28407.got.cif
#   From: 2010.05.17/outbox.ucp.g08.bks.cvg/sg11_15_cif.got.tgz:28407.got - 2010.06.11 11:38:39.
