data_PCOD9167083
_publ_section_title
;
Structure prediction by ZEFSAII (Michael W. Deem and Ramdas Pophale) SiO2 
 PCOD9167083
Probable space group: P 21/M
;
_chemical_formula_sum "Si O2"
_cell_formula_units_Z 28
_cell_length_a 28.059669
_cell_length_b 7.766783
_cell_length_c 9.977999
_cell_angle_alpha 90.000000
_cell_angle_beta 39.459756
_cell_angle_gamma 90.000000
_cell_volume 1381.997900
_symmetry_space_group_name_H-M "P 21/M"
_symmetry_group_IT_number 11
_symmetry_cell_setting 'monoclinic'
loop_
_space_group_symop_operation_xyz
x,y,z
-x,1/2+y,-z
-x,-y,-z
x,1/2-y,z
loop_
_atom_site_type_symbol
_atom_site_label
_atom_site_fract_x
_atom_site_fract_y
_atom_site_fract_z
Si Si1 0.639598 0.042958 0.353604
Si Si2 0.503297 0.546900 0.836838
Si Si3 0.060721 0.557750 0.761273
Si Si4 0.192096 0.540276 0.030371
Si Si5 0.626426 0.039326 0.077269
Si Si6 0.796912 0.039034 0.685633
Si Si7 0.033831 0.543758 0.282547
O O1 0.642336 0.250000 0.341449
O O2 0.725015 0.983038 0.192862
O O3 0.615361 0.983723 0.256462
O O4 0.581251 0.995550 0.594642
O O5 0.494028 0.750000 0.852074
O O6 0.436472 0.473862 0.888282
O O7 0.500000 0.500000 0.000000
O O8 0.080083 0.750000 0.761012
O O9 0.140890 0.472244 0.553339
O O10 0.015911 0.549013 0.719444
O O11 0.000000 0.500000 0.000000
O O12 0.191548 0.750000 0.031035
O O13 0.182402 0.487405 0.206954
O O14 0.120819 0.487208 0.097997
O O15 0.624926 0.250000 0.081953
O O16 0.710655 0.989119 0.851085
O O17 0.799125 0.250000 0.679951
O O18 0.030279 0.750000 0.267143
O O19 0.000000 0.500000 0.500000
#
# Coordination Sequence:
#
# PCOD9167083 Si02
#       7
#     4   4   4   4   4   4   4
#     4   9  17  34  60  83 103 132 177 225 264 314
#     4  11  22  36  53  78 112 144 175 214 266 320
#     4  11  22  37  55  78 111 148 187 231 275 323
#     4   8  15  30  55  83 105 133 177 221 263 320
#     4   8  16  32  58  83 100 131 181 223 258 313
#     4   8  14  30  55  79 102 134 180 224 258 311
#     4  11  20  34  57  84 111 144 185 226 273 325
#
# _framework density 20.260522999999999
#
# number of rings (size 3 to 8) (size 9 to 14) (size 15 to 20)
#    0.000    2.571    1.429    3.429    0.000    0.000 
#    2.571    2.143    0.000    2.571    0.000    0.000 
#    0.000    0.000    0.000    0.000    0.000    0.000 
#
# Total GULP energy -156115.604371 kJ/mol
# GULP energy per Si atom -5575.557299 kJ/mol
# Density = 2.021441 g / cm^3
# Si number density = 20.260523 Si / 1000 Ang^3
#
#
#
# Elastic Constant Matrix: (Units=GPa)
#
#
# Indices 1 2 3 4 5 6 
#
# 1 60.1473 -8.1767 52.8729 0.0000 -12.6117 0.0000
# 2 -8.1767 28.3790 0.4677 0.0000 -1.3172 0.0000
# 3 52.8729 0.4677 189.3790 0.0000 -6.7198 0.0000
# 4 0.0000 0.0000 0.0000 24.8656 0.0000 2.2369
# 5 -12.6117 -1.3172 -6.7198 0.0000 27.1798 0.0000
# 6 0.0000 0.0000 0.0000 2.2369 0.0000 16.3851
#
#
#
# Elastic Compliance Matrix: (Units=1/GPa)
#
#
# Indices 1 2 3 4 5 6 
#
# 1 0.026071 0.008126 -0.006916 0.000000 0.010781 0.000000
# 2 0.008126 0.037850 -0.002182 0.000000 0.005065 0.000000
# 3 -0.006916 -0.002182 0.007162 0.000000 -0.001544 0.000000
# 4 0.000000 0.000000 0.000000 0.040716 0.000000 -0.005558
# 5 0.010781 0.005065 -0.001544 0.000000 0.041658 0.000000
# 6 0.000000 0.000000 0.000000 -0.005558 0.000000 0.061790
#
#
# Mechanical properties :
#
#
# Convention : Reuss Voigt Hill
#
# Bulk Modulus (GPa) = 14.46399 40.91479 27.68939
# Shear Modulus (GPa) = 20.81269 29.20220 25.00744
#
# Velocity S-wave (km/s) = 3.20856 3.80061 3.51706
# Velocity P-wave (km/s) = 4.56957 6.28472 5.49448
#
# Compressibility (1/GPa) = 0.06913724
#
# Stress axis : x y z
#
# Youngs Moduli (GPa) = 38.35687 26.42030 139.62630
#
# Poissons Ratio (x) = -0.21469 0.96570
# Poissons Ratio (y) = -0.31169 0.30473
# Poissons Ratio (z) = 0.26529 0.05766
#
# Static dielectric constant tensor:
#      x y z
#    x 1.911640 0.000000 0.298990 
#    y 0.000000 1.779400 0.000000 
#    z 0.298990 0.000000 2.267520 
# 
# From -- ./inp_files/28434.got.cif
#   From: 2010.05.17/outbox.cif.g08.bks.cpg/sg11_15_cif.got.tgz:28434.got - 2010.06.03 12:22:45.
