data_PCOD9167876
_publ_section_title
;
Structure prediction by ZEFSAII (Michael W. Deem and Ramdas Pophale) SiO2 
 PCOD9167876
Probable space group: P 21/M
;
_chemical_formula_sum "Si O2"
_cell_formula_units_Z 32
_cell_length_a 21.000000
_cell_length_b 15.000000
_cell_length_c 15.000000
_cell_angle_alpha 90.000000
_cell_angle_beta 160.000000
_cell_angle_gamma 90.000000
_cell_volume 1616.045177
_symmetry_space_group_name_H-M "P 21/M"
_symmetry_group_IT_number 11
_symmetry_cell_setting 'monoclinic'
loop_
_space_group_symop_operation_xyz
x,y,z
-x,1/2+y,-z
-x,-y,-z
x,1/2-y,z
loop_
_atom_site_type_symbol
_atom_site_label
_atom_site_fract_x
_atom_site_fract_y
_atom_site_fract_z
Si Si1 0.457627 0.645926 0.296180
Si Si2 0.803548 0.648442 0.108042
Si Si3 0.267364 0.971087 0.543327
Si Si4 0.319784 0.972742 0.965423
Si Si5 0.166989 0.147711 0.329660
Si Si6 0.479732 0.142202 0.417422
Si Si7 0.824449 0.356205 0.745941
Si Si8 0.240322 0.853738 0.684124
O O1 0.396653 0.750000 0.221235
O O2 0.646032 0.645046 0.484648
O O3 0.498525 0.611953 0.451035
O O4 0.318098 0.585751 0.054209
O O5 0.733371 0.750000 0.040828
O O6 0.781995 0.567023 0.149725
O O7 0.021282 0.656511 0.381500
O O8 0.701708 0.622097 0.881158
O O9 0.172919 0.909019 0.343381
O O10 0.292951 0.917837 0.669781
O O11 0.171161 0.069447 0.409502
O O12 0.472854 0.993051 0.779760
O O13 0.272071 0.908117 0.818712
O O14 0.147714 0.250000 0.338814
O O15 0.002841 0.130517 0.043086
O O16 0.484698 0.250000 0.430867
O O17 0.650011 0.114446 0.577593
O O18 0.807129 0.250000 0.704978
O O19 0.317343 0.750000 0.787246
#
# Coordination Sequence:
#
# PCOD9167876 Si02
#       8
#     4   4   4   4   4   4   4   4
#     4   9  19  35  58  86 120 156 194 240 293 347
#     4  10  22  40  60  86 119 151 192 245 291 346
#     4  11  22  38  59  88 117 155 198 244 292 347
#     4  11  22  41  61  86 117 156 199 242 293 349
#     4   9  20  36  55  83 122 161 193 237 293 349
#     4   9  18  34  56  85 116 150 190 235 290 349
#     4  10  19  34  56  85 123 156 192 239 291 351
#     4  11  25  42  63  87 115 153 201 248 292 343
#
# _framework density 19.801427
#
# number of rings (size 3 to 8) (size 9 to 14) (size 15 to 20)
#    0.000    2.000    1.250    1.875    1.750    2.500 
#    0.000    0.625    0.000    0.750    0.000    0.000 
#    0.000    0.000    0.000    0.000    0.000    0.000 
#
# Total GULP energy -178338.771038 kJ/mol
# GULP energy per Si atom -5573.086595 kJ/mol
# Density = 1.975636 g / cm^3
# Si number density = 19.801427 Si / 1000 Ang^3
#
#
#
# Elastic Constant Matrix: (Units=GPa)
#
#
# Indices 1 2 3 4 5 6 
#
# 1 62.4465 41.7705 -27.0312 0.0000 -23.9516 0.0000
# 2 41.7705 114.9631 -7.4205 0.0000 -11.3232 0.0000
# 3 -27.0312 -7.4205 -17.5305 0.0000 13.8404 0.0000
# 4 0.0000 0.0000 0.0000 30.5478 0.0000 -10.0046
# 5 -23.9516 -11.3232 13.8404 0.0000 19.4639 0.0000
# 6 0.0000 0.0000 0.0000 -10.0046 0.0000 34.8349
#
#
#
# Elastic Compliance Matrix: (Units=1/GPa)
#
#
# Indices 1 2 3 4 5 6 
#
# 1 0.033790 -0.008606 -0.012543 0.000000 0.045493 0.000000
# 2 -0.008606 0.011418 0.003407 0.000000 -0.006371 0.000000
# 3 -0.012543 0.003407 -0.031873 0.000000 0.009212 0.000000
# 4 0.000000 0.000000 0.000000 0.036134 0.000000 0.010378
# 5 0.045493 -0.006371 0.009212 0.000000 0.097103 0.000000
# 6 0.000000 0.000000 0.000000 0.010378 0.000000 0.031687
#
#
# Mechanical properties :
#
#
# Convention : Reuss Voigt Hill
#
# Bulk Modulus (GPa) = -45.15175 19.39075 -12.88050
# Shear Modulus (GPa) = 24.22945 27.13998 25.68471
#
# Velocity S-wave (km/s) = 3.50182 3.70619 3.60545
# Velocity P-wave (km/s) = 2.54979 5.30361 3.28838
#
# Compressibility (1/GPa) = -0.02214753
#
# Stress axis : x y z
#
# Youngs Moduli (GPa) = 29.59446 87.58283 -31.37476
#
# Poissons Ratio (x) = 0.75373 -0.39352
# Poissons Ratio (y) = 0.25469 0.10690
# Poissons Ratio (z) = 0.37119 -0.29842
#
# Static dielectric constant tensor:
#      x y z
#    x 1.688530 0.000000 0.010330 
#    y 0.000000 1.781320 0.000000 
#    z 0.010330 0.000000 1.719490 
# 
# From -- ./inp_files/22180.got.cif
#   From: 2010.05.17/outbox.ucp.g08.bks.cvg/sg11_12_cif.got.tgz:22180.got - 2010.06.11 11:38:39.
