data_PCOD9167542
_publ_section_title
;
Structure prediction by ZEFSAII (Michael W. Deem and Ramdas Pophale) SiO2 
 PCOD9167542
Probable space group: P 21/M
;
_chemical_formula_sum "Si O2"
_cell_formula_units_Z 20
_cell_length_a 6.679290
_cell_length_b 26.313036
_cell_length_c 4.868049
_cell_angle_alpha 90.000000
_cell_angle_beta 101.253288
_cell_angle_gamma 90.000000
_cell_volume 839.122144
_symmetry_space_group_name_H-M "P 21/M"
_symmetry_group_IT_number 11
_symmetry_cell_setting 'monoclinic'
loop_
_space_group_symop_operation_xyz
x,y,z
-x,1/2+y,-z
-x,-y,-z
x,1/2-y,z
loop_
_atom_site_type_symbol
_atom_site_label
_atom_site_fract_x
_atom_site_fract_y
_atom_site_fract_z
Si Si1 0.483069 0.403899 0.535501
Si Si2 0.865681 0.750000 0.113813
Si Si3 0.763575 0.564326 0.005238
Si Si4 0.528146 0.196162 0.868411
Si Si5 0.832501 0.250000 0.301060
Si Si6 0.851016 0.469023 0.663428
O O1 0.558479 0.352313 0.692819
O O2 0.667822 0.438625 0.479377
O O3 0.238527 0.490757 0.142980
O O4 0.327693 0.397772 0.243745
O O5 0.708335 0.702743 0.105889
O O6 0.976013 0.750000 0.855576
O O7 0.046777 0.750000 0.382966
O O8 0.633458 0.567664 0.246946
O O9 0.000000 0.500000 0.500000
O O10 0.000284 0.570673 0.144196
O O11 0.557386 0.250000 0.715159
O O12 0.685555 0.203010 0.163731
#
# Coordination Sequence:
#
# PCOD9167542 Si02
#       6
#     4   2   4   4   2   4
#     4  12  25  43  67  98 137 175 222 274 338 396
#     4   9  20  39  66  84 124 163 216 261 328 380
#     4  11  26  42  68  99 132 177 220 274 338 396
#     4   8  24  43  64 100 127 174 224 269 325 402
#     4   9  20  41  66  88 126 171 206 277 326 362
#     4  11  25  44  69 100 137 173 230 274 337 406
#
# _framework density 23.834434000000002
#
# number of rings (size 3 to 8) (size 9 to 14) (size 15 to 20)
#    1.200    0.400    2.000    1.200    5.600    9.600 
#    0.000    0.000    0.000    0.000    0.000    0.000 
#    0.000    0.000    0.000    0.000    0.000    0.000 
#
# Total GULP energy -111699.664845 kJ/mol
# GULP energy per Si atom -5584.983242 kJ/mol
# Density = 2.378019 g / cm^3
# Si number density = 23.834434 Si / 1000 Ang^3
#
#
#
# Elastic Constant Matrix: (Units=GPa)
#
#
# Indices 1 2 3 4 5 6 
#
# 1 109.8076 46.8073 44.4963 0.0000 4.7222 0.0000
# 2 46.8073 78.8907 25.1246 0.0000 5.4481 0.0000
# 3 44.4963 25.1246 82.3239 0.0000 -8.2413 0.0000
# 4 0.0000 0.0000 0.0000 26.6555 0.0000 -3.2389
# 5 4.7222 5.4481 -8.2413 0.0000 28.3177 0.0000
# 6 0.0000 0.0000 0.0000 -3.2389 0.0000 8.6425
#
#
#
# Elastic Compliance Matrix: (Units=1/GPa)
#
#
# Indices 1 2 3 4 5 6 
#
# 1 0.014465 -0.006416 -0.006157 0.000000 -0.002970 0.000000
# 2 -0.006416 0.017356 -0.002118 0.000000 -0.002886 0.000000
# 3 -0.006157 -0.002118 0.016753 0.000000 0.006310 0.000000
# 4 0.000000 0.000000 0.000000 0.039306 0.000000 0.014730
# 5 -0.002970 -0.002886 0.006310 0.000000 0.038200 0.000000
# 6 0.000000 0.000000 0.000000 0.014730 0.000000 0.121228
#
#
# Mechanical properties :
#
#
# Convention : Reuss Voigt Hill
#
# Bulk Modulus (GPa) = 52.10654 55.98650 54.04652
# Shear Modulus (GPa) = 17.66234 23.02940 20.34587
#
# Velocity S-wave (km/s) = 2.72516 3.11179 2.92487
# Velocity P-wave (km/s) = 5.64016 6.03752 5.84222
#
# Compressibility (1/GPa) = 0.01919145
#
# Stress axis : x y z
#
# Youngs Moduli (GPa) = 69.13450 57.61579 59.68992
#
# Poissons Ratio (x) = 0.36967 0.36753
# Poissons Ratio (y) = 0.44357 0.12642
# Poissons Ratio (z) = 0.42568 0.12203
#
# Static dielectric constant tensor:
#      x y z
#    x 1.889180 0.000000 -0.011520 
#    y 0.000000 1.956410 0.000000 
#    z -0.011520 0.000000 1.914960 
# 
# From -- ./inp_files/2948.got.cif
#   From: 2010.05.17/outbox.cif.g08.bks.cpg/sg11_2_cif.got.tgz:2948.got - 2010.06.03 12:22:45.
