data_PCOD9167450
_publ_section_title
;
Structure prediction by ZEFSAII (Michael W. Deem and Ramdas Pophale) SiO2 
 PCOD9167450
Probable space group: P 21/M
;
_chemical_formula_sum "Si O2"
_cell_formula_units_Z 20
_cell_length_a 9.649780
_cell_length_b 8.647898
_cell_length_c 25.049782
_cell_angle_alpha 90.000000
_cell_angle_beta 152.542575
_cell_angle_gamma 90.000000
_cell_volume 963.866825
_symmetry_space_group_name_H-M "P 21/M"
_symmetry_group_IT_number 11
_symmetry_cell_setting 'monoclinic'
loop_
_space_group_symop_operation_xyz
x,y,z
-x,1/2+y,-z
-x,-y,-z
x,1/2-y,z
loop_
_atom_site_type_symbol
_atom_site_label
_atom_site_fract_x
_atom_site_fract_y
_atom_site_fract_z
Si Si1 0.833707 0.066845 0.607598
Si Si2 0.707867 0.066747 0.150831
Si Si3 0.064362 0.933905 0.963287
Si Si4 0.853133 0.433647 0.784904
Si Si5 0.771396 0.067560 0.464534
O O1 0.840906 0.250000 0.623441
O O2 0.903953 0.048525 0.569079
O O3 0.500000 0.000000 0.500000
O O4 0.059790 0.975461 0.722604
O O5 0.659027 0.250000 0.130683
O O6 0.397758 0.983230 0.058851
O O7 0.867553 0.006782 0.151682
O O8 0.035885 0.750000 0.954475
O O9 0.000000 0.000000 0.000000
O O10 0.850235 0.004084 0.844333
O O11 0.882493 0.250000 0.794913
O O12 0.548455 0.483828 0.651095
O O13 0.722014 0.250000 0.439055
O O14 0.000000 0.000000 0.500000
#
# Coordination Sequence:
#
# PCOD9167450 Si02
#       5
#     4   4   4   4   4
#     4  11  23  41  67  99 135 175 222 271 328 394
#     4  12  25  44  70 100 135 177 224 274 330 394
#     4  12  27  48  71  99 134 173 221 275 335 396
#     4  12  25  45  71  99 134 176 224 275 331 395
#     4  11  25  43  66  98 137 178 222 272 332 396
#
# _framework density 20.749752999999998
#
# number of rings (size 3 to 8) (size 9 to 14) (size 15 to 20)
#    0.000    0.400    2.000    7.200    2.800    2.400 
#    0.000    0.000    0.000    0.000    0.000    0.000 
#    0.000    0.000    0.000    0.000    0.000    0.000 
#
# Total GULP energy -112041.982513 kJ/mol
# GULP energy per Si atom -5602.099126 kJ/mol
# Density = 2.070253 g / cm^3
# Si number density = 20.749753 Si / 1000 Ang^3
#
#
#
# Elastic Constant Matrix: (Units=GPa)
#
#
# Indices 1 2 3 4 5 6 
#
# 1 111.7287 30.9410 3.7688 0.0000 -11.9837 0.0000
# 2 30.9410 118.4193 1.9025 0.0000 -19.4558 0.0000
# 3 3.7688 1.9025 58.9859 0.0000 -14.6298 0.0000
# 4 0.0000 0.0000 0.0000 39.8792 0.0000 -0.1693
# 5 -11.9837 -19.4558 -14.6298 0.0000 38.2631 0.0000
# 6 0.0000 0.0000 0.0000 -0.1693 0.0000 41.5201
#
#
#
# Elastic Compliance Matrix: (Units=1/GPa)
#
#
# Indices 1 2 3 4 5 6 
#
# 1 0.009777 -0.002243 -0.000084 0.000000 0.001890 0.000000
# 2 -0.002243 0.009778 0.000980 0.000000 0.004644 0.000000
# 3 -0.000084 0.000980 0.018830 0.000000 0.007671 0.000000
# 4 0.000000 0.000000 0.000000 0.025076 0.000000 0.000102
# 5 0.001890 0.004644 0.007671 0.000000 0.032021 0.000000
# 6 0.000000 0.000000 0.000000 0.000102 0.000000 0.024085
#
#
# Mechanical properties :
#
#
# Convention : Reuss Voigt Hill
#
# Bulk Modulus (GPa) = 28.01828 40.26204 34.14016
# Shear Modulus (GPa) = 37.26977 40.76725 39.01851
#
# Velocity S-wave (km/s) = 4.24270 4.43731 4.34110
# Velocity P-wave (km/s) = 6.12642 6.76009 6.45104
#
# Compressibility (1/GPa) = 0.03569099
#
# Stress axis : x y z
#
# Youngs Moduli (GPa) = 102.28269 102.27247 53.10780
#
# Poissons Ratio (x) = 0.22937 0.00444
# Poissons Ratio (y) = 0.22939 -0.05203
# Poissons Ratio (z) = 0.00856 -0.10020
#
# Static dielectric constant tensor:
#      x y z
#    x 1.726460 0.000000 -0.022450 
#    y 0.000000 1.693290 0.000000 
#    z -0.022450 0.000000 1.744660 
# 
# From -- ./inp_files/16025.got.cif
#   From: 2010.05.17/outbox.cif.g08.bks.cpg/sg11_9_cif.got.tgz:16025.got - 2010.06.03 12:22:45.
