data_PCOD9167230
_publ_section_title
;
Structure prediction by ZEFSAII (Michael W. Deem and Ramdas Pophale) SiO2 
 PCOD9167230
Probable space group: P 21/M
;
_chemical_formula_sum "Si O2"
_cell_formula_units_Z 32
_cell_length_a 11.185973
_cell_length_b 17.811893
_cell_length_c 14.274634
_cell_angle_alpha 90.000000
_cell_angle_beta 149.004172
_cell_angle_gamma 90.000000
_cell_volume 1464.655639
_symmetry_space_group_name_H-M "P 21/M"
_symmetry_group_IT_number 11
_symmetry_cell_setting 'monoclinic'
loop_
_space_group_symop_operation_xyz
x,y,z
-x,1/2+y,-z
-x,-y,-z
x,1/2-y,z
loop_
_atom_site_type_symbol
_atom_site_label
_atom_site_fract_x
_atom_site_fract_y
_atom_site_fract_z
Si Si1 0.017192 0.416052 0.470363
Si Si2 0.241588 0.837681 0.862319
Si Si3 0.398660 0.103467 0.272623
Si Si4 0.215352 0.336418 0.776861
Si Si5 0.536423 0.565678 0.357039
Si Si6 0.120370 0.096219 0.909753
Si Si7 0.070768 0.921673 0.926234
Si Si8 0.624656 0.333362 0.592595
O O1 0.055973 0.361809 0.584289
O O2 0.244077 0.412664 0.556992
O O3 0.000000 0.500000 0.500000
O O4 0.812639 0.387835 0.265428
O O5 0.186043 0.750000 0.807474
O O6 0.098312 0.869586 0.854088
O O7 0.514165 0.843158 0.069483
O O8 0.549185 0.160608 0.433750
O O9 0.151951 0.094699 0.159978
O O10 0.528915 0.023716 0.365253
O O11 0.330753 0.119139 0.119942
O O12 0.171422 0.250000 0.773902
O O13 0.176748 0.388773 0.840261
O O14 0.524011 0.607540 0.447485
O O15 0.301307 0.586808 0.143959
O O16 0.891814 0.143440 0.780478
O O17 0.066913 0.008707 0.892134
O O18 0.585272 0.250000 0.602456
#
# Coordination Sequence:
#
# PCOD9167230 Si02
#       8
#     4   4   4   4   4   4   4   4
#     4  12  27  43  72 101 130 176 229 279 328 397
#     4  11  26  45  68 100 135 177 224 278 338 399
#     4  11  24  43  69  98 132 172 216 271 332 392
#     4  11  26  46  66  95 140 180 218 278 338 394
#     4  11  23  45  68  99 134 170 220 280 328 392
#     4  11  24  44  68  97 135 173 225 272 324 400
#     4  11  21  44  74  98 129 174 221 274 333 392
#     4  12  26  41  68 103 135 178 218 268 341 400
#
# _framework density 21.848139
#
# number of rings (size 3 to 8) (size 9 to 14) (size 15 to 20)
#    0.000    0.750    3.750    3.375    7.000    5.000 
#    0.000    1.250    0.000    0.000    0.000    0.000 
#    0.000    0.000    0.000    0.000    0.000    0.000 
#
# Total GULP energy -179188.192787 kJ/mol
# GULP energy per Si atom -5599.631025 kJ/mol
# Density = 2.179841 g / cm^3
# Si number density = 21.848139 Si / 1000 Ang^3
#
#
#
# Elastic Constant Matrix: (Units=GPa)
#
#
# Indices 1 2 3 4 5 6 
#
# 1 60.6724 -12.4235 -12.3442 0.0000 -16.7257 0.0000
# 2 -12.4235 41.2041 20.0024 0.0000 -11.9676 0.0000
# 3 -12.3442 20.0024 50.2894 0.0000 -14.8771 0.0000
# 4 0.0000 0.0000 0.0000 19.9798 0.0000 4.8487
# 5 -16.7257 -11.9676 -14.8771 0.0000 25.9112 0.0000
# 6 0.0000 0.0000 0.0000 4.8487 0.0000 -12.2613
#
#
#
# Elastic Compliance Matrix: (Units=1/GPa)
#
#
# Indices 1 2 3 4 5 6 
#
# 1 0.030510 0.012810 0.012010 0.000000 0.032506 0.000000
# 2 0.012810 0.037078 -0.004928 0.000000 0.022565 0.000000
# 3 0.012010 -0.004928 0.031817 0.000000 0.023745 0.000000
# 4 0.000000 0.000000 0.000000 0.045668 0.000000 0.018059
# 5 0.032506 0.022565 0.023745 0.000000 0.083631 0.000000
# 6 0.000000 0.000000 0.000000 0.018059 0.000000 -0.074416
#
#
# Mechanical properties :
#
#
# Convention : Reuss Voigt Hill
#
# Bulk Modulus (GPa) = 7.18447 15.84837 11.51642
# Shear Modulus (GPa) = 31.07519 17.18801 24.13160
#
# Velocity S-wave (km/s) = 3.77547 2.80787 3.32703
# Velocity P-wave (km/s) = 4.72240 4.21684 4.47676
#
# Compressibility (1/GPa) = 0.13918912
#
# Stress axis : x y z
#
# Youngs Moduli (GPa) = 32.77659 26.97026 31.42945
#
# Poissons Ratio (x) = -0.34549 -0.37747
# Poissons Ratio (y) = -0.41987 0.15488
# Poissons Ratio (z) = -0.39365 0.13291
#
# Static dielectric constant tensor:
#      x y z
#    x 1.774740 0.000000 -0.007420 
#    y 0.000000 1.772730 0.000000 
#    z -0.007420 0.000000 1.804660 
# 
# From -- ./inp_files/50718.got.cif
#   From: 2010.05.17/outbox.cif.g08.bks.cpg/sg11_26_cif.got.tgz:50718.got - 2010.06.03 12:22:45.
