data_PCOD9167417
_publ_section_title
;
Structure prediction by ZEFSAII (Michael W. Deem and Ramdas Pophale) SiO2 
 PCOD9167417
Probable space group: P 21/M
;
_chemical_formula_sum "Si O2"
_cell_formula_units_Z 24
_cell_length_a 17.440352
_cell_length_b 8.757285
_cell_length_c 24.850581
_cell_angle_alpha 90.000000
_cell_angle_beta 160.315863
_cell_angle_gamma 90.000000
_cell_volume 1278.432958
_symmetry_space_group_name_H-M "P 21/M"
_symmetry_group_IT_number 11
_symmetry_cell_setting 'monoclinic'
loop_
_space_group_symop_operation_xyz
x,y,z
-x,1/2+y,-z
-x,-y,-z
x,1/2-y,z
loop_
_atom_site_type_symbol
_atom_site_label
_atom_site_fract_x
_atom_site_fract_y
_atom_site_fract_z
Si Si1 0.715631 0.066968 0.468292
Si Si2 0.277552 0.428235 0.326378
Si Si3 0.986086 0.066688 0.430972
Si Si4 0.504167 0.568148 0.943343
Si Si5 0.976756 0.072221 0.232684
Si Si6 0.773489 0.432257 0.823414
O O1 0.709211 0.250000 0.463288
O O2 0.461068 0.001332 0.307720
O O3 0.834403 0.004858 0.492461
O O4 0.869559 0.011473 0.620716
O O5 0.500000 0.500000 0.500000
O O6 0.314995 0.250000 0.337236
O O7 0.220532 0.520156 0.235178
O O8 0.090859 0.436694 0.249753
O O9 0.015118 0.250000 0.450869
O O10 0.733188 0.031227 0.241964
O O11 0.000000 0.000000 0.500000
O O12 0.525976 0.750000 0.960197
O O13 0.500000 0.500000 0.000000
O O14 0.727306 0.498160 0.064104
O O15 0.963298 0.250000 0.240246
O O16 0.768325 0.250000 0.825810
O O17 0.000000 0.500000 0.000000
#
# Coordination Sequence:
#
# PCOD9167417 Si02
#       6
#     4   4   4   4   4   4
#     4  12  24  41  68  96 128 172 219 265 330 394
#     4  11  23  40  65  96 130 171 218 268 323 384
#     4  11  25  44  66  95 133 173 219 268 326 390
#     4  11  23  39  64  94 127 167 215 266 319 381
#     4  11  23  39  64  97 132 169 216 269 325 384
#     4  12  26  45  68  96 134 174 219 272 330 394
#
# _framework density 18.772981999999999
#
# number of rings (size 3 to 8) (size 9 to 14) (size 15 to 20)
#    0.000    0.667    3.333    5.000    0.000    5.333 
#    0.000    3.333    0.000    0.000    0.000    0.000 
#    0.000    0.000    0.000    0.000    0.000    0.000 
#
# Total GULP energy -134259.544689 kJ/mol
# GULP energy per Si atom -5594.147695 kJ/mol
# Density = 1.873025 g / cm^3
# Si number density = 18.772982 Si / 1000 Ang^3
#
#
#
# Elastic Constant Matrix: (Units=GPa)
#
#
# Indices 1 2 3 4 5 6 
#
# 1 123.0592 77.8908 86.0353 0.0000 -0.6228 0.0000
# 2 77.8908 155.0287 96.9940 0.0000 3.1156 0.0000
# 3 86.0353 96.9940 152.5693 0.0000 -2.0436 0.0000
# 4 0.0000 0.0000 0.0000 36.4237 0.0000 1.8876
# 5 -0.6228 3.1156 -2.0436 0.0000 37.7585 0.0000
# 6 0.0000 0.0000 0.0000 1.8876 0.0000 36.8916
#
#
#
# Elastic Compliance Matrix: (Units=1/GPa)
#
#
# Indices 1 2 3 4 5 6 
#
# 1 0.014541 -0.003623 -0.005894 0.000000 0.000220 0.000000
# 2 -0.003623 0.011673 -0.005395 0.000000 -0.001315 0.000000
# 3 -0.005894 -0.005395 0.013322 0.000000 0.001069 0.000000
# 4 0.000000 0.000000 0.000000 0.027528 0.000000 -0.001408
# 5 0.000220 -0.001315 0.001069 0.000000 0.026654 0.000000
# 6 0.000000 0.000000 0.000000 -0.001408 0.000000 0.027178
#
#
# Mechanical properties :
#
#
# Convention : Reuss Voigt Hill
#
# Bulk Modulus (GPa) = 102.96471 105.83303 104.39887
# Shear Modulus (GPa) = 32.47658 33.53056 33.00357
#
# Velocity S-wave (km/s) = 4.16380 4.23082 4.19744
# Velocity P-wave (km/s) = 8.83644 8.96460 8.90075
#
# Compressibility (1/GPa) = 0.00971207
#
# Stress axis : x y z
#
# Youngs Moduli (GPa) = 68.77212 85.66985 75.06217
#
# Poissons Ratio (x) = 0.31036 0.44239
# Poissons Ratio (y) = 0.24914 0.40500
# Poissons Ratio (z) = 0.40532 0.46223
#
# Static dielectric constant tensor:
#      x y z
#    x 1.611100 0.000000 0.014130 
#    y 0.000000 1.597840 0.000000 
#    z 0.014130 0.000000 1.588300 
# 
# From -- ./inp_files/69532.got.cif
#   From: 2010.05.17/outbox.cif.g08.bks.cpg/sg11_35_cif.got.tgz:69532.got - 2010.06.03 12:22:45.
