data_PCOD9167404
_publ_section_title
;
Structure prediction by ZEFSAII (Michael W. Deem and Ramdas Pophale) SiO2 
 PCOD9167404
Probable space group: P 21/M
;
_chemical_formula_sum "Si O2"
_cell_formula_units_Z 20
_cell_length_a 19.054127
_cell_length_b 7.941797
_cell_length_c 13.777763
_cell_angle_alpha 90.000000
_cell_angle_beta 157.907313
_cell_angle_gamma 90.000000
_cell_volume 784.145783
_symmetry_space_group_name_H-M "P 21/M"
_symmetry_group_IT_number 11
_symmetry_cell_setting 'monoclinic'
loop_
_space_group_symop_operation_xyz
x,y,z
-x,1/2+y,-z
-x,-y,-z
x,1/2-y,z
loop_
_atom_site_type_symbol
_atom_site_label
_atom_site_fract_x
_atom_site_fract_y
_atom_site_fract_z
Si Si1 0.434230 0.045095 0.277317
Si Si2 0.845911 0.945597 0.607607
Si Si3 0.801682 0.052613 0.838891
Si Si4 0.096481 0.940155 0.524401
Si Si5 0.571497 0.944392 0.944981
O O1 0.432733 0.250000 0.284788
O O2 0.649418 0.985482 0.567688
O O3 0.364843 0.003390 0.081549
O O4 0.311980 0.968096 0.205819
O O5 0.809832 0.750000 0.582685
O O6 0.935172 0.957195 0.614182
O O7 0.650404 0.039000 0.346162
O O8 0.993828 0.018918 0.875116
O O9 0.828284 0.250000 0.853468
O O10 0.039048 0.750000 0.430117
O O11 0.000000 0.000000 0.500000
O O12 0.317155 0.949899 0.833582
O O13 0.621327 0.750000 0.026041
#
# Coordination Sequence:
#
# PCOD9167404 Si02
#       5
#     4   4   4   4   4
#     4   9  19  36  58  84 114 149 190 235 282 335
#     4  11  23  39  59  85 118 153 191 235 286 340
#     4   9  19  36  58  84 114 149 190 235 282 335
#     4  12  25  42  63  86 114 148 190 236 285 340
#     4  11  23  39  59  85 118 153 191 235 286 340
#
# _framework density 25.505461
#
# number of rings (size 3 to 8) (size 9 to 14) (size 15 to 20)
#    0.000    1.600    0.000    4.800    0.000    7.200 
#    0.000    0.000    0.000    0.000    0.000    0.000 
#    0.000    0.000    0.000    0.000    0.000    0.000 
#
# Total GULP energy -111955.161633 kJ/mol
# GULP energy per Si atom -5597.758082 kJ/mol
# Density = 2.544741 g / cm^3
# Si number density = 25.505461 Si / 1000 Ang^3
#
#
#
# Elastic Constant Matrix: (Units=GPa)
#
#
# Indices 1 2 3 4 5 6 
#
# 1 59.4926 3.8836 -1.1710 0.0000 -6.5944 0.0000
# 2 3.8836 63.2920 -0.2873 0.0000 -7.5983 0.0000
# 3 -1.1710 -0.2873 148.4778 0.0000 -8.8943 0.0000
# 4 0.0000 0.0000 0.0000 25.1775 0.0000 6.1189
# 5 -6.5944 -7.5983 -8.8943 0.0000 52.0134 0.0000
# 6 0.0000 0.0000 0.0000 6.1189 0.0000 28.7423
#
#
#
# Elastic Compliance Matrix: (Units=1/GPa)
#
#
# Indices 1 2 3 4 5 6 
#
# 1 0.017098 -0.000796 0.000259 0.000000 0.002096 0.000000
# 2 -0.000796 0.016123 0.000162 0.000000 0.002282 0.000000
# 3 0.000259 0.000162 0.006811 0.000000 0.001221 0.000000
# 4 0.000000 0.000000 0.000000 0.041885 0.000000 -0.008917
# 5 0.002096 0.002282 0.001221 0.000000 0.020034 0.000000
# 6 0.000000 0.000000 0.000000 -0.008917 0.000000 0.036690
#
#
# Mechanical properties :
#
#
# Convention : Reuss Voigt Hill
#
# Bulk Modulus (GPa) = 25.45812 30.67924 28.06868
# Shear Modulus (GPa) = 32.78985 39.10911 35.94948
#
# Velocity S-wave (km/s) = 3.58942 3.92006 3.75838
# Velocity P-wave (km/s) = 5.21360 5.70472 5.46468
#
# Compressibility (1/GPa) = 0.03928019
#
# Stress axis : x y z
#
# Youngs Moduli (GPa) = 58.48568 62.02188 146.83190
#
# Poissons Ratio (x) = 0.04939 -0.03801
# Poissons Ratio (y) = 0.04658 -0.02373
# Poissons Ratio (z) = -0.01514 -0.01002
#
# Static dielectric constant tensor:
#      x y z
#    x 2.041750 0.000000 0.082830 
#    y 0.000000 1.873620 0.000000 
#    z 0.082830 0.000000 2.069960 
# 
# From -- ./inp_files/15961.got.cif
#   From: 2010.05.17/outbox.cif.g08.bks.cpg/sg11_8_cif.got.tgz:15961.got - 2010.06.03 12:22:45.
