data_PCOD9167101
_publ_section_title
;
Structure prediction by ZEFSAII (Michael W. Deem and Ramdas Pophale) SiO2 
 PCOD9167101
Probable space group: P 21/M
;
_chemical_formula_sum "Si O2"
_cell_formula_units_Z 20
_cell_length_a 8.064673
_cell_length_b 23.664823
_cell_length_c 9.318043
_cell_angle_alpha 90.000000
_cell_angle_beta 32.202910
_cell_angle_gamma 90.000000
_cell_volume 947.711485
_symmetry_space_group_name_H-M "P 21/M"
_symmetry_group_IT_number 11
_symmetry_cell_setting 'monoclinic'
loop_
_space_group_symop_operation_xyz
x,y,z
-x,1/2+y,-z
-x,-y,-z
x,1/2-y,z
loop_
_atom_site_type_symbol
_atom_site_label
_atom_site_fract_x
_atom_site_fract_y
_atom_site_fract_z
Si Si1 0.256923 0.812301 0.120294
Si Si2 0.561676 0.683018 0.343150
Si Si3 0.134074 0.151119 0.166700
Si Si4 0.268633 0.459251 0.251301
Si Si5 0.620053 0.867375 0.612416
O O1 0.123354 0.750000 0.224400
O O2 0.984121 0.852700 0.374717
O O3 0.573853 0.816461 0.977417
O O4 0.375650 0.827703 0.874705
O O5 0.629828 0.750000 0.314669
O O6 0.584508 0.646108 0.471441
O O7 0.202345 0.677323 0.556753
O O8 0.789521 0.656350 0.057630
O O9 0.156501 0.089365 0.222488
O O10 0.418834 0.427266 0.279149
O O11 0.000000 0.500000 0.500000
O O12 0.500000 0.500000 0.000000
#
# Coordination Sequence:
#
# PCOD9167101 Si02
#       5
#     4   4   4   4   4
#     4  11  20  37  60  89 122 164 208 250 298 370
#     4  12  23  40  61  95 137 164 187 248 320 382
#     4  11  24  39  62  93 123 163 212 251 305 376
#     4  11  23  45  67  86 117 165 217 271 304 340
#     4  11  24  39  62  93 124 164 211 250 305 376
#
# _framework density 21.103470000000002
#
# number of rings (size 3 to 8) (size 9 to 14) (size 15 to 20)
#    0.000    0.800    0.000   10.800    0.000    0.000 
#    0.000    6.000    0.000    0.000    0.000    0.000 
#    0.000    0.000    0.000    0.000    0.000    0.000 
#
# Total GULP energy -111764.355905 kJ/mol
# GULP energy per Si atom -5588.217795 kJ/mol
# Density = 2.105544 g / cm^3
# Si number density = 21.103470 Si / 1000 Ang^3
#
#
#
# Elastic Constant Matrix: (Units=GPa)
#
#
# Indices 1 2 3 4 5 6 
#
# 1 78.4499 30.0671 14.7391 0.0000 10.9539 0.0000
# 2 30.0671 131.1979 47.4753 0.0000 14.9556 0.0000
# 3 14.7391 47.4753 137.0235 0.0000 13.8207 0.0000
# 4 0.0000 0.0000 0.0000 41.3064 0.0000 -2.8459
# 5 10.9539 14.9556 13.8207 0.0000 47.6158 0.0000
# 6 0.0000 0.0000 0.0000 -2.8459 0.0000 8.9522
#
#
#
# Elastic Compliance Matrix: (Units=1/GPa)
#
#
# Indices 1 2 3 4 5 6 
#
# 1 0.014230 -0.002894 -0.000298 0.000000 -0.002278 0.000000
# 2 -0.002894 0.009476 -0.002822 0.000000 -0.001492 0.000000
# 3 -0.000298 -0.002822 0.008459 0.000000 -0.001500 0.000000
# 4 0.000000 0.000000 0.000000 0.024751 0.000000 0.007868
# 5 -0.002278 -0.001492 -0.001500 0.000000 0.022430 0.000000
# 6 0.000000 0.000000 0.000000 0.007868 0.000000 0.114205
#
#
# Mechanical properties :
#
#
# Convention : Reuss Voigt Hill
#
# Bulk Modulus (GPa) = 49.65605 59.02603 54.34104
# Shear Modulus (GPa) = 23.55253 36.53420 30.04336
#
# Velocity S-wave (km/s) = 3.34436 4.16528 3.77718
# Velocity P-wave (km/s) = 6.20434 7.15285 6.69541
#
# Compressibility (1/GPa) = 0.02013853
#
# Stress axis : x y z
#
# Youngs Moduli (GPa) = 70.27346 105.52690 118.21638
#
# Poissons Ratio (x) = 0.30534 0.03527
# Poissons Ratio (y) = 0.20334 0.33356
# Poissons Ratio (z) = 0.02097 0.29775
#
# Static dielectric constant tensor:
#      x y z
#    x 1.850590 0.000000 0.028590 
#    y 0.000000 1.733080 0.000000 
#    z 0.028590 0.000000 1.739430 
# 
# From -- ./inp_files/2292.got.cif
#   From: 2010.05.17/outbox.cif.g08.bks.cpg/sg11_2_cif.got.tgz:2292.got - 2010.06.03 12:22:45.
