data_PCOD9167763
_publ_section_title
;
Structure prediction by ZEFSAII (Michael W. Deem and Ramdas Pophale) SiO2 
 PCOD9167763
Probable space group: P 21/M
;
_chemical_formula_sum "Si O2"
_cell_formula_units_Z 32
_cell_length_a 12.000000
_cell_length_b 9.000000
_cell_length_c 21.000000
_cell_angle_alpha 90.000000
_cell_angle_beta 130.000000
_cell_angle_gamma 90.000000
_cell_volume 1737.388797
_symmetry_space_group_name_H-M "P 21/M"
_symmetry_group_IT_number 11
_symmetry_cell_setting 'monoclinic'
loop_
_space_group_symop_operation_xyz
x,y,z
-x,1/2+y,-z
-x,-y,-z
x,1/2-y,z
loop_
_atom_site_type_symbol
_atom_site_label
_atom_site_fract_x
_atom_site_fract_y
_atom_site_fract_z
Si Si1 0.538457 0.918740 0.771359
Si Si2 0.212287 0.577536 0.619933
Si Si3 0.082725 0.070734 0.255358
Si Si4 0.983542 0.580350 0.093654
Si Si5 0.304602 0.079798 0.524944
Si Si6 0.775916 0.080599 0.929411
Si Si7 0.001994 0.576246 0.647464
Si Si8 0.592884 0.573868 0.640772
O O1 0.588801 0.750000 0.802988
O O2 0.365210 0.924238 0.713258
O O3 0.575101 0.948649 0.710575
O O4 0.620963 0.031638 0.846410
O O5 0.179840 0.750000 0.591231
O O6 0.241703 0.490023 0.566461
O O7 0.088978 0.511086 0.620110
O O8 0.088570 0.250000 0.261970
O O9 0.983437 0.013512 0.276740
O O10 0.249348 0.015257 0.320154
O O11 0.020232 0.024735 0.165246
O O12 0.975505 0.750000 0.111883
O O13 0.112901 0.568435 0.089355
O O14 0.838123 0.528248 0.005309
O O15 0.342922 0.250000 0.550688
O O16 0.170126 0.073128 0.427943
O O17 0.450528 0.997607 0.558118
O O18 0.779122 0.250000 0.952877
O O19 0.048183 0.750000 0.664845
O O20 0.588254 0.750000 0.627349
#
# Coordination Sequence:
#
# PCOD9167763 Si02
#       8
#     4   4   4   4   4   4   4   4
#     4   9  16  28  48  73  99 127 159 202 248 292
#     4   9  18  34  53  73  98 130 168 209 255 296
#     4  10  19  34  53  70  98 137 171 201 242 301
#     4  10  20  32  48  74 105 132 159 197 243 292
#     4  10  19  31  50  75 100 127 166 215 256 290
#     4  10  19  30  49  75 102 130 160 196 241 292
#     4   9  19  34  52  73  97 131 172 210 249 296
#     4   9  18  31  48  71 100 134 166 199 249 302
#
# _framework density 18.418444999999998
#
# number of rings (size 3 to 8) (size 9 to 14) (size 15 to 20)
#    0.000    2.500    1.250    2.250    0.000    4.000 
#    0.000    2.500    0.000    0.750    0.000    0.000 
#    0.000    0.000    0.000    0.000    0.000    0.000 
#
# Total GULP energy -178283.730492 kJ/mol
# GULP energy per Si atom -5571.366578 kJ/mol
# Density = 1.837652 g / cm^3
# Si number density = 18.418445 Si / 1000 Ang^3
#
#
#
# Elastic Constant Matrix: (Units=GPa)
#
#
# Indices 1 2 3 4 5 6 
#
# 1 -24.2042 19.3881 75.0993 0.0000 -26.8769 0.0000
# 2 19.3881 -0.9135 18.5424 0.0000 -1.7321 0.0000
# 3 75.0993 18.5424 -22.7459 0.0000 15.7100 0.0000
# 4 0.0000 0.0000 0.0000 20.1006 0.0000 8.0726
# 5 -26.8769 -1.7321 15.7100 0.0000 4.5655 0.0000
# 6 0.0000 0.0000 0.0000 8.0726 0.0000 7.7735
#
#
#
# Elastic Compliance Matrix: (Units=1/GPa)
#
#
# Indices 1 2 3 4 5 6 
#
# 1 -0.002246 0.022529 0.002287 0.000000 -0.012543 0.000000
# 2 0.022529 -0.065885 0.028138 0.000000 0.010807 0.000000
# 3 0.002287 0.028138 0.000946 0.000000 0.020882 0.000000
# 4 0.000000 0.000000 0.000000 0.085343 0.000000 -0.088626
# 5 -0.012543 0.010807 0.020882 0.000000 0.077439 0.000000
# 6 0.000000 0.000000 0.000000 -0.088626 0.000000 0.220677
#
#
# Mechanical properties :
#
#
# Convention : Reuss Voigt Hill
#
# Bulk Modulus (GPa) = 25.82526 19.79956 22.81241
# Shear Modulus (GPa) = 22.39394 -4.23830 9.07782
#
# Velocity S-wave (km/s) = 3.49068 -1.51859 2.22247
# Velocity P-wave (km/s) = 5.50439 2.77459 4.35871
#
# Compressibility (1/GPa) = 0.03872178
#
# Stress axis : x y z
#
# Youngs Moduli (GPa) = -445.23144 -15.17803 1057.14033
#
# Poissons Ratio (x) = 0.34194 -2.41729
# Poissons Ratio (y) = 10.03056 -29.74559
# Poissons Ratio (z) = 1.01808 0.42708
#
# Static dielectric constant tensor:
#      x y z
#    x 1.647850 0.000000 -0.002650 
#    y 0.000000 1.624280 0.000000 
#    z -0.002650 0.000000 1.649750 
# 
# From -- ./inp_files/42413.got.cif
#   From: 2010.05.17/outbox.ucp.g08.bks.cvg/sg11_22_cif.got.tgz:42413.got - 2010.06.11 11:38:39.
