data_PCOD9167227
_publ_section_title
;
Structure prediction by ZEFSAII (Michael W. Deem and Ramdas Pophale) SiO2 
 PCOD9167227
Probable space group: P 21/M
;
_chemical_formula_sum "Si O2"
_cell_formula_units_Z 24
_cell_length_a 14.601824
_cell_length_b 15.447512
_cell_length_c 6.328238
_cell_angle_alpha 90.000000
_cell_angle_beta 55.251899
_cell_angle_gamma 90.000000
_cell_volume 1172.853265
_symmetry_space_group_name_H-M "P 21/M"
_symmetry_group_IT_number 11
_symmetry_cell_setting 'monoclinic'
loop_
_space_group_symop_operation_xyz
x,y,z
-x,1/2+y,-z
-x,-y,-z
x,1/2-y,z
loop_
_atom_site_type_symbol
_atom_site_label
_atom_site_fract_x
_atom_site_fract_y
_atom_site_fract_z
Si Si1 0.532197 0.559073 0.253218
Si Si2 0.169021 0.007100 0.763010
Si Si3 0.180258 0.654651 0.072964
Si Si4 0.663004 0.073747 0.783510
Si Si5 0.759748 0.850395 0.998963
Si Si6 0.952726 0.916170 0.442892
O O1 0.500000 0.500000 0.500000
O O2 0.425772 0.602584 0.278499
O O3 0.591305 0.488592 0.026242
O O4 0.628324 0.630648 0.149306
O O5 0.248862 0.981268 0.465120
O O6 0.066221 0.048602 0.768952
O O7 0.177805 0.923030 0.904532
O O8 0.208251 0.086372 0.853328
O O9 0.204432 0.750000 0.952144
O O10 0.266726 0.634467 0.149892
O O11 0.053413 0.651540 0.324056
O O12 0.779768 0.750000 0.014943
O O13 0.840820 0.879760 0.699364
O O14 0.000000 0.000000 0.500000
#
# Coordination Sequence:
#
# PCOD9167227 Si02
#       6
#     4   4   4   4   4   4
#     4  11  21  43  74  96 135 182 228 279 345 414
#     4  12  22  46  68  99 140 180 225 285 347 410
#     4  12  26  43  68 105 139 181 235 281 340 418
#     4  11  22  42  74  95 133 184 224 278 350 403
#     4  12  26  43  69 106 137 178 234 286 341 411
#     4  12  23  46  71  94 140 186 225 280 350 408
#
# _framework density 20.462917000000001
#
# number of rings (size 3 to 8) (size 9 to 14) (size 15 to 20)
#    0.000    0.333    8.333    1.000    0.000    2.667 
#    0.000    2.500    0.000    0.000    0.000    0.000 
#    0.000    0.000    0.000    0.000    0.000    0.000 
#
# Total GULP energy -133740.206836 kJ/mol
# GULP energy per Si atom -5572.508618 kJ/mol
# Density = 2.041634 g / cm^3
# Si number density = 20.462917 Si / 1000 Ang^3
#
#
#
# Elastic Constant Matrix: (Units=GPa)
#
#
# Indices 1 2 3 4 5 6 
#
# 1 140.8421 52.1090 -5.0217 0.0000 10.8878 0.0000
# 2 52.1090 156.2805 26.1530 0.0000 8.1807 0.0000
# 3 -5.0217 26.1530 55.3639 0.0000 -5.8619 0.0000
# 4 0.0000 0.0000 0.0000 9.6883 0.0000 -9.7171
# 5 10.8878 8.1807 -5.8619 0.0000 27.9279 0.0000
# 6 0.0000 0.0000 0.0000 -9.7171 0.0000 12.2695
#
#
#
# Elastic Compliance Matrix: (Units=1/GPa)
#
#
# Indices 1 2 3 4 5 6 
#
# 1 0.008453 -0.003049 0.001997 0.000000 -0.001983 0.000000
# 2 -0.003049 0.008266 -0.004410 0.000000 -0.002158 0.000000
# 3 0.001997 -0.004410 0.020844 0.000000 0.004888 0.000000
# 4 0.000000 0.000000 0.000000 0.501839 0.000000 0.397440
# 5 -0.001983 -0.002158 0.004888 0.000000 0.038238 0.000000
# 6 0.000000 0.000000 0.000000 0.397440 0.000000 0.396262
#
#
# Mechanical properties :
#
#
# Convention : Reuss Voigt Hill
#
# Bulk Modulus (GPa) = 37.53820 55.44083 46.48951
# Shear Modulus (GPa) = 5.03167 28.59355 16.81261
#
# Velocity S-wave (km/s) = 1.56980 3.74215 2.86949
# Velocity P-wave (km/s) = 4.65511 6.76932 5.80920
#
# Compressibility (1/GPa) = 0.02663953
#
# Stress axis : x y z
#
# Youngs Moduli (GPa) = 118.30636 120.97353 47.97501
#
# Poissons Ratio (x) = 0.36882 -0.09580
# Poissons Ratio (y) = 0.36069 0.21157
# Poissons Ratio (z) = -0.23624 0.53348
#
# Static dielectric constant tensor:
#      x y z
#    x 1.872030 0.000000 -0.032430 
#    y 0.000000 1.671810 0.000000 
#    z -0.032430 0.000000 1.761960 
# 
# From -- ./inp_files/6341.got.cif
#   From: 2010.05.17/outbox.cif.g08.bks.cpg/sg11_4_cif.got.tgz:6341.got - 2010.06.03 12:22:45.
