data_PCOD9167221
_publ_section_title
;
Structure prediction by ZEFSAII (Michael W. Deem and Ramdas Pophale) SiO2 
 PCOD9167221
Probable space group: P 21/M
;
_chemical_formula_sum "Si O2"
_cell_formula_units_Z 28
_cell_length_a 8.421529
_cell_length_b 15.576814
_cell_length_c 11.806169
_cell_angle_alpha 90.000000
_cell_angle_beta 63.601896
_cell_angle_gamma 90.000000
_cell_volume 1387.247620
_symmetry_space_group_name_H-M "P 21/M"
_symmetry_group_IT_number 11
_symmetry_cell_setting 'monoclinic'
loop_
_space_group_symop_operation_xyz
x,y,z
-x,1/2+y,-z
-x,-y,-z
x,1/2-y,z
loop_
_atom_site_type_symbol
_atom_site_label
_atom_site_fract_x
_atom_site_fract_y
_atom_site_fract_z
Si Si1 0.591274 0.654016 0.530709
Si Si2 0.615858 0.845336 0.027568
Si Si3 0.733711 0.416387 0.238552
Si Si4 0.798774 0.509102 0.601139
Si Si5 0.468687 0.097191 0.699992
Si Si6 0.237880 0.651331 0.023604
Si Si7 0.122064 0.021854 0.164699
O O1 0.645457 0.750000 0.542442
O O2 0.391349 0.636986 0.637827
O O3 0.711703 0.585438 0.557133
O O4 0.598270 0.638866 0.394327
O O5 0.687147 0.750000 0.978951
O O6 0.565370 0.851004 0.175335
O O7 0.435802 0.857594 0.012685
O O8 0.754402 0.919425 0.953705
O O9 0.630149 0.505981 0.253036
O O10 0.925222 0.440136 0.226311
O O11 0.754978 0.368643 0.112102
O O12 0.675779 0.426172 0.620117
O O13 0.796352 0.525588 0.736054
O O14 0.000000 0.500000 0.500000
O O15 0.179455 0.750000 0.061822
O O16 0.124000 0.576024 0.118516
#
# Coordination Sequence:
#
# PCOD9167221 Si02
#       7
#     4   4   4   4   4   4   4
#     4  11  24  43  66  96 132 173 221 272 327 391
#     4  11  23  39  64  97 130 172 218 269 330 394
#     4  11  23  41  66  93 129 172 220 263 330 394
#     4  11  23  43  70  94 126 171 224 270 332 397
#     4  11  21  42  66  90 133 174 214 265 328 395
#     4  11  23  41  63  93 129 170 218 272 330 389
#     4  12  23  42  66  96 133 172 220 274 329 396
#
# _framework density 20.183852000000002
#
# number of rings (size 3 to 8) (size 9 to 14) (size 15 to 20)
#    0.000    0.857    2.857    6.857    0.000    2.857 
#    0.000    5.714    0.000    0.000    0.000    0.000 
#    0.000    0.000    0.000    0.000    0.000    0.000 
#
# Total GULP energy -156601.906307 kJ/mol
# GULP energy per Si atom -5592.925225 kJ/mol
# Density = 2.013791 g / cm^3
# Si number density = 20.183852 Si / 1000 Ang^3
#
#
#
# Elastic Constant Matrix: (Units=GPa)
#
#
# Indices 1 2 3 4 5 6 
#
# 1 75.5736 22.6921 26.0579 0.0000 4.9059 0.0000
# 2 22.6921 94.0657 22.7510 0.0000 -6.2470 0.0000
# 3 26.0579 22.7510 74.4470 0.0000 8.5675 0.0000
# 4 0.0000 0.0000 0.0000 20.3387 0.0000 7.6478
# 5 4.9059 -6.2470 8.5675 0.0000 34.3657 0.0000
# 6 0.0000 0.0000 0.0000 7.6478 0.0000 12.5003
#
#
#
# Elastic Compliance Matrix: (Units=1/GPa)
#
#
# Indices 1 2 3 4 5 6 
#
# 1 0.015722 -0.002826 -0.004450 0.000000 -0.001649 0.000000
# 2 -0.002826 0.012306 -0.003166 0.000000 0.003430 0.000000
# 3 -0.004450 -0.003166 0.016422 0.000000 -0.004034 0.000000
# 4 0.000000 0.000000 0.000000 0.063858 0.000000 -0.039069
# 5 -0.001649 0.003430 -0.004034 0.000000 0.030963 0.000000
# 6 0.000000 0.000000 0.000000 -0.039069 0.000000 0.103900
#
#
# Mechanical properties :
#
#
# Convention : Reuss Voigt Hill
#
# Bulk Modulus (GPa) = 42.43401 43.00979 42.72190
# Shear Modulus (GPa) = 18.38836 24.94663 21.66750
#
# Velocity S-wave (km/s) = 3.02162 3.51945 3.28000
# Velocity P-wave (km/s) = 5.76567 6.15391 5.96295
#
# Compressibility (1/GPa) = 0.02356600
#
# Stress axis : x y z
#
# Youngs Moduli (GPa) = 63.60529 81.25980 60.89483
#
# Poissons Ratio (x) = 0.22964 0.27096
# Poissons Ratio (y) = 0.17975 0.19281
# Poissons Ratio (z) = 0.28302 0.25730
#
# Static dielectric constant tensor:
#      x y z
#    x 1.692500 0.000000 -0.003730 
#    y 0.000000 1.697220 0.000000 
#    z -0.003730 0.000000 1.707350 
# 
# From -- ./inp_files/31810.got.cif
#   From: 2010.05.17/outbox.cif.g08.bks.cpg/sg11_16_cif.got.tgz:31810.got - 2010.06.03 12:22:45.
