data_PCOD9167687
_publ_section_title
;
Structure prediction by ZEFSAII (Michael W. Deem and Ramdas Pophale) SiO2 
 PCOD9167687
Probable space group: P 21/M
;
_chemical_formula_sum "Si O2"
_cell_formula_units_Z 32
_cell_length_a 15.000000
_cell_length_b 21.000000
_cell_length_c 15.000000
_cell_angle_alpha 90.000000
_cell_angle_beta 20.000000
_cell_angle_gamma 90.000000
_cell_volume 1616.045177
_symmetry_space_group_name_H-M "P 21/M"
_symmetry_group_IT_number 11
_symmetry_cell_setting 'monoclinic'
loop_
_space_group_symop_operation_xyz
x,y,z
-x,1/2+y,-z
-x,-y,-z
x,1/2-y,z
loop_
_atom_site_type_symbol
_atom_site_label
_atom_site_fract_x
_atom_site_fract_y
_atom_site_fract_z
Si Si1 0.775483 0.178463 0.386229
Si Si2 0.822393 0.907411 0.420789
Si Si3 0.321606 0.608824 0.694364
Si Si4 0.282930 0.973502 0.883271
Si Si5 0.859257 0.823826 0.233232
Si Si6 0.985022 0.010617 0.618976
Si Si7 0.520142 0.550928 0.156094
Si Si8 0.333851 0.180535 0.950156
O O1 0.784878 0.250000 0.334360
O O2 0.766045 0.122230 0.323378
O O3 0.523479 0.178201 0.685921
O O4 0.036254 0.172943 0.199257
O O5 0.520054 0.928041 0.696724
O O6 0.860884 0.839875 0.337272
O O7 0.929353 0.921592 0.418900
O O8 0.006163 0.952624 0.184952
O O9 0.292483 0.539760 0.768706
O O10 0.616009 0.635012 0.424908
O O11 0.126579 0.651982 0.937750
O O12 0.364821 0.039367 0.852143
O O13 0.818199 0.750000 0.253514
O O14 0.216737 0.965764 0.439934
O O15 0.700444 0.993357 0.924264
O O16 0.000000 0.000000 0.500000
O O17 0.575629 0.622363 0.075275
O O18 0.364521 0.250000 0.962692
#
# Coordination Sequence:
#
# PCOD9167687 Si02
#       8
#     4   4   4   4   4   4   4   4
#     4  10  19  31  46  67  95 128 169 214 247 274
#     4   8  16  28  43  66  95 119 148 186 226 282
#     4  10  18  29  44  67  95 124 165 212 245 276
#     4   8  16  29  46  66  92 125 156 192 239 282
#     4  10  17  26  43  65  91 128 161 189 235 290
#     4  10  19  33  56  81  97 117 151 197 244 287
#     4  10  19  35  54  74 100 128 160 197 240 298
#     4  10  21  35  51  70  96 133 171 203 240 283
#
# _framework density 19.801427
#
# number of rings (size 3 to 8) (size 9 to 14) (size 15 to 20)
#    0.000    2.500    0.000    3.000    0.000    1.000 
#    0.000    1.250    0.000    1.500    0.000    0.000 
#    0.000    0.000    0.000    0.000    0.000    0.000 
#
# Total GULP energy -178339.482419 kJ/mol
# GULP energy per Si atom -5573.108826 kJ/mol
# Density = 1.975636 g / cm^3
# Si number density = 19.801427 Si / 1000 Ang^3
#
#
#
# Elastic Constant Matrix: (Units=GPa)
#
#
# Indices 1 2 3 4 5 6 
#
# 1 11.4912 -8.4009 5.4424 0.0000 -1.4435 0.0000
# 2 -8.4009 30.4264 1.7119 0.0000 -6.6510 0.0000
# 3 5.4424 1.7119 85.5835 0.0000 -7.0622 0.0000
# 4 0.0000 0.0000 0.0000 20.6253 0.0000 -1.3340
# 5 -1.4435 -6.6510 -7.0622 0.0000 22.3952 0.0000
# 6 0.0000 0.0000 0.0000 -1.3340 0.0000 15.2339
#
#
#
# Elastic Compliance Matrix: (Units=1/GPa)
#
#
# Indices 1 2 3 4 5 6 
#
# 1 0.119422 0.036967 -0.006974 0.000000 0.016477 0.000000
# 2 0.036967 0.046593 -0.001996 0.000000 0.015591 0.000000
# 3 -0.006974 -0.001996 0.012405 0.000000 0.002869 0.000000
# 4 0.000000 0.000000 0.000000 0.048760 0.000000 0.004270
# 5 0.016477 0.015591 0.002869 0.000000 0.051249 0.000000
# 6 0.000000 0.000000 0.000000 0.004270 0.000000 0.066017
#
#
# Mechanical properties :
#
#
# Convention : Reuss Voigt Hill
#
# Bulk Modulus (GPa) = 4.26596 13.88977 9.07786
# Shear Modulus (GPa) = 13.63918 20.23406 16.93662
#
# Velocity S-wave (km/s) = 2.62734 3.20010 2.92776
# Velocity P-wave (km/s) = 3.37090 4.54796 4.00293
#
# Compressibility (1/GPa) = 0.23441401
#
# Stress axis : x y z
#
# Youngs Moduli (GPa) = 8.37367 21.46226 80.61462
#
# Poissons Ratio (x) = -0.79340 0.56221
# Poissons Ratio (y) = -0.30955 0.16093
# Poissons Ratio (z) = 0.05840 0.04285
#
# Static dielectric constant tensor:
#      x y z
#    x 1.742730 0.000000 0.007450 
#    y 0.000000 1.769790 0.000000 
#    z 0.007450 0.000000 1.679540 
# 
# From -- ./inp_files/5497.got.cif
#   From: 2010.05.17/outbox.ucp.g08.bks.cvg/sg11_3_cif.got.tgz:5497.got - 2010.06.11 11:38:39.
