data_PCOD9167468
_publ_section_title
;
Structure prediction by ZEFSAII (Michael W. Deem and Ramdas Pophale) SiO2 
 PCOD9167468
Probable space group: P 21/M
;
_chemical_formula_sum "Si O2"
_cell_formula_units_Z 28
_cell_length_a 5.128693
_cell_length_b 17.305096
_cell_length_c 14.587537
_cell_angle_alpha 90.000000
_cell_angle_beta 113.830915
_cell_angle_gamma 90.000000
_cell_volume 1184.298582
_symmetry_space_group_name_H-M "P 21/M"
_symmetry_group_IT_number 11
_symmetry_cell_setting 'monoclinic'
loop_
_space_group_symop_operation_xyz
x,y,z
-x,1/2+y,-z
-x,-y,-z
x,1/2-y,z
loop_
_atom_site_type_symbol
_atom_site_label
_atom_site_fract_x
_atom_site_fract_y
_atom_site_fract_z
Si Si1 0.917473 0.750000 0.131398
Si Si2 0.254802 0.750000 0.992949
Si Si3 0.762523 0.660976 0.580039
Si Si4 0.608733 0.107034 0.309056
Si Si5 0.107230 0.110558 0.731301
Si Si6 0.217594 0.464062 0.921634
Si Si7 0.460943 0.067272 0.621569
Si Si8 0.136353 0.389139 0.092626
O O1 0.948905 0.679653 0.206908
O O2 0.595693 0.750000 0.043297
O O3 0.152462 0.750000 0.084876
O O4 0.105227 0.824648 0.926064
O O5 0.768366 0.750000 0.546086
O O6 0.537953 0.655268 0.630306
O O7 0.676725 0.596712 0.492262
O O8 0.071478 0.635639 0.660098
O O9 0.421086 0.122125 0.191360
O O10 0.603067 0.018715 0.348474
O O11 0.263731 0.052671 0.822617
O O12 0.315268 0.123373 0.676474
O O13 0.799901 0.077705 0.659733
O O14 0.969572 0.526355 0.893054
O O15 0.500000 0.500000 0.000000
O O16 0.160592 0.395673 0.985663
#
# Coordination Sequence:
#
# PCOD9167468 Si02
#       8
#     2   2   4   4   4   4   4   4
#     4  12  26  44  66 103 152 191 240 296 360 425
#     4  12  26  44  62 101 146 203 230 294 356 431
#     4  12  29  49  76 106 145 184 243 305 366 430
#     4  12  26  50  75 109 141 193 238 301 355 439
#     4  12  25  43  74 107 144 186 243 294 364 431
#     4  11  23  43  69 105 142 188 232 294 337 433
#     4  12  26  49  77 107 140 190 241 303 371 425
#     4  11  26  42  70 100 145 187 241 282 357 419
#
# _framework density 23.642686999999999
#
# number of rings (size 3 to 8) (size 9 to 14) (size 15 to 20)
#    0.000    0.286    2.857    5.571    8.000    0.000 
#    0.000    0.000    0.000    0.000    0.000    0.000 
#    0.000    0.000    0.000    0.000    0.000    0.000 
#
# Total GULP energy -156695.865517 kJ/mol
# GULP energy per Si atom -5596.280911 kJ/mol
# Density = 2.358887 g / cm^3
# Si number density = 23.642687 Si / 1000 Ang^3
#
#
#
# Elastic Constant Matrix: (Units=GPa)
#
#
# Indices 1 2 3 4 5 6 
#
# 1 48.6783 -9.2643 7.8774 0.0000 0.4338 0.0000
# 2 -9.2643 84.5074 5.3994 0.0000 6.4166 0.0000
# 3 7.8774 5.3994 92.5161 0.0000 -1.2115 0.0000
# 4 0.0000 0.0000 0.0000 24.4328 0.0000 -3.7509
# 5 0.4338 6.4166 -1.2115 0.0000 42.1583 0.0000
# 6 0.0000 0.0000 0.0000 -3.7509 0.0000 20.7089
#
#
#
# Elastic Compliance Matrix: (Units=1/GPa)
#
#
# Indices 1 2 3 4 5 6 
#
# 1 0.021347 0.002516 -0.001973 0.000000 -0.000659 0.000000
# 2 0.002516 0.012317 -0.000958 0.000000 -0.001928 0.000000
# 3 -0.001973 -0.000958 0.011039 0.000000 0.000483 0.000000
# 4 0.000000 0.000000 0.000000 0.042099 0.000000 0.007625
# 5 -0.000659 -0.001928 0.000483 0.000000 0.024034 0.000000
# 6 0.000000 0.000000 0.000000 0.007625 0.000000 0.049670
#
#
# Mechanical properties :
#
#
# Convention : Reuss Voigt Hill
#
# Bulk Modulus (GPa) = 22.79311 25.96964 24.38138
# Shear Modulus (GPa) = 28.41545 32.23928 30.32737
#
# Velocity S-wave (km/s) = 3.47056 3.69671 3.58542
# Velocity P-wave (km/s) = 5.07162 5.40638 5.24167
#
# Compressibility (1/GPa) = 0.04387290
#
# Stress axis : x y z
#
# Youngs Moduli (GPa) = 46.84471 81.19010 90.58637
#
# Poissons Ratio (x) = -0.20430 0.17874
# Poissons Ratio (y) = -0.11788 0.08681
# Poissons Ratio (z) = 0.09243 0.07781
#
# Static dielectric constant tensor:
#      x y z
#    x 1.915050 0.000000 0.022330 
#    y 0.000000 2.112050 0.000000 
#    z 0.022330 0.000000 1.909140 
# 
# From -- ./inp_files/46109.got.cif
#   From: 2010.05.17/outbox.cif.g08.bks.cpg/sg11_24_cif.got.tgz:46109.got - 2010.06.03 12:22:45.
