data_PCOD9167527
_publ_section_title
;
Structure prediction by ZEFSAII (Michael W. Deem and Ramdas Pophale) SiO2 
 PCOD9167527
Probable space group: P 21/M
;
_chemical_formula_sum "Si O2"
_cell_formula_units_Z 20
_cell_length_a 11.892836
_cell_length_b 8.557247
_cell_length_c 9.643670
_cell_angle_alpha 90.000000
_cell_angle_beta 74.866046
_cell_angle_gamma 90.000000
_cell_volume 947.397601
_symmetry_space_group_name_H-M "P 21/M"
_symmetry_group_IT_number 11
_symmetry_cell_setting 'monoclinic'
loop_
_space_group_symop_operation_xyz
x,y,z
-x,1/2+y,-z
-x,-y,-z
x,1/2-y,z
loop_
_atom_site_type_symbol
_atom_site_label
_atom_site_fract_x
_atom_site_fract_y
_atom_site_fract_z
Si Si1 0.148137 0.066110 0.096658
Si Si2 0.485365 0.562901 0.658754
Si Si3 0.214654 0.564611 0.785436
Si Si4 0.041758 0.434223 0.634102
Si Si5 0.608304 0.064599 0.876935
O O1 0.125262 0.250000 0.116450
O O2 0.055692 0.974734 0.219803
O O3 0.275201 0.022114 0.114119
O O4 0.150841 0.017183 0.934890
O O5 0.500000 0.500000 0.500000
O O6 0.502635 0.750000 0.660416
O O7 0.352175 0.529618 0.747555
O O8 0.574839 0.476125 0.730624
O O9 0.199739 0.750000 0.804221
O O10 0.158938 0.509904 0.658746
O O11 0.057675 0.250000 0.616958
O O12 0.000000 0.500000 0.500000
O O13 0.621339 0.250000 0.894466
O O14 0.500000 0.000000 0.000000
#
# Coordination Sequence:
#
# PCOD9167527 Si02
#       5
#     4   4   4   4   4
#     4  12  25  44  71 100 133 176 224 273 330 394
#     4  11  25  43  67  98 138 179 221 272 330 392
#     4  11  24  45  70  98 134 176 224 274 329 394
#     4  12  27  47  70  98 134 174 221 276 335 395
#     4  12  24  42  68 100 137 175 221 272 328 392
#
# _framework density 21.110462999999999
#
# number of rings (size 3 to 8) (size 9 to 14) (size 15 to 20)
#    0.000    0.400    2.000    7.200    2.800    2.400 
#    0.000    0.000    0.000    0.000    0.000    0.000 
#    0.000    0.000    0.000    0.000    0.000    0.000 
#
# Total GULP energy -112056.264774 kJ/mol
# GULP energy per Si atom -5602.813239 kJ/mol
# Density = 2.106241 g / cm^3
# Si number density = 21.110463 Si / 1000 Ang^3
#
#
#
# Elastic Constant Matrix: (Units=GPa)
#
#
# Indices 1 2 3 4 5 6 
#
# 1 74.8202 -1.5115 1.3883 0.0000 23.9313 0.0000
# 2 -1.5115 39.9297 -1.9332 0.0000 2.7065 0.0000
# 3 1.3883 -1.9332 92.9880 0.0000 25.3053 0.0000
# 4 0.0000 0.0000 0.0000 42.3218 0.0000 4.3927
# 5 23.9313 2.7065 25.3053 0.0000 43.8949 0.0000
# 6 0.0000 0.0000 0.0000 4.3927 0.0000 35.2437
#
#
#
# Elastic Compliance Matrix: (Units=1/GPa)
#
#
# Indices 1 2 3 4 5 6 
#
# 1 0.016809 0.001502 0.002727 0.000000 -0.010829 0.000000
# 2 0.001502 0.025382 0.001369 0.000000 -0.003173 0.000000
# 3 0.002727 0.001369 0.013248 0.000000 -0.009209 0.000000
# 4 0.000000 0.000000 0.000000 0.023938 0.000000 -0.002984
# 5 -0.010829 -0.003173 -0.009209 0.000000 0.034190 0.000000
# 6 0.000000 0.000000 0.000000 -0.002984 0.000000 0.028746
#
#
# Mechanical properties :
#
#
# Convention : Reuss Voigt Hill
#
# Bulk Modulus (GPa) = 15.00705 22.62502 18.81603
# Shear Modulus (GPa) = 32.60988 38.27837 35.44412
#
# Velocity S-wave (km/s) = 3.93456 4.26284 4.10199
# Velocity P-wave (km/s) = 5.26928 5.91352 5.60067
#
# Compressibility (1/GPa) = 0.06663535
#
# Stress axis : x y z
#
# Youngs Moduli (GPa) = 59.49285 39.39760 75.48432
#
# Poissons Ratio (x) = -0.05919 -0.20586
# Poissons Ratio (y) = -0.08938 -0.10332
# Poissons Ratio (z) = -0.16225 -0.05393
#
# Static dielectric constant tensor:
#      x y z
#    x 1.769810 0.000000 0.006350 
#    y 0.000000 1.705260 0.000000 
#    z 0.006350 0.000000 1.797950 
# 
# From -- ./inp_files/15932.got.cif
#   From: 2010.05.17/outbox.cif.g08.bks.cpg/sg11_8_cif.got.tgz:15932.got - 2010.06.03 12:22:45.
