data_PCOD9167170
_publ_section_title
;
Structure prediction by ZEFSAII (Michael W. Deem and Ramdas Pophale) SiO2 
 PCOD9167170
Probable space group: P 21/M
;
_chemical_formula_sum "Si O2"
_cell_formula_units_Z 28
_cell_length_a 12.468327
_cell_length_b 8.809709
_cell_length_c 15.086172
_cell_angle_alpha 90.000000
_cell_angle_beta 120.497694
_cell_angle_gamma 90.000000
_cell_volume 1427.839808
_symmetry_space_group_name_H-M "P 21/M"
_symmetry_group_IT_number 11
_symmetry_cell_setting 'monoclinic'
loop_
_space_group_symop_operation_xyz
x,y,z
-x,1/2+y,-z
-x,-y,-z
x,1/2-y,z
loop_
_atom_site_type_symbol
_atom_site_label
_atom_site_fract_x
_atom_site_fract_y
_atom_site_fract_z
Si Si1 0.879511 0.433942 0.177283
Si Si2 0.654897 0.569338 0.812723
Si Si3 0.481912 0.070441 0.590131
Si Si4 0.033373 0.581543 0.604275
Si Si5 0.132116 0.571383 0.205757
Si Si6 0.608716 0.067800 0.984236
Si Si7 0.767703 0.581969 0.585538
O O1 0.895507 0.250000 0.185437
O O2 0.883611 0.488145 0.281996
O O3 0.996531 0.502177 0.172025
O O4 0.745826 0.468921 0.080466
O O5 0.659825 0.750000 0.819776
O O6 0.559051 0.516036 0.696337
O O7 0.791058 0.505661 0.841560
O O8 0.608645 0.499536 0.885517
O O9 0.512186 0.250000 0.605392
O O10 0.332549 0.052319 0.532846
O O11 0.500000 0.000000 0.500000
O O12 0.081804 0.750000 0.603870
O O13 0.000000 0.500000 0.500000
O O14 0.901576 0.592095 0.598508
O O15 0.121894 0.750000 0.186974
O O16 0.217305 0.536292 0.328632
O O17 0.596421 0.250000 0.976089
O O18 0.500000 0.000000 0.000000
O O19 0.736574 0.750000 0.611243
#
# Coordination Sequence:
#
# PCOD9167170 Si02
#       7
#     4   4   4   4   4   4   4
#     4   9  21  42  65  87 121 164 202 252 316 375
#     4  12  25  41  62  90 128 171 212 262 317 378
#     4  11  21  35  58  89 124 164 205 251 306 370
#     4   9  18  34  55  83 115 152 195 240 293 357
#     4  11  21  35  61  94 124 155 202 256 310 377
#     4  11  25  47  70  92 121 162 213 266 315 375
#     4   9  19  35  54  79 120 163 196 242 306 367
#
# _framework density 19.610043999999998
#
# number of rings (size 3 to 8) (size 9 to 14) (size 15 to 20)
#    0.000    1.714    1.429    4.286    0.000    5.714 
#    0.000    2.857    0.000    0.000    0.000    0.000 
#    0.000    0.000    0.000    0.000    0.000    0.000 
#
# Total GULP energy -156194.359475 kJ/mol
# GULP energy per Si atom -5578.369981 kJ/mol
# Density = 1.956541 g / cm^3
# Si number density = 19.610044 Si / 1000 Ang^3
#
#
#
# Elastic Constant Matrix: (Units=GPa)
#
#
# Indices 1 2 3 4 5 6 
#
# 1 101.6022 51.7103 72.5543 0.0000 -4.3689 0.0000
# 2 51.7103 103.3285 53.0905 0.0000 -4.1035 0.0000
# 3 72.5543 53.0905 134.9650 0.0000 -4.3507 0.0000
# 4 0.0000 0.0000 0.0000 29.9408 0.0000 -2.7683
# 5 -4.3689 -4.1035 -4.3507 0.0000 37.4764 0.0000
# 6 0.0000 0.0000 0.0000 -2.7683 0.0000 31.0479
#
#
#
# Elastic Compliance Matrix: (Units=1/GPa)
#
#
# Indices 1 2 3 4 5 6 
#
# 1 0.017845 -0.004996 -0.007607 0.000000 0.000650 0.000000
# 2 -0.004996 0.013551 -0.002625 0.000000 0.000597 0.000000
# 3 -0.007607 -0.002625 0.012540 0.000000 0.000282 0.000000
# 4 0.000000 0.000000 0.000000 0.033677 0.000000 0.003003
# 5 0.000650 0.000597 0.000282 0.000000 0.026857 0.000000
# 6 0.000000 0.000000 0.000000 0.003003 0.000000 0.032476
#
#
# Mechanical properties :
#
#
# Convention : Reuss Voigt Hill
#
# Bulk Modulus (GPa) = 74.18671 77.17843 75.68257
# Shear Modulus (GPa) = 29.08727 30.52908 29.80818
#
# Velocity S-wave (km/s) = 3.85552 3.94992 3.90301
# Velocity P-wave (km/s) = 7.59823 7.76173 7.68042
#
# Compressibility (1/GPa) = 0.01347950
#
# Stress axis : x y z
#
# Youngs Moduli (GPa) = 56.03753 73.79635 79.74236
#
# Poissons Ratio (x) = 0.36871 0.60659
# Poissons Ratio (y) = 0.27998 0.20935
# Poissons Ratio (z) = 0.42627 0.19374
#
# Static dielectric constant tensor:
#      x y z
#    x 1.727550 0.000000 0.033860 
#    y 0.000000 1.710120 0.000000 
#    z 0.033860 0.000000 1.734300 
# 
# From -- ./inp_files/49469.got.cif
#   From: 2010.05.17/outbox.cif.g08.bks.cpg/sg11_25_cif.got.tgz:49469.got - 2010.06.03 12:22:45.
