data_PCOD9167941
_publ_section_title
;
Structure prediction by ZEFSAII (Michael W. Deem and Ramdas Pophale) SiO2 
 PCOD9167941
Probable space group: P 21/M
;
_chemical_formula_sum "Si O2"
_cell_formula_units_Z 24
_cell_length_a 24.000000
_cell_length_b 9.000000
_cell_length_c 18.000000
_cell_angle_alpha 90.000000
_cell_angle_beta 160.000000
_cell_angle_gamma 90.000000
_cell_volume 1329.774317
_symmetry_space_group_name_H-M "P 21/M"
_symmetry_group_IT_number 11
_symmetry_cell_setting 'monoclinic'
loop_
_space_group_symop_operation_xyz
x,y,z
-x,1/2+y,-z
-x,-y,-z
x,1/2-y,z
loop_
_atom_site_type_symbol
_atom_site_label
_atom_site_fract_x
_atom_site_fract_y
_atom_site_fract_z
Si Si1 0.751440 0.071662 0.823484
Si Si2 0.578548 0.930645 0.312853
Si Si3 0.453477 0.428846 0.557457
Si Si4 0.073085 0.429821 0.312026
Si Si5 0.753615 0.071359 0.174863
Si Si6 0.973179 0.427391 0.585740
O O1 0.745832 0.250000 0.807483
O O2 0.619572 0.031178 0.722128
O O3 0.692209 0.995909 0.673795
O O4 0.928666 0.028751 0.074692
O O5 0.580901 0.750000 0.317161
O O6 0.547748 0.979548 0.358948
O O7 0.752801 0.979201 0.501042
O O8 0.429804 0.974497 0.073468
O O9 0.441485 0.250000 0.541818
O O10 0.071497 0.250000 0.316452
O O11 0.041642 0.498390 0.353030
O O12 0.767597 0.250000 0.182041
O O13 0.818760 0.037872 0.338883
O O14 0.873125 0.992608 0.266302
O O15 0.986980 0.250000 0.609635
#
# Coordination Sequence:
#
# PCOD9167941 Si02
#       6
#     4   4   4   4   4   4
#     4   9  18  32  50  72  97 128 166 205 247 294
#     4   9  18  33  53  75  99 133 172 203 242 300
#     4   9  17  31  51  72  95 126 166 209 246 286
#     4  10  20  34  52  73 101 137 170 201 244 300
#     4   9  18  35  56  75  99 132 168 206 248 296
#     4  10  20  33  52  78 103 129 166 210 251 291
#
# _framework density 18.048175000000001
#
# number of rings (size 3 to 8) (size 9 to 14) (size 15 to 20)
#    0.000    2.667    0.000    1.500    0.000    5.333 
#    0.000    5.833    0.000    0.000    0.000    0.000 
#    0.000    0.000    0.000    0.000    0.000    0.000 
#
# Total GULP energy -133859.313665 kJ/mol
# GULP energy per Si atom -5577.471403 kJ/mol
# Density = 1.800710 g / cm^3
# Si number density = 18.048175 Si / 1000 Ang^3
#
#
#
# Elastic Constant Matrix: (Units=GPa)
#
#
# Indices 1 2 3 4 5 6 
#
# 1 -19.5300 -5.1811 9.3507 0.0000 -0.6876 0.0000
# 2 -5.1811 3.9145 17.2323 0.0000 -0.5984 0.0000
# 3 9.3507 17.2323 153.7879 0.0000 -0.9772 0.0000
# 4 0.0000 0.0000 0.0000 21.7022 0.0000 -5.7571
# 5 -0.6876 -0.5984 -0.9772 0.0000 12.7137 0.0000
# 6 0.0000 0.0000 0.0000 -5.7571 0.0000 19.2307
#
#
#
# Elastic Compliance Matrix: (Units=1/GPa)
#
#
# Indices 1 2 3 4 5 6 
#
# 1 -0.024981 -0.079504 0.010400 0.000000 -0.004294 0.000000
# 2 -0.079504 0.255939 -0.023807 0.000000 0.005917 0.000000
# 3 0.010400 -0.023807 0.008538 0.000000 0.000098 0.000000
# 4 0.000000 0.000000 0.000000 0.050053 0.000000 0.014985
# 5 -0.004294 0.005917 0.000098 0.000000 0.078709 0.000000
# 6 0.000000 0.000000 0.000000 0.014985 0.000000 0.056486
#
#
# Mechanical properties :
#
#
# Convention : Reuss Voigt Hill
#
# Bulk Modulus (GPa) = 18.63069 20.10848 19.36959
# Shear Modulus (GPa) = 7.95597 18.51400 13.23498
#
# Velocity S-wave (km/s) = 2.10185 3.20630 2.71092
# Velocity P-wave (km/s) = 4.02933 4.98727 4.53367
#
# Compressibility (1/GPa) = 0.05367488
#
# Stress axis : x y z
#
# Youngs Moduli (GPa) = -40.03031 3.90717 117.11858
#
# Poissons Ratio (x) = 0.31064 -1.21807
# Poissons Ratio (y) = -3.18258 2.78824
# Poissons Ratio (z) = 0.41633 0.09302
#
# Static dielectric constant tensor:
#      x y z
#    x 1.582830 0.000000 0.002320 
#    y 0.000000 1.599560 0.000000 
#    z 0.002320 0.000000 1.627980 
# 
# From -- ./inp_files/20592.got.cif
#   From: 2010.05.17/outbox.ucp.g08.bks.cvg/sg11_11_cif.got.tgz:20592.got - 2010.06.11 11:38:39.
