data_PCOD9167256
_publ_section_title
;
Structure prediction by ZEFSAII (Michael W. Deem and Ramdas Pophale) SiO2 
 PCOD9167256
Probable space group: P 21/M
;
_chemical_formula_sum "Si O2"
_cell_formula_units_Z 32
_cell_length_a 14.092589
_cell_length_b 14.607921
_cell_length_c 20.938086
_cell_angle_alpha 90.000000
_cell_angle_beta 20.289678
_cell_angle_gamma 90.000000
_cell_volume 1494.698300
_symmetry_space_group_name_H-M "P 21/M"
_symmetry_group_IT_number 11
_symmetry_cell_setting 'monoclinic'
loop_
_space_group_symop_operation_xyz
x,y,z
-x,1/2+y,-z
-x,-y,-z
x,1/2-y,z
loop_
_atom_site_type_symbol
_atom_site_label
_atom_site_fract_x
_atom_site_fract_y
_atom_site_fract_z
Si Si1 0.703081 0.031124 0.043997
Si Si2 0.715736 0.651997 0.988710
Si Si3 0.200377 0.469272 0.633991
Si Si4 0.704141 0.350934 0.308258
Si Si5 0.965667 0.359354 0.335475
Si Si6 0.153817 0.472381 0.337091
Si Si7 0.348027 0.645701 0.803140
Si Si8 0.987339 0.644024 0.366693
O O1 0.444848 0.074448 0.170354
O O2 0.745479 0.075150 0.085063
O O3 0.983439 0.028909 0.828031
O O4 0.599628 0.926353 0.107058
O O5 0.581253 0.750000 0.082139
O O6 0.026438 0.657983 0.820201
O O7 0.767068 0.633587 0.880758
O O8 0.487903 0.423545 0.469052
O O9 0.227435 0.565498 0.578353
O O10 0.058368 0.398211 0.674134
O O11 0.570718 0.250000 0.390234
O O12 0.765019 0.374257 0.196122
O O13 0.893694 0.250000 0.381402
O O14 0.011404 0.402224 0.376808
O O15 0.168914 0.569408 0.289214
O O16 0.000000 0.500000 0.500000
O O17 0.272289 0.750000 0.867754
O O18 0.678893 0.640802 0.590558
O O19 0.075453 0.750000 0.310825
#
# Coordination Sequence:
#
# PCOD9167256 Si02
#       8
#     4   4   4   4   4   4   4   4
#     4  11  22  34  55  86 116 147 187 247 287 331
#     4   9  20  39  61  85 115 152 192 236 293 346
#     4   9  19  34  57  86 113 143 193 241 288 333
#     4   9  18  37  64  84 112 157 194 231 288 353
#     4   9  20  37  56  81 114 150 190 237 284 338
#     4  11  22  37  56  78 112 156 193 226 283 350
#     4   9  18  33  54  80 112 149 188 235 289 342
#     4   9  18  35  56  78 107 149 193 234 283 343
#
# _framework density 21.409002999999998
#
# number of rings (size 3 to 8) (size 9 to 14) (size 15 to 20)
#    0.000    2.500    1.250    1.125    0.000    9.500 
#    0.000    2.500    2.750    0.750    0.000    0.000 
#    0.000    0.000    0.000    0.000    0.000    0.000 
#
# Total GULP energy -178283.600691 kJ/mol
# GULP energy per Si atom -5571.362522 kJ/mol
# Density = 2.136027 g / cm^3
# Si number density = 21.409003 Si / 1000 Ang^3
#
#
#
# Elastic Constant Matrix: (Units=GPa)
#
#
# Indices 1 2 3 4 5 6 
#
# 1 92.8222 42.7443 25.2514 0.0000 15.3712 0.0000
# 2 42.7443 130.7661 27.7749 0.0000 32.3251 0.0000
# 3 25.2514 27.7749 51.5134 0.0000 7.9320 0.0000
# 4 0.0000 0.0000 0.0000 29.1866 0.0000 6.2494
# 5 15.3712 32.3251 7.9320 0.0000 30.0515 0.0000
# 6 0.0000 0.0000 0.0000 6.2494 0.0000 10.6082
#
#
#
# Elastic Compliance Matrix: (Units=1/GPa)
#
#
# Indices 1 2 3 4 5 6 
#
# 1 0.013845 -0.002809 -0.004844 0.000000 -0.002781 0.000000
# 2 -0.002809 0.011869 -0.003417 0.000000 -0.010428 0.000000
# 3 -0.004844 -0.003417 0.023643 0.000000 -0.000088 0.000000
# 4 0.000000 0.000000 0.000000 0.039208 0.000000 -0.023098
# 5 -0.002781 -0.010428 -0.000088 0.000000 0.045939 0.000000
# 6 0.000000 0.000000 0.000000 -0.023098 0.000000 0.107874
#
#
# Mechanical properties :
#
#
# Convention : Reuss Voigt Hill
#
# Bulk Modulus (GPa) = 36.74150 51.84922 44.29536
# Shear Modulus (GPa) = 18.27553 25.92468 22.10011
#
# Velocity S-wave (km/s) = 2.92488 3.48361 3.21640
# Velocity P-wave (km/s) = 5.34841 6.36017 5.87610
#
# Compressibility (1/GPa) = 0.02721718
#
# Stress axis : x y z
#
# Youngs Moduli (GPa) = 72.22680 84.25245 42.29664
#
# Poissons Ratio (x) = 0.23669 0.20488
# Poissons Ratio (y) = 0.20291 0.14452
# Poissons Ratio (z) = 0.34986 0.28787
#
# Static dielectric constant tensor:
#      x y z
#    x 1.816440 0.000000 -0.049300 
#    y 0.000000 1.808680 0.000000 
#    z -0.049300 0.000000 1.796310 
# 
# From -- ./inp_files/65739.got.cif
#   From: 2010.05.17/outbox.cif.g08.bks.cpg/sg11_33_cif.got.tgz:65739.got - 2010.06.03 12:22:45.
