data_PCOD9167960
_publ_section_title
;
Structure prediction by ZEFSAII (Michael W. Deem and Ramdas Pophale) SiO2 
 PCOD9167960
Probable space group: P 21/M
;
_chemical_formula_sum "Si O2"
_cell_formula_units_Z 32
_cell_length_a 21.000000
_cell_length_b 9.000000
_cell_length_c 12.000000
_cell_angle_alpha 90.000000
_cell_angle_beta 50.000000
_cell_angle_gamma 90.000000
_cell_volume 1737.388797
_symmetry_space_group_name_H-M "P 21/M"
_symmetry_group_IT_number 11
_symmetry_cell_setting 'monoclinic'
loop_
_space_group_symop_operation_xyz
x,y,z
-x,1/2+y,-z
-x,-y,-z
x,1/2-y,z
loop_
_atom_site_type_symbol
_atom_site_label
_atom_site_fract_x
_atom_site_fract_y
_atom_site_fract_z
Si Si1 0.683126 0.931149 0.115495
Si Si2 0.809106 0.925663 0.610243
Si Si3 0.381812 0.072273 0.199323
Si Si4 0.110831 0.426809 0.717514
Si Si5 0.780588 0.921413 0.211318
Si Si6 0.466252 0.427887 0.867134
Si Si7 0.163863 0.926602 0.190236
Si Si8 0.057408 0.078711 0.130000
O O1 0.690410 0.750000 0.103355
O O2 0.708525 0.982266 0.211590
O O3 0.592774 0.971870 0.169494
O O4 0.753406 0.997843 0.955204
O O5 0.806847 0.750000 0.643554
O O6 0.714420 0.970686 0.687632
O O7 0.864116 0.942829 0.438894
O O8 0.841605 0.018789 0.677331
O O9 0.386732 0.250000 0.205275
O O10 0.443715 0.000251 0.219166
O O11 0.416068 0.033290 0.037297
O O12 0.100676 0.250000 0.752929
O O13 0.186328 0.485440 0.709887
O O14 0.024360 0.509732 0.832577
O O15 0.757119 0.750000 0.260188
O O16 0.863920 0.924410 0.041749
O O17 0.475143 0.250000 0.854693
O O18 0.169997 0.750000 0.175368
O O19 0.086915 0.985305 0.203570
O O20 0.042800 0.250000 0.176912
#
# Coordination Sequence:
#
# PCOD9167960 Si02
#       8
#     4   4   4   4   4   4   4   4
#     4   9  16  31  52  74 103 131 158 198 252 296
#     4  10  20  35  51  68 100 138 163 197 245 295
#     4   9  17  29  45  68  98 130 162 194 237 289
#     4  10  20  34  53  75  96 125 170 208 240 287
#     4   8  16  31  53  77  97 124 162 205 245 288
#     4   9  16  27  47  72  98 127 160 196 238 289
#     4  11  21  32  50  75 100 127 165 205 242 290
#     4  10  20  35  54  73 100 130 158 201 255 295
#
# _framework density 18.418444999999998
#
# number of rings (size 3 to 8) (size 9 to 14) (size 15 to 20)
#    0.000    2.500    1.250    2.625    0.000    2.000 
#    0.000    2.500    0.000    0.750    0.000    0.000 
#    0.000    0.000    0.000    0.000    0.000    0.000 
#
# Total GULP energy -178372.052518 kJ/mol
# GULP energy per Si atom -5574.126641 kJ/mol
# Density = 1.837652 g / cm^3
# Si number density = 18.418445 Si / 1000 Ang^3
#
#
#
# Elastic Constant Matrix: (Units=GPa)
#
#
# Indices 1 2 3 4 5 6 
#
# 1 103.6166 15.0377 2.9592 0.0000 23.5803 0.0000
# 2 15.0377 33.5277 9.9003 0.0000 10.2590 0.0000
# 3 2.9592 9.9003 9.4889 0.0000 6.2063 0.0000
# 4 0.0000 0.0000 0.0000 7.8051 0.0000 -5.0309
# 5 23.5803 10.2590 6.2063 0.0000 21.5096 0.0000
# 6 0.0000 0.0000 0.0000 -5.0309 0.0000 28.5540
#
#
#
# Elastic Compliance Matrix: (Units=1/GPa)
#
#
# Indices 1 2 3 4 5 6 
#
# 1 0.013607 -0.004413 0.010774 0.000000 -0.015921 0.000000
# 2 -0.004413 0.046118 -0.043782 0.000000 -0.004526 0.000000
# 3 0.010774 -0.043782 0.174753 0.000000 -0.041352 0.000000
# 4 0.000000 0.000000 0.000000 0.144535 0.000000 0.025466
# 5 -0.015921 -0.004526 -0.041352 0.000000 0.078034 0.000000
# 6 0.000000 0.000000 0.000000 0.025466 0.000000 0.039508
#
#
# Mechanical properties :
#
#
# Convention : Reuss Voigt Hill
#
# Bulk Modulus (GPa) = 6.26422 22.49197 14.37809
# Shear Modulus (GPa) = 8.00501 19.48949 13.74725
#
# Velocity S-wave (km/s) = 2.08701 3.25645 2.73497
# Velocity P-wave (km/s) = 3.03578 5.13590 4.21861
#
# Compressibility (1/GPa) = 0.15963681
#
# Stress axis : x y z
#
# Youngs Moduli (GPa) = 73.49271 21.68332 5.72237
#
# Poissons Ratio (x) = 0.09568 -0.06165
# Poissons Ratio (y) = 0.32431 0.25053
# Poissons Ratio (z) = -0.79180 0.94933
#
# Static dielectric constant tensor:
#      x y z
#    x 1.671380 0.000000 0.021390 
#    y 0.000000 1.621390 0.000000 
#    z 0.021390 0.000000 1.626670 
# 
# From -- ./inp_files/42537.got.cif
#   From: 2010.05.17/outbox.ucp.g08.bks.cvg/sg11_22_cif.got.tgz:42537.got - 2010.06.11 11:38:39.
