data_PCOD9167152
_publ_section_title
;
Structure prediction by ZEFSAII (Michael W. Deem and Ramdas Pophale) SiO2 
 PCOD9167152
Probable space group: P 21/M
;
_chemical_formula_sum "Si O2"
_cell_formula_units_Z 24
_cell_length_a 4.748435
_cell_length_b 28.378785
_cell_length_c 9.956473
_cell_angle_alpha 90.000000
_cell_angle_beta 46.909040
_cell_angle_gamma 90.000000
_cell_volume 979.790713
_symmetry_space_group_name_H-M "P 21/M"
_symmetry_group_IT_number 11
_symmetry_cell_setting 'monoclinic'
loop_
_space_group_symop_operation_xyz
x,y,z
-x,1/2+y,-z
-x,-y,-z
x,1/2-y,z
loop_
_atom_site_type_symbol
_atom_site_label
_atom_site_fract_x
_atom_site_fract_y
_atom_site_fract_z
Si Si1 0.429742 0.533345 0.150894
Si Si2 0.003975 0.698141 0.761370
Si Si3 0.955694 0.403104 0.909457
Si Si4 0.123044 0.801958 0.027865
Si Si5 0.911413 0.600079 0.685740
Si Si6 0.561831 0.962399 0.599887
O O1 0.768107 0.568498 0.082350
O O2 0.404170 0.497509 0.282822
O O3 0.805927 0.429712 0.311757
O O4 0.500000 0.500000 0.000000
O O5 0.098872 0.750000 0.675351
O O6 0.200372 0.692099 0.842359
O O7 0.550998 0.698513 0.949527
O O8 0.057730 0.653728 0.647779
O O9 0.083888 0.349009 0.853822
O O10 0.921176 0.433683 0.785109
O O11 0.522160 0.401192 0.111425
O O12 0.947447 0.750000 0.105786
O O13 0.878913 0.576068 0.550324
O O14 0.500000 0.000000 0.500000
#
# Coordination Sequence:
#
# PCOD9167152 Si02
#       6
#     4   4   4   4   4   4
#     4  12  24  35  56  81 108 146 189 229 270 323
#     4   9  17  29  49  79 110 138 173 220 279 335
#     4  11  21  34  56  85 109 142 186 231 277 327
#     4   9  17  29  47  77 115 141 165 217 285 339
#     4  11  21  36  58  80 112 149 180 231 283 326
#     4  12  26  40  53  78 113 155 191 227 277 332
#
# _framework density 24.495024000000001
#
# number of rings (size 3 to 8) (size 9 to 14) (size 15 to 20)
#    0.000    1.333    1.667    7.000    0.000    0.000 
#    0.000    0.000    0.000    0.000    0.000    7.000 
#    0.000    0.000    0.000    0.000    0.000    0.167 
#
# Total GULP energy -134016.060223 kJ/mol
# GULP energy per Si atom -5584.002509 kJ/mol
# Density = 2.443927 g / cm^3
# Si number density = 24.495024 Si / 1000 Ang^3
#
#
#
# Elastic Constant Matrix: (Units=GPa)
#
#
# Indices 1 2 3 4 5 6 
#
# 1 153.2445 68.5644 16.8233 0.0000 26.6185 0.0000
# 2 68.5644 277.4507 29.6696 0.0000 22.1155 0.0000
# 3 16.8233 29.6696 31.2024 0.0000 26.8102 0.0000
# 4 0.0000 0.0000 0.0000 12.6949 0.0000 5.3177
# 5 26.6185 22.1155 26.8102 0.0000 43.1713 0.0000
# 6 0.0000 0.0000 0.0000 5.3177 0.0000 42.8566
#
#
#
# Elastic Compliance Matrix: (Units=1/GPa)
#
#
# Indices 1 2 3 4 5 6 
#
# 1 0.008011 -0.001759 0.001765 0.000000 -0.005134 0.000000
# 2 -0.001759 0.004408 -0.004791 0.000000 0.001802 0.000000
# 3 0.001765 -0.004791 0.073927 0.000000 -0.044544 0.000000
# 4 0.000000 0.000000 0.000000 0.083090 0.000000 -0.010310
# 5 -0.005134 0.001802 -0.044544 0.000000 0.053069 0.000000
# 6 0.000000 0.000000 0.000000 -0.010310 0.000000 0.024613
#
#
# Mechanical properties :
#
#
# Convention : Reuss Voigt Hill
#
# Bulk Modulus (GPa) = 13.02512 76.89024 44.95768
# Shear Modulus (GPa) = 17.71302 42.86726 30.29014
#
# Velocity S-wave (km/s) = 2.69202 4.18789 3.52032
# Velocity P-wave (km/s) = 3.87190 7.40559 5.90908
#
# Compressibility (1/GPa) = 0.07677471
#
# Stress axis : x y z
#
# Youngs Moduli (GPa) = 124.83442 226.87772 13.52695
#
# Poissons Ratio (x) = 0.39910 -0.02388
# Poissons Ratio (y) = 0.21960 0.06481
# Poissons Ratio (z) = -0.22035 1.08699
#
# Static dielectric constant tensor:
#      x y z
#    x 1.889150 0.000000 -0.052120 
#    y 0.000000 1.986410 0.000000 
#    z -0.052120 0.000000 2.239240 
# 
# From -- ./inp_files/5323.got.cif
#   From: 2010.05.17/outbox.cif.g08.bks.cpg/sg11_3_cif.got.tgz:5323.got - 2010.06.03 12:22:45.
