data_PCOD9167161
_publ_section_title
;
Structure prediction by ZEFSAII (Michael W. Deem and Ramdas Pophale) SiO2 
 PCOD9167161
Probable space group: P 21/M
;
_chemical_formula_sum "Si O2"
_cell_formula_units_Z 28
_cell_length_a 26.051838
_cell_length_b 7.782164
_cell_length_c 19.717644
_cell_angle_alpha 90.000000
_cell_angle_beta 159.940551
_cell_angle_gamma 90.000000
_cell_volume 1371.139099
_symmetry_space_group_name_H-M "P 21/M"
_symmetry_group_IT_number 11
_symmetry_cell_setting 'monoclinic'
loop_
_space_group_symop_operation_xyz
x,y,z
-x,1/2+y,-z
-x,-y,-z
x,1/2-y,z
loop_
_atom_site_type_symbol
_atom_site_label
_atom_site_fract_x
_atom_site_fract_y
_atom_site_fract_z
Si Si1 0.148868 0.456586 0.641807
Si Si2 0.130841 0.944000 0.212625
Si Si3 0.037331 0.549992 0.866372
Si Si4 0.539567 0.038468 0.361621
Si Si5 0.629338 0.954802 0.713428
Si Si6 0.034076 0.958807 0.707557
Si Si7 0.329062 0.454275 0.987062
O O1 0.163250 0.250000 0.656546
O O2 0.000000 0.500000 0.500000
O O3 0.106570 0.515500 0.513658
O O4 0.283362 0.524263 0.856084
O O5 0.160447 0.750000 0.228976
O O6 0.294590 0.028357 0.415864
O O7 0.065594 0.956042 0.207232
O O8 0.000000 0.000000 0.000000
O O9 0.994270 0.750000 0.813520
O O10 0.027408 0.483341 0.776971
O O11 0.210361 0.535095 0.103433
O O12 0.541144 0.250000 0.361773
O O13 0.428283 0.988955 0.284136
O O14 0.470857 0.978429 0.204868
O O15 0.649508 0.750000 0.739113
O O16 0.500000 0.000000 0.500000
O O17 0.039149 0.750000 0.714068
O O18 0.184896 0.019498 0.857072
O O19 0.350032 0.250000 0.005176
#
# Coordination Sequence:
#
# PCOD9167161 Si02
#       7
#     4   4   4   4   4   4   4
#     4   8  14  24  43  71 102 134 165 202 252 306
#     4  11  23  40  58  76 101 136 178 222 269 321
#     4  11  22  36  53  76 108 142 177 215 256 311
#     4   9  19  34  53  76 102 130 168 218 264 313
#     4  11  21  35  55  79 105 132 169 218 274 322
#     4   9  17  29  46  74 108 137 168 209 253 301
#     4   9  15  28  50  75 102 132 168 210 260 313
#
# _framework density 20.420978000000002
#
# number of rings (size 3 to 8) (size 9 to 14) (size 15 to 20)
#    0.000    2.286    1.429    2.143    0.000    1.714 
#    0.000    3.571    0.000    0.857    0.000    0.000 
#    0.000    0.000    0.000    0.000    0.000    0.286 
#
# Total GULP energy -156133.765337 kJ/mol
# GULP energy per Si atom -5576.205905 kJ/mol
# Density = 2.037450 g / cm^3
# Si number density = 20.420978 Si / 1000 Ang^3
#
#
#
# Elastic Constant Matrix: (Units=GPa)
#
#
# Indices 1 2 3 4 5 6 
#
# 1 25.5629 -8.9676 1.1663 0.0000 -16.0496 0.0000
# 2 -8.9676 29.5919 1.5874 0.0000 -3.3225 0.0000
# 3 1.1663 1.5874 81.6197 0.0000 -21.0214 0.0000
# 4 0.0000 0.0000 0.0000 13.1621 0.0000 -1.0390
# 5 -16.0496 -3.3225 -21.0214 0.0000 41.9403 0.0000
# 6 0.0000 0.0000 0.0000 -1.0390 0.0000 10.6401
#
#
#
# Elastic Compliance Matrix: (Units=1/GPa)
#
#
# Indices 1 2 3 4 5 6 
#
# 1 0.065895 0.023022 0.006401 0.000000 0.030249 0.000000
# 2 0.023022 0.042140 0.002274 0.000000 0.013288 0.000000
# 3 0.006401 0.002274 0.014690 0.000000 0.009993 0.000000
# 4 0.000000 0.000000 0.000000 0.076566 0.000000 0.007476
# 5 0.030249 0.013288 0.009993 0.000000 0.041480 0.000000
# 6 0.000000 0.000000 0.000000 0.007476 0.000000 0.094714
#
#
# Mechanical properties :
#
#
# Convention : Reuss Voigt Hill
#
# Bulk Modulus (GPa) = 5.37295 13.81631 9.59463
# Shear Modulus (GPa) = 14.96427 22.68109 18.82268
#
# Velocity S-wave (km/s) = 2.70994 3.33630 3.03930
# Velocity P-wave (km/s) = 3.52541 4.64990 4.12614
#
# Compressibility (1/GPa) = 0.18611755
#
# Stress axis : x y z
#
# Youngs Moduli (GPa) = 15.17574 23.73069 68.07415
#
# Poissons Ratio (x) = -0.54632 -0.43576
# Poissons Ratio (y) = -0.34937 -0.15479
# Poissons Ratio (z) = -0.09714 -0.05396
#
# Static dielectric constant tensor:
#      x y z
#    x 1.724560 0.000000 -0.058510 
#    y 0.000000 1.850100 0.000000 
#    z -0.058510 0.000000 1.781000 
# 
# From -- ./inp_files/61250.got.cif
#   From: 2010.05.17/outbox.cif.g08.bks.cpg/sg11_31_cif.got.tgz:61250.got - 2010.06.03 12:22:45.
