data_PCOD9167148
_publ_section_title
;
Structure prediction by ZEFSAII (Michael W. Deem and Ramdas Pophale) SiO2 
 PCOD9167148
Probable space group: P 21/M
;
_chemical_formula_sum "Si O2"
_cell_formula_units_Z 28
_cell_length_a 5.480390
_cell_length_b 18.357122
_cell_length_c 13.442977
_cell_angle_alpha 90.000000
_cell_angle_beta 109.024604
_cell_angle_gamma 90.000000
_cell_volume 1278.548833
_symmetry_space_group_name_H-M "P 21/M"
_symmetry_group_IT_number 11
_symmetry_cell_setting 'monoclinic'
loop_
_space_group_symop_operation_xyz
x,y,z
-x,1/2+y,-z
-x,-y,-z
x,1/2-y,z
loop_
_atom_site_type_symbol
_atom_site_label
_atom_site_fract_x
_atom_site_fract_y
_atom_site_fract_z
Si Si1 0.808920 0.327898 0.628761
Si Si2 0.794681 0.019914 0.556880
Si Si3 0.585515 0.339009 0.123218
Si Si4 0.777576 0.479526 0.238232
Si Si5 0.210808 0.830554 0.062150
Si Si6 0.604027 0.868658 0.259286
Si Si7 0.834075 0.942335 0.040432
O O1 0.769376 0.250000 0.576831
O O2 0.775075 0.393657 0.551184
O O3 0.596935 0.337392 0.687520
O O4 0.109047 0.337133 0.697347
O O5 0.500000 0.000000 0.500000
O O6 0.000000 0.000000 0.500000
O O7 0.934929 0.991192 0.677571
O O8 0.538877 0.250000 0.135702
O O9 0.696415 0.394404 0.222760
O O10 0.784354 0.340275 0.055885
O O11 0.345123 0.388207 0.049294
O O12 0.617824 0.543308 0.273922
O O13 0.734449 0.510695 0.119779
O O14 0.122743 0.750000 0.073374
O O15 0.498951 0.844160 0.138105
O O16 0.051034 0.886843 0.105079
O O17 0.000000 0.000000 0.000000
#
# Coordination Sequence:
#
# PCOD9167148 Si02
#       7
#     4   4   4   4   4   4   4
#     4  11  23  42  68 102 135 171 222 292 358 413
#     4  11  25  46  72 100 135 178 234 297 353 419
#     4  11  24  41  59  94 137 178 226 279 336 422
#     4  11  23  44  66  96 130 183 231 282 351 422
#     4  11  21  34  53  86 132 172 214 270 324 392
#     4  11  22  37  64  97 137 179 222 273 342 416
#     4  12  22  38  64  91 131 180 234 278 337 416
#
# _framework density 21.899825
#
# number of rings (size 3 to 8) (size 9 to 14) (size 15 to 20)
#    0.000    0.857    2.857    6.429    0.000    1.143 
#    0.000    1.429    0.000    0.000    0.000    1.000 
#    0.000    0.000    0.000    0.000    0.000    0.000 
#
# Total GULP energy -155943.045296 kJ/mol
# GULP energy per Si atom -5569.394475 kJ/mol
# Density = 2.184998 g / cm^3
# Si number density = 21.899825 Si / 1000 Ang^3
#
#
#
# Elastic Constant Matrix: (Units=GPa)
#
#
# Indices 1 2 3 4 5 6 
#
# 1 103.6246 47.5891 17.9715 0.0000 7.4544 0.0000
# 2 47.5891 219.5213 41.8553 0.0000 8.8539 0.0000
# 3 17.9715 41.8553 42.3269 0.0000 13.4196 0.0000
# 4 0.0000 0.0000 0.0000 20.7783 0.0000 -5.0823
# 5 7.4544 8.8539 13.4196 0.0000 32.6338 0.0000
# 6 0.0000 0.0000 0.0000 -5.0823 0.0000 19.2649
#
#
#
# Elastic Compliance Matrix: (Units=1/GPa)
#
#
# Indices 1 2 3 4 5 6 
#
# 1 0.011015 -0.001868 -0.002521 0.000000 -0.000972 0.000000
# 2 -0.001868 0.005952 -0.005423 0.000000 0.001042 0.000000
# 3 -0.002521 -0.005423 0.033819 0.000000 -0.011860 0.000000
# 4 0.000000 0.000000 0.000000 0.051447 0.000000 0.013572
# 5 -0.000972 0.001042 -0.011860 0.000000 0.035459 0.000000
# 6 0.000000 0.000000 0.000000 0.013572 0.000000 0.055488
#
#
# Mechanical properties :
#
#
# Convention : Reuss Voigt Hill
#
# Bulk Modulus (GPa) = 32.09096 64.47830 48.28463
# Shear Modulus (GPa) = 22.40205 31.73920 27.07063
#
# Velocity S-wave (km/s) = 3.20180 3.81108 3.51965
# Velocity P-wave (km/s) = 5.32485 6.99086 6.21394
#
# Compressibility (1/GPa) = 0.03116143
#
# Stress axis : x y z
#
# Youngs Moduli (GPa) = 90.78254 168.00177 29.56906
#
# Poissons Ratio (x) = 0.31382 0.07456
# Poissons Ratio (y) = 0.16958 0.16036
# Poissons Ratio (z) = 0.22891 0.91111
#
# Static dielectric constant tensor:
#      x y z
#    x 1.834730 0.000000 0.030700 
#    y 0.000000 1.393570 0.000000 
#    z 0.030700 0.000000 1.883040 
# 
# From -- ./inp_files/45929.got.cif
#   From: 2010.05.17/outbox.cif.g08.bks.cpg/sg11_23_cif.got.tgz:45929.got - 2010.06.03 12:22:45.
