data_PCOD9167569
_publ_section_title
;
Structure prediction by ZEFSAII (Michael W. Deem and Ramdas Pophale) SiO2 
 PCOD9167569
Probable space group: P 21/M
;
_chemical_formula_sum "Si O2"
_cell_formula_units_Z 20
_cell_length_a 7.210062
_cell_length_b 10.326576
_cell_length_c 12.379786
_cell_angle_alpha 90.000000
_cell_angle_beta 80.224628
_cell_angle_gamma 90.000000
_cell_volume 908.357329
_symmetry_space_group_name_H-M "P 21/M"
_symmetry_group_IT_number 11
_symmetry_cell_setting 'monoclinic'
loop_
_space_group_symop_operation_xyz
x,y,z
-x,1/2+y,-z
-x,-y,-z
x,1/2-y,z
loop_
_atom_site_type_symbol
_atom_site_label
_atom_site_fract_x
_atom_site_fract_y
_atom_site_fract_z
Si Si1 0.007497 0.395951 0.904960
Si Si2 0.343769 0.466473 0.716430
Si Si3 0.638154 0.750000 0.462804
Si Si4 0.125818 0.750000 0.455357
Si Si5 0.843730 0.750000 0.629118
Si Si6 0.771834 0.032471 0.724210
Si Si7 0.673247 0.250000 0.375394
O O1 0.993705 0.250000 0.948662
O O2 0.195852 0.413566 0.816238
O O3 0.849395 0.421607 0.830633
O O4 0.000000 0.500000 0.000000
O O5 0.339356 0.381057 0.608290
O O6 0.549926 0.453158 0.743593
O O7 0.307806 0.614775 0.689059
O O8 0.873671 0.750000 0.491689
O O9 0.590889 0.750000 0.599112
O O10 0.147751 0.622028 0.380241
O O11 0.375553 0.750000 0.486283
O O12 0.094809 0.750000 0.592233
O O13 0.823476 0.615409 0.693456
#
# Coordination Sequence:
#
# PCOD9167569 Si02
#       7
#     4   4   2   2   2   4   2
#     4  12  30  52  75  99 130 177 238 305 359 399
#     4  12  24  45  72 104 146 184 230 285 334 416
#     4  12  20  40  64 104 149 184 220 263 331 404
#     4  12  22  38  64 100 149 192 226 270 330 409
#     4  12  24  38  64 106 149 186 226 270 324 419
#     4  12  24  45  69 102 139 183 232 281 343 412
#     4  12  22  38  68 110 145 188 222 261 335 420
#
# _framework density 22.017766999999999
#
# number of rings (size 3 to 8) (size 9 to 14) (size 15 to 20)
#    0.000    0.000    6.000    4.800    2.800    0.800 
#    0.000    0.000    0.000    0.000    0.000    0.000 
#    0.000    0.000    0.000    0.000    0.000    0.000 
#
# Total GULP energy -111827.178087 kJ/mol
# GULP energy per Si atom -5591.358904 kJ/mol
# Density = 2.196765 g / cm^3
# Si number density = 22.017767 Si / 1000 Ang^3
#
#
#
# Elastic Constant Matrix: (Units=GPa)
#
#
# Indices 1 2 3 4 5 6 
#
# 1 178.7841 25.2352 33.6151 0.0000 18.5333 0.0000
# 2 25.2352 185.0308 43.0834 0.0000 10.8025 0.0000
# 3 33.6151 43.0834 65.7575 0.0000 14.7495 0.0000
# 4 0.0000 0.0000 0.0000 106.8293 0.0000 17.0604
# 5 18.5333 10.8025 14.7495 0.0000 15.4199 0.0000
# 6 0.0000 0.0000 0.0000 17.0604 0.0000 41.8232
#
#
#
# Elastic Compliance Matrix: (Units=1/GPa)
#
#
# Indices 1 2 3 4 5 6 
#
# 1 0.006597 -0.000092 -0.001971 0.000000 -0.005979 0.000000
# 2 -0.000092 0.006383 -0.004019 0.000000 -0.000517 0.000000
# 3 -0.001971 -0.004019 0.022516 0.000000 -0.016353 0.000000
# 4 0.000000 0.000000 0.000000 0.010013 0.000000 -0.004084
# 5 -0.005979 -0.000517 -0.016353 0.000000 0.088041 0.000000
# 6 0.000000 0.000000 0.000000 -0.004084 0.000000 0.025576
#
#
# Mechanical properties :
#
#
# Convention : Reuss Voigt Hill
#
# Bulk Modulus (GPa) = 42.85948 70.38221 56.62085
# Shear Modulus (GPa) = 27.92235 54.65707 41.28971
#
# Velocity S-wave (km/s) = 3.56501 4.98778 4.33516
# Velocity P-wave (km/s) = 6.03770 8.07503 7.12951
#
# Compressibility (1/GPa) = 0.02333206
#
# Stress axis : x y z
#
# Youngs Moduli (GPa) = 151.59150 156.66478 44.41232
#
# Poissons Ratio (x) = 0.01436 0.08754
# Poissons Ratio (y) = 0.01390 0.17851
# Poissons Ratio (z) = 0.29879 0.62968
#
# Static dielectric constant tensor:
#      x y z
#    x 4.218860 0.000000 0.092990 
#    y 0.000000 1.719080 0.000000 
#    z 0.092990 0.000000 1.693720 
# 
# From -- ./inp_files/16100.got.cif
#   From: 2010.05.17/outbox.cif.g08.bks.cpg/sg11_9_cif.got.tgz:16100.got - 2010.06.03 12:22:45.
