data_PCOD9167839
_publ_section_title
;
Structure prediction by ZEFSAII (Michael W. Deem and Ramdas Pophale) SiO2 
 PCOD9167839
Probable space group: P 21/M
;
_chemical_formula_sum "Si O2"
_cell_formula_units_Z 32
_cell_length_a 21.000000
_cell_length_b 9.000000
_cell_length_c 27.000000
_cell_angle_alpha 90.000000
_cell_angle_beta 160.000000
_cell_angle_gamma 90.000000
_cell_volume 1745.328791
_symmetry_space_group_name_H-M "P 21/M"
_symmetry_group_IT_number 11
_symmetry_cell_setting 'monoclinic'
loop_
_space_group_symop_operation_xyz
x,y,z
-x,1/2+y,-z
-x,-y,-z
x,1/2-y,z
loop_
_atom_site_type_symbol
_atom_site_label
_atom_site_fract_x
_atom_site_fract_y
_atom_site_fract_z
Si Si1 0.778009 0.417053 0.729217
Si Si2 0.528030 0.924366 0.939827
Si Si3 0.532407 0.416445 0.449636
Si Si4 0.486309 0.426464 0.803250
Si Si5 0.156670 0.074682 0.381242
Si Si6 0.081459 0.927269 0.887692
Si Si7 0.760952 0.575299 0.200763
Si Si8 0.188484 0.924684 0.511765
O O1 0.804891 0.250000 0.767706
O O2 0.639256 0.407412 0.580400
O O3 0.673556 0.523716 0.691100
O O4 0.963098 0.487395 0.842117
O O5 0.530544 0.750000 0.930105
O O6 0.486485 0.013095 0.859557
O O7 0.365081 0.968082 0.858746
O O8 0.713748 0.958607 0.108351
O O9 0.536534 0.250000 0.431091
O O10 0.650761 0.534373 0.505386
O O11 0.454489 0.250000 0.780162
O O12 0.336714 0.500429 0.657069
O O13 0.701049 0.454836 0.945332
O O14 0.134628 0.250000 0.373327
O O15 0.997530 0.027303 0.224727
O O16 0.174586 0.993687 0.446726
O O17 0.046798 0.750000 0.865705
O O18 0.707726 0.750000 0.168617
O O19 0.974172 0.559463 0.372418
O O20 0.231045 0.750000 0.539425
#
# Coordination Sequence:
#
# PCOD9167839 Si02
#       8
#     4   4   4   4   4   4   4   4
#     4   9  16  26  45  74 105 136 172 217 265 311
#     4  10  20  36  60  86 109 136 173 217 264 313
#     4   9  16  27  45  72 106 139 172 214 263 313
#     4  11  23  38  55  77 108 144 180 218 262 312
#     4  10  19  33  54  79 106 137 176 220 266 315
#     4   9  19  34  53  77 105 139 177 218 264 315
#     4   9  20  38  59  83 110 139 173 215 262 314
#     4  11  23  38  55  77 107 142 179 218 262 312
#
# _framework density 18.334654
#
# number of rings (size 3 to 8) (size 9 to 14) (size 15 to 20)
#    0.000    2.250    0.000    3.000    0.000    6.500 
#    0.000    0.000    0.000    0.750    0.000    0.000 
#    0.000    0.000    0.000    0.000    0.000    0.000 
#
# Total GULP energy -178336.599752 kJ/mol
# GULP energy per Si atom -5573.018742 kJ/mol
# Density = 1.829292 g / cm^3
# Si number density = 18.334654 Si / 1000 Ang^3
#
#
#
# Elastic Constant Matrix: (Units=GPa)
#
#
# Indices 1 2 3 4 5 6 
#
# 1 12.1021 13.3669 30.6653 0.0000 2.9303 0.0000
# 2 13.3669 52.1478 63.0283 0.0000 1.6106 0.0000
# 3 30.6653 63.0283 123.4419 0.0000 -12.6170 0.0000
# 4 0.0000 0.0000 0.0000 27.1983 0.0000 -3.8566
# 5 2.9303 1.6106 -12.6170 0.0000 18.3916 0.0000
# 6 0.0000 0.0000 0.0000 -3.8566 0.0000 31.2449
#
#
#
# Elastic Compliance Matrix: (Units=1/GPa)
#
#
# Indices 1 2 3 4 5 6 
#
# 1 1.436142 0.456934 -0.664115 0.000000 -0.724428 0.000000
# 2 0.456934 0.207208 -0.245843 0.000000 -0.259601 0.000000
# 3 -0.664115 -0.245843 0.335119 0.000000 0.357239 0.000000
# 4 0.000000 0.000000 0.000000 0.037422 0.000000 0.004619
# 5 -0.724428 -0.259601 0.357239 0.000000 0.437602 0.000000
# 6 0.000000 0.000000 0.000000 0.004619 0.000000 0.032575
#
#
# Mechanical properties :
#
#
# Convention : Reuss Voigt Hill
#
# Bulk Modulus (GPa) = 0.93247 44.64586 22.78917
# Shear Modulus (GPa) = 1.33348 20.74239 11.03793
#
# Velocity S-wave (km/s) = 0.85374 3.36716 2.45628
# Velocity P-wave (km/s) = 1.21718 6.28653 4.52780
#
# Compressibility (1/GPa) = 1.07241818
#
# Stress axis : x y z
#
# Youngs Moduli (GPa) = 0.69631 4.82608 2.98402
#
# Poissons Ratio (x) = -2.20520 1.98173
# Poissons Ratio (y) = -0.31817 0.73360
# Poissons Ratio (z) = 0.46243 1.18646
#
# Static dielectric constant tensor:
#      x y z
#    x 1.646830 0.000000 0.029670 
#    y 0.000000 1.615040 0.000000 
#    z 0.029670 0.000000 1.618720 
# 
# From -- ./inp_files/72125.got.cif
#   From: 2010.05.17/outbox.ucp.g08.bks.cvg/sg11_37_cif.got.tgz:72125.got - 2010.06.11 11:38:39.
