data_PCOD9167796
_publ_section_title
;
Structure prediction by ZEFSAII (Michael W. Deem and Ramdas Pophale) SiO2 
 PCOD9167796
Probable space group: P 21/M
;
_chemical_formula_sum "Si O2"
_cell_formula_units_Z 32
_cell_length_a 12.000000
_cell_length_b 9.000000
_cell_length_c 30.000000
_cell_angle_alpha 90.000000
_cell_angle_beta 150.000000
_cell_angle_gamma 90.000000
_cell_volume 1620.000000
_symmetry_space_group_name_H-M "P 21/M"
_symmetry_group_IT_number 11
_symmetry_cell_setting 'monoclinic'
loop_
_space_group_symop_operation_xyz
x,y,z
-x,1/2+y,-z
-x,-y,-z
x,1/2-y,z
loop_
_atom_site_type_symbol
_atom_site_label
_atom_site_fract_x
_atom_site_fract_y
_atom_site_fract_z
Si Si1 0.374313 0.570278 0.764790
Si Si2 0.762069 0.926337 0.469777
Si Si3 0.178086 0.074093 0.030420
Si Si4 0.550758 0.570753 0.565227
Si Si5 0.750984 0.926036 0.364679
Si Si6 0.732835 0.575117 0.036315
Si Si7 0.280855 0.082475 0.872607
Si Si8 0.034524 0.576259 0.715404
O O1 0.368159 0.750000 0.758961
O O2 0.575493 0.528986 0.867527
O O3 0.400516 0.497477 0.725865
O O4 0.141602 0.516849 0.706811
O O5 0.777359 0.750000 0.483474
O O6 0.674842 0.949975 0.389135
O O7 0.605926 0.003002 0.451659
O O8 0.008227 0.996155 0.556411
O O9 0.165971 0.250000 0.032227
O O10 0.138768 0.044115 0.964679
O O11 0.000000 0.000000 0.000000
O O12 0.500000 0.500000 0.500000
O O13 0.530191 0.750000 0.557836
O O14 0.807404 0.521654 0.658342
O O15 0.773305 0.750000 0.365511
O O16 0.654077 0.750000 0.005844
O O17 0.843649 0.567504 0.123166
O O18 0.539095 0.452208 0.970601
O O19 0.248114 0.250000 0.844181
O O20 0.213035 0.958059 0.814624
O O21 0.003262 0.750000 0.696743
#
# Coordination Sequence:
#
# PCOD9167796 Si02
#       8
#     4   4   4   4   4   4   4   4
#     4  10  20  37  60  82 110 149 189 231 287 344
#     4  10  21  39  60  84 119 156 190 233 284 339
#     4  10  21  38  58  79 110 149 186 232 285 339
#     4  11  23  38  60  88 118 154 191 234 286 339
#     4  10  21  37  61  89 114 149 194 240 283 330
#     4   9  18  36  56  77 110 145 178 222 282 336
#     4  10  19  31  56  86 107 138 183 230 273 326
#     4  10  21  38  57  80 114 150 184 228 285 339
#
# _framework density 19.753086
#
# number of rings (size 3 to 8) (size 9 to 14) (size 15 to 20)
#    0.000    2.000    1.250    2.250    0.000    5.500 
#    2.250    0.000    0.000    0.000    0.000    0.000 
#    0.000    0.000    0.000    0.000    0.000    0.000 
#
# Total GULP energy -178226.344573 kJ/mol
# GULP energy per Si atom -5569.573268 kJ/mol
# Density = 1.970813 g / cm^3
# Si number density = 19.753086 Si / 1000 Ang^3
#
#
#
# Elastic Constant Matrix: (Units=GPa)
#
#
# Indices 1 2 3 4 5 6 
#
# 1 155.3432 47.7104 28.4234 0.0000 -3.1610 0.0000
# 2 47.7104 15.7568 4.0658 0.0000 3.7989 0.0000
# 3 28.4234 4.0658 20.0759 0.0000 -2.3136 0.0000
# 4 0.0000 0.0000 0.0000 22.0061 0.0000 -1.6058
# 5 -3.1610 3.7989 -2.3136 0.0000 23.3208 0.0000
# 6 0.0000 0.0000 0.0000 -1.6058 0.0000 33.7678
#
#
#
# Elastic Compliance Matrix: (Units=1/GPa)
#
#
# Indices 1 2 3 4 5 6 
#
# 1 -0.108425 0.321461 0.081609 0.000000 -0.058966 0.000000
# 2 0.321461 -0.882373 -0.257785 0.000000 0.161736 0.000000
# 3 0.081609 -0.257785 -0.007495 0.000000 0.052311 0.000000
# 4 0.000000 0.000000 0.000000 0.045600 0.000000 0.002168
# 5 -0.058966 0.161736 0.052311 0.000000 0.013731 0.000000
# 6 0.000000 0.000000 0.000000 0.002168 0.000000 0.029717
#
#
# Mechanical properties :
#
#
# Convention : Reuss Voigt Hill
#
# Bulk Modulus (GPa) = -1.41298 39.06388 18.82545
# Shear Modulus (GPa) = -3.48256 23.21735 9.86739
#
# Velocity S-wave (km/s) = -1.32924 3.43210 2.23746
# Velocity P-wave (km/s) = 1.75291 5.96026 4.02815
#
# Compressibility (1/GPa) = -0.70772298
#
# Stress axis : x y z
#
# Youngs Moduli (GPa) = -9.22300 -1.13331 -133.41478
#
# Poissons Ratio (x) = 0.36431 10.88785
# Poissons Ratio (y) = 2.96483 -34.39229
# Poissons Ratio (z) = 0.75268 -0.29215
#
# Static dielectric constant tensor:
#      x y z
#    x 1.723420 0.000000 -0.029530 
#    y 0.000000 1.662930 0.000000 
#    z -0.029530 0.000000 1.758420 
# 
# From -- ./inp_files/73164.got.cif
#   From: 2010.05.17/outbox.ucp.g08.bks.cvg/sg11_37_cif.got.tgz:73164.got - 2010.06.11 11:38:39.
