data_PCOD9167168
_publ_section_title
;
Structure prediction by ZEFSAII (Michael W. Deem and Ramdas Pophale) SiO2 
 PCOD9167168
Probable space group: P 21/M
;
_chemical_formula_sum "Si O2"
_cell_formula_units_Z 32
_cell_length_a 9.755618
_cell_length_b 20.364993
_cell_length_c 10.205433
_cell_angle_alpha 90.000000
_cell_angle_beta 137.196894
_cell_angle_gamma 90.000000
_cell_volume 1377.678418
_symmetry_space_group_name_H-M "P 21/M"
_symmetry_group_IT_number 11
_symmetry_cell_setting 'monoclinic'
loop_
_space_group_symop_operation_xyz
x,y,z
-x,1/2+y,-z
-x,-y,-z
x,1/2-y,z
loop_
_atom_site_type_symbol
_atom_site_label
_atom_site_fract_x
_atom_site_fract_y
_atom_site_fract_z
Si Si1 0.339254 0.052860 0.427838
Si Si2 0.618181 0.324037 0.061757
Si Si3 0.094801 0.825383 0.969375
Si Si4 0.137743 0.536321 0.487259
Si Si5 0.552543 0.945341 0.931255
Si Si6 0.979263 0.323165 0.531200
Si Si7 0.901479 0.566079 0.984385
Si Si8 0.276008 0.177738 0.504069
O O1 0.270372 0.082593 0.242388
O O2 0.405658 0.113816 0.563050
O O3 0.500000 0.000000 0.500000
O O4 0.165211 0.013205 0.384702
O O5 0.541480 0.250000 0.996903
O O6 0.717900 0.343727 0.993430
O O7 0.462404 0.375643 0.007664
O O8 0.797183 0.323448 0.296198
O O9 0.116346 0.750000 0.027564
O O10 0.054431 0.874152 0.062390
O O11 0.909368 0.825135 0.732040
O O12 0.367038 0.546483 0.699724
O O13 0.054677 0.610535 0.409896
O O14 0.000000 0.500000 0.500000
O O15 0.771944 0.949577 0.021390
O O16 0.500000 0.000000 0.000000
O O17 0.978852 0.250000 0.593468
O O18 0.175781 0.328652 0.576416
O O19 0.000000 0.500000 0.000000
O O20 0.369747 0.250000 0.557428
#
# Coordination Sequence:
#
# PCOD9167168 Si02
#       8
#     4   4   4   4   4   4   4   4
#     4  11  21  37  54  82 115 141 184 229 272 330
#     4   8  15  30  53  78 106 138 178 227 269 318
#     4   8  15  30  53  78 105 140 180 220 269 325
#     4  11  21  35  58  84 108 147 182 226 281 325
#     4  11  23  36  54  84 112 142 187 230 274 327
#     4   8  14  27  49  78 105 134 179 223 262 315
#     4  11  23  36  55  81 112 150 181 227 278 324
#     4   8  14  27  50  76 103 139 179 218 263 319
#
# _framework density 23.227481999999998
#
# number of rings (size 3 to 8) (size 9 to 14) (size 15 to 20)
#    0.000    2.500    2.500    2.250    3.500    0.500 
#    0.000    0.625    0.000    3.000    0.000    0.000 
#    0.000    0.000    0.000    0.000    0.000    0.000 
#
# Total GULP energy -178632.144880 kJ/mol
# GULP energy per Si atom -5582.254527 kJ/mol
# Density = 2.317462 g / cm^3
# Si number density = 23.227482 Si / 1000 Ang^3
#
#
#
# Elastic Constant Matrix: (Units=GPa)
#
#
# Indices 1 2 3 4 5 6 
#
# 1 166.2602 79.0562 3.4897 0.0000 0.5401 0.0000
# 2 79.0562 145.4769 5.2704 0.0000 -0.2308 0.0000
# 3 3.4897 5.2704 57.7930 0.0000 -0.2929 0.0000
# 4 0.0000 0.0000 0.0000 22.3347 0.0000 0.8641
# 5 0.5401 -0.2308 -0.2929 0.0000 19.7829 0.0000
# 6 0.0000 0.0000 0.0000 0.8641 0.0000 41.9429
#
#
#
# Elastic Compliance Matrix: (Units=1/GPa)
#
#
# Indices 1 2 3 4 5 6 
#
# 1 0.008112 -0.004406 -0.000089 0.000000 -0.000274 0.000000
# 2 -0.004406 0.009289 -0.000580 0.000000 0.000220 0.000000
# 3 -0.000089 -0.000580 0.017363 0.000000 0.000253 0.000000
# 4 0.000000 0.000000 0.000000 0.044809 0.000000 -0.000923
# 5 -0.000274 0.000220 0.000253 0.000000 0.050562 0.000000
# 6 0.000000 0.000000 0.000000 -0.000923 0.000000 0.023861
#
#
# Mechanical properties :
#
#
# Convention : Reuss Voigt Hill
#
# Bulk Modulus (GPa) = 40.62692 60.57365 50.60028
# Shear Modulus (GPa) = 29.01042 35.59304 32.30173
#
# Velocity S-wave (km/s) = 3.53791 3.91879 3.73321
# Velocity P-wave (km/s) = 5.84961 6.82722 6.35724
#
# Compressibility (1/GPa) = 0.02461422
#
# Stress axis : x y z
#
# Youngs Moduli (GPa) = 123.26942 107.64891 57.59474
#
# Poissons Ratio (x) = 0.47426 0.00515
# Poissons Ratio (y) = 0.54308 0.03341
# Poissons Ratio (z) = 0.01103 0.06244
#
# Static dielectric constant tensor:
#      x y z
#    x 1.874340 0.000000 -0.011790 
#    y 0.000000 1.881120 0.000000 
#    z -0.011790 0.000000 2.071360 
# 
# From -- ./inp_files/32694.got.cif
#   From: 2010.05.17/outbox.cif.g08.bks.cpg/sg11_17_cif.got.tgz:32694.got - 2010.06.03 12:22:45.
