data_PCOD9167484
_publ_section_title
;
Structure prediction by ZEFSAII (Michael W. Deem and Ramdas Pophale) SiO2 
 PCOD9167484
Probable space group: P 21/M
;
_chemical_formula_sum "Si O2"
_cell_formula_units_Z 14
_cell_length_a 7.330909
_cell_length_b 13.561753
_cell_length_c 4.975532
_cell_angle_alpha 90.000000
_cell_angle_beta 98.429221
_cell_angle_gamma 90.000000
_cell_volume 489.323734
_symmetry_space_group_name_H-M "P 21/M"
_symmetry_group_IT_number 11
_symmetry_cell_setting 'monoclinic'
loop_
_space_group_symop_operation_xyz
x,y,z
-x,1/2+y,-z
-x,-y,-z
x,1/2-y,z
loop_
_atom_site_type_symbol
_atom_site_label
_atom_site_fract_x
_atom_site_fract_y
_atom_site_fract_z
Si Si1 0.957695 0.750000 0.342122
Si Si2 0.284955 0.750000 0.070690
Si Si3 0.787777 0.032385 0.988830
Si Si4 0.706517 0.581528 0.480243
Si Si5 0.364571 0.250000 0.150897
O O1 0.888601 0.651042 0.474221
O O2 0.171902 0.750000 0.323485
O O3 0.838606 0.750000 0.033159
O O4 0.226130 0.645606 0.935557
O O5 0.503853 0.750000 0.080121
O O6 0.714484 0.013272 0.673599
O O7 0.683920 0.961981 0.178234
O O8 0.000000 0.000000 0.000000
O O9 0.597962 0.657783 0.646370
#
# Coordination Sequence:
#
# PCOD9167484 Si02
#       5
#     2   2   4   4   2
#     4  11  23  50  76 107 154 198 252 319 374 450
#     4  12  28  46  78 116 146 198 272 304 372 474
#     4  12  25  47  77 114 150 204 252 315 381 452
#     4  11  24  48  76 101 160 199 240 313 394 428
#     4  11  25  50  76 115 150 206 248 315 380 456
#
# _framework density 28.610913
#
# number of rings (size 3 to 8) (size 9 to 14) (size 15 to 20)
#    0.000    0.571    5.714    0.857    0.000    4.571 
#   10.286    0.000    0.000    0.000    0.000    0.000 
#    0.000    0.000    0.000    0.000    0.000    0.000 
#
# Total GULP energy -78351.030652 kJ/mol
# GULP energy per Si atom -5596.502189 kJ/mol
# Density = 2.854579 g / cm^3
# Si number density = 28.610913 Si / 1000 Ang^3
#
#
#
# Elastic Constant Matrix: (Units=GPa)
#
#
# Indices 1 2 3 4 5 6 
#
# 1 86.2841 28.9363 51.0875 0.0000 -29.3409 0.0000
# 2 28.9363 204.4278 56.5915 0.0000 -1.9775 0.0000
# 3 51.0875 56.5915 212.3873 0.0000 -10.2644 0.0000
# 4 0.0000 0.0000 0.0000 17.9992 0.0000 -13.7433
# 5 -29.3409 -1.9775 -10.2644 0.0000 55.6058 0.0000
# 6 0.0000 0.0000 0.0000 -13.7433 0.0000 33.8345
#
#
#
# Elastic Compliance Matrix: (Units=1/GPa)
#
#
# Indices 1 2 3 4 5 6 
#
# 1 0.016781 -0.001391 -0.003269 0.000000 0.008202 0.000000
# 2 -0.001391 0.005397 -0.001140 0.000000 -0.000752 0.000000
# 3 -0.003269 -0.001140 0.005765 0.000000 -0.000702 0.000000
# 4 0.000000 0.000000 0.000000 0.080536 0.000000 0.032713
# 5 0.008202 -0.000752 -0.000702 0.000000 0.022155 0.000000
# 6 0.000000 0.000000 0.000000 0.032713 0.000000 0.042843
#
#
# Mechanical properties :
#
#
# Convention : Reuss Voigt Hill
#
# Bulk Modulus (GPa) = 61.19219 86.25886 73.72553
# Shear Modulus (GPa) = 26.24334 45.92017 36.08176
#
# Velocity S-wave (km/s) = 3.03190 4.01058 3.55508
# Velocity P-wave (km/s) = 5.80437 7.18754 6.53266
#
# Compressibility (1/GPa) = 0.01634195
#
# Stress axis : x y z
#
# Youngs Moduli (GPa) = 59.59191 185.29397 173.47214
#
# Poissons Ratio (x) = 0.25772 0.56716
# Poissons Ratio (y) = 0.08288 0.19773
# Poissons Ratio (z) = 0.19483 0.21120
#
# Static dielectric constant tensor:
#      x y z
#    x 2.374980 0.000000 0.058980 
#    y 0.000000 2.152350 0.000000 
#    z 0.058980 0.000000 2.109380 
# 
# From -- ./inp_files/1326.got.cif
#   From: 2010.05.17/outbox.cif.g08.bks.cpg/sg11_1_cif.got.tgz:1326.got - 2010.06.03 12:22:45.
