data_PCOD9167906
_publ_section_title
;
Structure prediction by ZEFSAII (Michael W. Deem and Ramdas Pophale) SiO2 
 PCOD9167906
Probable space group: P 21/M
;
_chemical_formula_sum "Si O2"
_cell_formula_units_Z 28
_cell_length_a 15.000000
_cell_length_b 9.000000
_cell_length_c 21.000000
_cell_angle_alpha 90.000000
_cell_angle_beta 30.000000
_cell_angle_gamma 90.000000
_cell_volume 1417.500000
_symmetry_space_group_name_H-M "P 21/M"
_symmetry_group_IT_number 11
_symmetry_cell_setting 'monoclinic'
loop_
_space_group_symop_operation_xyz
x,y,z
-x,1/2+y,-z
-x,-y,-z
x,1/2-y,z
loop_
_atom_site_type_symbol
_atom_site_label
_atom_site_fract_x
_atom_site_fract_y
_atom_site_fract_z
Si Si1 0.295857 0.080378 0.013494
Si Si2 0.970164 0.921575 0.710857
Si Si3 0.343061 0.569821 0.435122
Si Si4 0.360760 0.422538 0.162955
Si Si5 0.741832 0.928596 0.207263
Si Si6 0.120770 0.573335 0.007388
Si Si7 0.184555 0.078335 0.407695
O O1 0.332477 0.250000 0.970825
O O2 0.118513 0.078882 0.165821
O O3 0.460936 0.018493 0.952085
O O4 0.250040 0.974617 0.983746
O O5 0.982117 0.750000 0.680582
O O6 0.815745 0.988641 0.761687
O O7 0.170926 0.978413 0.583206
O O8 0.351619 0.750000 0.426872
O O9 0.536713 0.518673 0.341010
O O10 0.287083 0.506861 0.400672
O O11 0.388458 0.250000 0.124468
O O12 0.310601 0.419777 0.268221
O O13 0.735471 0.750000 0.211163
O O14 0.807982 0.988121 0.098386
O O15 0.911081 0.969076 0.147526
O O16 0.128760 0.750000 0.992257
O O17 0.148244 0.250000 0.448574
O O18 0.000000 0.000000 0.500000
#
# Coordination Sequence:
#
# PCOD9167906 Si02
#       7
#     4   4   4   4   4   4   4
#     4  11  22  35  54  78 104 141 185 220 258 313
#     4   9  19  36  54  74 105 143 179 218 265 311
#     4  10  19  36  57  78 107 139 175 218 265 316
#     4  10  20  36  55  76 105 141 178 221 271 310
#     4   9  19  35  60  86 105 134 174 215 265 321
#     4  10  20  36  56  81 112 138 168 218 270 313
#     4  11  21  33  52  78 108 139 172 212 261 313
#
# _framework density 19.753086
#
# number of rings (size 3 to 8) (size 9 to 14) (size 15 to 20)
#    0.000    2.000    1.429    2.571    0.000    4.571 
#    0.000    2.857    0.000    0.000    0.000    0.000 
#    0.000    0.000    0.000    0.000    0.000    0.000 
#
# Total GULP energy -156016.391609 kJ/mol
# GULP energy per Si atom -5572.013986 kJ/mol
# Density = 1.970813 g / cm^3
# Si number density = 19.753086 Si / 1000 Ang^3
#
#
#
# Elastic Constant Matrix: (Units=GPa)
#
#
# Indices 1 2 3 4 5 6 
#
# 1 46.8349 -5.3857 15.5832 0.0000 -29.8388 0.0000
# 2 -5.3857 9.6219 9.8612 0.0000 -11.3066 0.0000
# 3 15.5832 9.8612 101.6337 0.0000 -40.8543 0.0000
# 4 0.0000 0.0000 0.0000 18.8868 0.0000 -3.4320
# 5 -29.8388 -11.3066 -40.8543 0.0000 38.0350 0.0000
# 6 0.0000 0.0000 0.0000 -3.4320 0.0000 19.5045
#
#
#
# Elastic Compliance Matrix: (Units=1/GPa)
#
#
# Indices 1 2 3 4 5 6 
#
# 1 -0.057865 -0.139791 -0.022027 0.000000 -0.110611 0.000000
# 2 -0.139791 -0.175648 -0.046805 0.000000 -0.212156 0.000000
# 3 -0.022027 -0.046805 0.009184 0.000000 -0.021329 0.000000
# 4 0.000000 0.000000 0.000000 0.054696 0.000000 0.009624
# 5 -0.110611 -0.212156 -0.021329 0.000000 -0.146461 0.000000
# 6 0.000000 0.000000 0.000000 0.009624 0.000000 0.052964
#
#
# Mechanical properties :
#
#
# Convention : Reuss Voigt Hill
#
# Bulk Modulus (GPa) = -1.55866 22.02311 10.23222
# Shear Modulus (GPa) = -83.69280 24.48738 -29.60271
#
# Velocity S-wave (km/s) = -6.51625 3.52472 -3.87542
# Velocity P-wave (km/s) = 7.57668 5.26671 3.85148
#
# Compressibility (1/GPa) = -0.64157530
#
# Stress axis : x y z
#
# Youngs Moduli (GPa) = -17.28158 -5.69320 108.88273
#
# Poissons Ratio (x) = -0.79586 2.39836
# Poissons Ratio (y) = -2.41581 5.09629
# Poissons Ratio (z) = -0.38066 -0.26647
#
# Static dielectric constant tensor:
#      x y z
#    x 1.701500 0.000000 -0.005930 
#    y 0.000000 1.685380 0.000000 
#    z -0.005930 0.000000 1.751330 
# 
# From -- ./inp_files/37682.got.cif
#   From: 2010.05.17/outbox.ucp.g08.bks.cvg/sg11_19_cif.got.tgz:37682.got - 2010.06.11 11:38:39.
