data_PCOD9167680
_publ_section_title
;
Structure prediction by ZEFSAII (Michael W. Deem and Ramdas Pophale) SiO2 
 PCOD9167680
Probable space group: P 21/M
;
_chemical_formula_sum "Si O2"
_cell_formula_units_Z 32
_cell_length_a 16.928071
_cell_length_b 7.612587
_cell_length_c 15.827336
_cell_angle_alpha 90.000000
_cell_angle_beta 51.324078
_cell_angle_gamma 90.000000
_cell_volume 1592.311013
_symmetry_space_group_name_H-M "P 21/M"
_symmetry_group_IT_number 11
_symmetry_cell_setting 'monoclinic'
loop_
_space_group_symop_operation_xyz
x,y,z
-x,1/2+y,-z
-x,-y,-z
x,1/2-y,z
loop_
_atom_site_type_symbol
_atom_site_label
_atom_site_fract_x
_atom_site_fract_y
_atom_site_fract_z
Si Si1 0.355310 0.463181 0.043345
Si Si2 0.428285 0.041129 0.628547
Si Si3 0.560651 0.958428 0.833612
Si Si4 0.084079 0.539254 0.633163
Si Si5 0.143262 0.454277 0.226825
Si Si6 0.734951 0.538975 0.382418
Si Si7 0.602512 0.954535 0.625913
Si Si8 0.880253 0.458588 0.571859
O O1 0.353744 0.250000 0.046183
O O2 0.395396 0.529118 0.107936
O O3 0.240082 0.527204 0.112998
O O4 0.439747 0.515687 0.919618
O O5 0.425161 0.250000 0.644126
O O6 0.318870 0.977920 0.667913
O O7 0.500000 0.000000 0.500000
O O8 0.487224 0.962666 0.668406
O O9 0.579589 0.750000 0.820772
O O10 0.606836 0.033293 0.716502
O O11 0.077612 0.750000 0.627325
O O12 0.149980 0.500422 0.671273
O O13 0.140978 0.475501 0.509121
O O14 0.968985 0.469036 0.711734
O O15 0.135394 0.250000 0.208846
O O16 0.166997 0.462250 0.311856
O O17 0.722869 0.750000 0.389832
O O18 0.671244 0.466634 0.505535
O O19 0.630290 0.750000 0.613679
O O20 0.863899 0.250000 0.587244
O O21 0.000000 0.500000 0.500000
#
# Coordination Sequence:
#
# PCOD9167680 Si02
#       8
#     4   4   4   4   4   4   4   4
#     4   9  18  32  49  66  89 122 154 189 231 267
#     4   9  17  30  46  66  91 119 150 183 222 270
#     4   9  18  32  48  68  92 117 151 192 228 270
#     4   9  18  29  40  62  90 116 150 185 217 260
#     4   9  18  31  46  62  86 120 154 187 226 268
#     4   9  18  29  44  66  92 121 150 178 216 269
#     4   9  18  31  47  68  92 120 152 183 225 274
#     4   9  17  28  40  58  84 114 150 187 219 257
#
# _framework density 20.096575999999999
#
# number of rings (size 3 to 8) (size 9 to 14) (size 15 to 20)
#    0.000    3.000    0.000    2.250    1.750    6.000 
#    0.000    0.000    0.000    0.000    0.000    0.875 
#    0.000    0.000    0.000    0.000    0.000    0.000 
#
# Total GULP energy -178242.752127 kJ/mol
# GULP energy per Si atom -5570.086004 kJ/mol
# Density = 2.005084 g / cm^3
# Si number density = 20.096576 Si / 1000 Ang^3
#
#
#
# Elastic Constant Matrix: (Units=GPa)
#
#
# Indices 1 2 3 4 5 6 
#
# 1 71.6895 -2.9988 -2.4989 0.0000 -14.5216 0.0000
# 2 -2.9988 47.8252 1.6616 0.0000 0.0879 0.0000
# 3 -2.4989 1.6616 37.5172 0.0000 -12.0000 0.0000
# 4 0.0000 0.0000 0.0000 12.0727 0.0000 -1.6349
# 5 -14.5216 0.0879 -12.0000 0.0000 24.8854 0.0000
# 6 0.0000 0.0000 0.0000 -1.6349 0.0000 18.8749
#
#
#
# Elastic Compliance Matrix: (Units=1/GPa)
#
#
# Indices 1 2 3 4 5 6 
#
# 1 0.016599 0.000848 0.004925 0.000000 0.012058 0.000000
# 2 0.000848 0.020993 -0.000874 0.000000 -0.000001 0.000000
# 3 0.004925 -0.000874 0.033037 0.000000 0.018807 0.000000
# 4 0.000000 0.000000 0.000000 0.083815 0.000000 0.007260
# 5 0.012058 -0.000001 0.018807 0.000000 0.056290 0.000000
# 6 0.000000 0.000000 0.000000 0.007260 0.000000 0.053609
#
#
# Mechanical properties :
#
#
# Convention : Reuss Voigt Hill
#
# Bulk Modulus (GPa) = 12.43383 16.59551 14.51467
# Shear Modulus (GPa) = 17.77129 21.89114 19.83121
#
# Velocity S-wave (km/s) = 2.97693 3.30403 3.14474
# Velocity P-wave (km/s) = 4.24460 4.77821 4.51929
#
# Compressibility (1/GPa) = 0.08042573
#
# Stress axis : x y z
#
# Youngs Moduli (GPa) = 60.24602 47.63498 30.26933
#
# Poissons Ratio (x) = -0.04037 -0.14907
# Poissons Ratio (y) = -0.05106 0.02644
# Poissons Ratio (z) = -0.29669 0.04161
#
# Static dielectric constant tensor:
#      x y z
#    x 1.772030 0.000000 -0.014320 
#    y 0.000000 1.782780 0.000000 
#    z -0.014320 0.000000 1.712540 
# 
# From -- ./inp_files/60686.got.cif
#   From: 2010.05.17/outbox.cif.g08.bks.cpg/sg11_31_cif.got.tgz:60686.got - 2010.06.03 12:22:45.
