data_PCOD9167377
_publ_section_title
;
Structure prediction by ZEFSAII (Michael W. Deem and Ramdas Pophale) SiO2 
 PCOD9167377
Probable space group: P 21/M
;
_chemical_formula_sum "Si O2"
_cell_formula_units_Z 28
_cell_length_a 9.509049
_cell_length_b 9.164498
_cell_length_c 25.836209
_cell_angle_alpha 90.000000
_cell_angle_beta 139.382622
_cell_angle_gamma 90.000000
_cell_volume 1465.745368
_symmetry_space_group_name_H-M "P 21/M"
_symmetry_group_IT_number 11
_symmetry_cell_setting 'monoclinic'
loop_
_space_group_symop_operation_xyz
x,y,z
-x,1/2+y,-z
-x,-y,-z
x,1/2-y,z
loop_
_atom_site_type_symbol
_atom_site_label
_atom_site_fract_x
_atom_site_fract_y
_atom_site_fract_z
Si Si1 0.284829 0.075054 0.919899
Si Si2 0.841590 0.575583 0.234237
Si Si3 0.919355 0.576691 0.425048
Si Si4 0.380481 0.919512 0.512761
Si Si5 0.317435 0.582339 0.333720
Si Si6 0.405638 0.575745 0.741389
Si Si7 0.819389 0.420326 0.824558
O O1 0.301230 0.250000 0.929104
O O2 0.244316 0.044510 0.847762
O O3 0.069413 0.031865 0.891759
O O4 0.500000 0.000000 0.000000
O O5 0.817077 0.750000 0.237280
O O6 0.715844 0.484188 0.241769
O O7 0.098299 0.545056 0.303602
O O8 0.877484 0.750000 0.421306
O O9 0.719021 0.498110 0.341909
O O10 0.000000 0.500000 0.500000
O O11 0.123963 0.561609 0.443580
O O12 0.425696 0.750000 0.521140
O O13 0.500000 0.000000 0.500000
O O14 0.488053 0.981064 0.594969
O O15 0.374187 0.750000 0.361688
O O16 0.256686 0.574546 0.256680
O O17 0.395950 0.750000 0.735393
O O18 0.651683 0.518025 0.809029
O O19 0.806982 0.250000 0.837324
#
# Coordination Sequence:
#
# PCOD9167377 Si02
#       7
#     4   4   4   4   4   4   4
#     4   9  19  37  63  91 116 144 180 221 272 330
#     4   9  19  37  58  81 111 148 184 222 273 331
#     4  11  24  40  56  77 108 148 190 234 283 333
#     4  11  23  35  50  74 103 136 178 226 276 324
#     4   9  18  34  56  77  99 134 182 226 268 322
#     4  12  24  36  54  83 113 145 188 233 276 326
#     4   9  19  37  59  81 108 145 180 216 268 328
#
# _framework density 19.102909
#
# number of rings (size 3 to 8) (size 9 to 14) (size 15 to 20)
#    0.000    2.000    0.000    5.571    0.000   10.286 
#    0.000    3.571    0.000    0.000    0.000    0.000 
#    0.000    0.000    0.000    0.000    0.000    0.000 
#
# Total GULP energy -156427.431857 kJ/mol
# GULP energy per Si atom -5586.693995 kJ/mol
# Density = 1.905943 g / cm^3
# Si number density = 19.102909 Si / 1000 Ang^3
#
#
#
# Elastic Constant Matrix: (Units=GPa)
#
#
# Indices 1 2 3 4 5 6 
#
# 1 97.3445 57.2455 21.6875 0.0000 21.6822 0.0000
# 2 57.2455 83.8286 39.6230 0.0000 22.2895 0.0000
# 3 21.6875 39.6230 84.1552 0.0000 26.5303 0.0000
# 4 0.0000 0.0000 0.0000 33.6725 0.0000 0.7605
# 5 21.6822 22.2895 26.5303 0.0000 27.2106 0.0000
# 6 0.0000 0.0000 0.0000 0.7605 0.0000 25.9202
#
#
#
# Elastic Compliance Matrix: (Units=1/GPa)
#
#
# Indices 1 2 3 4 5 6 
#
# 1 0.018405 -0.012045 0.003524 0.000000 -0.008235 0.000000
# 2 -0.012045 0.024527 -0.007415 0.000000 -0.003264 0.000000
# 3 0.003524 -0.007415 0.019399 0.000000 -0.015648 0.000000
# 4 0.000000 0.000000 0.000000 0.029718 0.000000 -0.000872
# 5 -0.008235 -0.003264 -0.015648 0.000000 0.061243 0.000000
# 6 0.000000 0.000000 0.000000 -0.000872 0.000000 0.038606
#
#
# Mechanical properties :
#
#
# Convention : Reuss Voigt Hill
#
# Bulk Modulus (GPa) = 32.83019 55.82669 44.32844
# Shear Modulus (GPa) = 21.37471 27.14549 24.26010
#
# Velocity S-wave (km/s) = 3.34866 3.77372 3.56753
# Velocity P-wave (km/s) = 5.67227 6.94806 6.34233
#
# Compressibility (1/GPa) = 0.03045977
#
# Stress axis : x y z
#
# Youngs Moduli (GPa) = 54.33292 40.77155 51.54913
#
# Poissons Ratio (x) = 0.49107 -0.18166
# Poissons Ratio (y) = 0.65442 0.38224
# Poissons Ratio (z) = -0.19147 0.30233
#
# Static dielectric constant tensor:
#      x y z
#    x 1.711200 0.000000 0.008870 
#    y 0.000000 1.633360 0.000000 
#    z 0.008870 0.000000 1.668750 
# 
# From -- ./inp_files/28342.got.cif
#   From: 2010.05.17/outbox.cif.g08.bks.cpg/sg11_15_cif.got.tgz:28342.got - 2010.06.03 12:22:45.
