data_PCOD9167609
_publ_section_title
;
Structure prediction by ZEFSAII (Michael W. Deem and Ramdas Pophale) SiO2 
 PCOD9167609
Probable space group: P 21/M
;
_chemical_formula_sum "Si O2"
_cell_formula_units_Z 22
_cell_length_a 9.236491
_cell_length_b 16.060436
_cell_length_c 9.262008
_cell_angle_alpha 90.000000
_cell_angle_beta 132.354338
_cell_angle_gamma 90.000000
_cell_volume 1015.335383
_symmetry_space_group_name_H-M "P 21/M"
_symmetry_group_IT_number 11
_symmetry_cell_setting 'monoclinic'
loop_
_space_group_symop_operation_xyz
x,y,z
-x,1/2+y,-z
-x,-y,-z
x,1/2-y,z
loop_
_atom_site_type_symbol
_atom_site_label
_atom_site_fract_x
_atom_site_fract_y
_atom_site_fract_z
Si Si1 0.141049 0.919362 0.095655
Si Si2 0.515325 0.544083 0.164743
Si Si3 0.073239 0.095150 0.514058
Si Si4 0.410910 0.599048 0.555574
Si Si5 0.173580 0.344581 0.277026
Si Si6 0.198422 0.750000 0.560049
O O1 0.310100 0.920708 0.086327
O O2 0.252679 0.911421 0.321998
O O3 0.985284 0.847320 0.957692
O O4 0.000000 0.000000 0.000000
O O5 0.701688 0.604455 0.282216
O O6 0.575621 0.478081 0.328090
O O7 0.500000 0.500000 0.000000
O O8 0.078273 0.106196 0.345366
O O9 0.950666 0.173153 0.491816
O O10 0.000000 0.000000 0.500000
O O11 0.624352 0.612533 0.630598
O O12 0.353545 0.678523 0.608766
O O13 0.213647 0.250000 0.347600
#
# Coordination Sequence:
#
# PCOD9167609 Si02
#       6
#     4   4   4   4   4   2
#     4  12  26  45  78 113 147 205 260 307 388 466
#     4  12  26  46  76 114 153 200 257 316 384 461
#     4  12  25  48  76 109 156 202 248 319 389 455
#     4  12  26  50  77 112 155 200 258 323 380 460
#     4  12  26  48  77 111 157 202 258 319 386 463
#     4  12  28  44  78 110 150 200 256 312 392 448
#
# _framework density 21.667718000000001
#
# number of rings (size 3 to 8) (size 9 to 14) (size 15 to 20)
#    0.000    0.000    7.273    2.727    3.818    0.000 
#    1.636    0.909    0.000    0.000    0.000    0.000 
#    0.000    0.000    0.000    0.000    0.000    0.000 
#
# Total GULP energy -122498.705547 kJ/mol
# GULP energy per Si atom -5568.122979 kJ/mol
# Density = 2.161840 g / cm^3
# Si number density = 21.667718 Si / 1000 Ang^3
#
#
#
# Elastic Constant Matrix: (Units=GPa)
#
#
# Indices 1 2 3 4 5 6 
#
# 1 82.0404 22.3187 11.3273 0.0000 13.0636 0.0000
# 2 22.3187 99.6311 -3.0837 0.0000 1.4407 0.0000
# 3 11.3273 -3.0837 120.0529 0.0000 9.3775 0.0000
# 4 0.0000 0.0000 0.0000 18.6456 0.0000 4.0351
# 5 13.0636 1.4407 9.3775 0.0000 33.8921 0.0000
# 6 0.0000 0.0000 0.0000 4.0351 0.0000 57.3671
#
#
#
# Elastic Compliance Matrix: (Units=1/GPa)
#
#
# Indices 1 2 3 4 5 6 
#
# 1 0.013959 -0.003086 -0.001008 0.000000 -0.004970 0.000000
# 2 -0.003086 0.010736 0.000521 0.000000 0.000589 0.000000
# 3 -0.001008 0.000521 0.008595 0.000000 -0.002012 0.000000
# 4 0.000000 0.000000 0.000000 0.054461 0.000000 -0.003831
# 5 -0.004970 0.000589 -0.002012 0.000000 0.031953 0.000000
# 6 0.000000 0.000000 0.000000 -0.003831 0.000000 0.017701
#
#
# Mechanical properties :
#
#
# Convention : Reuss Voigt Hill
#
# Bulk Modulus (GPa) = 38.25033 40.31655 39.28344
# Shear Modulus (GPa) = 32.62272 40.05843 36.34058
#
# Velocity S-wave (km/s) = 3.88440 4.30439 4.09978
# Velocity P-wave (km/s) = 6.14895 6.58413 6.37026
#
# Compressibility (1/GPa) = 0.02614356
#
# Stress axis : x y z
#
# Youngs Moduli (GPa) = 71.63618 93.14425 116.34259
#
# Poissons Ratio (x) = 0.28748 0.11729
# Poissons Ratio (y) = 0.22110 -0.06061
# Poissons Ratio (z) = 0.07222 -0.04852
#
# Static dielectric constant tensor:
#      x y z
#    x 1.846310 0.000000 -0.008310 
#    y 0.000000 1.537840 0.000000 
#    z -0.008310 0.000000 1.842080 
# 
# From -- ./inp_files/13435.got.cif
#   From: 2010.05.17/outbox.cif.g08.bks.cpg/sg11_7_cif.got.tgz:13435.got - 2010.06.03 12:22:45.
