data_PCOD9167738
_publ_section_title
;
Structure prediction by ZEFSAII (Michael W. Deem and Ramdas Pophale) SiO2 
 PCOD9167738
Probable space group: P 21/M
;
_chemical_formula_sum "Si O2"
_cell_formula_units_Z 32
_cell_length_a 30.000000
_cell_length_b 9.000000
_cell_length_c 21.000000
_cell_angle_alpha 90.000000
_cell_angle_beta 20.000000
_cell_angle_gamma 90.000000
_cell_volume 1939.254213
_symmetry_space_group_name_H-M "P 21/M"
_symmetry_group_IT_number 11
_symmetry_cell_setting 'monoclinic'
loop_
_space_group_symop_operation_xyz
x,y,z
-x,1/2+y,-z
-x,-y,-z
x,1/2-y,z
loop_
_atom_site_type_symbol
_atom_site_label
_atom_site_fract_x
_atom_site_fract_y
_atom_site_fract_z
Si Si1 0.093038 0.569570 0.686837
Si Si2 0.342017 0.928758 0.650954
Si Si3 0.906466 0.930048 0.817570
Si Si4 0.352878 0.571533 0.128976
Si Si5 0.627473 0.428534 0.747055
Si Si6 0.060030 0.930457 0.483147
Si Si7 0.949175 0.070502 0.002436
Si Si8 0.366078 0.429399 0.758323
O O1 0.089128 0.750000 0.698990
O O2 0.243346 0.528581 0.466978
O O3 0.999266 0.529576 0.752834
O O4 0.032833 0.494582 0.830738
O O5 0.343268 0.750000 0.657643
O O6 0.481962 0.968793 0.430269
O O7 0.341664 0.005459 0.720653
O O8 0.205199 0.966205 0.800538
O O9 0.905076 0.750000 0.817646
O O10 0.975014 0.977391 0.659505
O O11 0.756411 0.978100 0.032995
O O12 0.364430 0.750000 0.108212
O O13 0.346453 0.535374 0.213293
O O14 0.212928 0.527763 0.287239
O O15 0.485686 0.499623 0.922910
O O16 0.615947 0.250000 0.757545
O O17 0.055339 0.750000 0.486254
O O18 0.000000 0.000000 0.500000
O O19 0.960933 0.250000 0.988066
O O20 0.000000 0.000000 0.000000
O O21 0.360344 0.250000 0.763253
#
# Coordination Sequence:
#
# PCOD9167738 Si02
#       8
#     4   4   4   4   4   4   4   4
#     4  10  18  33  56  80 102 130 174 220 262 310
#     4   9  18  31  48  76 107 130 162 210 256 297
#     4   9  16  30  54  78 100 131 172 211 254 310
#     4   9  17  31  50  73 105 139 170 210 262 313
#     4   9  17  30  52  79 103 129 168 217 262 308
#     4  10  20  35  52  74 106 142 176 214 260 310
#     4  11  23  37  52  74 108 144 176 213 259 310
#     4   9  16  29  53  78  99 129 167 207 255 307
#
# _framework density 16.501189
#
# number of rings (size 3 to 8) (size 9 to 14) (size 15 to 20)
#    0.000    2.500    2.500    0.375    0.000    1.500 
#    0.000    2.500    0.000    3.000    0.000    0.000 
#    0.000    0.000    0.000    0.000    0.000    0.000 
#
# Total GULP energy -178264.744618 kJ/mol
# GULP energy per Si atom -5570.773269 kJ/mol
# Density = 1.646363 g / cm^3
# Si number density = 16.501189 Si / 1000 Ang^3
#
#
#
# Elastic Constant Matrix: (Units=GPa)
#
#
# Indices 1 2 3 4 5 6 
#
# 1 115.3725 28.8502 85.5220 0.0000 -5.0545 0.0000
# 2 28.8502 23.5899 37.2629 0.0000 -3.4758 0.0000
# 3 85.5220 37.2629 207.9318 0.0000 -12.1061 0.0000
# 4 0.0000 0.0000 0.0000 30.1826 0.0000 0.5080
# 5 -5.0545 -3.4758 -12.1061 0.0000 31.8668 0.0000
# 6 0.0000 0.0000 0.0000 0.5080 0.0000 25.6681
#
#
#
# Elastic Compliance Matrix: (Units=1/GPa)
#
#
# Indices 1 2 3 4 5 6 
#
# 1 0.014419 -0.011565 -0.003884 0.000000 -0.000450 0.000000
# 2 -0.011565 0.068598 -0.007371 0.000000 0.002848 0.000000
# 3 -0.003884 -0.007371 0.007818 0.000000 0.001550 0.000000
# 4 0.000000 0.000000 0.000000 0.033143 0.000000 -0.000656
# 5 -0.000450 0.002848 0.001550 0.000000 0.032209 0.000000
# 6 0.000000 0.000000 0.000000 -0.000656 0.000000 0.038972
#
#
# Mechanical properties :
#
#
# Convention : Reuss Voigt Hill
#
# Bulk Modulus (GPa) = 22.12659 72.24051 47.18355
# Shear Modulus (GPa) = 19.54173 30.56078 25.05125
#
# Velocity S-wave (km/s) = 3.44504 4.30820 3.90057
# Velocity P-wave (km/s) = 5.40950 8.28380 6.99586
#
# Compressibility (1/GPa) = 0.04519448
#
# Stress axis : x y z
#
# Youngs Moduli (GPa) = 69.35242 14.57778 127.91096
#
# Poissons Ratio (x) = 0.16860 0.49683
# Poissons Ratio (y) = 0.80208 0.94279
# Poissons Ratio (z) = 0.26938 0.10745
#
# Static dielectric constant tensor:
#      x y z
#    x 1.533520 0.000000 -0.012900 
#    y 0.000000 1.554440 0.000000 
#    z -0.012900 0.000000 1.581380 
# 
# From -- ./inp_files/54332.got.cif
#   From: 2010.05.17/outbox.ucp.g08.bks.cvg/sg11_28_cif.got.tgz:54332.got - 2010.06.11 11:38:39.
