data_PCOD9167215
_publ_section_title
;
Structure prediction by ZEFSAII (Michael W. Deem and Ramdas Pophale) SiO2 
 PCOD9167215
Probable space group: P 21/M
;
_chemical_formula_sum "Si O2"
_cell_formula_units_Z 32
_cell_length_a 11.055103
_cell_length_b 18.140051
_cell_length_c 14.128171
_cell_angle_alpha 90.000000
_cell_angle_beta 30.048637
_cell_angle_gamma 90.000000
_cell_volume 1418.714999
_symmetry_space_group_name_H-M "P 21/M"
_symmetry_group_IT_number 11
_symmetry_cell_setting 'monoclinic'
loop_
_space_group_symop_operation_xyz
x,y,z
-x,1/2+y,-z
-x,-y,-z
x,1/2-y,z
loop_
_atom_site_type_symbol
_atom_site_label
_atom_site_fract_x
_atom_site_fract_y
_atom_site_fract_z
Si Si1 0.852232 0.166014 0.852373
Si Si2 0.912870 0.931235 0.453082
Si Si3 0.911821 0.104833 0.470396
Si Si4 0.575784 0.836893 0.297388
Si Si5 0.385471 0.579857 0.596500
Si Si6 0.832142 0.574583 0.975161
Si Si7 0.358973 0.585354 0.837955
Si Si8 0.633235 0.665944 0.942646
O O1 0.935279 0.250000 0.787089
O O2 0.037398 0.109573 0.678869
O O3 0.782234 0.146123 0.006649
O O4 0.604039 0.156726 0.960352
O O5 0.081129 0.896553 0.420463
O O6 0.641129 0.919364 0.673791
O O7 0.951833 0.018601 0.417349
O O8 0.131604 0.152803 0.281606
O O9 0.663164 0.134188 0.595955
O O10 0.596180 0.750000 0.277178
O O11 0.536591 0.863274 0.431229
O O12 0.792975 0.877130 0.096198
O O13 0.500000 0.500000 0.500000
O O14 0.369353 0.594799 0.718650
O O15 0.105960 0.579589 0.754258
O O16 0.760335 0.492293 0.052306
O O17 0.664320 0.608360 0.006846
O O18 0.634782 0.750000 0.979134
#
# Coordination Sequence:
#
# PCOD9167215 Si02
#       8
#     4   4   4   4   4   4   4   4
#     4  11  27  45  67 102 144 189 233 287 355 426
#     4  11  24  42  70 102 139 185 229 283 350 424
#     4  11  21  41  68 106 141 178 230 285 349 428
#     4  12  26  45  73 110 144 182 234 298 359 413
#     4  12  27  48  74 102 136 184 239 294 354 414
#     4  12  25  44  75 104 136 183 235 294 354 419
#     4  12  26  45  71  97 137 183 237 287 341 426
#     4  11  23  41  67 104 147 182 223 287 359 419
#
# _framework density 22.555623000000001
#
# number of rings (size 3 to 8) (size 9 to 14) (size 15 to 20)
#    0.000    0.500    5.000    2.625    3.500    4.500 
#    0.000    1.250    0.000    0.000    0.000    0.000 
#    0.000    0.000    0.000    0.000    0.000    0.000 
#
# Total GULP energy -179257.236032 kJ/mol
# GULP energy per Si atom -5601.788626 kJ/mol
# Density = 2.250429 g / cm^3
# Si number density = 22.555623 Si / 1000 Ang^3
#
#
#
# Elastic Constant Matrix: (Units=GPa)
#
#
# Indices 1 2 3 4 5 6 
#
# 1 69.9547 6.5028 0.0666 0.0000 24.9290 0.0000
# 2 6.5028 69.0503 22.7761 0.0000 3.5129 0.0000
# 3 0.0666 22.7761 100.6636 0.0000 16.3670 0.0000
# 4 0.0000 0.0000 0.0000 -52.3064 0.0000 -27.4180
# 5 24.9290 3.5129 16.3670 0.0000 37.5290 0.0000
# 6 0.0000 0.0000 0.0000 -27.4180 0.0000 3.6284
#
#
#
# Elastic Compliance Matrix: (Units=1/GPa)
#
#
# Indices 1 2 3 4 5 6 
#
# 1 0.019432 -0.002014 0.002703 0.000000 -0.013898 0.000000
# 2 -0.002014 0.015859 -0.003835 0.000000 0.001526 0.000000
# 3 0.002703 -0.003835 0.011876 0.000000 -0.006615 0.000000
# 4 0.000000 0.000000 0.000000 -0.003854 0.000000 -0.029120
# 5 -0.013898 0.001526 -0.006615 0.000000 0.038620 0.000000
# 6 0.000000 0.000000 0.000000 -0.029120 0.000000 0.055554
#
#
# Mechanical properties :
#
#
# Convention : Reuss Voigt Hill
#
# Bulk Modulus (GPa) = 24.46568 33.15104 28.80836
# Shear Modulus (GPa) = 31.76491 11.79175 21.77833
#
# Velocity S-wave (km/s) = 3.75679 2.28893 3.11068
# Velocity P-wave (km/s) = 5.44870 4.65993 5.06968
#
# Compressibility (1/GPa) = 0.04087358
#
# Stress axis : x y z
#
# Youngs Moduli (GPa) = 51.46036 63.05461 84.20606
#
# Poissons Ratio (x) = 0.12702 -0.22758
# Poissons Ratio (y) = 0.10366 0.32294
# Poissons Ratio (z) = -0.13908 0.24182
#
# Static dielectric constant tensor:
#      x y z
#    x 1.909030 0.000000 -0.015080 
#    y 0.000000 1.765450 0.000000 
#    z -0.015080 0.000000 1.805470 
# 
# From -- ./inp_files/50675.got.cif
#   From: 2010.05.17/outbox.cif.g08.bks.cpg/sg11_26_cif.got.tgz:50675.got - 2010.06.03 12:22:45.
