data_PCOD9167543
_publ_section_title
;
Structure prediction by ZEFSAII (Michael W. Deem and Ramdas Pophale) SiO2 
 PCOD9167543
Probable space group: P 21/M
;
_chemical_formula_sum "Si O2"
_cell_formula_units_Z 26
_cell_length_a 12.080202
_cell_length_b 20.173461
_cell_length_c 5.094920
_cell_angle_alpha 90.000000
_cell_angle_beta 121.553110
_cell_angle_gamma 90.000000
_cell_volume 1058.061265
_symmetry_space_group_name_H-M "P 21/M"
_symmetry_group_IT_number 11
_symmetry_cell_setting 'monoclinic'
loop_
_space_group_symop_operation_xyz
x,y,z
-x,1/2+y,-z
-x,-y,-z
x,1/2-y,z
loop_
_atom_site_type_symbol
_atom_site_label
_atom_site_fract_x
_atom_site_fract_y
_atom_site_fract_z
Si Si1 0.675087 0.018140 0.819288
Si Si2 0.366603 0.138482 0.207132
Si Si3 0.046072 0.558991 0.878124
Si Si4 0.113352 0.343804 0.561552
Si Si5 0.872166 0.176560 0.630320
Si Si6 0.385124 0.600720 0.777647
Si Si7 0.270970 0.250000 0.408300
O O1 0.651059 0.051380 0.507788
O O2 0.655106 0.939675 0.770819
O O3 0.821611 0.035412 0.089712
O O4 0.590667 0.056492 0.933766
O O5 0.490012 0.140423 0.169480
O O6 0.373271 0.190133 0.452297
O O7 0.237539 0.165087 0.900666
O O8 0.926043 0.581296 0.551742
O O9 0.082612 0.623232 0.097585
O O10 0.000000 0.500000 0.000000
O O11 0.162144 0.306444 0.365152
O O12 0.984801 0.320271 0.551277
O O13 0.853676 0.250000 0.719183
O O14 0.737673 0.149403 0.343224
#
# Coordination Sequence:
#
# PCOD9167543 Si02
#       7
#     4   4   4   4   4   4   2
#     4  11  25  50  79 114 150 202 256 321 384 453
#     4  12  29  47  74 111 155 196 261 313 390 462
#     4  11  25  44  76 112 151 195 258 316 388 454
#     4  12  25  45  76 102 152 193 254 310 386 454
#     4  11  25  47  72 108 146 199 252 317 383 460
#     4  11  27  51  79 113 150 202 257 318 386 458
#     4  12  28  46  66 110 148 206 244 314 386 458
#
# _framework density 24.573246999999999
#
# number of rings (size 3 to 8) (size 9 to 14) (size 15 to 20)
#    0.000    0.615    2.308    4.154   12.923    1.231 
#    0.000    0.000    0.000    0.000    0.000    0.000 
#    0.000    0.000    0.000    0.000    0.000    0.000 
#
# Total GULP energy -145057.409339 kJ/mol
# GULP energy per Si atom -5579.131128 kJ/mol
# Density = 2.451732 g / cm^3
# Si number density = 24.573247 Si / 1000 Ang^3
#
#
#
# Elastic Constant Matrix: (Units=GPa)
#
#
# Indices 1 2 3 4 5 6 
#
# 1 180.3888 62.1718 8.0939 0.0000 14.6561 0.0000
# 2 62.1718 164.4247 32.6353 0.0000 2.3193 0.0000
# 3 8.0939 32.6353 36.4321 0.0000 -2.8170 0.0000
# 4 0.0000 0.0000 0.0000 38.9504 0.0000 -31.4618
# 5 14.6561 2.3193 -2.8170 0.0000 26.2082 0.0000
# 6 0.0000 0.0000 0.0000 -31.4618 0.0000 17.6943
#
#
#
# Elastic Compliance Matrix: (Units=1/GPa)
#
#
# Indices 1 2 3 4 5 6 
#
# 1 0.006693 -0.002595 0.000571 0.000000 -0.003452 0.000000
# 2 -0.002595 0.008453 -0.006999 0.000000 -0.000049 0.000000
# 3 0.000571 -0.006999 0.033896 0.000000 0.003943 0.000000
# 4 0.000000 0.000000 0.000000 -0.058854 0.000000 -0.104647
# 5 -0.003452 -0.000049 0.003943 0.000000 0.040514 0.000000
# 6 0.000000 0.000000 0.000000 -0.104647 0.000000 -0.129556
#
#
# Mechanical properties :
#
#
# Convention : Reuss Voigt Hill
#
# Bulk Modulus (GPa) = 32.26326 65.22750 48.74538
# Shear Modulus (GPa) = -70.94757 35.12690 -17.91034
#
# Velocity S-wave (km/s) = -5.37908 3.78494 -2.70266
# Velocity P-wave (km/s) = 5.04197 6.76039 3.18444
#
# Compressibility (1/GPa) = 0.03099501
#
# Stress axis : x y z
#
# Youngs Moduli (GPa) = 149.41192 118.29984 29.50177
#
# Poissons Ratio (x) = 0.30703 -0.01685
# Poissons Ratio (y) = 0.38778 0.20649
# Poissons Ratio (z) = -0.08533 0.82802
#
# Static dielectric constant tensor:
#      x y z
#    x 1.969640 0.000000 -0.017780 
#    y 0.000000 1.928790 0.000000 
#    z -0.017780 0.000000 2.051240 
# 
# From -- ./inp_files/5120.got.cif
#   From: 2010.05.17/outbox.cif.g08.bks.cpg/sg11_3_cif.got.tgz:5120.got - 2010.06.03 12:22:45.
