data_PCOD9167970
_publ_section_title
;
Structure prediction by ZEFSAII (Michael W. Deem and Ramdas Pophale) SiO2 
 PCOD9167970
Probable space group: P 21/M
;
_chemical_formula_sum "Si O2"
_cell_formula_units_Z 28
_cell_length_a 21.000000
_cell_length_b 9.000000
_cell_length_c 15.000000
_cell_angle_alpha 90.000000
_cell_angle_beta 30.000000
_cell_angle_gamma 90.000000
_cell_volume 1417.500000
_symmetry_space_group_name_H-M "P 21/M"
_symmetry_group_IT_number 11
_symmetry_cell_setting 'monoclinic'
loop_
_space_group_symop_operation_xyz
x,y,z
-x,1/2+y,-z
-x,-y,-z
x,1/2-y,z
loop_
_atom_site_type_symbol
_atom_site_label
_atom_site_fract_x
_atom_site_fract_y
_atom_site_fract_z
Si Si1 0.913430 0.427525 0.680186
Si Si2 0.820301 0.071050 0.369709
Si Si3 0.646260 0.427949 0.920366
Si Si4 0.648338 0.928644 0.237211
Si Si5 0.624949 0.429021 0.459190
Si Si6 0.644508 0.573182 0.728999
Si Si7 0.930594 0.929038 0.843068
O O1 0.923812 0.250000 0.666367
O O2 0.764499 0.466368 0.841131
O O3 0.964850 0.492617 0.709873
O O4 0.000000 0.500000 0.500000
O O5 0.815121 0.250000 0.375240
O O6 0.738578 0.016876 0.384494
O O7 0.968198 0.029075 0.202951
O O8 0.744192 0.010561 0.546585
O O9 0.653169 0.250000 0.895117
O O10 0.659855 0.514688 0.810905
O O11 0.501048 0.459212 0.126204
O O12 0.649045 0.750000 0.245720
O O13 0.520819 0.967486 0.336299
O O14 0.638160 0.002483 0.345946
O O15 0.785143 0.974090 0.035436
O O16 0.632450 0.250000 0.445337
O O17 0.663555 0.750000 0.702524
O O18 0.935300 0.750000 0.827476
#
# Coordination Sequence:
#
# PCOD9167970 Si02
#       7
#     4   4   4   4   4   4   4
#     4  11  23  38  56  79 110 148 188 229 275 324
#     4  10  21  36  54  79 112 147 178 222 276 324
#     4   9  20  37  53  74 106 143 180 227 279 322
#     4   9  19  37  58  82 110 142 182 226 272 326
#     4   9  19  36  58  82 109 144 182 223 274 328
#     4  10  20  34  54  80 107 138 183 229 271 324
#     4  10  22  38  56  81 114 148 184 227 275 326
#
# _framework density 19.753086
#
# number of rings (size 3 to 8) (size 9 to 14) (size 15 to 20)
#    0.000    2.286    0.000    1.714    2.000    7.429 
#    0.000    0.000    0.000    0.000    0.000    0.000 
#    0.000    0.000    0.000    0.000    0.000    0.000 
#
# Total GULP energy -156146.865800 kJ/mol
# GULP energy per Si atom -5576.673779 kJ/mol
# Density = 1.970813 g / cm^3
# Si number density = 19.753086 Si / 1000 Ang^3
#
#
#
# Elastic Constant Matrix: (Units=GPa)
#
#
# Indices 1 2 3 4 5 6 
#
# 1 121.4795 15.5680 34.3791 0.0000 -24.5014 0.0000
# 2 15.5680 -16.7524 12.5082 0.0000 -9.3242 0.0000
# 3 34.3791 12.5082 60.9153 0.0000 -11.8989 0.0000
# 4 0.0000 0.0000 0.0000 15.7677 0.0000 2.9251
# 5 -24.5014 -9.3242 -11.8989 0.0000 23.9795 0.0000
# 6 0.0000 0.0000 0.0000 2.9251 0.0000 25.3965
#
#
#
# Elastic Compliance Matrix: (Units=1/GPa)
#
#
# Indices 1 2 3 4 5 6 
#
# 1 0.011383 0.001512 -0.004815 0.000000 0.009830 0.000000
# 2 0.001512 -0.046295 0.006022 0.000000 -0.013468 0.000000
# 3 -0.004815 0.006022 0.019260 0.000000 0.006979 0.000000
# 4 0.000000 0.000000 0.000000 0.064805 0.000000 -0.007464
# 5 0.009830 -0.013468 0.006979 0.000000 0.049972 0.000000
# 6 0.000000 0.000000 0.000000 -0.007464 0.000000 0.040235
#
#
# Mechanical properties :
#
#
# Convention : Reuss Voigt Hill
#
# Bulk Modulus (GPa) = -97.91443 32.28368 -32.81538
# Shear Modulus (GPa) = 38.30879 19.90788 29.10834
#
# Velocity S-wave (km/s) = 4.40862 3.17809 3.84293
# Velocity P-wave (km/s) = 4.87465 5.46316 1.74411
#
# Compressibility (1/GPa) = -0.01021300
#
# Stress axis : x y z
#
# Youngs Moduli (GPa) = 87.84836 -21.60051 51.92013
#
# Poissons Ratio (x) = 0.03267 0.24999
# Poissons Ratio (y) = -0.13285 -0.31266
# Poissons Ratio (z) = 0.42298 0.13008
#
# Static dielectric constant tensor:
#      x y z
#    x 1.687530 0.000000 -0.054100 
#    y 0.000000 1.645390 0.000000 
#    z -0.054100 0.000000 1.715730 
# 
# From -- ./inp_files/54499.got.cif
#   From: 2010.05.17/outbox.ucp.g08.bks.cvg/sg11_28_cif.got.tgz:54499.got - 2010.06.11 11:38:39.
