data_PCOD9167951
_publ_section_title
;
Structure prediction by ZEFSAII (Michael W. Deem and Ramdas Pophale) SiO2 
 PCOD9167951
Probable space group: P 21/M
;
_chemical_formula_sum "Si O2"
_cell_formula_units_Z 32
_cell_length_a 21.000000
_cell_length_b 9.000000
_cell_length_c 12.000000
_cell_angle_alpha 90.000000
_cell_angle_beta 130.000000
_cell_angle_gamma 90.000000
_cell_volume 1737.388797
_symmetry_space_group_name_H-M "P 21/M"
_symmetry_group_IT_number 11
_symmetry_cell_setting 'monoclinic'
loop_
_space_group_symop_operation_xyz
x,y,z
-x,1/2+y,-z
-x,-y,-z
x,1/2-y,z
loop_
_atom_site_type_symbol
_atom_site_label
_atom_site_fract_x
_atom_site_fract_y
_atom_site_fract_z
Si Si1 0.035180 0.082123 0.647949
Si Si2 0.325484 0.081700 0.508606
Si Si3 0.151699 0.079792 0.174189
Si Si4 0.414424 0.923769 0.429090
Si Si5 0.768385 0.929226 0.383749
Si Si6 0.233217 0.419255 0.859480
Si Si7 0.745430 0.426333 0.888282
Si Si8 0.931797 0.929848 0.704338
O O1 0.002168 0.250000 0.615247
O O2 0.133529 0.089050 0.747673
O O3 0.000000 0.000000 0.500000
O O4 0.010596 0.995194 0.731536
O O5 0.358010 0.250000 0.534887
O O6 0.236139 0.081399 0.344709
O O7 0.304170 0.045129 0.610636
O O8 0.385176 0.965468 0.519337
O O9 0.132339 0.250000 0.122244
O O10 0.084293 0.020921 0.186776
O O11 0.176657 0.990193 0.093419
O O12 0.422009 0.750000 0.421875
O O13 0.338749 0.979448 0.267080
O O14 0.500000 0.000000 0.500000
O O15 0.778054 0.750000 0.382603
O O16 0.747089 0.986906 0.238550
O O17 0.854544 0.978739 0.537875
O O18 0.265487 0.250000 0.907085
O O19 0.258087 0.516390 0.991319
O O20 0.749020 0.250000 0.886359
O O21 0.932694 0.750000 0.706695
#
# Coordination Sequence:
#
# PCOD9167951 Si02
#       8
#     4   4   4   4   4   4   4   4
#     4  11  21  32  48  71 100 133 172 217 258 298
#     4   8  14  27  50  76 100 127 161 200 244 291
#     4   8  15  29  51  72  94 130 167 203 250 306
#     4  10  20  34  54  80 107 130 157 198 244 292
#     4   8  14  28  49  72  98 130 167 206 246 293
#     4  10  20  34  51  70  99 138 175 206 245 304
#     4  10  21  35  51  75 105 130 162 209 250 292
#     4   9  16  30  50  72  98 126 167 217 259 299
#
# _framework density 18.418444999999998
#
# number of rings (size 3 to 8) (size 9 to 14) (size 15 to 20)
#    0.000    2.750    1.250    2.625    0.000    3.000 
#    0.000    3.125    0.000    0.750    0.000    0.000 
#    0.000    0.000    0.000    0.000    0.000    0.000 
#
# Total GULP energy -178238.387743 kJ/mol
# GULP energy per Si atom -5569.949617 kJ/mol
# Density = 1.837652 g / cm^3
# Si number density = 18.418445 Si / 1000 Ang^3
#
#
#
# Elastic Constant Matrix: (Units=GPa)
#
#
# Indices 1 2 3 4 5 6 
#
# 1 22.0526 0.4958 36.0576 0.0000 -9.7697 0.0000
# 2 0.4958 8.5019 21.9761 0.0000 -0.2359 0.0000
# 3 36.0576 21.9761 57.4075 0.0000 -25.2981 0.0000
# 4 0.0000 0.0000 0.0000 14.4293 0.0000 1.6101
# 5 -9.7697 -0.2359 -25.2981 0.0000 18.8131 0.0000
# 6 0.0000 0.0000 0.0000 1.6101 0.0000 19.1504
#
#
#
# Elastic Compliance Matrix: (Units=1/GPa)
#
#
# Indices 1 2 3 4 5 6 
#
# 1 0.031117 -0.056139 0.021492 0.000000 0.044356 0.000000
# 2 -0.056139 0.014759 0.041347 0.000000 0.026631 0.000000
# 3 0.021492 0.041347 -0.016595 0.000000 -0.010636 0.000000
# 4 0.000000 0.000000 0.000000 0.069960 0.000000 -0.005882
# 5 0.044356 0.026631 -0.010636 0.000000 0.062220 0.000000
# 6 0.000000 0.000000 0.000000 -0.005882 0.000000 0.052713
#
#
# Mechanical properties :
#
#
# Convention : Reuss Voigt Hill
#
# Bulk Modulus (GPa) = 23.42907 22.78014 23.10461
# Shear Modulus (GPa) = 23.25581 12.44073 17.84827
#
# Velocity S-wave (km/s) = 3.55722 2.60176 3.11632
# Velocity P-wave (km/s) = 5.44240 4.62823 5.05175
#
# Compressibility (1/GPa) = 0.04268202
#
# Stress axis : x y z
#
# Youngs Moduli (GPa) = 32.13656 67.75718 -60.25954
#
# Poissons Ratio (x) = 3.80379 1.29512
# Poissons Ratio (y) = 1.80410 2.49153
# Poissons Ratio (z) = -0.69069 -2.80154
#
# Static dielectric constant tensor:
#      x y z
#    x 1.622100 0.000000 0.010700 
#    y 0.000000 1.635300 0.000000 
#    z 0.010700 0.000000 1.618980 
# 
# From -- ./inp_files/40627.got.cif
#   From: 2010.05.17/outbox.ucp.g08.bks.cvg/sg11_21_cif.got.tgz:40627.got - 2010.06.11 11:38:39.
