data_PCOD9167030
_publ_section_title
;
Structure prediction by ZEFSAII (Michael W. Deem and Ramdas Pophale) SiO2 
 PCOD9167030
Probable space group: P 21/M
;
_chemical_formula_sum "Si O2"
_cell_formula_units_Z 32
_cell_length_a 11.849698
_cell_length_b 14.606286
_cell_length_c 14.880407
_cell_angle_alpha 90.000000
_cell_angle_beta 140.159891
_cell_angle_gamma 90.000000
_cell_volume 1649.988578
_symmetry_space_group_name_H-M "P 21/M"
_symmetry_group_IT_number 11
_symmetry_cell_setting 'monoclinic'
loop_
_space_group_symop_operation_xyz
x,y,z
-x,1/2+y,-z
-x,-y,-z
x,1/2-y,z
loop_
_atom_site_type_symbol
_atom_site_label
_atom_site_fract_x
_atom_site_fract_y
_atom_site_fract_z
Si Si1 0.995283 0.152906 0.240719
Si Si2 0.368482 0.143505 0.226334
Si Si3 0.782620 0.355178 0.457919
Si Si4 0.701556 0.145052 0.916954
Si Si5 0.304460 0.855103 0.791249
Si Si6 0.828719 0.471474 0.836797
Si Si7 0.361275 0.460248 0.032124
Si Si8 0.963986 0.457719 0.727497
O O1 0.088947 0.250000 0.304337
O O2 0.838979 0.150513 0.218918
O O3 0.101869 0.062181 0.322575
O O4 0.893243 0.146879 0.083287
O O5 0.310129 0.250000 0.199935
O O6 0.579523 0.141416 0.365806
O O7 0.335586 0.103738 0.105428
O O8 0.279876 0.066798 0.235150
O O9 0.839006 0.250000 0.486725
O O10 0.778843 0.390930 0.353057
O O11 0.901809 0.403919 0.603421
O O12 0.635411 0.250000 0.880690
O O13 0.726104 0.104052 0.832871
O O14 0.603518 0.063707 0.911142
O O15 0.365551 0.750000 0.811092
O O16 0.472239 0.916897 0.915929
O O17 0.886562 0.430335 0.776990
O O18 0.000000 0.500000 0.000000
O O19 0.176077 0.458583 0.867052
#
# Coordination Sequence:
#
# PCOD9167030 Si02
#       8
#     4   4   4   4   4   4   4   4
#     4   9  18  33  54  77 102 136 177 212 257 317
#     4   9  18  34  55  73  99 140 177 209 253 312
#     4   9  20  36  51  74 104 134 170 213 261 309
#     4   9  18  31  47  72 106 137 167 209 256 304
#     4   9  18  35  57  76 101 138 174 212 259 317
#     4  11  19  34  49  79 107 134 174 215 259 306
#     4   9  17  32  51  78 103 130 176 216 258 306
#     4  11  21  32  51  80 108 133 170 223 264 298
#
# _framework density 19.394072999999999
#
# number of rings (size 3 to 8) (size 9 to 14) (size 15 to 20)
#    0.000    2.500    3.750    1.125    0.000    5.500 
#    0.000    0.000    0.000    7.500    0.000    3.500 
#    0.000    0.000    0.000    0.000    0.000    0.000 
#
# Total GULP energy -178298.177056 kJ/mol
# GULP energy per Si atom -5571.818033 kJ/mol
# Density = 1.934993 g / cm^3
# Si number density = 19.394073 Si / 1000 Ang^3
#
#
#
# Elastic Constant Matrix: (Units=GPa)
#
#
# Indices 1 2 3 4 5 6 
#
# 1 52.8117 15.6807 16.6331 0.0000 -14.0287 0.0000
# 2 15.6807 108.4741 37.7745 0.0000 -8.8632 0.0000
# 3 16.6331 37.7745 71.5204 0.0000 -15.2720 0.0000
# 4 0.0000 0.0000 0.0000 23.1392 0.0000 -0.2572
# 5 -14.0287 -8.8632 -15.2720 0.0000 14.8382 0.0000
# 6 0.0000 0.0000 0.0000 -0.2572 0.0000 20.4621
#
#
#
# Elastic Compliance Matrix: (Units=1/GPa)
#
#
# Indices 1 2 3 4 5 6 
#
# 1 0.025621 -0.001788 -0.000089 0.000000 0.023063 0.000000
# 2 -0.001788 0.011428 -0.005798 0.000000 -0.000831 0.000000
# 3 -0.000089 -0.005798 0.020901 0.000000 0.017964 0.000000
# 4 0.000000 0.000000 0.000000 0.043223 0.000000 0.000543
# 5 0.023063 -0.000831 0.017964 0.000000 0.107191 0.000000
# 6 0.000000 0.000000 0.000000 0.000543 0.000000 0.048878
#
#
# Mechanical properties :
#
#
# Convention : Reuss Voigt Hill
#
# Bulk Modulus (GPa) = 23.47444 41.44253 32.45848
# Shear Modulus (GPa) = 17.43428 22.53576 19.98502
#
# Velocity S-wave (km/s) = 3.00150 3.41250 3.21358
# Velocity P-wave (km/s) = 4.91347 6.07799 5.52649
#
# Compressibility (1/GPa) = 0.04259952
#
# Stress axis : x y z
#
# Youngs Moduli (GPa) = 39.03118 87.50209 47.84479
#
# Poissons Ratio (x) = 0.15646 0.00427
# Poissons Ratio (y) = 0.06979 0.27739
# Poissons Ratio (z) = 0.00349 0.50731
#
# Static dielectric constant tensor:
#      x y z
#    x 1.738860 0.000000 -0.011620 
#    y 0.000000 1.729070 0.000000 
#    z -0.011620 0.000000 1.650390 
# 
# From -- ./inp_files/50397.got.cif
#   From: 2010.05.17/outbox.cif.g08.bks.cpg/sg11_26_cif.got.tgz:50397.got - 2010.06.03 12:22:45.
