data_PCOD9167945
_publ_section_title
;
Structure prediction by ZEFSAII (Michael W. Deem and Ramdas Pophale) SiO2 
 PCOD9167945
Probable space group: P 21/M
;
_chemical_formula_sum "Si O2"
_cell_formula_units_Z 28
_cell_length_a 27.000000
_cell_length_b 9.000000
_cell_length_c 9.000000
_cell_angle_alpha 90.000000
_cell_angle_beta 40.000000
_cell_angle_gamma 90.000000
_cell_volume 1405.776502
_symmetry_space_group_name_H-M "P 21/M"
_symmetry_group_IT_number 11
_symmetry_cell_setting 'monoclinic'
loop_
_space_group_symop_operation_xyz
x,y,z
-x,1/2+y,-z
-x,-y,-z
x,1/2-y,z
loop_
_atom_site_type_symbol
_atom_site_label
_atom_site_fract_x
_atom_site_fract_y
_atom_site_fract_z
Si Si1 0.747318 0.074865 0.588537
Si Si2 0.326501 0.427940 0.739215
Si Si3 0.895369 0.919822 0.355068
Si Si4 0.809751 0.425903 0.110834
Si Si5 0.611430 0.927370 0.074688
Si Si6 0.039658 0.079784 0.134291
Si Si7 0.476336 0.072010 0.211584
O O1 0.731977 0.250000 0.642293
O O2 0.769989 0.048198 0.364432
O O3 0.820759 0.023245 0.516493
O O4 0.675667 0.979178 0.808864
O O5 0.314593 0.250000 0.763001
O O6 0.247713 0.509419 0.879467
O O7 0.359289 0.465666 0.826998
O O8 0.390747 0.464994 0.466704
O O9 0.875122 0.750000 0.439656
O O10 0.929777 0.918658 0.107589
O O11 0.961518 0.985304 0.308141
O O12 0.820193 0.250000 0.070451
O O13 0.892175 0.506271 0.928165
O O14 0.600139 0.750000 0.093237
O O15 0.534348 0.011388 0.203573
O O16 0.025621 0.250000 0.209886
O O17 0.482477 0.250000 0.185518
O O18 0.500000 0.000000 0.000000
#
# Coordination Sequence:
#
# PCOD9167945 Si02
#       7
#     4   4   4   4   4   4   4
#     4  10  20  34  53  80 111 144 184 228 274 324
#     4  10  23  40  57  79 110 146 182 221 269 324
#     4   9  16  27  46  74 107 142 181 226 274 322
#     4  10  20  33  53  80 109 142 183 228 272 322
#     4  11  23  39  58  81 110 145 183 223 269 322
#     4   9  16  27  46  73 107 143 179 224 275 323
#     4  11  23  40  62  87 113 142 178 222 270 321
#
# _framework density 19.917818
#
# number of rings (size 3 to 8) (size 9 to 14) (size 15 to 20)
#    0.000    2.000    0.000    3.857    0.000    9.714 
#    0.000    0.000    0.000    0.857    0.000    0.000 
#    0.000    0.000    0.000    0.000    0.000    0.000 
#
# Total GULP energy -156491.240087 kJ/mol
# GULP energy per Si atom -5588.972860 kJ/mol
# Density = 1.987248 g / cm^3
# Si number density = 19.917818 Si / 1000 Ang^3
#
#
#
# Elastic Constant Matrix: (Units=GPa)
#
#
# Indices 1 2 3 4 5 6 
#
# 1 122.8230 38.8631 -6.0824 0.0000 -18.1741 0.0000
# 2 38.8631 56.4145 -4.5962 0.0000 -0.0036 0.0000
# 3 -6.0824 -4.5962 -10.6981 0.0000 -5.1835 0.0000
# 4 0.0000 0.0000 0.0000 21.8636 0.0000 -4.5961
# 5 -18.1741 -0.0036 -5.1835 0.0000 27.2471 0.0000
# 6 0.0000 0.0000 0.0000 -4.5961 0.0000 38.4392
#
#
#
# Elastic Compliance Matrix: (Units=1/GPa)
#
#
# Indices 1 2 3 4 5 6 
#
# 1 0.011455 -0.008384 -0.006054 0.000000 0.006488 0.000000
# 2 -0.008384 0.023312 -0.002326 0.000000 -0.006032 0.000000
# 3 -0.006054 -0.002326 -0.079727 0.000000 -0.019206 0.000000
# 4 0.000000 0.000000 0.000000 0.046917 0.000000 0.005610
# 5 0.006488 -0.006032 -0.019206 0.000000 0.037374 0.000000
# 6 0.000000 0.000000 0.000000 0.005610 0.000000 0.026686
#
#
# Mechanical properties :
#
#
# Convention : Reuss Voigt Hill
#
# Bulk Modulus (GPa) = -12.74059 24.98982 6.12462
# Shear Modulus (GPa) = 68.13727 26.86696 47.50211
#
# Velocity S-wave (km/s) = 5.85521 3.67671 4.88885
# Velocity P-wave (km/s) = 6.26904 5.53154 5.91180
#
# Compressibility (1/GPa) = -0.07848931
#
# Stress axis : x y z
#
# Youngs Moduli (GPa) = 87.30021 42.89726 -12.54274
#
# Poissons Ratio (x) = 0.35964 -0.07593
# Poissons Ratio (y) = 0.73191 -0.02918
# Poissons Ratio (z) = 0.52852 0.09979
#
# Static dielectric constant tensor:
#      x y z
#    x 1.693310 0.000000 -0.001900 
#    y 0.000000 1.694130 0.000000 
#    z -0.001900 0.000000 1.704740 
# 
# From -- ./inp_files/28287.got.cif
#   From: 2010.05.17/outbox.ucp.g08.bks.cvg/sg11_15_cif.got.tgz:28287.got - 2010.06.11 11:38:39.
