data_PCOD9167360
_publ_section_title
;
Structure prediction by ZEFSAII (Michael W. Deem and Ramdas Pophale) SiO2 
 PCOD9167360
Probable space group: P 21/M
;
_chemical_formula_sum "Si O2"
_cell_formula_units_Z 32
_cell_length_a 12.860090
_cell_length_b 17.442025
_cell_length_c 16.931100
_cell_angle_alpha 90.000000
_cell_angle_beta 155.879514
_cell_angle_gamma 90.000000
_cell_volume 1551.975406
_symmetry_space_group_name_H-M "P 21/M"
_symmetry_group_IT_number 11
_symmetry_cell_setting 'monoclinic'
loop_
_space_group_symop_operation_xyz
x,y,z
-x,1/2+y,-z
-x,-y,-z
x,1/2-y,z
loop_
_atom_site_type_symbol
_atom_site_label
_atom_site_fract_x
_atom_site_fract_y
_atom_site_fract_z
Si Si1 0.855895 0.074432 0.866173
Si Si2 0.021251 0.659811 0.640165
Si Si3 0.005201 0.342605 0.562672
Si Si4 0.009748 0.096909 0.798482
Si Si5 0.740783 0.565280 0.577556
Si Si6 0.385038 0.662783 0.586733
Si Si7 0.566271 0.911609 0.029918
Si Si8 0.865220 0.658864 0.821374
O O1 0.991329 0.103013 0.879617
O O2 0.563870 0.058766 0.640128
O O3 0.883397 0.135784 0.955941
O O4 0.000000 0.000000 0.000000
O O5 0.975615 0.750000 0.622276
O O6 0.983528 0.642254 0.521777
O O7 0.845420 0.607970 0.573114
O O8 0.313097 0.638352 0.859706
O O9 0.017410 0.250000 0.582561
O O10 0.234471 0.382325 0.767127
O O11 0.746699 0.371260 0.426801
O O12 0.835288 0.158928 0.632644
O O13 0.287934 0.097813 0.952650
O O14 0.874897 0.016718 0.680773
O O15 0.824735 0.615291 0.711479
O O16 0.451185 0.750000 0.652339
O O17 0.635884 0.631044 0.719825
O O18 0.500000 0.000000 0.000000
O O19 0.848587 0.750000 0.797734
#
# Coordination Sequence:
#
# PCOD9167360 Si02
#       8
#     4   4   4   4   4   4   4   4
#     4  12  25  41  68  97 133 177 224 270 332 395
#     4  11  25  44  68  96 131 179 221 266 329 400
#     4   9  21  41  64  92 127 170 214 266 330 386
#     4  11  22  42  67  94 131 169 219 270 335 388
#     4  12  24  45  66  94 137 179 217 268 333 396
#     4   9  19  39  63  90 128 166 209 274 330 383
#     4  11  23  42  65  97 131 166 219 276 327 387
#     4  11  24  41  64  97 131 172 223 273 328 396
#
# _framework density 20.618883
#
# number of rings (size 3 to 8) (size 9 to 14) (size 15 to 20)
#    0.000    1.250    3.750    1.875    1.750    4.500 
#    0.000    1.250    0.000    0.000    0.000    0.000 
#    0.000    0.000    0.000    0.000    0.000    0.000 
#
# Total GULP energy -178824.095105 kJ/mol
# GULP energy per Si atom -5588.252972 kJ/mol
# Density = 2.057195 g / cm^3
# Si number density = 20.618883 Si / 1000 Ang^3
#
#
#
# Elastic Constant Matrix: (Units=GPa)
#
#
# Indices 1 2 3 4 5 6 
#
# 1 79.0532 14.5938 -2.8761 0.0000 -12.4153 0.0000
# 2 14.5938 57.2136 0.3318 0.0000 -11.3022 0.0000
# 3 -2.8761 0.3318 22.6727 0.0000 -12.4506 0.0000
# 4 0.0000 0.0000 0.0000 26.4117 0.0000 -7.9618
# 5 -12.4153 -11.3022 -12.4506 0.0000 32.3300 0.0000
# 6 0.0000 0.0000 0.0000 -7.9618 0.0000 20.3320
#
#
#
# Elastic Compliance Matrix: (Units=1/GPa)
#
#
# Indices 1 2 3 4 5 6 
#
# 1 0.014365 -0.002341 0.005626 0.000000 0.006865 0.000000
# 2 -0.002341 0.019481 0.003379 0.000000 0.007213 0.000000
# 3 0.005626 0.003379 0.059105 0.000000 0.026104 0.000000
# 4 0.000000 0.000000 0.000000 0.042930 0.000000 0.016811
# 5 0.006865 0.007213 0.026104 0.000000 0.046141 0.000000
# 6 0.000000 0.000000 0.000000 0.016811 0.000000 0.055766
#
#
# Mechanical properties :
#
#
# Convention : Reuss Voigt Hill
#
# Bulk Modulus (GPa) = 9.40922 20.33762 14.87342
# Shear Modulus (GPa) = 19.23926 25.60741 22.42333
#
# Velocity S-wave (km/s) = 3.05797 3.52794 3.30133
# Velocity P-wave (km/s) = 4.12814 5.14589 4.66485
#
# Compressibility (1/GPa) = 0.10627874
#
# Stress axis : x y z
#
# Youngs Moduli (GPa) = 69.61563 51.33314 16.91907
#
# Poissons Ratio (x) = 0.12015 -0.09519
# Poissons Ratio (y) = 0.16294 -0.05717
# Poissons Ratio (z) = -0.39167 -0.17344
#
# Static dielectric constant tensor:
#      x y z
#    x 1.739340 0.000000 0.013270 
#    y 0.000000 1.646730 0.000000 
#    z 0.013270 0.000000 1.735820 
# 
# From -- ./inp_files/50703.got.cif
#   From: 2010.05.17/outbox.cif.g08.bks.cpg/sg11_26_cif.got.tgz:50703.got - 2010.06.03 12:22:45.
