data_PCOD9167954
_publ_section_title
;
Structure prediction by ZEFSAII (Michael W. Deem and Ramdas Pophale) SiO2 
 PCOD9167954
Probable space group: P 21/M
;
_chemical_formula_sum "Si O2"
_cell_formula_units_Z 32
_cell_length_a 15.000000
_cell_length_b 9.000000
_cell_length_c 15.000000
_cell_angle_alpha 90.000000
_cell_angle_beta 60.000000
_cell_angle_gamma 90.000000
_cell_volume 1753.701443
_symmetry_space_group_name_H-M "P 21/M"
_symmetry_group_IT_number 11
_symmetry_cell_setting 'monoclinic'
loop_
_space_group_symop_operation_xyz
x,y,z
-x,1/2+y,-z
-x,-y,-z
x,1/2-y,z
loop_
_atom_site_type_symbol
_atom_site_label
_atom_site_fract_x
_atom_site_fract_y
_atom_site_fract_z
Si Si1 0.457720 0.428470 0.609633
Si Si2 0.089053 0.428382 0.516676
Si Si3 0.058099 0.430973 0.737633
Si Si4 0.172042 0.572037 0.156080
Si Si5 0.303925 0.070531 0.941168
Si Si6 0.246957 0.571441 0.314016
Si Si7 0.525966 0.430064 0.767660
Si Si8 0.230645 0.430371 0.786684
O O1 0.500000 0.500000 0.500000
O O2 0.463273 0.250000 0.600456
O O3 0.519257 0.475176 0.667539
O O4 0.339048 0.468878 0.686748
O O5 0.079636 0.250000 0.517366
O O6 0.082415 0.474344 0.623559
O O7 0.194421 0.485349 0.420843
O O8 0.000000 0.500000 0.500000
O O9 0.061222 0.250000 0.736824
O O10 0.137760 0.485421 0.772052
O O11 0.941637 0.476052 0.816046
O O12 0.180379 0.750000 0.142798
O O13 0.187727 0.538403 0.252269
O O14 0.255768 0.494965 0.053400
O O15 0.302681 0.250000 0.944554
O O16 0.421624 0.020173 0.867453
O O17 0.239594 0.022708 0.885256
O O18 0.241061 0.750000 0.332221
O O19 0.365898 0.527041 0.244768
O O20 0.521954 0.250000 0.770362
O O21 0.225525 0.250000 0.790898
#
# Coordination Sequence:
#
# PCOD9167954 Si02
#       8
#     4   4   4   4   4   4   4   4
#     4   9  17  30  49  73  99 132 170 208 252 301
#     4  11  21  35  55  78 107 141 174 212 256 305
#     4   9  18  33  51  74 103 137 171 202 252 314
#     4  10  20  34  52  74 101 135 170 213 267 310
#     4   9  18  35  56  76  98 133 176 216 254 303
#     4  10  20  36  54  75 105 142 175 208 257 313
#     4   8  17  34  53  72 102 139 172 207 257 311
#     4   8  16  32  52  71  99 136 170 204 250 308
#
# _framework density 18.247119999999999
#
# number of rings (size 3 to 8) (size 9 to 14) (size 15 to 20)
#    0.000    2.750    1.250    1.875    1.750    1.500 
#    0.000    3.125    0.000    2.250    0.000    0.000 
#    0.000    0.000    0.000    0.000    0.000    0.000 
#
# Total GULP energy -178332.933115 kJ/mol
# GULP energy per Si atom -5572.904160 kJ/mol
# Density = 1.820559 g / cm^3
# Si number density = 18.247120 Si / 1000 Ang^3
#
#
#
# Elastic Constant Matrix: (Units=GPa)
#
#
# Indices 1 2 3 4 5 6 
#
# 1 69.0107 5.3985 -17.6070 0.0000 -15.7039 0.0000
# 2 5.3985 6.5043 12.5397 0.0000 -2.5514 0.0000
# 3 -17.6070 12.5397 57.9258 0.0000 -15.5563 0.0000
# 4 0.0000 0.0000 0.0000 29.1141 0.0000 -3.6842
# 5 -15.7039 -2.5514 -15.5563 0.0000 4.9662 0.0000
# 6 0.0000 0.0000 0.0000 -3.6842 0.0000 12.0298
#
#
#
# Elastic Compliance Matrix: (Units=1/GPa)
#
#
# Indices 1 2 3 4 5 6 
#
# 1 -0.001284 0.013237 -0.015871 0.000000 -0.046975 0.000000
# 2 0.013237 0.203105 -0.004282 0.000000 0.132793 0.000000
# 3 -0.015871 -0.004282 -0.004427 0.000000 -0.066255 0.000000
# 4 0.000000 0.000000 0.000000 0.035732 0.000000 0.010943
# 5 -0.046975 0.132793 -0.066255 0.000000 -0.086498 0.000000
# 6 0.000000 0.000000 0.000000 0.010943 0.000000 0.086478
#
#
# Mechanical properties :
#
#
# Convention : Reuss Voigt Hill
#
# Bulk Modulus (GPa) = 5.44775 14.90034 10.17405
# Shear Modulus (GPa) = 16.22717 18.09599 17.16158
#
# Velocity S-wave (km/s) = 2.98535 3.15257 3.07010
# Velocity P-wave (km/s) = 3.85682 4.62982 4.26089
#
# Compressibility (1/GPa) = 0.18356210
#
# Stress axis : x y z
#
# Youngs Moduli (GPa) = -778.88273 4.92357 -225.88512
#
# Poissons Ratio (x) = -0.06517 -3.58510
# Poissons Ratio (y) = 10.31033 -0.96719
# Poissons Ratio (z) = -12.36191 0.02108
#
# Static dielectric constant tensor:
#      x y z
#    x 1.650850 0.000000 -0.014990 
#    y 0.000000 1.606060 0.000000 
#    z -0.014990 0.000000 1.603160 
# 
# From -- ./inp_files/51640.got.cif
#   From: 2010.05.17/outbox.ucp.g08.bks.cvg/sg11_26_cif.got.tgz:51640.got - 2010.06.11 11:38:39.
