data_PCOD9167003
_publ_section_title
;
Structure prediction by ZEFSAII (Michael W. Deem and Ramdas Pophale) SiO2 
 PCOD9167003
Probable space group: P 21/M
;
_chemical_formula_sum "Si O2"
_cell_formula_units_Z 18
_cell_length_a 4.932016
_cell_length_b 16.598288
_cell_length_c 9.939704
_cell_angle_alpha 90.000000
_cell_angle_beta 58.767884
_cell_angle_gamma 90.000000
_cell_volume 695.768562
_symmetry_space_group_name_H-M "P 21/M"
_symmetry_group_IT_number 11
_symmetry_cell_setting 'monoclinic'
loop_
_space_group_symop_operation_xyz
x,y,z
-x,1/2+y,-z
-x,-y,-z
x,1/2-y,z
loop_
_atom_site_type_symbol
_atom_site_label
_atom_site_fract_x
_atom_site_fract_y
_atom_site_fract_z
Si Si1 0.541735 0.343875 0.306166
Si Si2 0.289925 0.427357 0.610890
Si Si3 0.171936 0.442069 0.184694
Si Si4 0.818259 0.250000 0.925887
Si Si5 0.639750 0.870947 0.119108
O O1 0.542634 0.250000 0.261792
O O2 0.304099 0.358595 0.493778
O O3 0.884545 0.375569 0.264241
O O4 0.424710 0.403104 0.219714
O O5 0.500000 0.500000 0.500000
O O6 0.965189 0.473150 0.730020
O O7 0.442040 0.395235 0.708422
O O8 0.275456 0.443219 0.003380
O O9 0.617128 0.318726 0.893412
O O10 0.041979 0.319154 0.939555
#
# Coordination Sequence:
#
# PCOD9167003 Si02
#       5
#     4   4   4   2   4
#     4  11  25  42  67 103 141 183 227 286 347 408
#     4  10  25  49  68 105 142 186 228 283 345 421
#     4  11  24  43  73  98 139 181 235 282 344 404
#     4  10  26  40  68 106 140 170 228 296 342 396
#     4  11  24  45  73 100 140 178 237 281 349 400
#
# _framework density 25.870671000000002
#
# number of rings (size 3 to 8) (size 9 to 14) (size 15 to 20)
#    0.000    1.333    0.000    3.333   12.444    7.111 
#    0.000    7.778    0.000    0.000    0.000    0.000 
#    0.000    0.000    0.000    0.000    0.000    0.000 
#
# Total GULP energy -100426.325476 kJ/mol
# GULP energy per Si atom -5579.240304 kJ/mol
# Density = 2.581179 g / cm^3
# Si number density = 25.870671 Si / 1000 Ang^3
#
#
#
# Elastic Constant Matrix: (Units=GPa)
#
#
# Indices 1 2 3 4 5 6 
#
# 1 127.0053 46.7892 25.6082 0.0000 35.6872 0.0000
# 2 46.7892 82.1302 -7.2789 0.0000 4.9211 0.0000
# 3 25.6082 -7.2789 119.7407 0.0000 13.7379 0.0000
# 4 0.0000 0.0000 0.0000 33.4106 0.0000 22.4418
# 5 35.6872 4.9211 13.7379 0.0000 36.8747 0.0000
# 6 0.0000 0.0000 0.0000 22.4418 0.0000 60.6051
#
#
#
# Elastic Compliance Matrix: (Units=1/GPa)
#
#
# Indices 1 2 3 4 5 6 
#
# 1 0.014654 -0.007804 -0.002195 0.000000 -0.012323 0.000000
# 2 -0.007804 0.016541 0.002153 0.000000 0.004543 0.000000
# 3 -0.002195 0.002153 0.009131 0.000000 -0.001565 0.000000
# 4 0.000000 0.000000 0.000000 0.039840 0.000000 -0.014753
# 5 -0.012323 0.004543 -0.001565 0.000000 0.039022 0.000000
# 6 0.000000 0.000000 0.000000 -0.014753 0.000000 0.021963
#
#
# Mechanical properties :
#
#
# Convention : Reuss Voigt Hill
#
# Bulk Modulus (GPa) = 40.59378 51.01259 45.80319
# Shear Modulus (GPa) = 30.29325 43.76194 37.02760
#
# Velocity S-wave (km/s) = 3.42563 4.11733 3.78730
# Velocity P-wave (km/s) = 5.60104 6.50879 6.07190
#
# Compressibility (1/GPa) = 0.02463432
#
# Stress axis : x y z
#
# Youngs Moduli (GPa) = 68.24079 60.45754 109.51457
#
# Poissons Ratio (x) = 0.47184 0.24034
# Poissons Ratio (y) = 0.53258 -0.23582
# Poissons Ratio (z) = 0.14976 -0.13018
#
# Static dielectric constant tensor:
#      x y z
#    x 2.024580 0.000000 -0.166050 
#    y 0.000000 2.136890 0.000000 
#    z -0.166050 0.000000 2.141690 
# 
# From -- ./inp_files/10062.got.cif
#   From: 2010.05.17/outbox.cif.g08.bks.cpg/sg11_6_cif.got.tgz:10062.got - 2010.06.03 12:22:45.
