data_PCOD9167643
_publ_section_title
;
Structure prediction by ZEFSAII (Michael W. Deem and Ramdas Pophale) SiO2 
 PCOD9167643
Probable space group: P 21/M
;
_chemical_formula_sum "Si O2"
_cell_formula_units_Z 28
_cell_length_a 14.236869
_cell_length_b 7.824404
_cell_length_c 16.819465
_cell_angle_alpha 90.000000
_cell_angle_beta 65.093341
_cell_angle_gamma 90.000000
_cell_volume 1699.350101
_symmetry_space_group_name_H-M "P 21/M"
_symmetry_group_IT_number 11
_symmetry_cell_setting 'monoclinic'
loop_
_space_group_symop_operation_xyz
x,y,z
-x,1/2+y,-z
-x,-y,-z
x,1/2-y,z
loop_
_atom_site_type_symbol
_atom_site_label
_atom_site_fract_x
_atom_site_fract_y
_atom_site_fract_z
Si Si1 0.624311 0.044497 0.039837
Si Si2 0.836639 0.456160 0.038743
Si Si3 0.029158 0.455171 0.863738
Si Si4 0.394190 0.543968 0.135474
Si Si5 0.797415 0.453272 0.694344
Si Si6 0.017368 0.459906 0.688008
Si Si7 0.888170 0.546841 0.502970
O O1 0.631495 0.250000 0.034029
O O2 0.723742 0.981193 0.052859
O O3 0.511956 0.001190 0.114650
O O4 0.626053 0.981681 0.947638
O O5 0.836038 0.250000 0.034440
O O6 0.875512 0.503221 0.112547
O O7 0.925403 0.518596 0.945698
O O8 0.020458 0.250000 0.862707
O O9 0.036967 0.517926 0.770721
O O10 0.388332 0.750000 0.135746
O O11 0.305561 0.479197 0.226490
O O12 0.798455 0.250000 0.706329
O O13 0.903371 0.516934 0.698466
O O14 0.806448 0.481940 0.596659
O O15 0.016846 0.250000 0.687630
O O16 0.101420 0.514664 0.591722
O O17 0.878272 0.750000 0.504834
O O18 0.000000 0.500000 0.500000
#
# Coordination Sequence:
#
# PCOD9167643 Si02
#       7
#     4   4   4   4   4   4   4
#     4   9  17  29  43  59  83 112 138 167 203 241
#     4   9  17  28  41  59  83 108 134 166 202 236
#     4   9  16  27  43  60  79 107 140 166 193 235
#     4   9  17  28  43  62  82 108 141 170 198 238
#     4   9  16  27  42  60  84 111 137 166 202 243
#     4   8  14  25  41  59  80 108 137 162 193 238
#     4   9  16  26  40  59  83 109 137 167 201 242
#
# _framework density 16.476887999999999
#
# number of rings (size 3 to 8) (size 9 to 14) (size 15 to 20)
#    0.000    3.143    0.000    2.143    0.000    4.571 
#    0.000    3.571    0.000    5.143    0.000    1.000 
#    0.000    0.000    0.000    0.000    0.000    0.000 
#
# Total GULP energy -155894.218175 kJ/mol
# GULP energy per Si atom -5567.650649 kJ/mol
# Density = 1.643939 g / cm^3
# Si number density = 16.476888 Si / 1000 Ang^3
#
#
#
# Elastic Constant Matrix: (Units=GPa)
#
#
# Indices 1 2 3 4 5 6 
#
# 1 117.2879 3.5558 78.5489 0.0000 -0.9928 0.0000
# 2 3.5558 14.8772 1.8157 0.0000 -0.9742 0.0000
# 3 78.5489 1.8157 152.9124 0.0000 -1.6036 0.0000
# 4 0.0000 0.0000 0.0000 18.3122 0.0000 -0.3529
# 5 -0.9928 -0.9742 -1.6036 0.0000 26.4123 0.0000
# 6 0.0000 0.0000 0.0000 -0.3529 0.0000 17.8633
#
#
#
# Elastic Compliance Matrix: (Units=1/GPa)
#
#
# Indices 1 2 3 4 5 6 
#
# 1 0.013076 -0.002309 -0.006690 0.000000 0.000000 0.000000
# 2 -0.002309 0.067879 0.000406 0.000000 0.002441 0.000000
# 3 -0.006690 0.000406 0.009975 0.000000 0.000369 0.000000
# 4 0.000000 0.000000 0.000000 0.054629 0.000000 0.001079
# 5 0.000000 0.002441 0.000369 0.000000 0.037974 0.000000
# 6 0.000000 0.000000 0.000000 0.001079 0.000000 0.056002
#
#
# Mechanical properties :
#
#
# Convention : Reuss Voigt Hill
#
# Bulk Modulus (GPa) = 13.56031 50.32425 31.94228
# Shear Modulus (GPa) = 17.77446 25.92802 21.85124
#
# Velocity S-wave (km/s) = 3.28800 3.97117 3.64562
# Velocity P-wave (km/s) = 4.76050 7.18579 6.09499
#
# Compressibility (1/GPa) = 0.07374463
#
# Stress axis : x y z
#
# Youngs Moduli (GPa) = 76.47534 14.73208 100.24967
#
# Poissons Ratio (x) = 0.03401 0.67063
# Poissons Ratio (y) = 0.17657 -0.04066
# Poissons Ratio (z) = 0.51159 -0.00598
#
# Static dielectric constant tensor:
#      x y z
#    x 1.534540 0.000000 -0.003610 
#    y 0.000000 1.606660 0.000000 
#    z -0.003610 0.000000 1.583460 
# 
# From -- ./inp_files/38642.got.cif
#   From: 2010.05.17/outbox.cif.g08.bks.cpg/sg11_20_cif.got.tgz:38642.got - 2010.06.03 12:22:45.
