data_PCOD9167098
_publ_section_title
;
Structure prediction by ZEFSAII (Michael W. Deem and Ramdas Pophale) SiO2 
 PCOD9167098
Probable space group: P 21/M
;
_chemical_formula_sum "Si O2"
_cell_formula_units_Z 28
_cell_length_a 8.936790
_cell_length_b 17.024314
_cell_length_c 9.114689
_cell_angle_alpha 90.000000
_cell_angle_beta 117.788672
_cell_angle_gamma 90.000000
_cell_volume 1226.805979
_symmetry_space_group_name_H-M "P 21/M"
_symmetry_group_IT_number 11
_symmetry_cell_setting 'monoclinic'
loop_
_space_group_symop_operation_xyz
x,y,z
-x,1/2+y,-z
-x,-y,-z
x,1/2-y,z
loop_
_atom_site_type_symbol
_atom_site_label
_atom_site_fract_x
_atom_site_fract_y
_atom_site_fract_z
Si Si1 0.169622 0.608835 0.873678
Si Si2 0.095519 0.338000 0.019036
Si Si3 0.943443 0.039977 0.720501
Si Si4 0.309236 0.159435 0.580483
Si Si5 0.495556 0.543614 0.152973
Si Si6 0.912375 0.162409 0.452403
Si Si7 0.360270 0.070990 0.312409
O O1 0.027406 0.656437 0.896532
O O2 0.087884 0.526790 0.779828
O O3 0.211770 0.653016 0.742770
O O4 0.319330 0.590699 0.054770
O O5 0.106841 0.250000 0.967970
O O6 0.273843 0.370751 0.156282
O O7 0.015001 0.397424 0.867753
O O8 0.898133 0.090256 0.557170
O O9 0.781624 0.992647 0.704747
O O10 0.360280 0.250000 0.618573
O O11 0.362544 0.106866 0.743363
O O12 0.105460 0.157327 0.478580
O O13 0.394285 0.120920 0.474554
O O14 0.494726 0.479960 0.283962
O O15 0.500000 0.500000 0.000000
O O16 0.892756 0.250000 0.509002
#
# Coordination Sequence:
#
# PCOD9167098 Si02
#       7
#     4   4   4   4   4   4   4
#     4  11  21  40  65  92 125 163 209 262 321 380
#     4  11  20  36  66  98 126 159 210 273 323 371
#     4  11  20  37  65  96 124 161 214 267 311 383
#     4  11  25  44  66  96 133 170 211 266 327 386
#     4  12  26  44  68  92 130 175 222 264 319 386
#     4  11  23  39  64  97 128 163 210 267 326 374
#     4  11  22  43  66  93 125 175 221 256 320 390
#
# _framework density 22.823494
#
# number of rings (size 3 to 8) (size 9 to 14) (size 15 to 20)
#    0.000    0.857    5.714    3.857    2.000    1.143 
#    0.000    0.714    0.000    0.000    0.000    0.000 
#    0.000    0.000    0.000    0.000    0.000    0.000 
#
# Total GULP energy -156592.784586 kJ/mol
# GULP energy per Si atom -5592.599449 kJ/mol
# Density = 2.277155 g / cm^3
# Si number density = 22.823494 Si / 1000 Ang^3
#
#
#
# Elastic Constant Matrix: (Units=GPa)
#
#
# Indices 1 2 3 4 5 6 
#
# 1 18.3850 14.4782 -4.4354 0.0000 2.2043 0.0000
# 2 14.4782 155.1126 33.6201 0.0000 -4.1036 0.0000
# 3 -4.4354 33.6201 81.1058 0.0000 -6.0818 0.0000
# 4 0.0000 0.0000 0.0000 12.2011 0.0000 3.5404
# 5 2.2043 -4.1036 -6.0818 0.0000 23.1403 0.0000
# 6 0.0000 0.0000 0.0000 3.5404 0.0000 10.2516
#
#
#
# Elastic Compliance Matrix: (Units=1/GPa)
#
#
# Indices 1 2 3 4 5 6 
#
# 1 0.062227 -0.007255 0.005987 0.000000 -0.005641 0.000000
# 2 -0.007255 0.007935 -0.003600 0.000000 0.001152 0.000000
# 3 0.005987 -0.003600 0.014341 0.000000 0.002560 0.000000
# 4 0.000000 0.000000 0.000000 0.091088 0.000000 -0.031457
# 5 -0.005641 0.001152 0.002560 0.000000 0.044629 0.000000
# 6 0.000000 0.000000 0.000000 -0.031457 0.000000 0.108410
#
#
# Mechanical properties :
#
#
# Convention : Reuss Voigt Hill
#
# Bulk Modulus (GPa) = 13.37474 37.99215 25.68344
# Shear Modulus (GPa) = 13.76324 23.18129 18.47227
#
# Velocity S-wave (km/s) = 2.45833 3.19043 2.84800
# Velocity P-wave (km/s) = 3.73238 5.50036 4.70025
#
# Compressibility (1/GPa) = 0.07476781
#
# Stress axis : x y z
#
# Youngs Moduli (GPa) = 16.07032 126.02718 69.72978
#
# Poissons Ratio (x) = 0.91435 -0.41750
# Poissons Ratio (y) = 0.11659 0.25099
# Poissons Ratio (z) = -0.09622 0.45364
#
# Static dielectric constant tensor:
#      x y z
#    x 1.902990 0.000000 0.000910 
#    y 0.000000 1.831380 0.000000 
#    z 0.000910 0.000000 1.865790 
# 
# From -- ./inp_files/18160.got.cif
#   From: 2010.05.17/outbox.cif.g08.bks.cpg/sg11_10_cif.got.tgz:18160.got - 2010.06.03 12:22:45.
