data_PCOD9167440
_publ_section_title
;
Structure prediction by ZEFSAII (Michael W. Deem and Ramdas Pophale) SiO2 
 PCOD9167440
Probable space group: P 21/M
;
_chemical_formula_sum "Si O2"
_cell_formula_units_Z 32
_cell_length_a 12.039850
_cell_length_b 23.768716
_cell_length_c 5.322608
_cell_angle_alpha 90.000000
_cell_angle_beta 78.732193
_cell_angle_gamma 90.000000
_cell_volume 1493.820275
_symmetry_space_group_name_H-M "P 21/M"
_symmetry_group_IT_number 11
_symmetry_cell_setting 'monoclinic'
loop_
_space_group_symop_operation_xyz
x,y,z
-x,1/2+y,-z
-x,-y,-z
x,1/2-y,z
loop_
_atom_site_type_symbol
_atom_site_label
_atom_site_fract_x
_atom_site_fract_y
_atom_site_fract_z
Si Si1 0.592199 0.812682 0.984627
Si Si2 0.513652 0.066748 0.906210
Si Si3 0.098911 0.023333 0.138868
Si Si4 0.753948 0.442624 0.596197
Si Si5 0.699068 0.949428 0.315023
Si Si6 0.010495 0.312643 0.788946
Si Si7 0.051553 0.623604 0.678787
Si Si8 0.269249 0.331832 0.560975
O O1 0.534201 0.750000 0.008139
O O2 0.684750 0.809471 0.721743
O O3 0.528044 0.872762 0.956506
O O4 0.649744 0.819065 0.235207
O O5 0.645781 0.076638 0.799423
O O6 0.428302 0.063285 0.709361
O O7 0.500000 0.000000 0.000000
O O8 0.035793 0.071797 0.320706
O O9 0.151924 0.972465 0.272267
O O10 0.207596 0.049104 0.946961
O O11 0.000000 0.000000 0.000000
O O12 0.705480 0.491089 0.441112
O O13 0.820524 0.398412 0.398540
O O14 0.736336 0.898974 0.474533
O O15 0.969863 0.250000 0.861850
O O16 0.964770 0.334062 0.543163
O O17 0.145652 0.312432 0.695560
O O18 0.976410 0.351786 0.036443
#
# Coordination Sequence:
#
# PCOD9167440 Si02
#       8
#     4   4   4   4   4   4   4   4
#     4  11  24  44  67  98 136 183 232 281 351 425
#     4  11  24  44  70 104 139 181 233 297 351 406
#     4  12  23  42  65 102 142 181 219 274 356 433
#     4  12  25  42  67  98 144 184 228 278 350 426
#     4  11  23  40  70 100 139 175 222 283 354 424
#     4  12  25  43  66  96 132 178 237 294 346 405
#     4  12  26  42  66  97 137 181 227 279 351 429
#     4  11  23  41  68  99 136 173 222 290 354 415
#
# _framework density 21.421583999999999
#
# number of rings (size 3 to 8) (size 9 to 14) (size 15 to 20)
#    0.000    0.500    3.750    5.250    3.500    1.000 
#    0.000    1.250    0.000    0.000    0.000    0.000 
#    0.000    0.000    0.000    0.000    0.000    0.000 
#
# Total GULP energy -178621.145841 kJ/mol
# GULP energy per Si atom -5581.910808 kJ/mol
# Density = 2.137283 g / cm^3
# Si number density = 21.421584 Si / 1000 Ang^3
#
#
#
# Elastic Constant Matrix: (Units=GPa)
#
#
# Indices 1 2 3 4 5 6 
#
# 1 -1184.5615 -333.6839 -360.1974 0.0000 148.1018 0.0000
# 2 -333.6839 21.2712 -92.4854 0.0000 27.8208 0.0000
# 3 -360.1974 -92.4854 -43.7135 0.0000 30.7496 0.0000
# 4 0.0000 0.0000 0.0000 -108.1944 0.0000 -6.4431
# 5 148.1018 27.8208 30.7496 0.0000 10.8503 0.0000
# 6 0.0000 0.0000 0.0000 -6.4431 0.0000 15.9699
#
#
#
# Elastic Compliance Matrix: (Units=1/GPa)
#
#
# Indices 1 2 3 4 5 6 
#
# 1 0.001112 -0.001964 -0.004058 0.000000 0.001354 0.000000
# 2 -0.001964 0.009208 -0.000347 0.000000 0.004189 0.000000
# 3 -0.004058 -0.000347 0.017001 0.000000 0.008105 0.000000
# 4 0.000000 0.000000 0.000000 -0.009026 0.000000 -0.003641
# 5 0.001354 0.004189 0.008105 0.000000 0.039977 0.000000
# 6 0.000000 0.000000 0.000000 -0.003641 0.000000 0.061148
#
#
# Mechanical properties :
#
#
# Convention : Reuss Voigt Hill
#
# Bulk Modulus (GPa) = 68.58287 -308.85971 -120.13842
# Shear Modulus (GPa) = 36.49082 -44.31729 -3.91324
#
# Velocity S-wave (km/s) = 4.13178 -4.55336 -1.35305
# Velocity P-wave (km/s) = 7.40590 13.12016 7.65804
#
# Compressibility (1/GPa) = 0.01458090
#
# Stress axis : x y z
#
# Youngs Moduli (GPa) = 898.89534 108.60651 58.82045
#
# Poissons Ratio (x) = 0.21335 0.23872
# Poissons Ratio (y) = 1.76582 0.02042
# Poissons Ratio (z) = 3.64808 0.03770
#
# Static dielectric constant tensor:
#      x y z
#    x 1.784250 0.000000 0.010160 
#    y 0.000000 1.796000 0.000000 
#    z 0.010160 0.000000 1.795460 
# 
# From -- ./inp_files/5472.got.cif
#   From: 2010.05.17/outbox.cif.g08.bks.cpg/sg11_3_cif.got.tgz:5472.got - 2010.06.03 12:22:45.
