data_PCOD9167485
_publ_section_title
;
Structure prediction by ZEFSAII (Michael W. Deem and Ramdas Pophale) SiO2 
 PCOD9167485
Probable space group: P 21/M
;
_chemical_formula_sum "Si O2"
_cell_formula_units_Z 22
_cell_length_a 6.689086
_cell_length_b 24.654423
_cell_length_c 9.348294
_cell_angle_alpha 90.000000
_cell_angle_beta 49.983751
_cell_angle_gamma 90.000000
_cell_volume 1180.713622
_symmetry_space_group_name_H-M "P 21/M"
_symmetry_group_IT_number 11
_symmetry_cell_setting 'monoclinic'
loop_
_space_group_symop_operation_xyz
x,y,z
-x,1/2+y,-z
-x,-y,-z
x,1/2-y,z
loop_
_atom_site_type_symbol
_atom_site_label
_atom_site_fract_x
_atom_site_fract_y
_atom_site_fract_z
Si Si1 0.510983 0.369451 0.783163
Si Si2 0.425609 0.368974 0.482786
Si Si3 0.014147 0.250000 0.167084
Si Si4 0.518170 0.250000 0.751297
Si Si5 0.987833 0.564057 0.487191
Si Si6 0.027901 0.130591 0.214509
Si Si7 0.442854 0.250000 0.445900
O O1 0.430878 0.370211 0.652813
O O2 0.619600 0.308027 0.759217
O O3 0.740752 0.412265 0.698720
O O4 0.257333 0.380136 0.996084
O O5 0.247033 0.415949 0.503929
O O6 0.322919 0.309406 0.479301
O O7 0.729342 0.375275 0.296949
O O8 0.051822 0.194907 0.238032
O O9 0.722443 0.250000 0.239158
O O10 0.219245 0.250000 0.943977
O O11 0.523371 0.250000 0.577603
O O12 0.947562 0.593423 0.658447
O O13 0.000000 0.500000 0.500000
#
# Coordination Sequence:
#
# PCOD9167485 Si02
#       7
#     4   4   2   2   4   4   2
#     4   9  19  36  57  79 105 137 171 215 271 322
#     4   9  19  35  55  78 105 133 169 215 266 318
#     4   8  14  29  53  79 104 128 162 211 267 325
#     4   8  14  29  53  79 104 128 162 211 267 325
#     4  11  24  37  50  76 110 143 186 227 252 294
#     4   9  19  36  57  79 105 137 171 215 271 322
#     4   8  14  28  52  78 100 128 162 206 264 322
#
# _framework density 18.632801000000001
#
# number of rings (size 3 to 8) (size 9 to 14) (size 15 to 20)
#    0.000    2.909    0.000    1.091    0.000    6.545 
#    0.000    1.818    0.000    6.545    0.000    0.000 
#    0.000    0.000    0.000    0.000    0.000    0.000 
#
# Total GULP energy -122529.050301 kJ/mol
# GULP energy per Si atom -5569.502286 kJ/mol
# Density = 1.859039 g / cm^3
# Si number density = 18.632801 Si / 1000 Ang^3
#
#
#
# Elastic Constant Matrix: (Units=GPa)
#
#
# Indices 1 2 3 4 5 6 
#
# 1 55.7440 43.0998 33.7014 0.0000 -13.6238 0.0000
# 2 43.0998 126.5622 56.7935 0.0000 -13.6787 0.0000
# 3 33.7014 56.7935 122.0239 0.0000 -24.7636 0.0000
# 4 0.0000 0.0000 0.0000 24.3748 0.0000 -3.3397
# 5 -13.6238 -13.6787 -24.7636 0.0000 10.7180 0.0000
# 6 0.0000 0.0000 0.0000 -3.3397 0.0000 28.7483
#
#
#
# Elastic Compliance Matrix: (Units=1/GPa)
#
#
# Indices 1 2 3 4 5 6 
#
# 1 0.031120 -0.007786 0.001958 0.000000 0.034145 0.000000
# 2 -0.007786 0.012017 -0.004404 0.000000 -0.004735 0.000000
# 3 0.001958 -0.004404 0.017074 0.000000 0.036319 0.000000
# 4 0.000000 0.000000 0.000000 0.041689 0.000000 0.004843
# 5 0.034145 -0.004735 0.036319 0.000000 0.214575 0.000000
# 6 0.000000 0.000000 0.000000 0.004843 0.000000 0.035347
#
#
# Mechanical properties :
#
#
# Convention : Reuss Voigt Hill
#
# Bulk Modulus (GPa) = 25.15780 63.50217 44.32998
# Shear Modulus (GPa) = 12.96895 24.15058 18.55977
#
# Velocity S-wave (km/s) = 2.64110 3.60409 3.15950
# Velocity P-wave (km/s) = 4.77825 7.17455 6.09532
#
# Compressibility (1/GPa) = 0.03974911
#
# Stress axis : x y z
#
# Youngs Moduli (GPa) = 32.13322 83.21469 58.56721
#
# Poissons Ratio (x) = 0.64793 -0.11470
# Poissons Ratio (y) = 0.25020 0.25790
# Poissons Ratio (z) = -0.06293 0.36644
#
# Static dielectric constant tensor:
#      x y z
#    x 1.641680 0.000000 -0.015590 
#    y 0.000000 1.663550 0.000000 
#    z -0.015590 0.000000 1.649740 
# 
# From -- ./inp_files/2890.got.cif
#   From: 2010.05.17/outbox.cif.g08.bks.cpg/sg11_2_cif.got.tgz:2890.got - 2010.06.03 12:22:45.
