data_PCOD9167789
_publ_section_title
;
Structure prediction by ZEFSAII (Michael W. Deem and Ramdas Pophale) SiO2 
 PCOD9167789
Probable space group: P 21/M
;
_chemical_formula_sum "Si O2"
_cell_formula_units_Z 32
_cell_length_a 27.000000
_cell_length_b 9.000000
_cell_length_c 21.000000
_cell_angle_alpha 90.000000
_cell_angle_beta 20.000000
_cell_angle_gamma 90.000000
_cell_volume 1745.328791
_symmetry_space_group_name_H-M "P 21/M"
_symmetry_group_IT_number 11
_symmetry_cell_setting 'monoclinic'
loop_
_space_group_symop_operation_xyz
x,y,z
-x,1/2+y,-z
-x,-y,-z
x,1/2-y,z
loop_
_atom_site_type_symbol
_atom_site_label
_atom_site_fract_x
_atom_site_fract_y
_atom_site_fract_z
Si Si1 0.898377 0.070844 0.723093
Si Si2 0.641070 0.426934 0.673847
Si Si3 0.294716 0.427769 0.934611
Si Si4 0.315227 0.920101 0.779639
Si Si5 0.212513 0.570495 0.367984
Si Si6 0.391331 0.070837 0.419166
Si Si7 0.666415 0.579906 0.370594
Si Si8 0.317927 0.071819 0.117119
O O1 0.902933 0.250000 0.713375
O O2 0.809368 0.003123 0.770904
O O3 0.057852 0.001827 0.537840
O O4 0.811552 0.014191 0.889873
O O5 0.657669 0.250000 0.642161
O O6 0.734852 0.464856 0.623593
O O7 0.673976 0.515214 0.568894
O O8 0.472557 0.453458 0.896188
O O9 0.285730 0.250000 0.953935
O O10 0.263328 0.474855 0.899642
O O11 0.455466 0.486151 0.757840
O O12 0.267904 0.750000 0.846250
O O13 0.490931 0.921048 0.574279
O O14 0.277482 0.978139 0.754688
O O15 0.207324 0.750000 0.368713
O O16 0.317409 0.501904 0.187471
O O17 0.413839 0.250000 0.390715
O O18 0.307239 0.037593 0.587313
O O19 0.714418 0.750000 0.303031
O O20 0.295243 0.250000 0.148699
#
# Coordination Sequence:
#
# PCOD9167789 Si02
#       8
#     4   4   4   4   4   4   4   4
#     4  12  24  39  58  82 109 144 184 228 274 326
#     4  10  22  38  58  82 111 145 184 224 273 326
#     4  11  20  32  51  75 106 142 179 223 271 323
#     4   9  16  26  42  68 101 138 177 218 265 317
#     4  11  24  41  58  81 111 145 182 227 274 326
#     4  10  19  31  51  77 107 142 182 223 267 319
#     4   8  15  26  40  66 102 139 175 215 263 314
#     4  11  22  39  61  85 109 141 180 226 276 328
#
# _framework density 18.334654
#
# number of rings (size 3 to 8) (size 9 to 14) (size 15 to 20)
#    0.000    1.750    1.250    5.250    0.000    5.000 
#    0.000    0.000    0.000    0.000    0.000    0.875 
#    0.000    0.000    0.000    0.000    0.000    0.000 
#
# Total GULP energy -178640.288119 kJ/mol
# GULP energy per Si atom -5582.509004 kJ/mol
# Density = 1.829292 g / cm^3
# Si number density = 18.334654 Si / 1000 Ang^3
#
#
#
# Elastic Constant Matrix: (Units=GPa)
#
#
# Indices 1 2 3 4 5 6 
#
# 1 153.5349 56.5340 21.8573 0.0000 17.4749 0.0000
# 2 56.5340 111.6581 12.3222 0.0000 4.6950 0.0000
# 3 21.8573 12.3222 16.4946 0.0000 1.3969 0.0000
# 4 0.0000 0.0000 0.0000 20.7926 0.0000 8.7031
# 5 17.4749 4.6950 1.3969 0.0000 29.5344 0.0000
# 6 0.0000 0.0000 0.0000 8.7031 0.0000 38.4579
#
#
#
# Elastic Compliance Matrix: (Units=1/GPa)
#
#
# Indices 1 2 3 4 5 6 
#
# 1 0.009812 -0.003681 -0.009849 0.000000 -0.004754 0.000000
# 2 -0.003681 0.011185 -0.003526 0.000000 0.000567 0.000000
# 3 -0.009849 -0.003526 0.076075 0.000000 0.002790 0.000000
# 4 0.000000 0.000000 0.000000 0.053126 0.000000 -0.012023
# 5 -0.004754 0.000567 0.002790 0.000000 0.036450 0.000000
# 6 0.000000 0.000000 0.000000 -0.012023 0.000000 0.028723
#
#
# Mechanical properties :
#
#
# Convention : Reuss Voigt Hill
#
# Bulk Modulus (GPa) = 15.88326 51.45719 33.67023
# Shear Modulus (GPa) = 18.48633 30.48858 24.48745
#
# Velocity S-wave (km/s) = 3.17878 4.08228 3.65853
# Velocity P-wave (km/s) = 4.70687 7.09553 6.02084
#
# Compressibility (1/GPa) = 0.06295936
#
# Stress axis : x y z
#
# Youngs Moduli (GPa) = 101.91716 89.40586 13.14493
#
# Poissons Ratio (x) = 0.32911 0.12947
# Poissons Ratio (y) = 0.37516 0.04635
# Poissons Ratio (z) = 1.00381 0.31523
#
# Static dielectric constant tensor:
#      x y z
#    x 1.648370 0.000000 0.018480 
#    y 0.000000 1.611110 0.000000 
#    z 0.018480 0.000000 1.642540 
# 
# From -- ./inp_files/66986.got.cif
#   From: 2010.05.17/outbox.ucp.g08.bks.cvg/sg11_34_cif.got.tgz:66986.got - 2010.06.11 11:38:39.
