data_PCOD9167055
_publ_section_title
;
Structure prediction by ZEFSAII (Michael W. Deem and Ramdas Pophale) SiO2 
 PCOD9167055
Probable space group: P 21/M
;
_chemical_formula_sum "Si O2"
_cell_formula_units_Z 28
_cell_length_a 22.636918
_cell_length_b 8.856246
_cell_length_c 18.468575
_cell_angle_alpha 90.000000
_cell_angle_beta 153.108333
_cell_angle_gamma 90.000000
_cell_volume 1674.679670
_symmetry_space_group_name_H-M "P 21/M"
_symmetry_group_IT_number 11
_symmetry_cell_setting 'monoclinic'
loop_
_space_group_symop_operation_xyz
x,y,z
-x,1/2+y,-z
-x,-y,-z
x,1/2-y,z
loop_
_atom_site_type_symbol
_atom_site_label
_atom_site_fract_x
_atom_site_fract_y
_atom_site_fract_z
Si Si1 0.381531 0.573820 0.537428
Si Si2 0.859815 0.930604 0.330428
Si Si3 0.368321 0.569294 0.821688
Si Si4 0.305988 0.074743 0.154317
Si Si5 0.644144 0.430378 0.647439
Si Si6 0.710667 0.931494 0.021832
Si Si7 0.575083 0.570961 0.267233
O O1 0.352495 0.750000 0.520304
O O2 0.537617 0.565172 0.690942
O O3 0.313150 0.525864 0.387385
O O4 0.360421 0.476878 0.585983
O O5 0.860118 0.750000 0.341447
O O6 0.814083 0.959848 0.197854
O O7 0.752495 0.006032 0.264838
O O8 0.000000 0.000000 0.500000
O O9 0.374149 0.750000 0.831397
O O10 0.362158 0.513223 0.732309
O O11 0.500000 0.500000 0.000000
O O12 0.275161 0.250000 0.133362
O O13 0.277521 0.984753 0.196507
O O14 0.245609 0.024766 0.011620
O O15 0.500000 0.500000 0.500000
O O16 0.633162 0.250000 0.635886
O O17 0.683443 0.750000 0.990232
O O18 0.575663 0.015084 0.893173
O O19 0.579144 0.750000 0.261588
#
# Coordination Sequence:
#
# PCOD9167055 Si02
#       7
#     4   4   4   4   4   4   4
#     4   8  15  26  37  54  87 125 158 195 244 294
#     4  11  23  39  57  77 104 137 172 214 262 309
#     4  12  23  37  56  78 103 133 172 214 258 308
#     4   8  14  24  38  57  82 118 159 197 239 289
#     4   9  15  22  33  52  81 119 156 193 239 289
#     4   9  18  32  48  66  95 131 165 205 253 301
#     4  11  20  29  47  73  97 126 167 209 252 297
#
# _framework density 16.719615999999998
#
# number of rings (size 3 to 8) (size 9 to 14) (size 15 to 20)
#    0.000    2.286    1.429    5.143    0.000    6.286 
#    0.000    0.000    0.000    0.000    0.000    0.000 
#    0.000    1.143    0.000    3.429    0.000    7.286 
#
# Total GULP energy -156027.352358 kJ/mol
# GULP energy per Si atom -5572.405441 kJ/mol
# Density = 1.668156 g / cm^3
# Si number density = 16.719616 Si / 1000 Ang^3
#
#
#
# Elastic Constant Matrix: (Units=GPa)
#
#
# Indices 1 2 3 4 5 6 
#
# 1 117.7132 60.8090 71.0776 0.0000 -39.7903 0.0000
# 2 60.8090 93.5246 47.7975 0.0000 -19.9448 0.0000
# 3 71.0776 47.7975 73.0644 0.0000 -19.6755 0.0000
# 4 0.0000 0.0000 0.0000 19.9255 0.0000 -7.1109
# 5 -39.7903 -19.9448 -19.6755 0.0000 32.3073 0.0000
# 6 0.0000 0.0000 0.0000 -7.1109 0.0000 29.0688
#
#
#
# Elastic Compliance Matrix: (Units=1/GPa)
#
#
# Indices 1 2 3 4 5 6 
#
# 1 0.031778 -0.004684 -0.021637 0.000000 0.023069 0.000000
# 2 -0.004684 0.017246 -0.006473 0.000000 0.000935 0.000000
# 3 -0.021637 -0.006473 0.036744 0.000000 -0.008268 0.000000
# 4 0.000000 0.000000 0.000000 0.054987 0.000000 0.013451
# 5 0.023069 0.000935 -0.008268 0.000000 0.054908 0.000000
# 6 0.000000 0.000000 0.000000 0.013451 0.000000 0.037692
#
#
# Mechanical properties :
#
#
# Convention : Reuss Voigt Hill
#
# Bulk Modulus (GPa) = 49.55850 71.51895 60.53872
# Shear Modulus (GPa) = 16.35752 23.23486 19.79619
#
# Velocity S-wave (km/s) = 3.13124 3.73188 3.44468
# Velocity P-wave (km/s) = 6.54050 7.83821 7.21858
#
# Compressibility (1/GPa) = 0.02017817
#
# Stress axis : x y z
#
# Youngs Moduli (GPa) = 31.46821 57.98571 27.21536
#
# Poissons Ratio (x) = 0.27160 0.58887
# Poissons Ratio (y) = 0.14740 0.17617
# Poissons Ratio (z) = 0.68089 0.37536
#
# Static dielectric constant tensor:
#      x y z
#    x 1.590340 0.000000 -0.058380 
#    y 0.000000 1.558380 0.000000 
#    z -0.058380 0.000000 1.571220 
# 
# From -- ./inp_files/61238.got.cif
#   From: 2010.05.17/outbox.cif.g08.bks.cpg/sg11_31_cif.got.tgz:61238.got - 2010.06.03 12:22:45.
