data_PCOD9167304
_publ_section_title
;
Structure prediction by ZEFSAII (Michael W. Deem and Ramdas Pophale) SiO2 
 PCOD9167304
Probable space group: P 21/M
;
_chemical_formula_sum "Si O2"
_cell_formula_units_Z 24
_cell_length_a 11.044225
_cell_length_b 22.566564
_cell_length_c 11.044226
_cell_angle_alpha 90.000000
_cell_angle_beta 153.470445
_cell_angle_gamma 90.000000
_cell_volume 1229.454433
_symmetry_space_group_name_H-M "P 21/M"
_symmetry_group_IT_number 11
_symmetry_cell_setting 'monoclinic'
loop_
_space_group_symop_operation_xyz
x,y,z
-x,1/2+y,-z
-x,-y,-z
x,1/2-y,z
loop_
_atom_site_type_symbol
_atom_site_label
_atom_site_fract_x
_atom_site_fract_y
_atom_site_fract_z
Si Si1 0.794530 0.500000 0.705471
Si Si2 0.465816 0.180795 0.116261
Si Si3 0.250345 0.040755 0.750344
Si Si4 0.812814 0.612995 0.543988
Si Si5 0.956011 0.387005 0.687185
Si Si6 0.616262 0.180795 0.965818
O O1 0.500000 0.500000 0.500000
O O2 0.820129 0.561174 0.651215
O O3 0.848785 0.438827 0.679871
O O4 0.000000 0.500000 0.000000
O O5 0.523104 0.250000 0.190672
O O6 0.703037 0.141073 0.388700
O O7 0.486849 0.174450 0.986849
O O8 0.172594 0.164645 0.914041
O O9 0.284999 0.078393 0.662533
O O10 0.162532 0.078393 0.784997
O O11 0.000000 0.000000 0.500000
O O12 0.500000 0.000000 0.000000
O O13 0.585958 0.664645 0.327404
O O14 0.111299 0.641074 0.796961
O O15 0.690673 0.250000 0.023106
#
# Coordination Sequence:
#
# PCOD9167304 Si02
#       6
#     4   4   4   4   4   4
#     4  12  28  45  64  89 122 170 220 268 312 358
#     4  11  22  38  63 100 136 164 198 248 321 398
#     4  12  22  34  59  98 129 160 198 253 331 392
#     4  12  23  40  65  91 132 167 205 260 320 386
#     4  12  23  40  65  91 132 167 205 260 320 386
#     4  11  22  38  63 100 136 164 198 248 321 398
#
# _framework density 19.520852999999999
#
# number of rings (size 3 to 8) (size 9 to 14) (size 15 to 20)
#    0.000    0.333    5.000    5.000    2.333    2.667 
#    0.000    0.000    0.000   20.000    0.000    0.000 
#    0.000    0.000    0.000    0.000    0.000    0.000 
#
# Total GULP energy -133769.679447 kJ/mol
# GULP energy per Si atom -5573.736644 kJ/mol
# Density = 1.947642 g / cm^3
# Si number density = 19.520853 Si / 1000 Ang^3
#
#
#
# Elastic Constant Matrix: (Units=GPa)
#
#
# Indices 1 2 3 4 5 6 
#
# 1 89.3583 60.6104 38.2353 0.0000 1.8652 0.0000
# 2 60.6104 130.3143 47.9600 0.0000 -2.3022 0.0000
# 3 38.2353 47.9600 140.8569 0.0000 7.5067 0.0000
# 4 0.0000 0.0000 0.0000 44.9498 0.0000 3.7972
# 5 1.8652 -2.3022 7.5067 0.0000 31.7134 0.0000
# 6 0.0000 0.0000 0.0000 3.7972 0.0000 24.0848
#
#
#
# Elastic Compliance Matrix: (Units=1/GPa)
#
#
# Indices 1 2 3 4 5 6 
#
# 1 0.016950 -0.007120 -0.002123 0.000000 -0.001011 0.000000
# 2 -0.007120 0.011822 -0.002188 0.000000 0.001795 0.000000
# 3 -0.002123 -0.002188 0.008530 0.000000 -0.002053 0.000000
# 4 0.000000 0.000000 0.000000 0.022547 0.000000 -0.003555
# 5 -0.001011 0.001795 -0.002053 0.000000 0.032208 0.000000
# 6 0.000000 0.000000 0.000000 -0.003555 0.000000 0.042080
#
#
# Mechanical properties :
#
#
# Convention : Reuss Voigt Hill
#
# Bulk Modulus (GPa) = 69.25223 72.68231 70.96727
# Shear Modulus (GPa) = 30.89967 34.39786 32.64877
#
# Velocity S-wave (km/s) = 3.98289 4.20230 4.09407
# Velocity P-wave (km/s) = 7.53022 7.80127 7.66694
#
# Compressibility (1/GPa) = 0.01443997
#
# Stress axis : x y z
#
# Youngs Moduli (GPa) = 58.99781 84.58466 117.23142
#
# Poissons Ratio (x) = 0.60225 0.24886
# Poissons Ratio (y) = 0.42007 0.25654
# Poissons Ratio (z) = 0.12524 0.18510
#
# Static dielectric constant tensor:
#      x y z
#    x 1.655040 0.000000 0.012600 
#    y 0.000000 1.852000 0.000000 
#    z 0.012600 0.000000 1.724290 
# 
# From -- ./inp_files/36598.got.cif
#   From: 2010.05.17/outbox.cif.g08.bks.cpg/sg11_19_cif.got.tgz:36598.got - 2010.06.03 12:22:45.
