data_PCOD9167625
_publ_section_title
;
Structure prediction by ZEFSAII (Michael W. Deem and Ramdas Pophale) SiO2 
 PCOD9167625
Probable space group: P 21/M
;
_chemical_formula_sum "Si O2"
_cell_formula_units_Z 32
_cell_length_a 6.885971
_cell_length_b 7.629018
_cell_length_c 22.676820
_cell_angle_alpha 90.000000
_cell_angle_beta 87.015709
_cell_angle_gamma 90.000000
_cell_volume 1189.670279
_symmetry_space_group_name_H-M "P 21/M"
_symmetry_group_IT_number 11
_symmetry_cell_setting 'monoclinic'
loop_
_space_group_symop_operation_xyz
x,y,z
-x,1/2+y,-z
-x,-y,-z
x,1/2-y,z
loop_
_atom_site_type_symbol
_atom_site_label
_atom_site_fract_x
_atom_site_fract_y
_atom_site_fract_z
Si Si1 0.629774 0.451089 0.268022
Si Si2 0.281329 0.543912 0.981369
Si Si3 0.603515 0.047233 0.140993
Si Si4 0.159371 0.051773 0.107717
Si Si5 0.271838 0.457705 0.608691
Si Si6 0.086513 0.455826 0.235450
Si Si7 0.822727 0.956456 0.641300
Si Si8 0.228563 0.039394 0.483887
O O1 0.564963 0.250000 0.268007
O O2 0.573632 0.535520 0.206071
O O3 0.597428 0.511174 0.335534
O O4 0.863018 0.458446 0.257395
O O5 0.274576 0.750000 0.973080
O O6 0.147164 0.505813 0.040110
O O7 0.500000 0.500000 0.000000
O O8 0.265482 0.469170 0.914388
O O9 0.666528 0.250000 0.150935
O O10 0.389727 0.054158 0.117207
O O11 0.084421 0.250000 0.108568
O O12 0.088693 0.964123 0.169760
O O13 0.247036 0.250000 0.604238
O O14 0.331410 0.525468 0.542628
O O15 0.056366 0.532955 0.625238
O O16 0.145188 0.250000 0.228039
O O17 0.201616 0.527450 0.291065
O O18 0.776119 0.750000 0.644481
O O19 0.733883 0.034708 0.582330
O O20 0.251195 0.250000 0.479844
O O21 0.000000 0.000000 0.500000
#
# Coordination Sequence:
#
# PCOD9167625 Si02
#       8
#     4   4   4   4   4   4   4   4
#     4   9  16  28  42  56  76 107 136 159 190 235
#     4   9  16  28  45  64  82 103 130 164 198 231
#     4   8  15  27  44  60  76  99 131 163 192 226
#     4   9  16  28  44  63  82 102 128 163 198 231
#     4   9  15  22  33  54  80 103 126 163 204 233
#     4   8  14  24  41  60  79 102 132 163 192 226
#     4   8  13  23  37  53  74 106 138 161 188 232
#     4   8  13  20  32  50  74 100 130 162 194 228
#
# _framework density 26.898211
#
# number of rings (size 3 to 8) (size 9 to 14) (size 15 to 20)
#    0.000    3.500    0.000    2.250    0.000    0.500 
#    0.000    6.250    0.000    0.000    0.000    0.875 
#    0.000    0.000    0.000    0.000    0.000    0.000 
#
# Total GULP energy -178429.052571 kJ/mol
# GULP energy per Si atom -5575.907893 kJ/mol
# Density = 2.683699 g / cm^3
# Si number density = 26.898211 Si / 1000 Ang^3
#
#
#
# Elastic Constant Matrix: (Units=GPa)
#
#
# Indices 1 2 3 4 5 6 
#
# 1 78.3614 -4.6226 59.2887 0.0000 1.7647 0.0000
# 2 -4.6226 61.7713 24.4021 0.0000 -3.2307 0.0000
# 3 59.2887 24.4021 392.3003 0.0000 0.2704 0.0000
# 4 0.0000 0.0000 0.0000 23.2303 0.0000 0.1972
# 5 1.7647 -3.2307 0.2704 0.0000 68.7440 0.0000
# 6 0.0000 0.0000 0.0000 0.1972 0.0000 2.0319
#
#
#
# Elastic Compliance Matrix: (Units=1/GPa)
#
#
# Indices 1 2 3 4 5 6 
#
# 1 0.014656 0.002007 -0.002340 0.000000 -0.000273 0.000000
# 2 0.002007 0.016914 -0.001356 0.000000 0.000749 0.000000
# 3 -0.002340 -0.001356 0.002987 0.000000 -0.000015 0.000000
# 4 0.000000 0.000000 0.000000 0.043083 0.000000 -0.004180
# 5 -0.000273 0.000749 -0.000015 0.000000 0.014589 0.000000
# 6 0.000000 0.000000 0.000000 -0.004180 0.000000 0.492551
#
#
# Mechanical properties :
#
#
# Convention : Reuss Voigt Hill
#
# Bulk Modulus (GPa) = 32.07257 76.72995 54.40126
# Shear Modulus (GPa) = 8.35351 49.02556 28.68954
#
# Velocity S-wave (km/s) = 1.76418 4.27386 3.26942
# Velocity P-wave (km/s) = 4.01240 7.27616 5.87545
#
# Compressibility (1/GPa) = 0.03117929
#
# Stress axis : x y z
#
# Youngs Moduli (GPa) = 68.23107 59.12364 334.78325
#
# Poissons Ratio (x) = -0.11865 0.78327
# Poissons Ratio (y) = -0.13692 0.45392
# Poissons Ratio (z) = 0.15964 0.08016
#
# Static dielectric constant tensor:
#      x y z
#    x 2.206010 0.000000 -0.003870 
#    y 0.000000 1.948940 0.000000 
#    z -0.003870 0.000000 2.272930 
# 
# From -- ./inp_files/43663.got.cif
#   From: 2010.05.17/outbox.cif.g08.bks.cpg/sg11_22_cif.got.tgz:43663.got - 2010.06.03 12:22:45.
