data_PCOD9167673
_publ_section_title
;
Structure prediction by ZEFSAII (Michael W. Deem and Ramdas Pophale) SiO2 
 PCOD9167673
Probable space group: P 21/M
;
_chemical_formula_sum "Si O2"
_cell_formula_units_Z 32
_cell_length_a 18.964960
_cell_length_b 9.330814
_cell_length_c 13.997197
_cell_angle_alpha 90.000000
_cell_angle_beta 111.655661
_cell_angle_gamma 90.000000
_cell_volume 2302.098048
_symmetry_space_group_name_H-M "P 21/M"
_symmetry_group_IT_number 11
_symmetry_cell_setting 'monoclinic'
loop_
_space_group_symop_operation_xyz
x,y,z
-x,1/2+y,-z
-x,-y,-z
x,1/2-y,z
loop_
_atom_site_type_symbol
_atom_site_label
_atom_site_fract_x
_atom_site_fract_y
_atom_site_fract_z
Si Si1 0.772699 0.079499 0.272660
Si Si2 0.387974 0.577999 0.493772
Si Si3 0.925087 0.915077 0.578867
Si Si4 0.471067 0.578516 0.127712
Si Si5 0.471067 0.921484 0.343355
Si Si6 0.612027 0.422001 0.105798
Si Si7 0.227301 0.579499 0.499962
Si Si8 0.925087 0.915077 0.346220
O O1 0.785176 0.250000 0.265993
O O2 0.696538 0.036682 0.179092
O O3 0.760669 0.055811 0.380334
O O4 0.847430 0.993832 0.279479
O O5 0.394244 0.750000 0.509932
O O6 0.451365 0.500929 0.589542
O O7 0.410028 0.543985 0.395231
O O8 0.303462 0.536682 0.482555
O O9 0.926751 0.750000 0.610270
O O10 0.926196 0.916380 0.463098
O O11 0.847430 0.993832 0.567951
O O12 1.000000 1.000000 0.648181
O O13 0.483627 0.750000 0.130013
O O14 0.448077 0.541062 0.224038
O O15 0.548635 0.499071 0.138177
O O16 0.410028 0.543984 0.014797
O O17 0.483627 0.750000 0.353614
O O18 0.605756 0.250000 0.115688
O O19 0.214824 0.750000 0.480818
O O20 0.926752 0.750000 0.316481
#
# Coordination Sequence:
#
# PCOD9167673 Si02
#       8
#     4   4   4   4   4   4   4   4
#     4   9  16  25  37  53  74 100 129 159 188 221
#     4   9  17  28  41  57  77 103 134 164 195 233
#     4   9  16  25  37  53  74 100 127 153 183 221
#     4   9  17  28  41  57  78 103 131 165 201 233
#     4   9  17  28  41  57  78 103 131 165 201 233
#     4   9  17  28  41  57  77 103 134 164 195 233
#     4   9  16  25  37  53  74 100 129 159 188 221
#     4   9  16  25  37  53  74 100 127 153 183 221
#
# _framework density 13.900363
#
# number of rings (size 3 to 8) (size 9 to 14) (size 15 to 20)
#    0.000    3.000    0.000    1.500    0.000    5.500 
#    0.000    2.500    0.000    0.000    0.000    0.000 
#    0.000    1.000    0.000    1.750    0.000    2.500 
#
# Total GULP energy -178178.178003 kJ/mol
# GULP energy per Si atom -5568.068063 kJ/mol
# Density = 1.386873 g / cm^3
# Si number density = 13.900363 Si / 1000 Ang^3
#
#
#
# Elastic Constant Matrix: (Units=GPa)
#
#
# Indices 1 2 3 4 5 6 
#
# 1 132.9460 58.3831 52.2931 0.0000 21.1167 0.0000
# 2 58.3831 47.4587 33.8463 0.0000 11.9716 0.0000
# 3 52.2931 33.8463 67.9334 0.0000 10.6030 0.0000
# 4 0.0000 0.0000 0.0000 14.1277 0.0000 5.1126
# 5 21.1167 11.9716 10.6030 0.0000 23.8158 0.0000
# 6 0.0000 0.0000 0.0000 5.1126 0.0000 24.6064
#
#
#
# Elastic Compliance Matrix: (Units=1/GPa)
#
#
# Indices 1 2 3 4 5 6 
#
# 1 0.017588 -0.017491 -0.004043 0.000000 -0.005002 0.000000
# 2 -0.017491 0.052388 -0.011765 0.000000 -0.005587 0.000000
# 3 -0.004043 -0.011765 0.023871 0.000000 -0.001128 0.000000
# 4 0.000000 0.000000 0.000000 0.076538 0.000000 -0.015903
# 5 -0.005002 -0.005587 -0.001128 0.000000 0.049735 0.000000
# 6 0.000000 0.000000 0.000000 -0.015903 0.000000 0.043944
#
#
# Mechanical properties :
#
#
# Convention : Reuss Voigt Hill
#
# Bulk Modulus (GPa) = 36.70035 59.70924 48.20480
# Shear Modulus (GPa) = 14.71687 19.43101 17.07394
#
# Velocity S-wave (km/s) = 3.25736 3.74288 3.50853
# Velocity P-wave (km/s) = 6.37236 7.85667 7.15312
#
# Compressibility (1/GPa) = 0.02724769
#
# Stress axis : x y z
#
# Youngs Moduli (GPa) = 56.85676 19.08825 41.89251
#
# Poissons Ratio (x) = 0.33387 0.16939
# Poissons Ratio (y) = 0.99449 0.49287
# Poissons Ratio (z) = 0.22990 0.22457
#
# Static dielectric constant tensor:
#      x y z
#    x 1.441110 0.000000 -0.002870 
#    y 0.000000 1.464320 0.000000 
#    z -0.002870 0.000000 1.447000 
# 
# From -- ./inp_files/52952.got.cif
#   From: 2010.05.17/outbox.cif.g08.bks.cpg/sg11_27_cif.got.tgz:52952.got - 2010.06.03 12:22:45.
