data_PCOD9167447
_publ_section_title
;
Structure prediction by ZEFSAII (Michael W. Deem and Ramdas Pophale) SiO2 
 PCOD9167447
Probable space group: P 21/M
;
_chemical_formula_sum "Si O2"
_cell_formula_units_Z 30
_cell_length_a 8.359809
_cell_length_b 23.690728
_cell_length_c 7.366018
_cell_angle_alpha 90.000000
_cell_angle_beta 74.276599
_cell_angle_gamma 90.000000
_cell_volume 1404.251474
_symmetry_space_group_name_H-M "P 21/M"
_symmetry_group_IT_number 11
_symmetry_cell_setting 'monoclinic'
loop_
_space_group_symop_operation_xyz
x,y,z
-x,1/2+y,-z
-x,-y,-z
x,1/2-y,z
loop_
_atom_site_type_symbol
_atom_site_label
_atom_site_fract_x
_atom_site_fract_y
_atom_site_fract_z
Si Si1 0.404112 0.059691 0.041287
Si Si2 0.296386 0.138549 0.746014
Si Si3 0.685566 0.142633 0.943696
Si Si4 0.169738 0.250000 0.001663
Si Si5 0.898730 0.162833 0.203788
Si Si6 0.033083 0.049014 0.265097
Si Si7 0.012507 0.925772 0.303004
Si Si8 0.382077 0.814272 0.429325
O O1 0.233081 0.051215 0.201111
O O2 0.347074 0.088266 0.868478
O O3 0.531532 0.107701 0.072888
O O4 0.500000 0.000000 0.000000
O O5 0.260068 0.198362 0.857339
O O6 0.457755 0.148499 0.571392
O O7 0.131287 0.118917 0.694658
O O8 0.814349 0.097325 0.823173
O O9 0.636366 0.178820 0.782821
O O10 0.782131 0.176925 0.067789
O O11 0.059960 0.201417 0.146056
O O12 0.786122 0.168986 0.416235
O O13 0.958530 0.098454 0.166043
O O14 0.976149 0.062672 0.486582
O O15 0.974444 0.986879 0.229557
O O16 0.414037 0.750000 0.468750
#
# Coordination Sequence:
#
# PCOD9167447 Si02
#       8
#     4   4   4   2   4   4   4   4
#     4  11  23  41  65  97 132 173 223 275 336 400
#     4  11  25  43  67  95 138 176 220 281 339 398
#     4  11  24  40  65 100 131 172 221 270 333 391
#     4  12  22  42  70 100 126 178 232 266 330 412
#     4  12  25  43  71  98 133 177 228 268 333 406
#     4  11  24  43  65 101 136 172 227 280 330 411
#     4  11  23  42  67  97 133 178 222 275 342 397
#     4  11  25  44  65  96 136 174 218 279 331 392
#
# _framework density 21.363693999999999
#
# number of rings (size 3 to 8) (size 9 to 14) (size 15 to 20)
#    0.000    0.800    6.667    0.000    4.667    1.067 
#    0.000    2.000    5.867    0.000    0.000    0.000 
#    0.000    0.000    0.000    0.000    0.000    0.000 
#
# Total GULP energy -167054.436117 kJ/mol
# GULP energy per Si atom -5568.481204 kJ/mol
# Density = 2.131507 g / cm^3
# Si number density = 21.363694 Si / 1000 Ang^3
#
#
#
# Elastic Constant Matrix: (Units=GPa)
#
#
# Indices 1 2 3 4 5 6 
#
# 1 50.6451 18.4081 3.2225 0.0000 -7.3910 0.0000
# 2 18.4081 102.6780 23.1509 0.0000 -11.8639 0.0000
# 3 3.2225 23.1509 63.7598 0.0000 -11.7644 0.0000
# 4 0.0000 0.0000 0.0000 19.2316 0.0000 -12.4359
# 5 -7.3910 -11.8639 -11.7644 0.0000 22.5405 0.0000
# 6 0.0000 0.0000 0.0000 -12.4359 0.0000 28.5315
#
#
#
# Elastic Compliance Matrix: (Units=1/GPa)
#
#
# Indices 1 2 3 4 5 6 
#
# 1 0.021810 -0.003507 0.001273 0.000000 0.005970 0.000000
# 2 -0.003507 0.011500 -0.003423 0.000000 0.003116 0.000000
# 3 0.001273 -0.003423 0.018377 0.000000 0.008207 0.000000
# 4 0.000000 0.000000 0.000000 0.072405 0.000000 0.031559
# 5 0.005970 0.003116 0.008207 0.000000 0.052246 0.000000
# 6 0.000000 0.000000 0.000000 0.031559 0.000000 0.048804
#
#
# Mechanical properties :
#
#
# Convention : Reuss Voigt Hill
#
# Bulk Modulus (GPa) = 24.77023 34.07176 29.42099
# Shear Modulus (GPa) = 20.00683 25.54748 22.77715
#
# Velocity S-wave (km/s) = 3.06353 3.46184 3.26876
# Velocity P-wave (km/s) = 4.91257 5.65351 5.29601
#
# Compressibility (1/GPa) = 0.04037105
#
# Stress axis : x y z
#
# Youngs Moduli (GPa) = 45.84984 86.95737 54.41644
#
# Poissons Ratio (x) = 0.30499 -0.06926
# Poissons Ratio (y) = 0.16081 0.18629
# Poissons Ratio (z) = -0.05835 0.29769
#
# Static dielectric constant tensor:
#      x y z
#    x 1.800080 0.000000 0.007370 
#    y 0.000000 1.767640 0.000000 
#    z 0.007370 0.000000 1.780390 
# 
# From -- ./inp_files/14918.got.cif
#   From: 2010.05.17/outbox.cif.g08.bks.cpg/sg11_8_cif.got.tgz:14918.got - 2010.06.03 12:22:45.
