data_PCOD9167340
_publ_section_title
;
Structure prediction by ZEFSAII (Michael W. Deem and Ramdas Pophale) SiO2 
 PCOD9167340
Probable space group: P 21/M
;
_chemical_formula_sum "Si O2"
_cell_formula_units_Z 24
_cell_length_a 8.456828
_cell_length_b 20.634452
_cell_length_c 8.858549
_cell_angle_alpha 90.000000
_cell_angle_beta 130.485846
_cell_angle_gamma 90.000000
_cell_volume 1175.709837
_symmetry_space_group_name_H-M "P 21/M"
_symmetry_group_IT_number 11
_symmetry_cell_setting 'monoclinic'
loop_
_space_group_symop_operation_xyz
x,y,z
-x,1/2+y,-z
-x,-y,-z
x,1/2-y,z
loop_
_atom_site_type_symbol
_atom_site_label
_atom_site_fract_x
_atom_site_fract_y
_atom_site_fract_z
Si Si1 0.205524 0.061620 0.389321
Si Si2 0.749778 0.036569 0.987764
Si Si3 0.831738 0.676290 0.397455
Si Si4 0.338192 0.931370 0.415935
Si Si5 0.406313 0.400107 0.995804
Si Si6 0.698568 0.177168 0.402645
O O1 0.220914 0.119777 0.516675
O O2 0.412127 0.068977 0.416913
O O3 0.242053 0.986882 0.465999
O O4 0.980039 0.060504 0.174529
O O5 0.717908 0.051349 0.791063
O O6 0.573934 0.072479 0.978091
O O7 0.720375 0.960966 0.014204
O O8 0.757961 0.750000 0.384825
O O9 0.738810 0.650404 0.182630
O O10 0.080592 0.678500 0.543558
O O11 0.263845 0.861565 0.419882
O O12 0.536459 0.363256 0.203683
O O13 0.625629 0.250000 0.382471
#
# Coordination Sequence:
#
# PCOD9167340 Si02
#       6
#     4   4   4   4   4   4
#     4  11  22  41  65  96 132 164 214 269 318 386
#     4  11  23  39  67  99 126 164 212 269 322 375
#     4  11  24  42  65  94 128 173 220 263 318 388
#     4  11  24  41  63  99 134 165 209 274 329 378
#     4  11  22  40  68  95 126 166 215 268 316 373
#     4  11  25  44  65  92 130 174 216 264 324 387
#
# _framework density 20.413198000000001
#
# number of rings (size 3 to 8) (size 9 to 14) (size 15 to 20)
#    0.000    1.000    3.333    4.000    2.333    3.333 
#    0.000    0.833    0.000    0.000    0.000    0.000 
#    0.000    0.000    0.000    0.000    0.000    0.000 
#
# Total GULP energy -134015.555138 kJ/mol
# GULP energy per Si atom -5583.981464 kJ/mol
# Density = 2.036674 g / cm^3
# Si number density = 20.413198 Si / 1000 Ang^3
#
#
#
# Elastic Constant Matrix: (Units=GPa)
#
#
# Indices 1 2 3 4 5 6 
#
# 1 42.7355 38.7368 43.7503 0.0000 0.7541 0.0000
# 2 38.7368 161.2339 65.7971 0.0000 -20.6031 0.0000
# 3 43.7503 65.7971 114.8256 0.0000 0.8959 0.0000
# 4 0.0000 0.0000 0.0000 20.1576 0.0000 8.3337
# 5 0.7541 -20.6031 0.8959 0.0000 34.1271 0.0000
# 6 0.0000 0.0000 0.0000 8.3337 0.0000 14.7289
#
#
#
# Elastic Compliance Matrix: (Units=1/GPa)
#
#
# Indices 1 2 3 4 5 6 
#
# 1 0.041142 -0.005185 -0.012675 0.000000 -0.003707 0.000000
# 2 -0.005185 0.009706 -0.003634 0.000000 0.006070 0.000000
# 3 -0.012675 -0.003634 0.015639 0.000000 -0.002324 0.000000
# 4 0.000000 0.000000 0.000000 0.064757 0.000000 -0.036640
# 5 -0.003707 0.006070 -0.002324 0.000000 0.033110 0.000000
# 6 0.000000 0.000000 0.000000 -0.036640 0.000000 0.088625
#
#
# Mechanical properties :
#
#
# Convention : Reuss Voigt Hill
#
# Bulk Modulus (GPa) = 42.55674 68.37370 55.46522
# Shear Modulus (GPa) = 16.45816 25.17010 20.81413
#
# Velocity S-wave (km/s) = 2.84254 3.51526 3.19665
# Velocity P-wave (km/s) = 5.62728 7.07415 6.39179
#
# Compressibility (1/GPa) = 0.02349804
#
# Stress axis : x y z
#
# Youngs Moduli (GPa) = 24.30612 103.02443 63.94421
#
# Poissons Ratio (x) = 0.53423 0.81052
# Poissons Ratio (y) = 0.12604 0.23235
# Poissons Ratio (z) = 0.30809 0.37435
#
# Static dielectric constant tensor:
#      x y z
#    x 1.728790 0.000000 -0.008220 
#    y 0.000000 1.762690 0.000000 
#    z -0.008220 0.000000 1.735200 
# 
# From -- ./inp_files/14404.got.cif
#   From: 2010.05.17/outbox.cif.g08.bks.cpg/sg11_8_cif.got.tgz:14404.got - 2010.06.03 12:22:45.
