data_PCOD9167173
_publ_section_title
;
Structure prediction by ZEFSAII (Michael W. Deem and Ramdas Pophale) SiO2 
 PCOD9167173
Probable space group: P 21/M
;
_chemical_formula_sum "Si O2"
_cell_formula_units_Z 32
_cell_length_a 18.856466
_cell_length_b 9.707827
_cell_length_c 25.415684
_cell_angle_alpha 90.000000
_cell_angle_beta 20.455697
_cell_angle_gamma 90.000000
_cell_volume 1625.961287
_symmetry_space_group_name_H-M "P 21/M"
_symmetry_group_IT_number 11
_symmetry_cell_setting 'monoclinic'
loop_
_space_group_symop_operation_xyz
x,y,z
-x,1/2+y,-z
-x,-y,-z
x,1/2-y,z
loop_
_atom_site_type_symbol
_atom_site_label
_atom_site_fract_x
_atom_site_fract_y
_atom_site_fract_z
Si Si1 0.287392 0.581428 0.890547
Si Si2 0.915987 0.009883 0.323722
Si Si3 0.576113 0.593134 0.871617
Si Si4 0.513267 0.092832 0.657258
Si Si5 0.801641 0.399922 0.784799
Si Si6 0.303701 0.088976 0.986805
Si Si7 0.322563 0.398437 0.608530
Si Si8 0.132525 0.405330 0.852740
O O1 0.289278 0.750000 0.893359
O O2 0.481272 0.517808 0.725720
O O3 0.269403 0.503782 0.958738
O O4 0.092767 0.532310 0.989950
O O5 0.803511 0.926725 0.355979
O O6 0.017580 0.924237 0.300049
O O7 0.733405 0.092687 0.477583
O O8 0.103474 0.083656 0.163573
O O9 0.611843 0.750000 0.828016
O O10 0.766949 0.522435 0.767669
O O11 0.399095 0.602716 0.038844
O O12 0.483855 0.488727 0.892890
O O13 0.471613 0.250000 0.704191
O O14 0.344955 0.049721 0.730364
O O15 0.818864 0.250000 0.747005
O O16 0.345566 0.250000 0.946183
O O17 0.500000 0.500000 0.500000
O O18 0.421742 0.250000 0.535278
O O19 0.173372 0.399689 0.761906
O O20 0.104242 0.250000 0.892749
#
# Coordination Sequence:
#
# PCOD9167173 Si02
#       8
#     4   4   4   4   4   4   4   4
#     4  11  23  40  60  84 115 155 200 246 296 351
#     4  11  22  36  60  89 120 155 197 242 295 349
#     4   9  18  33  55  84 118 154 188 233 289 344
#     4  11  23  40  58  82 118 157 198 247 296 346
#     4   9  18  32  53  83 118 153 191 237 286 343
#     4  11  22  37  61  91 119 152 195 241 290 349
#     4  11  21  36  56  83 118 155 196 246 298 348
#     4   9  19  37  58  79 110 152 196 246 296 342
#
# _framework density 19.680665000000001
#
# number of rings (size 3 to 8) (size 9 to 14) (size 15 to 20)
#    0.000    1.750    2.500    2.250    0.000    6.000 
#    0.000    0.625    0.000    0.750    0.000    0.000 
#    0.000    0.000    0.000    0.000    0.000    0.000 
#
# Total GULP energy -178175.953673 kJ/mol
# GULP energy per Si atom -5567.998552 kJ/mol
# Density = 1.963587 g / cm^3
# Si number density = 19.680665 Si / 1000 Ang^3
#
#
#
# Elastic Constant Matrix: (Units=GPa)
#
#
# Indices 1 2 3 4 5 6 
#
# 1 85.9707 52.9629 27.9537 0.0000 -22.7168 0.0000
# 2 52.9629 144.0223 27.1434 0.0000 -10.0845 0.0000
# 3 27.9537 27.1434 54.2824 0.0000 0.7593 0.0000
# 4 0.0000 0.0000 0.0000 15.4243 0.0000 2.9110
# 5 -22.7168 -10.0845 0.7593 0.0000 23.6975 0.0000
# 6 0.0000 0.0000 0.0000 2.9110 0.0000 19.9396
#
#
#
# Elastic Compliance Matrix: (Units=1/GPa)
#
#
# Indices 1 2 3 4 5 6 
#
# 1 0.023556 -0.005387 -0.009725 0.000000 0.020601 0.000000
# 2 -0.005387 0.009180 -0.001799 0.000000 -0.001200 0.000000
# 3 -0.009725 -0.001799 0.024482 0.000000 -0.010873 0.000000
# 4 0.000000 0.000000 0.000000 0.066670 0.000000 -0.009733
# 5 0.020601 -0.001200 -0.010873 0.000000 0.061784 0.000000
# 6 0.000000 0.000000 0.000000 -0.009733 0.000000 0.051572
#
#
# Mechanical properties :
#
#
# Convention : Reuss Voigt Hill
#
# Bulk Modulus (GPa) = 42.74419 55.59948 49.17183
# Shear Modulus (GPa) = 17.92981 23.55999 20.74490
#
# Velocity S-wave (km/s) = 3.02161 3.46369 3.25017
# Velocity P-wave (km/s) = 5.82577 6.65645 6.25491
#
# Compressibility (1/GPa) = 0.02339499
#
# Stress axis : x y z
#
# Youngs Moduli (GPa) = 42.45126 108.93815 40.84641
#
# Poissons Ratio (x) = 0.58689 0.39723
# Poissons Ratio (y) = 0.22870 0.07348
# Poissons Ratio (z) = 0.41284 0.19598
#
# Static dielectric constant tensor:
#      x y z
#    x 1.713700 0.000000 -0.004920 
#    y 0.000000 1.728790 0.000000 
#    z -0.004920 0.000000 1.725530 
# 
# From -- ./inp_files/71996.got.cif
#   From: 2010.05.17/outbox.cif.g08.bks.cpg/sg11_36_cif.got.tgz:71996.got - 2010.06.03 12:22:45.
