data_PCOD9167714
_publ_section_title
;
Structure prediction by ZEFSAII (Michael W. Deem and Ramdas Pophale) SiO2 
 PCOD9167714
Probable space group: P 21/M
;
_chemical_formula_sum "Si O2"
_cell_formula_units_Z 32
_cell_length_a 30.000000
_cell_length_b 9.000000
_cell_length_c 12.000000
_cell_angle_alpha 90.000000
_cell_angle_beta 150.000000
_cell_angle_gamma 90.000000
_cell_volume 1620.000000
_symmetry_space_group_name_H-M "P 21/M"
_symmetry_group_IT_number 11
_symmetry_cell_setting 'monoclinic'
loop_
_space_group_symop_operation_xyz
x,y,z
-x,1/2+y,-z
-x,-y,-z
x,1/2-y,z
loop_
_atom_site_type_symbol
_atom_site_label
_atom_site_fract_x
_atom_site_fract_y
_atom_site_fract_z
Si Si1 0.659796 0.570402 0.508575
Si Si2 0.830135 0.077431 0.996089
Si Si3 0.818628 0.572933 0.197234
Si Si4 0.515243 0.077766 0.349983
Si Si5 0.631786 0.078573 0.829899
Si Si6 0.066172 0.924137 0.999944
Si Si7 0.236571 0.072118 0.478658
Si Si8 0.868624 0.569067 0.548743
O O1 0.653867 0.750000 0.501583
O O2 0.573083 0.496640 0.376743
O O3 0.684501 0.523170 0.434215
O O4 0.745552 0.513769 0.764782
O O5 0.802530 0.250000 0.947640
O O6 0.909886 0.071621 0.079736
O O7 0.855162 0.009851 0.168469
O O8 0.826430 0.750000 0.201084
O O9 0.862410 0.524207 0.407627
O O10 0.715819 0.525572 0.989263
O O11 0.494073 0.250000 0.277984
O O12 0.575404 0.077234 0.592719
O O13 0.428500 0.986087 0.200612
O O14 0.657454 0.250000 0.906647
O O15 0.075046 0.750000 0.053460
O O16 0.965751 0.977430 0.803425
O O17 0.143825 0.022262 0.221141
O O18 0.243124 0.250000 0.495049
O O19 0.216466 0.020288 0.561500
O O20 0.869248 0.750000 0.552036
#
# Coordination Sequence:
#
# PCOD9167714 Si02
#       8
#     4   4   4   4   4   4   4   4
#     4  10  18  29  50  77 103 131 163 205 251 298
#     4  10  19  31  47  71 102 134 166 207 255 298
#     4  11  21  33  51  71 100 139 173 203 244 303
#     4  10  19  31  51  77 105 133 161 199 247 296
#     4  10  20  33  50  74 105 134 162 202 246 293
#     4   9  18  33  53  74  99 130 168 214 260 299
#     4   9  18  33  53  76 101 129 168 214 256 294
#     4   9  19  35  52  72  99 135 173 210 253 299
#
# _framework density 19.753086
#
# number of rings (size 3 to 8) (size 9 to 14) (size 15 to 20)
#    0.000    2.250    1.250    2.250    0.000    2.500 
#    0.000    2.500    0.000    0.750    0.000    0.000 
#    0.000    0.000    0.000    0.000    0.000    0.000 
#
# Total GULP energy -178448.808819 kJ/mol
# GULP energy per Si atom -5576.525276 kJ/mol
# Density = 1.970813 g / cm^3
# Si number density = 19.753086 Si / 1000 Ang^3
#
#
#
# Elastic Constant Matrix: (Units=GPa)
#
#
# Indices 1 2 3 4 5 6 
#
# 1 97.5435 11.0652 -11.9980 0.0000 9.1228 0.0000
# 2 11.0652 43.8047 -9.6494 0.0000 3.0251 0.0000
# 3 -11.9980 -9.6494 2.1488 0.0000 -3.9405 0.0000
# 4 0.0000 0.0000 0.0000 13.2439 0.0000 5.9442
# 5 9.1228 3.0251 -3.9405 0.0000 22.6216 0.0000
# 6 0.0000 0.0000 0.0000 5.9442 0.0000 19.0888
#
#
#
# Elastic Compliance Matrix: (Units=1/GPa)
#
#
# Indices 1 2 3 4 5 6 
#
# 1 0.004091 -0.016685 -0.074963 0.000000 -0.012477 0.000000
# 2 -0.016685 -0.005989 -0.156122 0.000000 -0.019666 0.000000
# 3 -0.074963 -0.156122 -0.823661 0.000000 -0.092367 0.000000
# 4 0.000000 0.000000 0.000000 0.087774 0.000000 -0.027332
# 5 -0.012477 -0.019666 -0.092367 0.000000 0.035777 0.000000
# 6 0.000000 0.000000 0.000000 -0.027332 0.000000 0.060898
#
#
# Mechanical properties :
#
#
# Convention : Reuss Voigt Hill
#
# Bulk Modulus (GPa) = -0.75695 13.59251 6.41778
# Shear Modulus (GPa) = -8.53333 21.26282 6.36474
#
# Velocity S-wave (km/s) = -2.08072 3.28446 1.79698
# Velocity P-wave (km/s) = 2.48124 4.61299 2.74983
#
# Compressibility (1/GPa) = -1.32109952
#
# Stress axis : x y z
#
# Youngs Moduli (GPa) = 244.45060 -166.95888 -1.21409
#
# Poissons Ratio (x) = -2.78565 -0.09101
# Poissons Ratio (y) = 4.07857 -0.18955
# Poissons Ratio (z) = 18.32474 -26.06601
#
# Static dielectric constant tensor:
#      x y z
#    x 1.743640 0.000000 -0.031980 
#    y 0.000000 1.660680 0.000000 
#    z -0.031980 0.000000 1.705710 
# 
# From -- ./inp_files/42792.got.cif
#   From: 2010.05.17/outbox.ucp.g08.bks.cvg/sg11_22_cif.got.tgz:42792.got - 2010.06.11 11:38:39.
