data_PCOD9167237
_publ_section_title
;
Structure prediction by ZEFSAII (Michael W. Deem and Ramdas Pophale) SiO2 
 PCOD9167237
Probable space group: P 21/M
;
_chemical_formula_sum "Si O2"
_cell_formula_units_Z 32
_cell_length_a 22.242010
_cell_length_b 9.317911
_cell_length_c 16.553407
_cell_angle_alpha 90.000000
_cell_angle_beta 140.956698
_cell_angle_gamma 90.000000
_cell_volume 2161.010097
_symmetry_space_group_name_H-M "P 21/M"
_symmetry_group_IT_number 11
_symmetry_cell_setting 'monoclinic'
loop_
_space_group_symop_operation_xyz
x,y,z
-x,1/2+y,-z
-x,-y,-z
x,1/2-y,z
loop_
_atom_site_type_symbol
_atom_site_label
_atom_site_fract_x
_atom_site_fract_y
_atom_site_fract_z
Si Si1 0.918248 0.084930 0.020473
Si Si2 0.804664 0.078782 0.594541
Si Si3 0.645996 0.420912 0.296930
Si Si4 0.474236 0.920559 0.056643
Si Si5 0.267792 0.919064 0.791683
Si Si6 0.860362 0.584777 0.808356
Si Si7 0.018797 0.420240 0.760960
Si Si8 0.924090 0.578580 0.363740
O O1 0.888175 0.250000 0.994916
O O2 0.028458 0.083376 0.104281
O O3 0.922243 0.007652 0.110935
O O4 0.858833 0.999430 0.891186
O O5 0.802634 0.250000 0.607792
O O6 0.718548 0.043086 0.444475
O O7 0.906350 0.047810 0.657361
O O8 0.804183 0.994369 0.678168
O O9 0.625872 0.250000 0.277882
O O10 0.547698 0.509349 0.195902
O O11 0.698398 0.447962 0.265405
O O12 0.490407 0.750000 0.066344
O O13 0.360581 0.942026 0.945285
O O14 0.500000 0.000000 0.000000
O O15 0.241682 0.750000 0.768096
O O16 0.179772 0.016739 0.724080
O O17 0.831684 0.750000 0.787578
O O18 0.031010 0.250000 0.788601
O O19 0.049489 0.451505 0.701900
O O20 0.928078 0.750000 0.379884
O O21 0.000000 0.500000 0.500000
#
# Coordination Sequence:
#
# PCOD9167237 Si02
#       8
#     4   4   4   4   4   4   4   4
#     4   9  16  26  41  59  78 105 141 175 208 247
#     4   9  16  27  42  59  84 115 142 171 209 252
#     4   9  17  29  45  64  87 114 142 176 218 259
#     4   9  17  29  45  63  83 108 139 177 218 259
#     4   9  18  32  46  61  84 113 145 181 219 254
#     4   9  16  25  38  58  83 109 137 170 207 248
#     4   9  18  31  43  57  81 113 146 178 212 247
#     4  11  22  33  46  63  85 115 149 183 217 252
#
# _framework density 14.807891
#
# number of rings (size 3 to 8) (size 9 to 14) (size 15 to 20)
#    0.000    2.750    0.000    3.000    0.000    9.000 
#    0.000    2.500    0.000    0.000    0.000    0.000 
#    0.000    1.000    0.000    3.250    0.000    4.750 
#
# Total GULP energy -178262.852549 kJ/mol
# GULP energy per Si atom -5570.714142 kJ/mol
# Density = 1.477419 g / cm^3
# Si number density = 14.807891 Si / 1000 Ang^3
#
#
#
# Elastic Constant Matrix: (Units=GPa)
#
#
# Indices 1 2 3 4 5 6 
#
# 1 49.6762 50.0182 52.1543 0.0000 -7.7137 0.0000
# 2 50.0182 86.2461 83.7602 0.0000 -9.7444 0.0000
# 3 52.1543 83.7602 144.0687 0.0000 -12.6818 0.0000
# 4 0.0000 0.0000 0.0000 30.6843 0.0000 -1.6968
# 5 -7.7137 -9.7444 -12.6818 0.0000 20.7751 0.0000
# 6 0.0000 0.0000 0.0000 -1.6968 0.0000 20.8506
#
#
#
# Elastic Compliance Matrix: (Units=1/GPa)
#
#
# Indices 1 2 3 4 5 6 
#
# 1 0.049302 -0.025561 -0.002569 0.000000 0.004748 0.000000
# 2 -0.025561 0.040089 -0.013986 0.000000 0.000775 0.000000
# 3 -0.002569 -0.013986 0.016212 0.000000 0.002383 0.000000
# 4 0.000000 0.000000 0.000000 0.032737 0.000000 0.002664
# 5 0.004748 0.000775 0.002383 0.000000 0.051716 0.000000
# 6 0.000000 0.000000 0.000000 0.002664 0.000000 0.048177
#
#
# Mechanical properties :
#
#
# Convention : Reuss Voigt Hill
#
# Bulk Modulus (GPa) = 46.79158 72.42847 59.61002
# Shear Modulus (GPa) = 15.17044 20.73255 17.95149
#
# Velocity S-wave (km/s) = 3.20423 3.74585 3.48558
# Velocity P-wave (km/s) = 6.73477 8.22963 7.51944
#
# Compressibility (1/GPa) = 0.02137137
#
# Stress axis : x y z
#
# Youngs Moduli (GPa) = 20.28327 24.94433 61.68290
#
# Poissons Ratio (x) = 0.63761 0.15844
# Poissons Ratio (y) = 0.51847 0.86269
# Poissons Ratio (z) = 0.05210 0.34887
#
# Static dielectric constant tensor:
#      x y z
#    x 1.464530 0.000000 -0.000590 
#    y 0.000000 1.495210 0.000000 
#    z -0.000590 0.000000 1.498050 
# 
# From -- ./inp_files/54378.got.cif
#   From: 2010.05.17/outbox.cif.g08.bks.cpg/sg11_28_cif.got.tgz:54378.got - 2010.06.03 12:22:45.
