data_PCOD9167644
_publ_section_title
;
Structure prediction by ZEFSAII (Michael W. Deem and Ramdas Pophale) SiO2 
 PCOD9167644
Probable space group: P 21/M
;
_chemical_formula_sum "Si O2"
_cell_formula_units_Z 32
_cell_length_a 6.926995
_cell_length_b 14.380626
_cell_length_c 13.073695
_cell_angle_alpha 90.000000
_cell_angle_beta 76.751297
_cell_angle_gamma 90.000000
_cell_volume 1267.667678
_symmetry_space_group_name_H-M "P 21/M"
_symmetry_group_IT_number 11
_symmetry_cell_setting 'monoclinic'
loop_
_space_group_symop_operation_xyz
x,y,z
-x,1/2+y,-z
-x,-y,-z
x,1/2-y,z
loop_
_atom_site_type_symbol
_atom_site_label
_atom_site_fract_x
_atom_site_fract_y
_atom_site_fract_z
Si Si1 0.489352 0.358582 0.191149
Si Si2 0.316505 0.476413 0.386351
Si Si3 0.683234 0.140316 0.968575
Si Si4 0.077366 0.641450 0.750082
Si Si5 0.744546 0.645213 0.200556
Si Si6 0.276382 0.855174 0.265610
Si Si7 0.779836 0.978285 0.381838
Si Si8 0.109736 0.359030 0.024763
O O1 0.439843 0.250000 0.189772
O O2 0.342793 0.408430 0.287050
O O3 0.706708 0.362968 0.219274
O O4 0.522172 0.395050 0.070710
O O5 0.213579 0.570291 0.357453
O O6 0.217880 0.442196 0.502911
O O7 0.546385 0.499680 0.387880
O O8 0.634022 0.250000 0.958555
O O9 0.725540 0.105576 0.849862
O O10 0.891759 0.135409 0.001055
O O11 0.042255 0.750000 0.730595
O O12 0.102657 0.574107 0.651061
O O13 0.923318 0.607186 0.856070
O O14 0.827279 0.750000 0.184376
O O15 0.513940 0.652629 0.253275
O O16 0.841201 0.589466 0.281412
O O17 0.761276 0.601278 0.084680
O O18 0.195276 0.750000 0.283153
O O19 0.162625 0.250000 0.029360
#
# Coordination Sequence:
#
# PCOD9167644 Si02
#       8
#     4   4   4   4   4   4   4   4
#     4   8  14  25  41  60  81 106 139 177 209 240
#     4   9  17  27  39  58  84 113 144 174 205 245
#     4   8  14  26  44  64  84 108 140 173 205 246
#     4   8  14  25  41  60  81 106 139 177 209 240
#     4   9  17  28  42  63  90 113 133 166 212 254
#     4   9  17  28  42  63  90 113 133 166 212 254
#     4   9  17  27  39  58  84 113 144 174 205 245
#     4   8  14  26  44  64  84 108 140 173 205 246
#
# _framework density 25.243210000000001
#
# number of rings (size 3 to 8) (size 9 to 14) (size 15 to 20)
#    0.000    3.500    0.000    1.500    0.000    2.000 
#    0.000    5.000    0.000    0.750    0.000    0.000 
#    0.000    8.000    0.000    0.000    0.000    0.000 
#
# Total GULP energy -178786.384177 kJ/mol
# GULP energy per Si atom -5587.074506 kJ/mol
# Density = 2.518576 g / cm^3
# Si number density = 25.243210 Si / 1000 Ang^3
#
#
#
# Elastic Constant Matrix: (Units=GPa)
#
#
# Indices 1 2 3 4 5 6 
#
# 1 71.7846 3.5367 12.8811 0.0000 -0.6595 0.0000
# 2 3.5367 86.0705 70.0681 0.0000 2.3591 0.0000
# 3 12.8811 70.0681 200.5414 0.0000 8.7463 0.0000
# 4 0.0000 0.0000 0.0000 52.4271 0.0000 -0.0078
# 5 -0.6595 2.3591 8.7463 0.0000 38.5031 0.0000
# 6 0.0000 0.0000 0.0000 -0.0078 0.0000 15.7421
#
#
#
# Elastic Compliance Matrix: (Units=1/GPa)
#
#
# Indices 1 2 3 4 5 6 
#
# 1 0.014104 0.000226 -0.001005 0.000000 0.000456 0.000000
# 2 0.000226 0.016244 -0.005703 0.000000 0.000304 0.000000
# 3 -0.001005 -0.005703 0.007100 0.000000 -0.001281 0.000000
# 4 0.000000 0.000000 0.000000 0.019074 0.000000 0.000009
# 5 0.000456 0.000304 -0.001281 0.000000 0.026252 0.000000
# 6 0.000000 0.000000 0.000000 0.000009 0.000000 0.063524
#
#
# Mechanical properties :
#
#
# Convention : Reuss Voigt Hill
#
# Bulk Modulus (GPa) = 40.84468 59.04093 49.94280
# Shear Modulus (GPa) = 29.86464 39.46185 34.66324
#
# Velocity S-wave (km/s) = 3.44332 3.95810 3.70965
# Velocity P-wave (km/s) = 5.65899 6.65796 6.17870
#
# Compressibility (1/GPa) = 0.02448299
#
# Stress axis : x y z
#
# Youngs Moduli (GPa) = 70.90233 61.56265 140.85388
#
# Poissons Ratio (x) = -0.01391 0.14152
# Poissons Ratio (y) = -0.01602 0.80332
# Poissons Ratio (z) = 0.07124 0.35110
#
# Static dielectric constant tensor:
#      x y z
#    x 2.115330 0.000000 -0.017430 
#    y 0.000000 1.990780 0.000000 
#    z -0.017430 0.000000 1.956740 
# 
# From -- ./inp_files/36023.got.cif
#   From: 2010.05.17/outbox.cif.g08.bks.cpg/sg11_19_cif.got.tgz:36023.got - 2010.06.03 12:22:45.
