data_PCOD9167900
_publ_section_title
;
Structure prediction by ZEFSAII (Michael W. Deem and Ramdas Pophale) SiO2 
 PCOD9167900
Probable space group: P 21/M
;
_chemical_formula_sum "Si O2"
_cell_formula_units_Z 24
_cell_length_a 12.000000
_cell_length_b 9.000000
_cell_length_c 24.000000
_cell_angle_alpha 90.000000
_cell_angle_beta 30.000000
_cell_angle_gamma 90.000000
_cell_volume 1296.000000
_symmetry_space_group_name_H-M "P 21/M"
_symmetry_group_IT_number 11
_symmetry_cell_setting 'monoclinic'
loop_
_space_group_symop_operation_xyz
x,y,z
-x,1/2+y,-z
-x,-y,-z
x,1/2-y,z
loop_
_atom_site_type_symbol
_atom_site_label
_atom_site_fract_x
_atom_site_fract_y
_atom_site_fract_z
Si Si1 0.741854 0.425719 0.889177
Si Si2 0.359086 0.924373 0.881365
Si Si3 0.896323 0.072843 0.489533
Si Si4 0.827284 0.924516 0.739085
Si Si5 0.467686 0.577906 0.709069
Si Si6 0.956350 0.920655 0.900426
O O1 0.717282 0.250000 0.898758
O O2 0.852927 0.483662 0.784201
O O3 0.878843 0.477969 0.883346
O O4 0.500000 0.500000 0.000000
O O5 0.294668 0.750000 0.905319
O O6 0.570349 0.936383 0.830817
O O7 0.442879 0.970970 0.784144
O O8 0.160828 0.019721 0.992848
O O9 0.918299 0.250000 0.484078
O O10 0.023215 0.026724 0.378151
O O11 0.641287 0.021325 0.600763
O O12 0.000000 0.000000 0.500000
O O13 0.872397 0.750000 0.730316
O O14 0.546477 0.750000 0.675501
O O15 0.220761 0.574192 0.791798
O O16 0.886647 0.750000 0.921016
#
# Coordination Sequence:
#
# PCOD9167900 Si02
#       6
#     4   4   4   4   4   4
#     4  12  24  39  61  86 116 153 197 243 289 347
#     4  10  19  35  59  86 122 156 189 239 291 343
#     4  11  22  38  62  88 119 156 195 241 289 345
#     4  10  21  38  60  88 119 150 192 244 290 336
#     4  10  22  40  59  86 123 158 194 240 292 346
#     4  11  23  38  59  87 121 157 195 240 293 349
#
# _framework density 18.518519000000001
#
# number of rings (size 3 to 8) (size 9 to 14) (size 15 to 20)
#    0.000    1.333    3.333    3.000    0.000    3.333 
#    0.000    0.833    0.000    0.000    0.000    0.000 
#    0.000    0.000    0.000    0.000    0.000    0.000 
#
# Total GULP energy -134105.844778 kJ/mol
# GULP energy per Si atom -5587.743532 kJ/mol
# Density = 1.847637 g / cm^3
# Si number density = 18.518519 Si / 1000 Ang^3
#
#
#
# Elastic Constant Matrix: (Units=GPa)
#
#
# Indices 1 2 3 4 5 6 
#
# 1 54.4227 27.6420 20.6530 0.0000 17.3727 0.0000
# 2 27.6420 80.5121 50.0846 0.0000 14.8160 0.0000
# 3 20.6530 50.0846 114.8358 0.0000 17.8917 0.0000
# 4 0.0000 0.0000 0.0000 31.6186 0.0000 4.2534
# 5 17.3727 14.8160 17.8917 0.0000 28.3728 0.0000
# 6 0.0000 0.0000 0.0000 4.2534 0.0000 27.4942
#
#
#
# Elastic Compliance Matrix: (Units=1/GPa)
#
#
# Indices 1 2 3 4 5 6 
#
# 1 0.025614 -0.006660 0.000222 0.000000 -0.012345 0.000000
# 2 -0.006660 0.019354 -0.006991 0.000000 -0.001620 0.000000
# 3 0.000222 -0.006991 0.012387 0.000000 -0.004296 0.000000
# 4 0.000000 0.000000 0.000000 0.032299 0.000000 -0.004997
# 5 -0.012345 -0.001620 -0.004296 0.000000 0.046359 0.000000
# 6 0.000000 0.000000 0.000000 -0.004997 0.000000 0.037144
#
#
# Mechanical properties :
#
#
# Convention : Reuss Voigt Hill
#
# Bulk Modulus (GPa) = 32.79112 49.61442 41.20277
# Shear Modulus (GPa) = 23.78893 27.58984 25.68939
#
# Velocity S-wave (km/s) = 3.58802 3.86405 3.72859
# Velocity P-wave (km/s) = 5.90854 6.83796 6.39017
#
# Compressibility (1/GPa) = 0.03049606
#
# Stress axis : x y z
#
# Youngs Moduli (GPa) = 39.04081 51.66872 80.73247
#
# Poissons Ratio (x) = 0.34412 -0.01788
# Poissons Ratio (y) = 0.26001 0.56439
# Poissons Ratio (z) = -0.00865 0.36121
#
# Static dielectric constant tensor:
#      x y z
#    x 1.641440 0.000000 -0.010350 
#    y 0.000000 1.629430 0.000000 
#    z -0.010350 0.000000 1.629500 
# 
# From -- ./inp_files/33683.got.cif
#   From: 2010.05.17/outbox.ucp.g08.bks.cvg/sg11_17_cif.got.tgz:33683.got - 2010.06.11 11:38:39.
