data_PCOD9167965
_publ_section_title
;
Structure prediction by ZEFSAII (Michael W. Deem and Ramdas Pophale) SiO2 
 PCOD9167965
Probable space group: P 21/M
;
_chemical_formula_sum "Si O2"
_cell_formula_units_Z 32
_cell_length_a 21.000000
_cell_length_b 9.000000
_cell_length_c 15.000000
_cell_angle_alpha 90.000000
_cell_angle_beta 40.000000
_cell_angle_gamma 90.000000
_cell_volume 1822.302873
_symmetry_space_group_name_H-M "P 21/M"
_symmetry_group_IT_number 11
_symmetry_cell_setting 'monoclinic'
loop_
_space_group_symop_operation_xyz
x,y,z
-x,1/2+y,-z
-x,-y,-z
x,1/2-y,z
loop_
_atom_site_type_symbol
_atom_site_label
_atom_site_fract_x
_atom_site_fract_y
_atom_site_fract_z
Si Si1 0.728527 0.429179 0.671602
Si Si2 0.903832 0.077756 0.828116
Si Si3 0.733196 0.071688 0.872691
Si Si4 0.222455 0.072174 0.678853
Si Si5 0.750536 0.425189 0.156268
Si Si6 0.615135 0.924318 0.159566
Si Si7 0.895362 0.073760 0.349951
Si Si8 0.616392 0.074571 0.619968
O O1 0.730051 0.250000 0.677509
O O2 0.727569 0.481856 0.775588
O O3 0.823107 0.471979 0.509388
O O4 0.639619 0.468366 0.698273
O O5 0.936694 0.250000 0.789511
O O6 0.838496 0.048831 0.809730
O O7 0.836864 0.061140 0.988909
O O8 0.995195 0.969332 0.739232
O O9 0.715240 0.250000 0.893338
O O10 0.658753 0.994252 0.021843
O O11 0.217513 0.250000 0.689378
O O12 0.226164 0.003712 0.774524
O O13 0.135087 0.008536 0.709005
O O14 0.318061 0.018337 0.519544
O O15 0.734117 0.250000 0.189980
O O16 0.658895 0.496526 0.200399
O O17 0.641608 0.750000 0.134539
O O18 0.497701 0.940077 0.280648
O O19 0.884295 0.250000 0.348556
O O20 0.644156 0.250000 0.581739
#
# Coordination Sequence:
#
# PCOD9167965 Si02
#       8
#     4   4   4   4   4   4   4   4
#     4   8  16  33  54  75 102 140 179 212 256 310
#     4   9  19  34  52  76 104 135 173 216 260 307
#     4   9  18  34  54  75 105 142 177 216 260 307
#     4  11  22  36  56  80 105 133 171 218 260 307
#     4  10  21  38  57  76 104 140 174 212 260 312
#     4  10  20  34  53  79 108 137 174 218 260 306
#     4  10  20  35  55  77 105 140 174 212 260 312
#     4   9  19  36  55  76 107 142 174 213 260 310
#
# _framework density 17.560198
#
# number of rings (size 3 to 8) (size 9 to 14) (size 15 to 20)
#    0.000    2.500    0.000    3.750    0.000    5.500 
#    0.000    3.125    0.000    0.000    0.000    0.000 
#    0.000    0.000    0.000    0.000    0.000    0.000 
#
# Total GULP energy -178320.000351 kJ/mol
# GULP energy per Si atom -5572.500011 kJ/mol
# Density = 1.752023 g / cm^3
# Si number density = 17.560198 Si / 1000 Ang^3
#
#
#
# Elastic Constant Matrix: (Units=GPa)
#
#
# Indices 1 2 3 4 5 6 
#
# 1 22.6291 9.9902 -2.7460 0.0000 14.1461 0.0000
# 2 9.9902 57.4499 7.8791 0.0000 -4.5341 0.0000
# 3 -2.7460 7.8791 8.3289 0.0000 6.7191 0.0000
# 4 0.0000 0.0000 0.0000 26.3967 0.0000 1.1373
# 5 14.1461 -4.5341 6.7191 0.0000 39.9757 0.0000
# 6 0.0000 0.0000 0.0000 1.1373 0.0000 29.1289
#
#
#
# Elastic Compliance Matrix: (Units=1/GPa)
#
#
# Indices 1 2 3 4 5 6 
#
# 1 0.138597 -0.052815 0.162025 0.000000 -0.082269 0.000000
# 2 -0.052815 0.041602 -0.087519 0.000000 0.038118 0.000000
# 3 0.162025 -0.087519 0.359246 0.000000 -0.127644 0.000000
# 4 0.000000 0.000000 0.000000 0.037947 0.000000 -0.001482
# 5 -0.082269 0.038118 -0.127644 0.000000 0.079905 0.000000
# 6 0.000000 0.000000 0.000000 -0.001482 0.000000 0.034388
#
#
# Mechanical properties :
#
#
# Convention : Reuss Voigt Hill
#
# Bulk Modulus (GPa) = 1.71578 13.18384 7.44981
# Shear Modulus (GPa) = 5.93415 23.98590 14.96002
#
# Velocity S-wave (km/s) = 1.84029 3.69985 2.92195
# Velocity P-wave (km/s) = 2.34409 5.07700 3.95416
#
# Compressibility (1/GPa) = 0.58282626
#
# Stress axis : x y z
#
# Youngs Moduli (GPa) = 7.21515 24.03723 2.78361
#
# Poissons Ratio (x) = 1.26954 -0.45101
# Poissons Ratio (y) = 0.38107 0.24362
# Poissons Ratio (z) = -1.16903 2.10371
#
# Static dielectric constant tensor:
#      x y z
#    x 1.597840 0.000000 -0.024180 
#    y 0.000000 1.600720 0.000000 
#    z -0.024180 0.000000 1.590040 
# 
# From -- ./inp_files/54259.got.cif
#   From: 2010.05.17/outbox.ucp.g08.bks.cvg/sg11_28_cif.got.tgz:54259.got - 2010.06.11 11:38:39.
