data_PCOD9167717
_publ_section_title
;
Structure prediction by ZEFSAII (Michael W. Deem and Ramdas Pophale) SiO2 
 PCOD9167717
Probable space group: P 21/M
;
_chemical_formula_sum "Si O2"
_cell_formula_units_Z 32
_cell_length_a 21.000000
_cell_length_b 9.000000
_cell_length_c 27.000000
_cell_angle_alpha 90.000000
_cell_angle_beta 20.000000
_cell_angle_gamma 90.000000
_cell_volume 1745.328791
_symmetry_space_group_name_H-M "P 21/M"
_symmetry_group_IT_number 11
_symmetry_cell_setting 'monoclinic'
loop_
_space_group_symop_operation_xyz
x,y,z
-x,1/2+y,-z
-x,-y,-z
x,1/2-y,z
loop_
_atom_site_type_symbol
_atom_site_label
_atom_site_fract_x
_atom_site_fract_y
_atom_site_fract_z
Si Si1 0.100529 0.571787 0.313589
Si Si2 0.447540 0.573873 0.787108
Si Si3 0.908677 0.570478 0.137625
Si Si4 0.721663 0.925856 0.178248
Si Si5 0.770135 0.426660 0.613238
Si Si6 0.840345 0.069738 0.839454
Si Si7 0.433611 0.571829 0.136110
Si Si8 0.944508 0.072281 0.869783
O O1 0.078546 0.750000 0.332238
O O2 0.073505 0.523759 0.276360
O O3 0.309897 0.536960 0.178408
O O4 0.957594 0.500794 0.456504
O O5 0.482035 0.750000 0.764178
O O6 0.419941 0.520374 0.750969
O O7 0.610335 0.482345 0.693121
O O8 0.257017 0.543552 0.957330
O O9 0.950611 0.750000 0.104078
O O10 0.736949 0.545603 0.225972
O O11 0.905567 0.527602 0.197805
O O12 0.079374 0.478100 0.989562
O O13 0.695885 0.750000 0.189051
O O14 0.790910 0.250000 0.596954
O O15 0.695223 0.468014 0.722461
O O16 0.837015 0.250000 0.842314
O O17 0.941777 0.014942 0.815581
O O18 0.628574 0.011982 0.996034
O O19 0.466600 0.750000 0.113693
O O20 0.961387 0.250000 0.853243
#
# Coordination Sequence:
#
# PCOD9167717 Si02
#       8
#     4   4   4   4   4   4   4   4
#     4  10  22  37  52  73 102 133 166 205 250 300
#     4  10  18  30  48  68  96 130 163 202 248 298
#     4   8  14  24  38  60  94 131 162 195 241 289
#     4   9  15  23  38  63  95 127 161 200 240 288
#     4  11  22  35  52  74  99 130 169 210 252 298
#     4  10  19  33  54  77 100 132 170 203 243 298
#     4  10  21  36  53  75 101 128 164 210 255 298
#     4   8  14  26  45  69  94 125 163 198 236 287
#
# _framework density 18.334654
#
# number of rings (size 3 to 8) (size 9 to 14) (size 15 to 20)
#    0.000    2.500    1.250    2.625    0.000    2.000 
#    0.000    0.000    0.000    0.000    0.000    0.875 
#    0.000    0.000    0.000    0.000    0.000    0.000 
#
# Total GULP energy -178235.259911 kJ/mol
# GULP energy per Si atom -5569.851872 kJ/mol
# Density = 1.829292 g / cm^3
# Si number density = 18.334654 Si / 1000 Ang^3
#
#
#
# Elastic Constant Matrix: (Units=GPa)
#
#
# Indices 1 2 3 4 5 6 
#
# 1 74.8851 3.9178 -2.0395 0.0000 -12.8080 0.0000
# 2 3.9178 7.1234 4.7683 0.0000 7.9673 0.0000
# 3 -2.0395 4.7683 16.4172 0.0000 9.6541 0.0000
# 4 0.0000 0.0000 0.0000 16.4037 0.0000 -2.0927
# 5 -12.8080 7.9673 9.6541 0.0000 4.9524 0.0000
# 6 0.0000 0.0000 0.0000 -2.0927 0.0000 21.2839
#
#
#
# Elastic Compliance Matrix: (Units=1/GPa)
#
#
# Indices 1 2 3 4 5 6 
#
# 1 0.008562 0.015745 0.011179 0.000000 -0.024978 0.000000
# 2 0.015745 0.052466 -0.084794 0.000000 0.121609 0.000000
# 3 0.011179 -0.084794 0.070331 0.000000 0.028224 0.000000
# 4 0.000000 0.000000 0.000000 0.061736 0.000000 0.006070
# 5 -0.024978 0.121609 0.028224 0.000000 -0.113338 0.000000
# 6 0.000000 0.000000 0.000000 0.006070 0.000000 0.047581
#
#
# Mechanical properties :
#
#
# Convention : Reuss Voigt Hill
#
# Bulk Modulus (GPa) = 64.02105 12.41322 38.21713
# Shear Modulus (GPa) = 20.13811 14.64661 17.39236
#
# Velocity S-wave (km/s) = 3.31775 2.82946 3.08329
# Velocity P-wave (km/s) = 7.04773 4.17846 5.79353
#
# Compressibility (1/GPa) = 0.01561986
#
# Stress axis : x y z
#
# Youngs Moduli (GPa) = 116.79027 19.05996 14.21842
#
# Poissons Ratio (x) = -0.30010 -0.15895
# Poissons Ratio (y) = -1.83888 1.20564
# Poissons Ratio (z) = -1.30558 1.61617
#
# Static dielectric constant tensor:
#      x y z
#    x 1.715260 0.000000 -0.009870 
#    y 0.000000 1.607580 0.000000 
#    z -0.009870 0.000000 1.615430 
# 
# From -- ./inp_files/72089.got.cif
#   From: 2010.05.17/outbox.ucp.g08.bks.cvg/sg11_37_cif.got.tgz:72089.got - 2010.06.11 11:38:39.
