data_PCOD9167708
_publ_section_title
;
Structure prediction by ZEFSAII (Michael W. Deem and Ramdas Pophale) SiO2 
 PCOD9167708
Probable space group: P 21/M
;
_chemical_formula_sum "Si O2"
_cell_formula_units_Z 28
_cell_length_a 27.000000
_cell_length_b 9.000000
_cell_length_c 9.000000
_cell_angle_alpha 90.000000
_cell_angle_beta 40.000000
_cell_angle_gamma 90.000000
_cell_volume 1405.776502
_symmetry_space_group_name_H-M "P 21/M"
_symmetry_group_IT_number 11
_symmetry_cell_setting 'monoclinic'
loop_
_space_group_symop_operation_xyz
x,y,z
-x,1/2+y,-z
-x,-y,-z
x,1/2-y,z
loop_
_atom_site_type_symbol
_atom_site_label
_atom_site_fract_x
_atom_site_fract_y
_atom_site_fract_z
Si Si1 0.833780 0.420781 0.808481
Si Si2 0.705278 0.922399 0.272542
Si Si3 0.911318 0.581385 0.103650
Si Si4 0.580719 0.923674 0.332154
Si Si5 0.267619 0.086520 0.467484
Si Si6 0.043039 0.425499 0.665216
Si Si7 0.303151 0.914978 0.114750
O O1 0.849865 0.250000 0.803632
O O2 0.909921 0.500374 0.575129
O O3 0.772765 0.431288 0.811412
O O4 0.783966 0.494519 0.052379
O O5 0.716802 0.750000 0.201078
O O6 0.633873 0.984290 0.343564
O O7 0.685660 0.925673 0.489422
O O8 0.942997 0.750000 0.020407
O O9 0.821499 0.586653 0.282559
O O10 0.922668 0.532420 0.249740
O O11 0.956124 0.480260 0.884553
O O12 0.569689 0.750000 0.377815
O O13 0.500000 0.000000 0.500000
O O14 0.634151 0.963077 0.070656
O O15 0.280847 0.250000 0.366468
O O16 0.280761 0.948695 0.332739
O O17 0.048933 0.250000 0.637195
O O18 0.334209 0.750000 0.019193
#
# Coordination Sequence:
#
# PCOD9167708 Si02
#       7
#     4   4   4   4   4   4   4
#     4  10  19  32  51  75 104 137 178 222 261 307
#     4   9  20  36  56  79 106 138 172 212 261 313
#     4   9  18  30  47  72 103 136 171 218 268 310
#     4  10  20  37  60  84 109 137 171 211 254 305
#     4  10  19  35  55  78 107 139 174 215 264 313
#     4  10  18  29  48  73 101 135 178 223 265 307
#     4  10  20  33  54  82 108 138 175 214 255 307
#
# _framework density 19.917818
#
# number of rings (size 3 to 8) (size 9 to 14) (size 15 to 20)
#    0.000    2.286    1.429    1.714    0.000    3.429 
#    0.000    1.429    0.000    0.000    0.000    0.000 
#    0.000    0.000    0.000    0.000    0.000    0.000 
#
# Total GULP energy -155996.317314 kJ/mol
# GULP energy per Si atom -5571.297047 kJ/mol
# Density = 1.987248 g / cm^3
# Si number density = 19.917818 Si / 1000 Ang^3
#
#
#
# Elastic Constant Matrix: (Units=GPa)
#
#
# Indices 1 2 3 4 5 6 
#
# 1 25.7821 11.2470 17.6660 0.0000 -1.0601 0.0000
# 2 11.2470 16.7760 4.0950 0.0000 5.1145 0.0000
# 3 17.6660 4.0950 4.3369 0.0000 -3.8096 0.0000
# 4 0.0000 0.0000 0.0000 34.3110 0.0000 -6.2539
# 5 -1.0601 5.1145 -3.8096 0.0000 15.0285 0.0000
# 6 0.0000 0.0000 0.0000 -6.2539 0.0000 7.4176
#
#
#
# Elastic Compliance Matrix: (Units=1/GPa)
#
#
# Indices 1 2 3 4 5 6 
#
# 1 -0.009518 -0.024064 0.087600 0.000000 0.029724 0.000000
# 2 -0.024064 0.095087 -0.027885 0.000000 -0.041126 0.000000
# 3 0.087600 -0.027885 -0.110838 0.000000 -0.012427 0.000000
# 4 0.000000 0.000000 0.000000 0.034437 0.000000 0.029035
# 5 0.029724 -0.041126 -0.012427 0.000000 0.079483 0.000000
# 6 0.000000 0.000000 0.000000 0.029035 0.000000 0.159294
#
#
# Mechanical properties :
#
#
# Convention : Reuss Voigt Hill
#
# Bulk Modulus (GPa) = 21.72356 12.54568 17.13462
# Shear Modulus (GPa) = 26.04324 12.27722 19.16023
#
# Velocity S-wave (km/s) = 3.61991 2.48542 3.10492
# Velocity P-wave (km/s) = 5.32934 3.81429 4.63415
#
# Compressibility (1/GPa) = 0.04603298
#
# Stress axis : x y z
#
# Youngs Moduli (GPa) = -105.06818 10.51666 -9.02216
#
# Poissons Ratio (x) = 0.25308 0.79034
# Poissons Ratio (y) = -2.52839 -0.25159
# Poissons Ratio (z) = 9.20401 0.29326
#
# Static dielectric constant tensor:
#      x y z
#    x 1.759950 0.000000 0.027580 
#    y 0.000000 1.720960 0.000000 
#    z 0.027580 0.000000 1.707500 
# 
# From -- ./inp_files/28221.got.cif
#   From: 2010.05.17/outbox.ucp.g08.bks.cvg/sg11_15_cif.got.tgz:28221.got - 2010.06.11 11:38:39.
