data_PCOD9167514
_publ_section_title
;
Structure prediction by ZEFSAII (Michael W. Deem and Ramdas Pophale) SiO2 
 PCOD9167514
Probable space group: P 21/M
;
_chemical_formula_sum "Si O2"
_cell_formula_units_Z 18
_cell_length_a 13.943453
_cell_length_b 10.496827
_cell_length_c 11.168744
_cell_angle_alpha 90.000000
_cell_angle_beta 31.940710
_cell_angle_gamma 90.000000
_cell_volume 864.813350
_symmetry_space_group_name_H-M "P 21/M"
_symmetry_group_IT_number 11
_symmetry_cell_setting 'monoclinic'
loop_
_space_group_symop_operation_xyz
x,y,z
-x,1/2+y,-z
-x,-y,-z
x,1/2-y,z
loop_
_atom_site_type_symbol
_atom_site_label
_atom_site_fract_x
_atom_site_fract_y
_atom_site_fract_z
Si Si1 0.446093 0.750000 0.910413
Si Si2 0.640182 0.014126 0.172267
Si Si3 0.719420 0.104039 0.357210
Si Si4 0.139627 0.750000 0.437733
Si Si5 0.960514 0.015959 0.298472
Si Si6 0.865642 0.750000 0.521339
O O1 0.415990 0.626205 0.858963
O O2 0.649116 0.750000 0.746056
O O3 0.301144 0.750000 0.170678
O O4 0.687537 0.072263 0.252455
O O5 0.470632 0.922200 0.373988
O O6 0.826838 0.952242 0.930706
O O7 0.775159 0.250000 0.309465
O O8 0.869493 0.019128 0.264218
O O9 0.140652 0.623123 0.516516
O O10 0.954271 0.750000 0.557749
O O11 0.935811 0.876793 0.380711
#
# Coordination Sequence:
#
# PCOD9167514 Si02
#       6
#     2   4   4   2   4   2
#     4  12  24  45  70  96 139 180 221 281 340 399
#     4  11  24  44  70 100 142 176 215 284 343 403
#     4  11  24  43  70 107 134 177 226 277 340 411
#     4  12  28  45  69  99 134 179 239 280 331 395
#     4  12  25  47  70 100 136 179 228 283 335 402
#     4  12  26  44  69  97 133 183 230 271 343 398
#
# _framework density 20.813739999999999
#
# number of rings (size 3 to 8) (size 9 to 14) (size 15 to 20)
#    0.000    0.444    6.667    1.333    1.556    2.667 
#    0.000    0.000    0.000    0.000    0.000    0.000 
#    0.000    0.000    0.000    0.000    0.000    0.000 
#
# Total GULP energy -100717.638138 kJ/mol
# GULP energy per Si atom -5595.424341 kJ/mol
# Density = 2.076637 g / cm^3
# Si number density = 20.813740 Si / 1000 Ang^3
#
#
#
# Elastic Constant Matrix: (Units=GPa)
#
#
# Indices 1 2 3 4 5 6 
#
# 1 93.3708 -1.2534 22.3640 0.0000 -8.8304 0.0000
# 2 -1.2534 74.9006 -1.6526 0.0000 22.2513 0.0000
# 3 22.3640 -1.6526 97.8267 0.0000 1.9850 0.0000
# 4 0.0000 0.0000 0.0000 23.8930 0.0000 4.9436
# 5 -8.8304 22.2513 1.9850 0.0000 38.5803 0.0000
# 6 0.0000 0.0000 0.0000 4.9436 0.0000 40.7863
#
#
#
# Elastic Compliance Matrix: (Units=1/GPa)
#
#
# Indices 1 2 3 4 5 6 
#
# 1 0.011669 -0.000846 -0.002749 0.000000 0.003300 0.000000
# 2 -0.000846 0.016194 0.000661 0.000000 -0.009567 0.000000
# 3 -0.002749 0.000661 0.010894 0.000000 -0.001571 0.000000
# 4 0.000000 0.000000 0.000000 0.042930 0.000000 -0.005203
# 5 0.003300 -0.009567 -0.001571 0.000000 0.032274 0.000000
# 6 0.000000 0.000000 0.000000 -0.005203 0.000000 0.025149
#
#
# Mechanical properties :
#
#
# Convention : Reuss Voigt Hill
#
# Bulk Modulus (GPa) = 30.40510 33.89044 32.14777
# Shear Modulus (GPa) = 32.06372 37.09460 34.57916
#
# Velocity S-wave (km/s) = 3.92919 4.22621 4.08040
# Velocity P-wave (km/s) = 5.93503 6.33503 6.13829
#
# Compressibility (1/GPa) = 0.03288921
#
# Stress axis : x y z
#
# Youngs Moduli (GPa) = 85.69610 61.75240 91.79681
#
# Poissons Ratio (x) = 0.05223 0.25234
# Poissons Ratio (y) = 0.07248 -0.06068
# Poissons Ratio (z) = 0.23557 -0.04082
#
# Static dielectric constant tensor:
#      x y z
#    x 1.721640 0.000000 0.000950 
#    y 0.000000 1.704460 0.000000 
#    z 0.000950 0.000000 1.737120 
# 
# From -- ./inp_files/16757.got.cif
#   From: 2010.05.17/outbox.cif.g08.bks.cpg/sg11_9_cif.got.tgz:16757.got - 2010.06.03 12:22:45.
