data_PCOD9167385
_publ_section_title
;
Structure prediction by ZEFSAII (Michael W. Deem and Ramdas Pophale) SiO2 
 PCOD9167385
Probable space group: P 21/M
;
_chemical_formula_sum "Si O2"
_cell_formula_units_Z 20
_cell_length_a 14.678462
_cell_length_b 8.117437
_cell_length_c 22.864127
_cell_angle_alpha 90.000000
_cell_angle_beta 159.136450
_cell_angle_gamma 90.000000
_cell_volume 970.240194
_symmetry_space_group_name_H-M "P 21/M"
_symmetry_group_IT_number 11
_symmetry_cell_setting 'monoclinic'
loop_
_space_group_symop_operation_xyz
x,y,z
-x,1/2+y,-z
-x,-y,-z
x,1/2-y,z
loop_
_atom_site_type_symbol
_atom_site_label
_atom_site_fract_x
_atom_site_fract_y
_atom_site_fract_z
Si Si1 0.242901 0.566896 0.510715
Si Si2 0.212646 0.554851 0.840090
Si Si3 0.454934 0.937130 0.408694
Si Si4 0.915879 0.053066 0.103736
Si Si5 0.734963 0.550429 0.876260
O O1 0.188975 0.750000 0.500424
O O2 0.401756 0.563640 0.546074
O O3 0.466540 0.490012 0.685593
O O4 0.976143 0.494182 0.326557
O O5 0.205020 0.750000 0.838977
O O6 0.137728 0.497979 0.861506
O O7 0.500000 0.500000 0.000000
O O8 0.546426 0.750000 0.454056
O O9 0.500000 0.000000 0.500000
O O10 0.154671 0.951576 0.221852
O O11 0.970146 0.250000 0.137504
O O12 0.720916 0.016986 0.934274
O O13 0.731980 0.750000 0.873163
O O14 0.000000 0.500000 0.000000
#
# Coordination Sequence:
#
# PCOD9167385 Si02
#       5
#     4   4   4   4   4
#     4  11  23  39  61  90 126 163 204 252 305 368
#     4  11  25  44  67  90 118 159 211 264 311 364
#     4  12  22  33  56  89 125 162 200 249 311 368
#     4  11  23  39  60  90 126 162 204 252 307 370
#     4  11  23  37  59  92 131 168 202 246 305 374
#
# _framework density 20.613453
#
# number of rings (size 3 to 8) (size 9 to 14) (size 15 to 20)
#    0.000    0.800    4.000    4.200    0.000    4.800 
#    0.000    1.000    0.000    0.000    0.000    0.000 
#    0.000    0.000    0.000    0.000    0.000    0.000 
#
# Total GULP energy -111373.735947 kJ/mol
# GULP energy per Si atom -5568.686797 kJ/mol
# Density = 2.056654 g / cm^3
# Si number density = 20.613453 Si / 1000 Ang^3
#
#
#
# Elastic Constant Matrix: (Units=GPa)
#
#
# Indices 1 2 3 4 5 6 
#
# 1 27.5968 2.5759 30.3438 0.0000 -11.8605 0.0000
# 2 2.5759 67.9048 15.6874 0.0000 2.2310 0.0000
# 3 30.3438 15.6874 163.0967 0.0000 -16.8720 0.0000
# 4 0.0000 0.0000 0.0000 31.7945 0.0000 -2.2951
# 5 -11.8605 2.2310 -16.8720 0.0000 42.5271 0.0000
# 6 0.0000 0.0000 0.0000 -2.2951 0.0000 23.0872
#
#
#
# Elastic Compliance Matrix: (Units=1/GPa)
#
#
# Indices 1 2 3 4 5 6 
#
# 1 0.049794 -0.000363 -0.008124 0.000000 0.010683 0.000000
# 2 -0.000363 0.015147 -0.001545 0.000000 -0.001509 0.000000
# 3 -0.008124 -0.001545 0.007889 0.000000 0.000945 0.000000
# 4 0.000000 0.000000 0.000000 0.031679 0.000000 0.003149
# 5 0.010683 -0.001509 0.000945 0.000000 0.026948 0.000000
# 6 0.000000 0.000000 0.000000 0.003149 0.000000 0.043627
#
#
# Mechanical properties :
#
#
# Convention : Reuss Voigt Hill
#
# Bulk Modulus (GPa) = 18.95191 39.53473 29.24332
# Shear Modulus (GPa) = 23.50307 33.48117 28.49212
#
# Velocity S-wave (km/s) = 3.38032 4.03456 3.72184
# Velocity P-wave (km/s) = 4.94463 6.39721 5.71724
#
# Compressibility (1/GPa) = 0.05276513
#
# Stress axis : x y z
#
# Youngs Moduli (GPa) = 20.08270 66.02022 126.75510
#
# Poissons Ratio (x) = 0.02397 1.02976
# Poissons Ratio (y) = 0.00729 0.19589
# Poissons Ratio (z) = 0.16315 0.10203
#
# Static dielectric constant tensor:
#      x y z
#    x 1.828240 0.000000 -0.015390 
#    y 0.000000 1.684110 0.000000 
#    z -0.015390 0.000000 1.792070 
# 
# From -- ./inp_files/55345.got.cif
#   From: 2010.05.17/outbox.cif.g08.bks.cpg/sg11_28_cif.got.tgz:55345.got - 2010.06.03 12:22:45.
