data_PCOD9167465
_publ_section_title
;
Structure prediction by ZEFSAII (Michael W. Deem and Ramdas Pophale) SiO2 
 PCOD9167465
Probable space group: P 21/M
;
_chemical_formula_sum "Si O2"
_cell_formula_units_Z 28
_cell_length_a 14.071342
_cell_length_b 16.012125
_cell_length_c 6.145883
_cell_angle_alpha 90.000000
_cell_angle_beta 117.198633
_cell_angle_gamma 90.000000
_cell_volume 1231.627065
_symmetry_space_group_name_H-M "P 21/M"
_symmetry_group_IT_number 11
_symmetry_cell_setting 'monoclinic'
loop_
_space_group_symop_operation_xyz
x,y,z
-x,1/2+y,-z
-x,-y,-z
x,1/2-y,z
loop_
_atom_site_type_symbol
_atom_site_label
_atom_site_fract_x
_atom_site_fract_y
_atom_site_fract_z
Si Si1 0.893791 0.528770 0.511019
Si Si2 0.229669 0.155138 0.915234
Si Si3 0.473415 0.064357 0.782402
Si Si4 0.189356 0.607259 0.299116
Si Si5 0.666294 0.512385 0.738132
Si Si6 0.474134 0.750000 0.097125
Si Si7 0.364939 0.750000 0.487764
Si Si8 0.957544 0.660063 0.923556
O O1 0.819252 0.597299 0.321423
O O2 0.829018 0.445965 0.502921
O O3 0.935638 0.577784 0.764706
O O4 0.000000 0.500000 0.500000
O O5 0.260626 0.250000 0.890694
O O6 0.321915 0.098739 0.119960
O O7 0.131945 0.161165 0.984393
O O8 0.369493 0.036780 0.541370
O O9 0.466946 0.160957 0.837528
O O10 0.574933 0.048150 0.732050
O O11 0.500000 0.000000 0.000000
O O12 0.223574 0.538717 0.153543
O O13 0.287279 0.670031 0.413979
O O14 0.078106 0.652030 0.134817
O O15 0.418971 0.750000 0.294242
O O16 0.421504 0.750000 0.791714
O O17 0.948387 0.750000 0.793897
#
# Coordination Sequence:
#
# PCOD9167465 Si02
#       8
#     4   4   4   4   4   2   2   4
#     4  12  24  40  67  97 142 196 247 298 370 439
#     4  11  25  44  67 102 143 189 244 299 364 449
#     4  11  27  50  75 110 142 193 246 324 388 463
#     4  12  23  46  68 105 145 193 247 304 377 442
#     4  11  25  46  74  99 148 182 247 307 383 454
#     4  12  28  52  84 109 156 192 259 318 398 461
#     4  12  28  48  78 119 146 200 255 322 380 461
#     4  11  23  43  65  98 143 186 236 301 355 437
#
# _framework density 22.734155000000001
#
# number of rings (size 3 to 8) (size 9 to 14) (size 15 to 20)
#    0.000    0.571    5.000    2.571    7.000    1.143 
#    2.571    0.000    0.000    0.000    0.000    0.000 
#    0.000    0.000    0.000    0.000    0.000    0.000 
#
# Total GULP energy -156315.740787 kJ/mol
# GULP energy per Si atom -5582.705028 kJ/mol
# Density = 2.268241 g / cm^3
# Si number density = 22.734155 Si / 1000 Ang^3
#
#
#
# Elastic Constant Matrix: (Units=GPa)
#
#
# Indices 1 2 3 4 5 6 
#
# 1 73.9991 23.1099 0.5887 0.0000 -12.2560 0.0000
# 2 23.1099 170.3185 32.2168 0.0000 -7.7860 0.0000
# 3 0.5887 32.2168 81.1886 0.0000 0.4655 0.0000
# 4 0.0000 0.0000 0.0000 40.8798 0.0000 -0.4564
# 5 -12.2560 -7.7860 0.4655 0.0000 26.1394 0.0000
# 6 0.0000 0.0000 0.0000 -0.4564 0.0000 43.5051
#
#
#
# Elastic Compliance Matrix: (Units=1/GPa)
#
#
# Indices 1 2 3 4 5 6 
#
# 1 0.015178 -0.001873 0.000596 0.000000 0.006548 0.000000
# 2 -0.001873 0.006678 -0.002643 0.000000 0.001158 0.000000
# 3 0.000596 -0.002643 0.013366 0.000000 -0.000746 0.000000
# 4 0.000000 0.000000 0.000000 0.024465 0.000000 0.000257
# 5 0.006548 0.001158 -0.000746 0.000000 0.041685 0.000000
# 6 0.000000 0.000000 0.000000 0.000257 0.000000 0.022988
#
#
# Mechanical properties :
#
#
# Convention : Reuss Voigt Hill
#
# Bulk Modulus (GPa) = 36.52068 48.59302 42.55685
# Shear Modulus (GPa) = 35.37847 40.07758 37.72803
#
# Velocity S-wave (km/s) = 3.94913 4.20322 4.07815
# Velocity P-wave (km/s) = 6.07398 6.70649 6.39805
#
# Compressibility (1/GPa) = 0.02738175
#
# Stress axis : x y z
#
# Youngs Moduli (GPa) = 65.88327 149.73690 74.81785
#
# Poissons Ratio (x) = 0.28043 -0.04456
# Poissons Ratio (y) = 0.12339 0.19775
# Poissons Ratio (z) = -0.03924 0.39578
#
# Static dielectric constant tensor:
#      x y z
#    x 1.881320 0.000000 -0.059880 
#    y 0.000000 1.835710 0.000000 
#    z -0.059880 0.000000 1.893760 
# 
# From -- ./inp_files/6758.got.cif
#   From: 2010.05.17/outbox.cif.g08.bks.cpg/sg11_4_cif.got.tgz:6758.got - 2010.06.03 12:22:45.
