data_PCOD9167631
_publ_section_title
;
Structure prediction by ZEFSAII (Michael W. Deem and Ramdas Pophale) SiO2 
 PCOD9167631
Probable space group: P 21/M
;
_chemical_formula_sum "Si O2"
_cell_formula_units_Z 32
_cell_length_a 21.933252
_cell_length_b 9.418070
_cell_length_c 7.034221
_cell_angle_alpha 90.000000
_cell_angle_beta 102.071366
_cell_angle_gamma 90.000000
_cell_volume 1420.921258
_symmetry_space_group_name_H-M "P 21/M"
_symmetry_group_IT_number 11
_symmetry_cell_setting 'monoclinic'
loop_
_space_group_symop_operation_xyz
x,y,z
-x,1/2+y,-z
-x,-y,-z
x,1/2-y,z
loop_
_atom_site_type_symbol
_atom_site_label
_atom_site_fract_x
_atom_site_fract_y
_atom_site_fract_z
Si Si1 0.709254 0.910738 0.360353
Si Si2 0.086743 0.418099 0.905313
Si Si3 0.537413 0.911093 0.752248
Si Si4 0.824064 0.087917 0.516230
Si Si5 0.426222 0.410961 0.783456
Si Si6 0.048260 0.919985 0.262298
Si Si7 0.324612 0.412513 0.217902
Si Si8 0.792583 0.415012 0.951270
O O1 0.716976 0.750000 0.295331
O O2 0.643433 0.973047 0.246337
O O3 0.698386 0.905533 0.580784
O O4 0.772424 0.996222 0.377810
O O5 0.101245 0.250000 0.922471
O O6 0.063578 0.476732 0.095762
O O7 0.149030 0.508001 0.910677
O O8 0.024499 0.437647 0.737774
O O9 0.528296 0.750000 0.676225
O O10 0.604678 0.969254 0.731522
O O11 0.475780 0.005085 0.688854
O O12 0.547105 0.902040 0.987113
O O13 0.816741 0.250000 0.453276
O O14 0.896909 0.048949 0.552362
O O15 0.808998 0.080518 0.734309
O O16 0.418401 0.250000 0.705518
O O17 0.055606 0.750000 0.215437
O O18 0.328696 0.250000 0.148024
O O19 0.272962 0.502521 0.072916
O O20 0.787317 0.250000 0.998551
#
# Coordination Sequence:
#
# PCOD9167631 Si02
#       8
#     4   4   4   4   4   4   4   4
#     4   9  17  28  42  61  84 109 137 169 204 242
#     4   9  14  20  32  49  72 105 141 173 205 244
#     4   9  18  32  48  64  83 108 137 168 202 243
#     4   8  14  24  36  52  77 107 137 169 204 241
#     4   9  18  32  47  63  85 110 134 165 206 246
#     4   8  14  22  31  47  73 105 140 174 207 244
#     4   9  17  29  44  62  83 108 139 171 202 241
#     4   9  16  25  36  53  79 108 137 170 208 247
#
# _framework density 22.520598
#
# number of rings (size 3 to 8) (size 9 to 14) (size 15 to 20)
#    0.000    3.250    0.000    1.500    0.000    5.000 
#    0.000    0.000    0.000    0.000    0.000    0.000 
#    0.000    1.000    0.000    2.000    0.000    6.250 
#
# Total GULP energy -178559.759931 kJ/mol
# GULP energy per Si atom -5579.992498 kJ/mol
# Density = 2.246934 g / cm^3
# Si number density = 22.520598 Si / 1000 Ang^3
#
#
#
# Elastic Constant Matrix: (Units=GPa)
#
#
# Indices 1 2 3 4 5 6 
#
# 1 147.4630 78.1899 44.0106 0.0000 44.8715 0.0000
# 2 78.1899 83.5149 33.6228 0.0000 44.4878 0.0000
# 3 44.0106 33.6228 84.6047 0.0000 33.1132 0.0000
# 4 0.0000 0.0000 0.0000 12.6491 0.0000 21.3036
# 5 44.8715 44.4878 33.1132 0.0000 61.2325 0.0000
# 6 0.0000 0.0000 0.0000 21.3036 0.0000 29.3872
#
#
#
# Elastic Compliance Matrix: (Units=1/GPa)
#
#
# Indices 1 2 3 4 5 6 
#
# 1 0.013881 -0.011913 -0.002401 0.000000 -0.000219 0.000000
# 2 -0.011913 0.030296 -0.000818 0.000000 -0.012839 0.000000
# 3 -0.002401 -0.000818 0.015821 0.000000 -0.006202 0.000000
# 4 0.000000 0.000000 0.000000 -0.357851 0.000000 0.259416
# 5 -0.000219 -0.012839 -0.006202 0.000000 0.029173 0.000000
# 6 0.000000 0.000000 0.000000 0.259416 0.000000 -0.154029
#
#
# Mechanical properties :
#
#
# Convention : Reuss Voigt Hill
#
# Bulk Modulus (GPa) = 33.63124 69.69213 51.66169
# Shear Modulus (GPa) = -13.07073 31.30438 9.11683
#
# Velocity S-wave (km/s) = -2.41174 3.73236 2.01420
# Velocity P-wave (km/s) = 2.68526 7.04181 5.32906
#
# Compressibility (1/GPa) = 0.02973426
#
# Stress axis : x y z
#
# Youngs Moduli (GPa) = 72.04044 33.00799 63.20689
#
# Poissons Ratio (x) = 0.39322 0.15176
# Poissons Ratio (y) = 0.85822 0.05169
# Poissons Ratio (z) = 0.17297 0.02700
#
# Static dielectric constant tensor:
#      x y z
#    x 1.858230 0.000000 -0.015650 
#    y 0.000000 1.788960 0.000000 
#    z -0.015650 0.000000 1.894100 
# 
# From -- ./inp_files/42512.got.cif
#   From: 2010.05.17/outbox.cif.g08.bks.cpg/sg11_22_cif.got.tgz:42512.got - 2010.06.03 12:22:45.
