data_PCOD9167046
_publ_section_title
;
Structure prediction by ZEFSAII (Michael W. Deem and Ramdas Pophale) SiO2 
 PCOD9167046
Probable space group: P 21/M
;
_chemical_formula_sum "Si O2"
_cell_formula_units_Z 22
_cell_length_a 10.467739
_cell_length_b 10.055240
_cell_length_c 10.067471
_cell_angle_alpha 90.000000
_cell_angle_beta 110.884732
_cell_angle_gamma 90.000000
_cell_volume 990.037926
_symmetry_space_group_name_H-M "P 21/M"
_symmetry_group_IT_number 11
_symmetry_cell_setting 'monoclinic'
loop_
_space_group_symop_operation_xyz
x,y,z
-x,1/2+y,-z
-x,-y,-z
x,1/2-y,z
loop_
_atom_site_type_symbol
_atom_site_label
_atom_site_fract_x
_atom_site_fract_y
_atom_site_fract_z
Si Si1 0.679783 0.750000 0.500489
Si Si2 0.024873 0.096398 0.716961
Si Si3 0.263907 0.750000 0.972625
Si Si4 0.617661 0.250000 0.726326
Si Si5 0.292448 0.250000 0.173721
Si Si6 0.391635 0.750000 0.733670
Si Si7 0.210119 0.976689 0.576265
Si Si8 0.174958 0.535856 0.127891
O O1 0.520919 0.750000 0.402858
O O2 0.697299 0.750000 0.663481
O O3 0.749004 0.618463 0.467972
O O4 0.067873 0.250000 0.746798
O O5 0.904407 0.087747 0.560897
O O6 0.957859 0.049235 0.830070
O O7 0.142830 0.007326 0.694928
O O8 0.399503 0.750000 0.118832
O O9 0.179923 0.624997 0.997617
O O10 0.308072 0.750000 0.839863
O O11 0.709165 0.382930 0.741674
O O12 0.447841 0.250000 0.180470
O O13 0.216720 0.386506 0.111214
O O14 0.339599 0.880217 0.637097
#
# Coordination Sequence:
#
# PCOD9167046 Si02
#       8
#     2   4   2   2   2   2   4   4
#     4  12  22  37  55 100 127 146 205 238 307 376
#     4  11  19  40  64  89 123 157 196 240 316 360
#     4   8  22  45  60  80 118 168 211 245 279 360
#     4   8  20  37  61  78 119 167 187 247 291 346
#     4  12  24  33  62  96 125 151 193 258 298 374
#     4  12  26  42  58  88 125 160 210 244 301 332
#     4  11  25  35  62  93 126 158 189 254 297 372
#     4   9  20  39  64  86 114 165 200 239 305 352
#
# _framework density 22.221371000000001
#
# number of rings (size 3 to 8) (size 9 to 14) (size 15 to 20)
#    1.091    0.364    5.455    1.091    2.545    2.909 
#    0.000    0.909    0.000    0.000    0.000    0.000 
#    0.000    0.000    0.000    0.000    0.000    0.000 
#
# Total GULP energy -122917.006965 kJ/mol
# GULP energy per Si atom -5587.136680 kJ/mol
# Density = 2.217079 g / cm^3
# Si number density = 22.221371 Si / 1000 Ang^3
#
#
#
# Elastic Constant Matrix: (Units=GPa)
#
#
# Indices 1 2 3 4 5 6 
#
# 1 66.5943 31.9278 9.5583 0.0000 -5.8857 0.0000
# 2 31.9278 163.6225 22.5581 0.0000 -1.5071 0.0000
# 3 9.5583 22.5581 70.0120 0.0000 -20.0250 0.0000
# 4 0.0000 0.0000 0.0000 15.0621 0.0000 -4.2509
# 5 -5.8857 -1.5071 -20.0250 0.0000 35.3986 0.0000
# 6 0.0000 0.0000 0.0000 -4.2509 0.0000 49.7381
#
#
#
# Elastic Compliance Matrix: (Units=1/GPa)
#
#
# Indices 1 2 3 4 5 6 
#
# 1 0.016833 -0.003179 -0.000611 0.000000 0.002318 0.000000
# 2 -0.003179 0.007030 -0.002263 0.000000 -0.001509 0.000000
# 3 -0.000611 -0.002263 0.017942 0.000000 0.009952 0.000000
# 4 0.000000 0.000000 0.000000 0.068033 0.000000 0.005814
# 5 0.002318 -0.001509 0.009952 0.000000 0.034201 0.000000
# 6 0.000000 0.000000 0.000000 0.005814 0.000000 0.020602
#
#
# Mechanical properties :
#
#
# Convention : Reuss Voigt Hill
#
# Bulk Modulus (GPa) = 33.67015 47.59078 40.63046
# Shear Modulus (GPa) = 26.78864 35.78541 31.28702
#
# Velocity S-wave (km/s) = 3.47585 4.01734 3.75636
# Velocity P-wave (km/s) = 5.59408 6.55605 6.09408
#
# Compressibility (1/GPa) = 0.02969990
#
# Stress axis : x y z
#
# Youngs Moduli (GPa) = 59.40713 142.24709 55.73444
#
# Poissons Ratio (x) = 0.45221 0.03404
# Poissons Ratio (y) = 0.18886 0.12611
# Poissons Ratio (z) = 0.03629 0.32187
#
# Static dielectric constant tensor:
#      x y z
#    x 1.790500 0.000000 0.017280 
#    y 0.000000 1.756840 0.000000 
#    z 0.017280 0.000000 1.860230 
# 
# From -- ./inp_files/46523.got.cif
#   From: 2010.05.17/outbox.cif.g08.bks.cpg/sg11_24_cif.got.tgz:46523.got - 2010.06.03 12:22:45.
