data_PCOD9167061
_publ_section_title
;
Structure prediction by ZEFSAII (Michael W. Deem and Ramdas Pophale) SiO2 
 PCOD9167061
Probable space group: P 21/M
;
_chemical_formula_sum "Si O2"
_cell_formula_units_Z 24
_cell_length_a 16.898712
_cell_length_b 8.784064
_cell_length_c 16.052122
_cell_angle_alpha 90.000000
_cell_angle_beta 35.042840
_cell_angle_gamma 90.000000
_cell_volume 1368.157926
_symmetry_space_group_name_H-M "P 21/M"
_symmetry_group_IT_number 11
_symmetry_cell_setting 'monoclinic'
loop_
_space_group_symop_operation_xyz
x,y,z
-x,1/2+y,-z
-x,-y,-z
x,1/2-y,z
loop_
_atom_site_type_symbol
_atom_site_label
_atom_site_fract_x
_atom_site_fract_y
_atom_site_fract_z
Si Si1 0.830563 0.430837 0.298782
Si Si2 0.951430 0.568862 0.454737
Si Si3 0.379918 0.064586 0.841274
Si Si4 0.098557 0.434149 0.167418
Si Si5 0.688300 0.067460 0.598821
Si Si6 0.633381 0.568121 0.339202
O O1 0.825049 0.250000 0.287195
O O2 0.736500 0.460285 0.461808
O O3 0.767007 0.517954 0.275899
O O4 0.984863 0.471498 0.194548
O O5 0.956810 0.750000 0.452921
O O6 0.047103 0.507180 0.297307
O O7 0.000000 0.500000 0.500000
O O8 0.797522 0.513850 0.563862
O O9 0.379990 0.250000 0.840902
O O10 0.530327 0.017677 0.743888
O O11 0.362487 0.016358 0.760283
O O12 0.249714 0.016841 0.008284
O O13 0.095068 0.250000 0.179813
O O14 0.698253 0.250000 0.603057
O O15 0.500000 0.500000 0.500000
O O16 0.621240 0.750000 0.350079
#
# Coordination Sequence:
#
# PCOD9167061 Si02
#       6
#     4   4   4   4   4   4
#     4   9  17  31  50  75 106 143 183 222 265 310
#     4  11  22  38  60  85 108 134 173 215 263 322
#     4   9  18  34  55  78 107 146 183 219 268 317
#     4   9  19  37  58  78 107 143 178 219 270 320
#     4   9  17  34  57  79 107 142 180 218 264 316
#     4  11  20  31  49  75 106 144 189 228 262 307
#
# _framework density 17.541834000000001
#
# number of rings (size 3 to 8) (size 9 to 14) (size 15 to 20)
#    0.000    2.333    1.667    3.000    0.000    3.333 
#    0.000    3.333    0.000    0.000    0.000    0.000 
#    0.000    0.000    0.000    0.000    0.000    0.000 
#
# Total GULP energy -133916.936404 kJ/mol
# GULP energy per Si atom -5579.872350 kJ/mol
# Density = 1.750191 g / cm^3
# Si number density = 17.541834 Si / 1000 Ang^3
#
#
#
# Elastic Constant Matrix: (Units=GPa)
#
#
# Indices 1 2 3 4 5 6 
#
# 1 154.7848 55.3290 86.2118 0.0000 -5.6736 0.0000
# 2 55.3290 48.3721 39.1144 0.0000 -3.2338 0.0000
# 3 86.2118 39.1144 136.5962 0.0000 -26.4969 0.0000
# 4 0.0000 0.0000 0.0000 17.8461 0.0000 -0.6234
# 5 -5.6736 -3.2338 -26.4969 0.0000 23.6798 0.0000
# 6 0.0000 0.0000 0.0000 -0.6234 0.0000 33.2586
#
#
#
# Elastic Compliance Matrix: (Units=1/GPa)
#
#
# Indices 1 2 3 4 5 6 
#
# 1 0.013884 -0.010772 -0.006793 0.000000 -0.005745 0.000000
# 2 -0.010772 0.036021 -0.003911 0.000000 -0.002038 0.000000
# 3 -0.006793 -0.003911 0.015721 0.000000 0.015430 0.000000
# 4 0.000000 0.000000 0.000000 0.056071 0.000000 0.001051
# 5 -0.005745 -0.002038 0.015430 0.000000 0.057840 0.000000
# 6 0.000000 0.000000 0.000000 0.001051 0.000000 0.030087
#
#
# Mechanical properties :
#
#
# Convention : Reuss Voigt Hill
#
# Bulk Modulus (GPa) = 44.10375 77.89595 60.99985
# Shear Modulus (GPa) = 19.22082 25.56342 22.39212
#
# Velocity S-wave (km/s) = 3.31375 3.82158 3.57669
# Velocity P-wave (km/s) = 6.31172 7.99843 7.20461
#
# Compressibility (1/GPa) = 0.02267381
#
# Stress axis : x y z
#
# Youngs Moduli (GPa) = 72.02574 27.76168 63.60935
#
# Poissons Ratio (x) = 0.29905 0.43207
# Poissons Ratio (y) = 0.77588 0.24879
# Poissons Ratio (z) = 0.48924 0.10858
#
# Static dielectric constant tensor:
#      x y z
#    x 1.583080 0.000000 -0.021910 
#    y 0.000000 1.586950 0.000000 
#    z -0.021910 0.000000 1.593560 
# 
# From -- ./inp_files/51490.got.cif
#   From: 2010.05.17/outbox.cif.g08.bks.cpg/sg11_26_cif.got.tgz:51490.got - 2010.06.03 12:22:45.
