data_PCOD9167458
_publ_section_title
;
Structure prediction by ZEFSAII (Michael W. Deem and Ramdas Pophale) SiO2 
 PCOD9167458
Probable space group: P 21/M
;
_chemical_formula_sum "Si O2"
_cell_formula_units_Z 28
_cell_length_a 11.452673
_cell_length_b 13.714944
_cell_length_c 9.080662
_cell_angle_alpha 90.000000
_cell_angle_beta 114.506485
_cell_angle_gamma 90.000000
_cell_volume 1297.833302
_symmetry_space_group_name_H-M "P 21/M"
_symmetry_group_IT_number 11
_symmetry_cell_setting 'monoclinic'
loop_
_space_group_symop_operation_xyz
x,y,z
-x,1/2+y,-z
-x,-y,-z
x,1/2-y,z
loop_
_atom_site_type_symbol
_atom_site_label
_atom_site_fract_x
_atom_site_fract_y
_atom_site_fract_z
Si Si1 0.451762 0.591929 0.068399
Si Si2 0.170137 0.636309 0.430186
Si Si3 0.712694 0.636845 0.595908
Si Si4 0.262638 0.356500 0.741468
Si Si5 0.045673 0.471861 0.184288
Si Si6 0.195394 0.924687 0.780530
Si Si7 0.571478 0.131922 0.614898
O O1 0.584760 0.650358 0.147644
O O2 0.414546 0.579610 0.220300
O O3 0.500000 0.500000 0.000000
O O4 0.321533 0.623614 0.918710
O O5 0.141192 0.750000 0.395884
O O6 0.069378 0.567029 0.296955
O O7 0.179254 0.609905 0.605722
O O8 0.308604 0.616009 0.428219
O O9 0.715529 0.750000 0.637611
O O10 0.750490 0.628873 0.442233
O O11 0.817492 0.581069 0.744299
O O12 0.564996 0.604014 0.527358
O O13 0.205266 0.250000 0.750159
O O14 0.215635 0.456956 0.790267
O O15 0.935177 0.406421 0.199973
O O16 0.000000 0.500000 0.000000
O O17 0.565317 0.250000 0.640991
#
# Coordination Sequence:
#
# PCOD9167458 Si02
#       7
#     4   4   4   4   4   4   4
#     4   9  18  35  62  95 127 161 205 259 323 384
#     4  11  25  43  65  96 132 173 218 272 329 385
#     4   9  19  39  67  93 118 161 215 266 323 379
#     4   9  18  37  65  93 123 161 209 264 320 381
#     4  12  26  44  63  91 130 173 223 267 320 396
#     4  11  23  42  62  95 132 168 216 260 325 397
#     4   9  19  40  67  95 127 165 214 269 326 385
#
# _framework density 21.574418999999999
#
# number of rings (size 3 to 8) (size 9 to 14) (size 15 to 20)
#    0.000    2.000    1.429    2.571    0.000    3.429 
#    7.714    0.000    0.000    0.000    0.000    1.000 
#    0.000    0.000    0.000    0.000    0.000    0.000 
#
# Total GULP energy -156391.033344 kJ/mol
# GULP energy per Si atom -5585.394048 kJ/mol
# Density = 2.152531 g / cm^3
# Si number density = 21.574419 Si / 1000 Ang^3
#
#
#
# Elastic Constant Matrix: (Units=GPa)
#
#
# Indices 1 2 3 4 5 6 
#
# 1 99.4144 2.1938 53.1715 0.0000 3.8211 0.0000
# 2 2.1938 46.2449 21.1811 0.0000 7.4512 0.0000
# 3 53.1715 21.1811 172.4952 0.0000 19.4083 0.0000
# 4 0.0000 0.0000 0.0000 -34.9455 0.0000 -11.5914
# 5 3.8211 7.4512 19.4083 0.0000 37.5303 0.0000
# 6 0.0000 0.0000 0.0000 -11.5914 0.0000 23.7335
#
#
#
# Elastic Compliance Matrix: (Units=1/GPa)
#
#
# Indices 1 2 3 4 5 6 
#
# 1 0.012119 0.001137 -0.003940 0.000000 0.000578 0.000000
# 2 0.001137 0.023407 -0.002855 0.000000 -0.003287 0.000000
# 3 -0.003940 -0.002855 0.007702 0.000000 -0.003015 0.000000
# 4 0.000000 0.000000 0.000000 -0.024626 0.000000 -0.012028
# 5 0.000578 -0.003287 -0.003015 0.000000 0.028798 0.000000
# 6 0.000000 0.000000 0.000000 -0.012028 0.000000 0.036260
#
#
# Mechanical properties :
#
#
# Convention : Reuss Voigt Hill
#
# Bulk Modulus (GPa) = 31.33712 52.36080 41.84896
# Shear Modulus (GPa) = 47.34239 21.37086 34.35663
#
# Velocity S-wave (km/s) = 4.68950 3.15074 3.99491
# Velocity P-wave (km/s) = 6.62409 6.12852 6.38112
#
# Compressibility (1/GPa) = 0.03191104
#
# Stress axis : x y z
#
# Youngs Moduli (GPa) = 82.51461 42.72183 129.84270
#
# Poissons Ratio (x) = -0.04856 0.51162
# Poissons Ratio (y) = -0.09379 0.37068
# Poissons Ratio (z) = 0.32513 0.12196
#
# Static dielectric constant tensor:
#      x y z
#    x 1.775020 0.000000 0.015270 
#    y 0.000000 1.831390 0.000000 
#    z 0.015270 0.000000 1.730220 
# 
# From -- ./inp_files/18132.got.cif
#   From: 2010.05.17/outbox.cif.g08.bks.cpg/sg11_10_cif.got.tgz:18132.got - 2010.06.03 12:22:45.
