data_PCOD9167959
_publ_section_title
;
Structure prediction by ZEFSAII (Michael W. Deem and Ramdas Pophale) SiO2 
 PCOD9167959
Probable space group: P 21/M
;
_chemical_formula_sum "Si O2"
_cell_formula_units_Z 32
_cell_length_a 21.000000
_cell_length_b 9.000000
_cell_length_c 12.000000
_cell_angle_alpha 90.000000
_cell_angle_beta 130.000000
_cell_angle_gamma 90.000000
_cell_volume 1737.388797
_symmetry_space_group_name_H-M "P 21/M"
_symmetry_group_IT_number 11
_symmetry_cell_setting 'monoclinic'
loop_
_space_group_symop_operation_xyz
x,y,z
-x,1/2+y,-z
-x,-y,-z
x,1/2-y,z
loop_
_atom_site_type_symbol
_atom_site_label
_atom_site_fract_x
_atom_site_fract_y
_atom_site_fract_z
Si Si1 0.680357 0.571038 0.864074
Si Si2 0.619969 0.429464 0.186962
Si Si3 0.211374 0.428548 0.215251
Si Si4 0.809620 0.430120 0.393142
Si Si5 0.457102 0.429301 0.122381
Si Si6 0.882269 0.071431 0.703424
Si Si7 0.832214 0.072574 0.169806
Si Si8 0.057817 0.927372 0.909392
O O1 0.684214 0.750000 0.872648
O O2 0.753591 0.505606 0.023530
O O3 0.707973 0.530175 0.768931
O O4 0.592630 0.525251 0.821521
O O5 0.618345 0.250000 0.173578
O O6 0.714801 0.476502 0.310862
O O7 0.553804 0.469344 0.209562
O O8 0.589152 0.500462 0.036398
O O9 0.208195 0.250000 0.223185
O O10 0.195895 0.509506 0.314597
O O11 0.131313 0.488902 0.057220
O O12 0.809536 0.250000 0.391734
O O13 0.867998 0.473888 0.559715
O O14 0.837715 0.479968 0.302831
O O15 0.451757 0.250000 0.109658
O O16 0.886689 0.250000 0.719389
O O17 0.968964 0.997320 0.836248
O O18 0.815781 0.250000 0.150264
O O19 0.914205 0.049517 0.187751
O O20 0.058976 0.750000 0.934251
#
# Coordination Sequence:
#
# PCOD9167959 Si02
#       8
#     4   4   4   4   4   4   4   4
#     4   9  17  29  47  73 101 124 151 195 243 281
#     4   9  16  28  47  70  99 131 157 185 226 280
#     4  10  20  35  53  71  94 124 160 201 243 282
#     4   9  18  32  49  69  97 132 163 191 228 280
#     4   9  16  26  45  75 102 123 153 191 233 278
#     4  11  22  35  50  68  93 127 166 202 236 279
#     4   9  17  31  50  71  96 126 158 190 231 286
#     4  10  20  34  53  75  96 119 154 201 246 286
#
# _framework density 18.418444999999998
#
# number of rings (size 3 to 8) (size 9 to 14) (size 15 to 20)
#    0.000    2.500    1.250    1.500    0.000    1.500 
#    0.000    2.500    0.000    0.750    0.000    0.000 
#    0.000    0.000    0.000    0.000    0.000    0.500 
#
# Total GULP energy -178254.494339 kJ/mol
# GULP energy per Si atom -5570.452948 kJ/mol
# Density = 1.837652 g / cm^3
# Si number density = 18.418445 Si / 1000 Ang^3
#
#
#
# Elastic Constant Matrix: (Units=GPa)
#
#
# Indices 1 2 3 4 5 6 
#
# 1 116.9375 14.1749 1.3162 0.0000 -13.8157 0.0000
# 2 14.1749 28.1913 -3.2989 0.0000 -1.9773 0.0000
# 3 1.3162 -3.2989 24.8139 0.0000 -9.9030 0.0000
# 4 0.0000 0.0000 0.0000 12.8222 0.0000 -3.6011
# 5 -13.8157 -1.9773 -9.9030 0.0000 24.2510 0.0000
# 6 0.0000 0.0000 0.0000 -3.6011 0.0000 24.4376
#
#
#
# Elastic Compliance Matrix: (Units=1/GPa)
#
#
# Indices 1 2 3 4 5 6 
#
# 1 0.009737 -0.004362 0.001165 0.000000 0.005667 0.000000
# 2 -0.004362 0.038694 0.006742 0.000000 0.003423 0.000000
# 3 0.001165 0.006742 0.049722 0.000000 0.021518 0.000000
# 4 0.000000 0.000000 0.000000 0.081357 0.000000 0.011989
# 5 0.005667 0.003423 0.021518 0.000000 0.053530 0.000000
# 6 0.000000 0.000000 0.000000 0.011989 0.000000 0.042687
#
#
# Mechanical properties :
#
#
# Convention : Reuss Voigt Hill
#
# Bulk Modulus (GPa) = 9.50179 21.59190 15.54684
# Shear Modulus (GPa) = 16.46266 22.81885 19.64076
#
# Velocity S-wave (km/s) = 2.99292 3.52364 3.26906
# Velocity P-wave (km/s) = 4.13684 5.32007 4.76532
#
# Compressibility (1/GPa) = 0.10524338
#
# Stress axis : x y z
#
# Youngs Moduli (GPa) = 102.70365 25.84374 20.11177
#
# Poissons Ratio (x) = 0.11273 -0.02344
# Poissons Ratio (y) = 0.44798 -0.13559
# Poissons Ratio (z) = -0.11969 -0.17423
#
# Static dielectric constant tensor:
#      x y z
#    x 1.694380 0.000000 -0.041050 
#    y 0.000000 1.607890 0.000000 
#    z -0.041050 0.000000 1.634610 
# 
# From -- ./inp_files/40620.got.cif
#   From: 2010.05.17/outbox.ucp.g08.bks.cvg/sg11_21_cif.got.tgz:40620.got - 2010.06.11 11:38:39.
