data_PCOD9167212
_publ_section_title
;
Structure prediction by ZEFSAII (Michael W. Deem and Ramdas Pophale) SiO2 
 PCOD9167212
Probable space group: P 21/M
;
_chemical_formula_sum "Si O2"
_cell_formula_units_Z 22
_cell_length_a 11.862620
_cell_length_b 14.523428
_cell_length_c 15.730012
_cell_angle_alpha 90.000000
_cell_angle_beta 26.208406
_cell_angle_gamma 90.000000
_cell_volume 1196.863819
_symmetry_space_group_name_H-M "P 21/M"
_symmetry_group_IT_number 11
_symmetry_cell_setting 'monoclinic'
loop_
_space_group_symop_operation_xyz
x,y,z
-x,1/2+y,-z
-x,-y,-z
x,1/2-y,z
loop_
_atom_site_type_symbol
_atom_site_label
_atom_site_fract_x
_atom_site_fract_y
_atom_site_fract_z
Si Si1 0.621140 0.579564 0.126049
Si Si2 0.410195 0.070528 0.388498
Si Si3 0.973601 0.141111 0.008394
Si Si4 0.354677 0.750000 0.215128
Si Si5 0.758271 0.750000 0.602177
Si Si6 0.012532 0.570410 0.188351
Si Si7 0.678368 0.250000 0.961722
O O1 0.433164 0.513432 0.306836
O O2 0.477788 0.659775 0.173792
O O3 0.788309 0.513542 0.952076
O O4 0.818817 0.621999 0.060412
O O5 0.700464 0.096998 0.216599
O O6 0.298962 0.159643 0.415243
O O7 0.232147 0.049404 0.588911
O O8 0.938512 0.250000 0.019849
O O9 0.053014 0.096714 0.864651
O O10 0.398253 0.750000 0.084537
O O11 0.050171 0.750000 0.433365
O O12 0.562623 0.750000 0.812690
O O13 0.155110 0.659623 0.130061
#
# Coordination Sequence:
#
# PCOD9167212 Si02
#       7
#     4   4   4   2   2   4   2
#     4  11  26  43  62  96 138 170 203 260 335 381
#     4  11  21  41  70  99 122 164 218 266 312 380
#     4  11  21  40  69  95 134 168 203 263 329 383
#     4  12  28  44  62  92 134 176 212 264 322 374
#     4  12  22  43  67  93 123 164 224 267 310 366
#     4  11  21  41  70  99 122 164 218 266 312 380
#     4  12  22  43  67  93 123 164 224 267 310 366
#
# _framework density 18.381373
#
# number of rings (size 3 to 8) (size 9 to 14) (size 15 to 20)
#    0.000    0.727    8.182    2.182    0.000    5.818 
#    0.000    0.000    0.000    0.000    0.000    0.000 
#    0.000    0.000    0.000    0.000    0.000    0.000 
#
# Total GULP energy -123001.667900 kJ/mol
# GULP energy per Si atom -5590.984905 kJ/mol
# Density = 1.833954 g / cm^3
# Si number density = 18.381373 Si / 1000 Ang^3
#
#
#
# Elastic Constant Matrix: (Units=GPa)
#
#
# Indices 1 2 3 4 5 6 
#
# 1 116.8883 35.4887 40.1925 0.0000 -2.1129 0.0000
# 2 35.4887 94.7498 31.9740 0.0000 -1.8900 0.0000
# 3 40.1925 31.9740 180.9395 0.0000 7.7003 0.0000
# 4 0.0000 0.0000 0.0000 5.5569 0.0000 -0.9529
# 5 -2.1129 -1.8900 7.7003 0.0000 44.6226 0.0000
# 6 0.0000 0.0000 0.0000 -0.9529 0.0000 9.9020
#
#
#
# Elastic Compliance Matrix: (Units=1/GPa)
#
#
# Indices 1 2 3 4 5 6 
#
# 1 0.010128 -0.003203 -0.001711 0.000000 0.000639 0.000000
# 2 -0.003203 0.012267 -0.001483 0.000000 0.000624 0.000000
# 3 -0.001711 -0.001483 0.006221 0.000000 -0.001217 0.000000
# 4 0.000000 0.000000 0.000000 0.182976 0.000000 0.017609
# 5 0.000639 0.000624 -0.001217 0.000000 0.022677 0.000000
# 6 0.000000 0.000000 0.000000 0.017609 0.000000 0.102685
#
#
# Mechanical properties :
#
#
# Convention : Reuss Voigt Hill
#
# Bulk Modulus (GPa) = 63.20566 67.54311 65.37438
# Shear Modulus (GPa) = 14.08373 31.01112 22.54743
#
# Velocity S-wave (km/s) = 2.77103 4.11188 3.50615
# Velocity P-wave (km/s) = 6.68569 7.70510 7.21343
#
# Compressibility (1/GPa) = 0.01582137
#
# Stress axis : x y z
#
# Youngs Moduli (GPa) = 98.74081 81.52184 160.75778
#
# Poissons Ratio (x) = 0.26113 0.27503
# Poissons Ratio (y) = 0.31629 0.23835
# Poissons Ratio (z) = 0.16893 0.12087
#
# Static dielectric constant tensor:
#      x y z
#    x 1.612000 0.000000 0.001920 
#    y 0.000000 1.633060 0.000000 
#    z 0.001920 0.000000 1.619740 
# 
# From -- ./inp_files/50205.got.cif
#   From: 2010.05.17/outbox.cif.g08.bks.cpg/sg11_26_cif.got.tgz:50205.got - 2010.06.03 12:22:45.
