data_PCOD9167459
_publ_section_title
;
Structure prediction by ZEFSAII (Michael W. Deem and Ramdas Pophale) SiO2 
 PCOD9167459
Probable space group: P 21/M
;
_chemical_formula_sum "Si O2"
_cell_formula_units_Z 32
_cell_length_a 20.225708
_cell_length_b 14.998559
_cell_length_c 13.434087
_cell_angle_alpha 90.000000
_cell_angle_beta 157.105756
_cell_angle_gamma 90.000000
_cell_volume 1585.426404
_symmetry_space_group_name_H-M "P 21/M"
_symmetry_group_IT_number 11
_symmetry_cell_setting 'monoclinic'
loop_
_space_group_symop_operation_xyz
x,y,z
-x,1/2+y,-z
-x,-y,-z
x,1/2-y,z
loop_
_atom_site_type_symbol
_atom_site_label
_atom_site_fract_x
_atom_site_fract_y
_atom_site_fract_z
Si Si1 0.274350 0.014985 0.419403
Si Si2 0.728102 0.599123 0.250752
Si Si3 0.897972 0.352021 0.176722
Si Si4 0.552708 0.851603 0.201771
Si Si5 0.118995 0.353270 0.834961
Si Si6 0.075890 0.001904 0.944537
Si Si7 0.472380 0.349607 0.216572
Si Si8 0.186533 0.908007 0.725188
O O1 0.383369 0.097863 0.611148
O O2 0.107954 0.008075 0.258818
O O3 0.387978 0.926247 0.584160
O O4 0.207691 0.023880 0.214747
O O5 0.623405 0.591676 0.207268
O O6 0.781741 0.506213 0.274246
O O7 0.901303 0.647994 0.520302
O O8 0.611250 0.648139 0.008863
O O9 0.837426 0.250000 0.084876
O O10 0.818820 0.401390 0.162984
O O11 0.876584 0.411520 0.048725
O O12 0.615021 0.750000 0.282469
O O13 0.349616 0.852678 0.917003
O O14 0.101602 0.250000 0.840021
O O15 0.072219 0.420276 0.857920
O O16 0.988430 0.371764 0.563371
O O17 0.312116 0.367823 0.066656
O O18 0.538793 0.250000 0.329066
#
# Coordination Sequence:
#
# PCOD9167459 Si02
#       8
#     4   4   4   4   4   4   4   4
#     4  11  26  46  65  91 128 172 225 270 320 379
#     4  12  22  39  66  95 133 172 208 263 331 394
#     4  12  23  41  67  99 133 169 214 266 326 391
#     4  12  25  41  64  99 135 170 215 268 327 390
#     4  11  23  42  66  97 132 167 212 266 328 393
#     4  11  26  45  67  92 123 176 225 269 320 380
#     4  11  24  42  66  97 131 167 210 266 328 390
#     4  12  23  41  66 100 135 169 209 265 330 395
#
# _framework density 20.183845000000002
#
# number of rings (size 3 to 8) (size 9 to 14) (size 15 to 20)
#    0.000    0.500    5.000    3.750    1.750    2.000 
#    0.000    2.500    0.000    0.000    0.000    0.000 
#    0.000    0.000    0.000    0.000    0.000    0.000 
#
# Total GULP energy -178983.370892 kJ/mol
# GULP energy per Si atom -5593.230340 kJ/mol
# Density = 2.013791 g / cm^3
# Si number density = 20.183845 Si / 1000 Ang^3
#
#
#
# Elastic Constant Matrix: (Units=GPa)
#
#
# Indices 1 2 3 4 5 6 
#
# 1 103.4813 34.9742 22.0467 0.0000 -11.8669 0.0000
# 2 34.9742 136.9591 20.8277 0.0000 -7.9180 0.0000
# 3 22.0467 20.8277 29.1550 0.0000 -3.0311 0.0000
# 4 0.0000 0.0000 0.0000 2.8626 0.0000 13.0957
# 5 -11.8669 -7.9180 -3.0311 0.0000 29.6185 0.0000
# 6 0.0000 0.0000 0.0000 13.0957 0.0000 13.1767
#
#
#
# Elastic Compliance Matrix: (Units=1/GPa)
#
#
# Indices 1 2 3 4 5 6 
#
# 1 0.012316 -0.001766 -0.007669 0.000000 0.003678 0.000000
# 2 -0.001766 0.008521 -0.004638 0.000000 0.001096 0.000000
# 3 -0.007669 -0.004638 0.043426 0.000000 0.000131 0.000000
# 4 0.000000 0.000000 0.000000 -0.098497 0.000000 0.097891
# 5 0.003678 0.001096 0.000131 0.000000 0.035542 0.000000
# 6 0.000000 0.000000 0.000000 0.097891 0.000000 -0.021398
#
#
# Mechanical properties :
#
#
# Convention : Reuss Voigt Hill
#
# Bulk Modulus (GPa) = 27.68830 47.25473 37.47152
# Shear Modulus (GPa) = 248.80744 21.91468 135.36106
#
# Velocity S-wave (km/s) = 11.11477 3.29865 8.19815
# Velocity P-wave (km/s) = 13.35910 6.16207 10.40280
#
# Compressibility (1/GPa) = 0.03611634
#
# Stress axis : x y z
#
# Youngs Moduli (GPa) = 81.19394 117.35584 23.02788
#
# Poissons Ratio (x) = 0.20727 0.17661
# Poissons Ratio (y) = 0.14340 0.10680
# Poissons Ratio (z) = 0.62270 0.54427
#
# Static dielectric constant tensor:
#      x y z
#    x 1.717890 0.000000 0.016800 
#    y 0.000000 1.737240 0.000000 
#    z 0.016800 0.000000 1.688510 
# 
# From -- ./inp_files/41717.got.cif
#   From: 2010.05.17/outbox.cif.g08.bks.cpg/sg11_21_cif.got.tgz:41717.got - 2010.06.03 12:22:45.
